data_PCOD8090154
_publ_section_title
;
Structure prediction by ZEFSAII (Michael W. Deem and Ramdas Pophale) SiO2 
 PCOD8090154
Probable space group: C 2/M
;
_chemical_formula_sum "Si O2"
_cell_formula_units_Z 40
_cell_length_a 15.423958
_cell_length_b 8.931910
_cell_length_c 27.671591
_cell_angle_alpha 90.000000
_cell_angle_beta 148.078619
_cell_angle_gamma 90.000000
_cell_volume 2015.713841
_symmetry_space_group_name_H-M "C 2/M"
_symmetry_group_IT_number 12
_symmetry_cell_setting 'monoclinic'
loop_
_space_group_symop_operation_xyz
x,y,z
-x,y,-z
-x,-y,-z
x,-y,z
1/2+x,1/2+y,z
1/2-x,1/2+y,-z
1/2-x,1/2-y,-z
1/2+x,1/2-y,z
loop_
_atom_site_type_symbol
_atom_site_label
_atom_site_fract_x
_atom_site_fract_y
_atom_site_fract_z
Si Si1 0.268142 0.329459 0.582216
Si Si2 0.347078 0.178074 0.896538
Si Si3 0.005913 0.824444 0.775289
Si Si4 0.675736 0.325132 0.216571
Si Si5 0.500964 0.330113 0.400664
O O1 0.210223 0.500000 0.562941
O O2 0.359577 0.260299 0.672374
O O3 0.396040 0.319560 0.599293
O O4 0.107933 0.230146 0.496145
O O5 0.365901 0.236260 0.851302
O O6 0.181843 0.243471 0.843122
O O7 0.344453 0.000000 0.893301
O O8 0.500000 0.237293 0.000000
O O9 0.970228 0.789907 0.814455
O O10 0.011435 0.000000 0.767433
O O11 0.687923 0.500000 0.210621
O O12 0.843576 0.273595 0.320471
O O13 0.446826 0.500000 0.385595
#
# Coordination Sequence:
#
# PCOD8090154 Si02
#       5
#     8   8   8   8   8
#     4   9  17  33  56  78 110 153 194 227 271 333
#     4  10  21  41  65  84 109 147 188 232 286 340
#     4   9  19  37  58  83 114 152 188 225 279 344
#     4  11  22  36  58  85 116 149 188 231 279 336
#     4  10  19  33  55  82 115 150 192 233 274 327
#
# _framework density 19.844087999999999
#
# number of rings (size 3 to 8) (size 9 to 14) (size 15 to 20)
#    0.000    2.200    2.000    1.200    0.000    2.800 
#    0.000    8.000    0.000    0.000    0.000    0.000 
#    0.000    0.000    0.000    0.000    0.000    0.000 
#
# Total GULP energy -248009.578847 kJ/mol
# GULP energy per Si atom -12400.478942 kJ/mol
# Density = 1.979892 g / cm^3
# Si number density = 19.844088 Si / 1000 Ang^3
#
#
#
# Elastic Constant Matrix: (Units=GPa)
#
#
# Indices 1 2 3 4 5 6 
#
# 1 96.3398 14.2345 61.6526 0.0000 -9.5512 0.0000
# 2 14.2345 26.5207 15.1457 0.0000 2.9789 0.0000
# 3 61.6526 15.1457 139.9513 0.0000 -12.9844 0.0000
# 4 0.0000 0.0000 0.0000 24.5808 0.0000 -5.2464
# 5 -9.5512 2.9789 -12.9844 0.0000 9.3391 0.0000
# 6 0.0000 0.0000 0.0000 -5.2464 0.0000 26.1960
#
#
#
# Elastic Compliance Matrix: (Units=1/GPa)
#
#
# Indices 1 2 3 4 5 6 
#
# 1 0.015808 -0.006758 -0.005204 0.000000 0.011088 0.000000
# 2 -0.006758 0.047297 -0.004802 0.000000 -0.028674 0.000000
# 3 -0.005204 -0.004802 0.011028 0.000000 0.011543 0.000000
# 4 0.000000 0.000000 0.000000 0.042499 0.000000 0.008512
# 5 0.011088 -0.028674 0.011543 0.000000 0.143611 0.000000
# 6 0.000000 0.000000 0.000000 0.008512 0.000000 0.039878
#
#
# Mechanical properties :
#
#
# Convention : Reuss Voigt Hill
#
# Bulk Modulus (GPa) = 24.62708 49.43083 37.02896
# Shear Modulus (GPa) = 14.40162 23.47510 18.93836
#
# Velocity S-wave (km/s) = 2.69688 3.44317 3.09262
# Velocity P-wave (km/s) = 4.70476 6.38521 5.60828
#
# Compressibility (1/GPa) = 0.04060570
#
# Stress axis : x y z
#
# Youngs Moduli (GPa) = 63.25972 21.14310 90.67600
#
# Poissons Ratio (x) = 0.14289 0.47186
# Poissons Ratio (y) = 0.42752 0.43539
# Poissons Ratio (z) = 0.32919 0.10152
#
# Static dielectric constant tensor:
#      x y z
#    x 3.623030 0.000000 0.016220 
#    y 0.000000 3.421600 0.000000 
#    z 0.016220 0.000000 3.783440 
# 
# 
# High freq. dielectric constant tensor:
#      x y z
#    x 1.775620 0.000000 -0.002760 
#    y 0.000000 1.749710 0.000000 
#    z -0.002760 0.000000 1.776330 
# 
# From -- ./inp_files/211168.got.cif
#   From: 2010.06.25/outbox.cif.g09.slc.cpg/sg12_106_cif.got.tgz:211168.got - 2010.06.28 00:19:55.
