data_PCOD8090691
_publ_section_title
;
Structure prediction by ZEFSAII (Michael W. Deem and Ramdas Pophale) SiO2 
 PCOD8090691
Probable space group: C 2/M
;
_chemical_formula_sum "Si O2"
_cell_formula_units_Z 44
_cell_length_a 23.620028
_cell_length_b 14.824924
_cell_length_c 18.425683
_cell_angle_alpha 90.000000
_cell_angle_beta 20.007595
_cell_angle_gamma 90.000000
_cell_volume 2207.528406
_symmetry_space_group_name_H-M "C 2/M"
_symmetry_group_IT_number 12
_symmetry_cell_setting 'monoclinic'
loop_
_space_group_symop_operation_xyz
x,y,z
-x,y,-z
-x,-y,-z
x,-y,z
1/2+x,1/2+y,z
1/2-x,1/2+y,-z
1/2-x,1/2-y,-z
1/2+x,1/2-y,z
loop_
_atom_site_type_symbol
_atom_site_label
_atom_site_fract_x
_atom_site_fract_y
_atom_site_fract_z
Si Si1 0.406906 0.237695 0.958938
Si Si2 0.035640 0.604054 0.686201
Si Si3 0.622816 0.401487 0.662857
Si Si4 0.889687 0.746826 0.769335
Si Si5 0.000000 0.675338 0.000000
Si Si6 0.837928 0.900167 0.546654
O O1 0.456109 0.149059 0.853816
O O2 0.485328 0.325823 0.828654
O O3 0.207830 0.252648 0.190487
O O4 0.471070 0.236338 0.963872
O O5 0.978161 0.500000 0.752509
O O6 0.233922 0.613534 0.450692
O O7 0.987660 0.654347 0.668816
O O8 0.539484 0.500000 0.774797
O O9 0.711253 0.396665 0.478337
O O10 0.015803 0.830141 0.613379
O O11 0.750000 0.750000 0.000000
O O12 0.833264 0.616876 0.205010
O O13 0.902037 0.000000 0.491620
#
# Coordination Sequence:
#
# PCOD8090691 Si02
#       6
#     8   8   8   8   4   8
#     4  11  22  39  57  92 122 164 205 250 307 372
#     4  10  19  33  58  89 118 150 202 260 303 350
#     4  10  19  36  64  89 117 158 213 264 295 346
#     4  10  21  37  59  87 123 156 209 258 306 355
#     4  12  25  38  63  86 134 174 199 242 305 382
#     4  11  22  39  62  93 127 165 205 251 308 369
#
# _framework density 19.931794
#
# number of rings (size 3 to 8) (size 9 to 14) (size 15 to 20)
#    0.000    1.455    5.455    1.909    0.000    5.091 
#    0.000    1.364    0.000    1.091    0.000    5.091 
#    0.000    0.000    0.000    0.000    0.000    0.000 
#
# Total GULP energy -272623.248790 kJ/mol
# GULP energy per Si atom -12391.965854 kJ/mol
# Density = 1.988643 g / cm^3
# Si number density = 19.931794 Si / 1000 Ang^3
#
#
#
# Elastic Constant Matrix: (Units=GPa)
#
#
# Indices 1 2 3 4 5 6 
#
# 1 90.2647 40.3877 22.8818 0.0072 -19.8484 -0.0052
# 2 40.3877 157.1437 60.2910 0.0069 -17.1671 -0.0053
# 3 22.8818 60.2910 98.5994 0.0065 -19.6141 -0.0070
# 4 0.0072 0.0069 0.0065 4.6876 -0.0069 4.6186
# 5 -19.8484 -17.1671 -19.6141 -0.0069 30.7317 0.0057
# 6 -0.0052 -0.0053 -0.0070 4.6186 0.0057 9.0776
#
#
#
# Elastic Compliance Matrix: (Units=1/GPa)
#
#
# Indices 1 2 3 4 5 6 
#
# 1 0.013962 -0.002744 -0.000084 -0.000016 0.007431 0.000010
# 2 -0.002744 0.008923 -0.004788 -0.000004 0.000156 0.000002
# 3 -0.000084 -0.004788 0.014371 -0.000015 0.006443 0.000012
# 4 -0.000016 -0.000004 -0.000015 0.427779 0.000115 -0.217652
# 5 0.007431 0.000156 0.006443 0.000115 0.041539 -0.000075
# 6 0.000010 0.000002 0.000012 -0.217652 -0.000075 0.220902
#
#
# Mechanical properties :
#
#
# Convention : Reuss Voigt Hill
#
# Bulk Modulus (GPa) = 45.40705 65.90318 55.65512
# Shear Modulus (GPa) = 6.66623 23.72920 15.19771
#
# Velocity S-wave (km/s) = 1.83079 3.45413 2.76431
# Velocity P-wave (km/s) = 5.22491 7.00316 6.17835
#
# Compressibility (1/GPa) = 0.02202301
#
# Stress axis : x y z
#
# Youngs Moduli (GPa) = 71.62468 112.06848 69.58363
#
# Poissons Ratio (x) = 0.30756 0.00583
# Poissons Ratio (y) = 0.19657 0.33319
# Poissons Ratio (z) = 0.00600 0.53662
#
# Static dielectric constant tensor:
#      x y z
#    x 3.911440 0.000000 -0.348180 
#    y 0.000000 3.746640 0.000000 
#    z -0.348180 0.000000 3.446670 
# 
# 
# High freq. dielectric constant tensor:
#      x y z
#    x 1.770940 0.000000 -0.031340 
#    y 0.000000 1.781370 0.000000 
#    z -0.031340 0.000000 1.756690 
# 
# From -- ./inp_files/73129.got.cif
#   From: 2010.06.25/outbox.cif.g09.slc.cpg/sg12_37_cif.got.tgz:73129.got - 2010.06.28 00:19:55.
