data_PCOD8090984
_publ_section_title
;
Structure prediction by ZEFSAII (Michael W. Deem and Ramdas Pophale) SiO2 
 PCOD8090984
Probable space group: C 2/M
;
_chemical_formula_sum "Si O2"
_cell_formula_units_Z 64
_cell_length_a 10.646150
_cell_length_b 17.602438
_cell_length_c 22.043915
_cell_angle_alpha 90.000000
_cell_angle_beta 62.483481
_cell_angle_gamma 90.000000
_cell_volume 3663.682684
_symmetry_space_group_name_H-M "C 2/M"
_symmetry_group_IT_number 12
_symmetry_cell_setting 'monoclinic'
loop_
_space_group_symop_operation_xyz
x,y,z
-x,y,-z
-x,-y,-z
x,-y,z
1/2+x,1/2+y,z
1/2-x,1/2+y,-z
1/2-x,1/2-y,-z
1/2+x,1/2-y,z
loop_
_atom_site_type_symbol
_atom_site_label
_atom_site_fract_x
_atom_site_fract_y
_atom_site_fract_z
Si Si1 0.209778 0.081470 0.306867
Si Si2 0.116229 0.770756 0.643780
Si Si3 0.639014 0.685446 0.005800
Si Si4 0.042131 0.154112 0.844735
Si Si5 0.448391 0.418758 0.282242
Si Si6 0.218185 0.409034 0.128110
Si Si7 0.586380 0.694375 0.420171
Si Si8 0.951137 0.690258 0.221387
O O1 0.091577 0.066694 0.284723
O O2 0.141859 0.113503 0.383961
O O3 0.309246 0.142133 0.252870
O O4 0.283702 0.000000 0.305535
O O5 0.274857 0.743515 0.594862
O O6 0.143995 0.856213 0.661915
O O7 0.016235 0.766217 0.606854
O O8 0.030806 0.723566 0.714463
O O9 0.716979 0.620563 0.949610
O O10 0.500000 0.717581 0.000000
O O11 0.750000 0.750000 0.000000
O O12 0.585895 0.645940 0.079194
O O13 0.183118 0.115837 0.838763
O O14 0.001645 0.107655 0.794797
O O15 0.066411 0.243019 0.823998
O O16 0.365439 0.500000 0.297483
O O17 0.198441 0.500000 0.129643
O O18 0.072097 0.367164 0.174120
O O19 0.500000 0.679999 0.500000
#
# Coordination Sequence:
#
# PCOD8090984 Si02
#       8
#     8   8   8   8   8   8   8   8
#     4   9  19  34  52  79 108 137 173 221 270 319
#     4   9  20  32  53  79 104 136 180 219 264 317
#     4  10  21  38  56  80 110 149 190 231 275 338
#     4  10  21  33  56  79 106 142 188 221 273 330
#     4   9  18  32  52  76 105 136 174 223 272 318
#     4  11  23  36  56  84 112 144 183 235 285 326
#     4  10  19  34  54  77 105 139 175 217 263 321
#     4  10  20  33  57  76 111 141 181 222 275 330
#
# _framework density 17.468762000000002
#
# number of rings (size 3 to 8) (size 9 to 14) (size 15 to 20)
#    0.000    2.250    1.250    1.125    8.750    3.000 
#    0.000    0.000    0.000    0.750    0.000    0.000 
#    0.000    0.000    0.000    0.000    0.000    0.000 
#
# Total GULP energy -396542.072464 kJ/mol
# GULP energy per Si atom -12391.939764 kJ/mol
# Density = 1.742900 g / cm^3
# Si number density = 17.468762 Si / 1000 Ang^3
#
#
#
# Elastic Constant Matrix: (Units=GPa)
#
#
# Indices 1 2 3 4 5 6 
#
# 1 51.1053 40.0938 30.1076 0.0000 -9.8804 0.0001
# 2 40.0938 144.8835 50.0632 0.0000 -6.4766 0.0000
# 3 30.1076 50.0632 116.8083 0.0000 -7.0998 0.0000
# 4 0.0000 0.0000 0.0000 14.2612 0.0000 4.2842
# 5 -9.8804 -6.4766 -7.0998 0.0000 21.0912 -0.0001
# 6 0.0001 0.0000 0.0000 4.2842 -0.0001 47.4076
#
#
#
# Elastic Compliance Matrix: (Units=1/GPa)
#
#
# Indices 1 2 3 4 5 6 
#
# 1 0.028762 -0.006052 -0.004199 0.000000 0.010202 0.000000
# 2 -0.006052 0.009413 -0.002523 0.000000 -0.000794 0.000000
# 3 -0.004199 -0.002523 0.010779 0.000000 0.000886 0.000000
# 4 0.000000 0.000000 0.000000 0.072077 0.000000 -0.006514
# 5 0.010202 -0.000794 0.000886 0.000000 0.052247 0.000000
# 6 0.000000 0.000000 0.000000 -0.006514 0.000000 0.021682
#
#
# Mechanical properties :
#
#
# Convention : Reuss Voigt Hill
#
# Bulk Modulus (GPa) = 42.72604 61.48072 52.10338
# Shear Modulus (GPa) = 21.90004 29.38751 25.64377
#
# Velocity S-wave (km/s) = 3.54456 4.10602 3.83558
# Velocity P-wave (km/s) = 6.42367 7.59936 7.03611
#
# Compressibility (1/GPa) = 0.02340493
#
# Stress axis : x y z
#
# Youngs Moduli (GPa) = 34.76815 106.23445 92.77696
#
# Poissons Ratio (x) = 0.64295 0.38961
# Poissons Ratio (y) = 0.21042 0.23405
# Poissons Ratio (z) = 0.14601 0.26800
#
# Static dielectric constant tensor:
#      x y z
#    x 3.294850 0.000000 0.024540 
#    y 0.000000 3.668460 0.000000 
#    z 0.024540 0.000000 3.298810 
# 
# 
# High freq. dielectric constant tensor:
#      x y z
#    x 1.667710 0.000000 0.003600 
#    y 0.000000 1.679470 0.000000 
#    z 0.003600 0.000000 1.678840 
# 
# From -- ./inp_files/263891.got.cif
#   From: 2010.06.25/outbox.cif.g09.slc.cpg/sg12_132_cif.got.tgz:263891.got - 2010.06.28 00:19:55.
