data_PCOD8090136
_publ_section_title
;
Structure prediction by ZEFSAII (Michael W. Deem and Ramdas Pophale) SiO2 
 PCOD8090136
Probable space group: C 2/M
;
_chemical_formula_sum "Si O2"
_cell_formula_units_Z 56
_cell_length_a 25.755696
_cell_length_b 13.824660
_cell_length_c 12.151231
_cell_angle_alpha 90.000000
_cell_angle_beta 138.760446
_cell_angle_gamma 90.000000
_cell_volume 2852.140906
_symmetry_space_group_name_H-M "C 2/M"
_symmetry_group_IT_number 12
_symmetry_cell_setting 'monoclinic'
loop_
_space_group_symop_operation_xyz
x,y,z
-x,y,-z
-x,-y,-z
x,-y,z
1/2+x,1/2+y,z
1/2-x,1/2+y,-z
1/2-x,1/2-y,-z
1/2+x,1/2-y,z
loop_
_atom_site_type_symbol
_atom_site_label
_atom_site_fract_x
_atom_site_fract_y
_atom_site_fract_z
Si Si1 0.414025 0.820740 0.890949
Si Si2 0.959763 0.391335 0.192608
Si Si3 0.264403 0.265815 0.743879
Si Si4 0.771578 0.608015 0.129336
Si Si5 0.864985 0.608939 0.582392
Si Si6 0.690408 0.611344 0.774078
Si Si7 0.414881 0.775105 0.318809
O O1 0.346608 0.742216 0.810102
O O2 0.380495 0.883299 0.737379
O O3 0.500000 0.772448 0.000000
O O4 0.426177 0.889515 0.015493
O O5 0.942494 0.500000 0.210996
O O6 0.915429 0.307999 0.191825
O O7 0.052677 0.368754 0.346868
O O8 0.286617 0.329672 0.886834
O O9 0.201394 0.316790 0.563513
O O10 0.227158 0.162721 0.724863
O O11 0.768398 0.500000 0.167613
O O12 0.857139 0.652452 0.291683
O O13 0.754464 0.617138 0.973172
O O14 0.836394 0.500000 0.511933
O O15 0.668712 0.500000 0.711235
O O16 0.613276 0.665291 0.701438
O O17 0.500000 0.793038 0.500000
#
# Coordination Sequence:
#
# PCOD8090136 Si02
#       7
#     8   8   8   8   8   8   8
#     4  10  21  36  55  79 107 140 179 222 269 320
#     4  10  19  33  55  82 112 143 174 217 271 319
#     4  11  20  35  56  80 109 141 177 220 271 319
#     4  10  20  35  56  81 109 142 179 218 263 319
#     4  10  21  36  55  81 109 138 178 226 273 317
#     4  10  22  38  55  78 109 147 186 215 251 316
#     4  11  21  33  53  83 116 143 175 218 265 315
#
# _framework density 19.634371999999999
#
# number of rings (size 3 to 8) (size 9 to 14) (size 15 to 20)
#    0.000    1.714    0.000    6.857    0.000    6.571 
#    0.000    0.000    0.000    1.714    0.000    8.000 
#    0.000    0.000    0.000    0.000    0.000    0.000 
#
# Total GULP energy -347014.596197 kJ/mol
# GULP energy per Si atom -12393.378436 kJ/mol
# Density = 1.958968 g / cm^3
# Si number density = 19.634372 Si / 1000 Ang^3
#
#
#
# Elastic Constant Matrix: (Units=GPa)
#
#
# Indices 1 2 3 4 5 6 
#
# 1 107.5493 54.0932 25.7201 0.0000 9.1449 0.0000
# 2 54.0932 107.5711 20.3897 0.0000 3.5499 0.0000
# 3 25.7201 20.3897 72.1727 0.0000 3.9120 0.0000
# 4 0.0000 0.0000 0.0000 27.0328 0.0000 -0.6298
# 5 9.1449 3.5499 3.9120 0.0000 30.5549 0.0000
# 6 0.0000 0.0000 0.0000 -0.6298 0.0000 23.0775
#
#
#
# Elastic Compliance Matrix: (Units=1/GPa)
#
#
# Indices 1 2 3 4 5 6 
#
# 1 0.013263 -0.006031 -0.002866 0.000000 -0.002902 0.000000
# 2 -0.006031 0.012583 -0.001434 0.000000 0.000527 0.000000
# 3 -0.002866 -0.001434 0.015333 0.000000 -0.000939 0.000000
# 4 0.000000 0.000000 0.000000 0.037016 0.000000 0.001010
# 5 -0.002902 0.000527 -0.000939 0.000000 0.033656 0.000000
# 6 0.000000 0.000000 0.000000 0.001010 0.000000 0.043360
#
#
# Mechanical properties :
#
#
# Convention : Reuss Voigt Hill
#
# Bulk Modulus (GPa) = 48.73684 54.18879 51.46282
# Shear Modulus (GPa) = 27.36562 28.60573 27.98567
#
# Velocity S-wave (km/s) = 3.73736 3.82110 3.77946
# Velocity P-wave (km/s) = 6.59545 6.86488 6.73151
#
# Compressibility (1/GPa) = 0.02051836
#
# Stress axis : x y z
#
# Youngs Moduli (GPa) = 75.39601 79.47076 65.21898
#
# Poissons Ratio (x) = 0.47926 0.18689
# Poissons Ratio (y) = 0.45469 0.09355
# Poissons Ratio (z) = 0.21605 0.11399
#
# Static dielectric constant tensor:
#      x y z
#    x 3.849610 0.000000 -0.032310 
#    y 0.000000 3.541270 0.000000 
#    z -0.032310 0.000000 3.527990 
# 
# 
# High freq. dielectric constant tensor:
#      x y z
#    x 1.768370 0.000000 -0.004630 
#    y 0.000000 1.746640 0.000000 
#    z -0.004630 0.000000 1.767480 
# 
# From -- ./inp_files/156144.got.cif
#   From: 2010.06.25/outbox.cif.g09.slc.cpg/sg12_79_cif.got.tgz:156144.got - 2010.06.28 00:19:55.
