data_PCOD8090196
_publ_section_title
;
Structure prediction by ZEFSAII (Michael W. Deem and Ramdas Pophale) SiO2 
 PCOD8090196
Probable space group: C 2/M
;
_chemical_formula_sum "Si O2"
_cell_formula_units_Z 64
_cell_length_a 15.318312
_cell_length_b 8.959703
_cell_length_c 32.902576
_cell_angle_alpha 90.000000
_cell_angle_beta 133.663286
_cell_angle_gamma 90.000000
_cell_volume 3266.771470
_symmetry_space_group_name_H-M "C 2/M"
_symmetry_group_IT_number 12
_symmetry_cell_setting 'monoclinic'
loop_
_space_group_symop_operation_xyz
x,y,z
-x,y,-z
-x,-y,-z
x,-y,z
1/2+x,1/2+y,z
1/2-x,1/2+y,-z
1/2-x,1/2-y,-z
1/2+x,1/2-y,z
loop_
_atom_site_type_symbol
_atom_site_label
_atom_site_fract_x
_atom_site_fract_y
_atom_site_fract_z
Si Si1 0.346944 0.676833 0.001888
Si Si2 0.189518 0.826363 0.391269
Si Si3 0.272333 0.323737 0.687086
Si Si4 0.096286 0.824433 0.497797
Si Si5 0.743456 0.329531 0.892998
Si Si6 0.967703 0.824840 0.814739
Si Si7 0.069777 0.328218 0.113116
Si Si8 0.472643 0.327089 0.375902
O O1 0.343499 0.500000 0.005550
O O2 0.477771 0.735523 0.056020
O O3 0.250000 0.750000 0.000000
O O4 0.318152 0.722259 0.946648
O O5 0.207975 0.758933 0.352059
O O6 0.275985 0.749581 0.451727
O O7 0.051487 0.798901 0.360783
O O8 0.220589 0.000000 0.401809
O O9 0.262757 0.500000 0.682297
O O10 0.385397 0.273806 0.750671
O O11 0.151234 0.261603 0.668337
O O12 0.000000 0.770332 0.500000
O O13 0.048915 0.769139 0.439018
O O14 0.115685 0.000000 0.505117
O O15 0.755360 0.500000 0.912467
O O16 0.604197 0.280139 0.847344
O O17 0.798748 0.314025 0.865606
O O18 0.921918 0.736763 0.839240
O O19 0.955915 0.000000 0.819888
O O20 0.027458 0.500000 0.101614
O O21 0.440282 0.500000 0.371402
#
# Coordination Sequence:
#
# PCOD8090196 Si02
#       8
#     8   8   8   8   8   8   8   8
#     4  12  23  37  61  91 124 158 193 238 292 347
#     4  10  21  36  57  84 113 147 191 235 281 344
#     4  10  22  39  58  82 111 148 195 241 286 335
#     4  10  19  33  55  83 116 149 182 228 289 346
#     4  10  22  40  62  88 120 156 193 237 291 348
#     4  10  22  41  61  81 113 155 194 239 293 341
#     4  11  23  39  62  92 120 153 197 239 288 350
#     4  10  21  37  57  83 114 149 187 232 289 348
#
# _framework density 19.591207000000001
#
# number of rings (size 3 to 8) (size 9 to 14) (size 15 to 20)
#    0.000    1.625    2.500    2.250    0.000    5.250 
#    0.000    2.500    0.000    0.000    0.000    0.000 
#    0.000    0.000    0.000    0.000    0.000    0.000 
#
# Total GULP energy -396919.367747 kJ/mol
# GULP energy per Si atom -12403.730242 kJ/mol
# Density = 1.954662 g / cm^3
# Si number density = 19.591207 Si / 1000 Ang^3
#
#
#
# Elastic Constant Matrix: (Units=GPa)
#
#
# Indices 1 2 3 4 5 6 
#
# 1 113.6819 32.6302 41.6266 0.0000 -3.0214 0.0000
# 2 32.6302 64.5009 40.8952 0.0000 -0.9080 0.0000
# 3 41.6266 40.8952 114.9687 0.0000 6.8118 0.0000
# 4 0.0000 0.0000 0.0000 29.1762 0.0000 0.8524
# 5 -3.0214 -0.9080 6.8118 0.0000 17.4090 0.0000
# 6 0.0000 0.0000 0.0000 0.8524 0.0000 30.4627
#
#
#
# Elastic Compliance Matrix: (Units=1/GPa)
#
#
# Indices 1 2 3 4 5 6 
#
# 1 0.010971 -0.003727 -0.002813 0.000000 0.002810 0.000000
# 2 -0.003727 0.021549 -0.006495 0.000000 0.003018 0.000000
# 3 -0.002813 -0.006495 0.012362 0.000000 -0.005664 0.000000
# 4 0.000000 0.000000 0.000000 0.034303 0.000000 -0.000960
# 5 0.002810 0.003018 -0.005664 0.000000 0.060303 0.000000
# 6 0.000000 0.000000 0.000000 -0.000960 0.000000 0.032854
#
#
# Mechanical properties :
#
#
# Convention : Reuss Voigt Hill
#
# Bulk Modulus (GPa) = 53.15398 58.16173 55.65786
# Shear Modulus (GPa) = 24.42805 27.27620 25.85212
#
# Velocity S-wave (km/s) = 3.53496 3.73536 3.63654
# Velocity P-wave (km/s) = 6.62206 6.95385 6.78998
#
# Compressibility (1/GPa) = 0.01881327
#
# Stress axis : x y z
#
# Youngs Moduli (GPa) = 91.14964 46.40507 80.89077
#
# Poissons Ratio (x) = 0.17295 0.22755
# Poissons Ratio (y) = 0.33971 0.52536
# Poissons Ratio (z) = 0.25641 0.30139
#
# Static dielectric constant tensor:
#      x y z
#    x 3.722910 0.000000 -0.064790 
#    y 0.000000 3.494540 0.000000 
#    z -0.064790 0.000000 3.599690 
# 
# 
# High freq. dielectric constant tensor:
#      x y z
#    x 1.777720 0.000000 -0.001200 
#    y 0.000000 1.754440 0.000000 
#    z -0.001200 0.000000 1.756870 
# 
# From -- ./inp_files/375641.got.cif
#   From: 2010.06.25/outbox.cif.g09.slc.cpg/sg12_188_cif.got.tgz:375641.got - 2010.06.28 00:19:55.
