data_PCOD8090585
_publ_section_title
;
Structure prediction by ZEFSAII (Michael W. Deem and Ramdas Pophale) SiO2 
 PCOD8090585
Probable space group: C 2/M
;
_chemical_formula_sum "Si O2"
_cell_formula_units_Z 48
_cell_length_a 19.001433
_cell_length_b 14.446560
_cell_length_c 10.400587
_cell_angle_alpha 90.000000
_cell_angle_beta 114.332137
_cell_angle_gamma 90.000000
_cell_volume 2601.412171
_symmetry_space_group_name_H-M "C 2/M"
_symmetry_group_IT_number 12
_symmetry_cell_setting 'monoclinic'
loop_
_space_group_symop_operation_xyz
x,y,z
-x,y,-z
-x,-y,-z
x,-y,z
1/2+x,1/2+y,z
1/2-x,1/2+y,-z
1/2-x,1/2-y,-z
1/2+x,1/2-y,z
loop_
_atom_site_type_symbol
_atom_site_label
_atom_site_fract_x
_atom_site_fract_y
_atom_site_fract_z
Si Si1 0.084329 0.000000 0.624364
Si Si2 0.241440 0.000000 0.291466
Si Si3 0.534334 0.299583 0.166020
Si Si4 0.930580 0.000000 0.845885
Si Si5 0.312670 0.814057 0.371904
Si Si6 0.673320 0.815989 0.332660
Si Si7 0.939780 0.802328 0.337006
Si Si8 0.742837 0.500000 0.598980
O O1 0.090899 0.093372 0.712822
O O2 0.154177 0.000000 0.575736
O O3 0.000000 0.000000 0.500000
O O4 0.156553 0.000000 0.160788
O O5 0.289908 0.089912 0.285375
O O6 0.234001 0.000000 0.439835
O O7 0.563586 0.403408 0.231122
O O8 0.598893 0.220158 0.200320
O O9 0.475085 0.265463 0.230530
O O10 0.500000 0.308611 0.000000
O O11 0.000000 0.000000 0.000000
O O12 0.355068 0.827549 0.540785
O O13 0.235378 0.762594 0.354055
O O14 0.366243 0.760478 0.312798
O O15 0.709141 0.912555 0.310682
O O16 0.000000 0.798588 0.500000
#
# Coordination Sequence:
#
# PCOD8090585 Si02
#       8
#     4   4   8   4   8   8   8   4
#     4  10  21  28  53  89 118 141 172 240 296 327
#     4  10  20  32  58  85 115 149 190 229 284 340
#     4  11  23  39  59  82 117 157 189 227 287 348
#     4  10  21  35  57  83 116 152 188 225 281 355
#     4  10  19  33  57  86 116 146 185 238 284 333
#     4  10  19  35  56  84 117 149 188 230 282 340
#     4  11  21  35  56  87 118 143 188 241 285 328
#     4  10  20  33  56  90 114 145 190 236 284 333
#
# _framework density 18.451516999999999
#
# number of rings (size 3 to 8) (size 9 to 14) (size 15 to 20)
#    0.000    1.667    5.000    0.500    4.667    0.000 
#    0.000    2.500    0.000    0.000    0.000    0.000 
#    0.000    0.000    0.000    0.000    0.000    0.000 
#
# Total GULP energy -297382.532620 kJ/mol
# GULP energy per Si atom -12390.938859 kJ/mol
# Density = 1.840952 g / cm^3
# Si number density = 18.451517 Si / 1000 Ang^3
#
#
#
# Elastic Constant Matrix: (Units=GPa)
#
#
# Indices 1 2 3 4 5 6 
#
# 1 120.4584 55.5710 36.0884 0.0000 -0.2990 0.0000
# 2 55.5710 128.3782 27.0095 0.0000 16.3611 0.0000
# 3 36.0884 27.0095 55.9547 0.0000 0.7530 0.0000
# 4 0.0000 0.0000 0.0000 13.1637 0.0000 3.6839
# 5 -0.2990 16.3611 0.7530 0.0000 25.3249 0.0000
# 6 0.0000 0.0000 0.0000 3.6839 0.0000 29.3537
#
#
#
# Elastic Compliance Matrix: (Units=1/GPa)
#
#
# Indices 1 2 3 4 5 6 
#
# 1 0.012053 -0.004427 -0.005680 0.000000 0.003171 0.000000
# 2 -0.004427 0.011129 -0.002420 0.000000 -0.007170 0.000000
# 3 -0.005680 -0.002420 0.022692 0.000000 0.000822 0.000000
# 4 0.000000 0.000000 0.000000 0.078731 0.000000 -0.009881
# 5 0.003171 -0.007170 0.000822 0.000000 0.044132 0.000000
# 6 0.000000 0.000000 0.000000 -0.009881 0.000000 0.035307
#
#
# Mechanical properties :
#
#
# Convention : Reuss Voigt Hill
#
# Bulk Modulus (GPa) = 48.02970 60.23656 54.13313
# Shear Modulus (GPa) = 21.18301 25.97663 23.57982
#
# Velocity S-wave (km/s) = 3.39194 3.75618 3.57870
# Velocity P-wave (km/s) = 6.43639 7.17834 6.81747
#
# Compressibility (1/GPa) = 0.02082045
#
# Stress axis : x y z
#
# Youngs Moduli (GPa) = 82.96527 89.85832 44.06832
#
# Poissons Ratio (x) = 0.39777 0.25030
# Poissons Ratio (y) = 0.36726 0.10666
# Poissons Ratio (z) = 0.47122 0.21749
#
# Static dielectric constant tensor:
#      x y z
#    x 3.354110 0.000000 0.105200 
#    y 0.000000 3.790830 0.000000 
#    z 0.105200 0.000000 2.966360 
# 
# 
# High freq. dielectric constant tensor:
#      x y z
#    x 1.717750 0.000000 0.008090 
#    y 0.000000 1.724880 0.000000 
#    z 0.008090 0.000000 1.666350 
# 
# From -- ./inp_files/155293.got.cif
#   From: 2010.06.25/outbox.cif.g09.slc.cpg/sg12_78_cif.got.tgz:155293.got - 2010.06.28 00:19:55.
