data_PCOD8090939
_publ_section_title
;
Structure prediction by ZEFSAII (Michael W. Deem and Ramdas Pophale) SiO2 
 PCOD8090939
Probable space group: C 2/M
;
_chemical_formula_sum "Si O2"
_cell_formula_units_Z 64
_cell_length_a 24.733586
_cell_length_b 9.302957
_cell_length_c 19.914439
_cell_angle_alpha 90.000000
_cell_angle_beta 130.624943
_cell_angle_gamma 90.000000
_cell_volume 3477.851596
_symmetry_space_group_name_H-M "C 2/M"
_symmetry_group_IT_number 12
_symmetry_cell_setting 'monoclinic'
loop_
_space_group_symop_operation_xyz
x,y,z
-x,y,-z
-x,-y,-z
x,-y,z
1/2+x,1/2+y,z
1/2-x,1/2+y,-z
1/2-x,1/2-y,-z
1/2+x,1/2-y,z
loop_
_atom_site_type_symbol
_atom_site_label
_atom_site_fract_x
_atom_site_fract_y
_atom_site_fract_z
Si Si1 0.311098 0.665082 0.587149
Si Si2 0.316092 0.331484 0.740573
Si Si3 0.679795 0.665937 0.871352
Si Si4 0.344859 0.831433 0.377741
Si Si5 0.589731 0.663908 0.451169
Si Si6 0.073085 0.833216 0.669930
Si Si7 0.919760 0.828718 0.938124
Si Si8 0.180120 0.168314 0.023877
O O1 0.285652 0.500000 0.573224
O O2 0.250000 0.750000 0.500000
O O3 0.325069 0.731728 0.672523
O O4 0.384091 0.677439 0.604350
O O5 0.329325 0.500000 0.747849
O O6 0.237423 0.297207 0.705304
O O7 0.374376 0.264854 0.838704
O O8 0.701828 0.500000 0.885338
O O9 0.611648 0.701263 0.771086
O O10 0.746177 0.755600 0.896988
O O11 0.658936 0.709018 0.930565
O O12 0.362615 0.767224 0.464752
O O13 0.394540 0.760048 0.362949
O O14 0.360079 0.000000 0.391561
O O15 0.597943 0.500000 0.483506
O O16 0.508255 0.713530 0.387374
O O17 0.080634 0.000000 0.656568
O O18 0.882652 0.778428 0.977550
O O19 0.921590 0.000000 0.936155
O O20 0.000000 0.766224 0.000000
O O21 0.193245 0.000000 0.043899
#
# Coordination Sequence:
#
# PCOD8090939 Si02
#       8
#     8   8   8   8   8   8   8   8
#     4  10  19  34  54  74 100 133 170 212 254 297
#     4   9  18  31  49  75 103 131 166 210 255 300
#     4   9  18  32  51  74 100 134 171 207 250 301
#     4  11  21  34  53  75 102 134 169 211 258 309
#     4  10  21  35  52  73 100 136 172 212 259 304
#     4  10  21  35  49  72 105 135 170 212 255 307
#     4   9  17  29  48  76 106 132 162 206 257 303
#     4   9  17  31  52  76 102 131 168 211 251 298
#
# _framework density 18.402165
#
# number of rings (size 3 to 8) (size 9 to 14) (size 15 to 20)
#    0.000    2.375    1.250    1.500    0.000    4.500 
#    0.000    5.000    0.000    0.375    0.000    1.750 
#    0.000    0.000    0.000    0.000    0.000    0.000 
#
# Total GULP energy -396797.801170 kJ/mol
# GULP energy per Si atom -12399.931287 kJ/mol
# Density = 1.836028 g / cm^3
# Si number density = 18.402165 Si / 1000 Ang^3
#
#
#
# Elastic Constant Matrix: (Units=GPa)
#
#
# Indices 1 2 3 4 5 6 
#
# 1 140.6090 30.0744 57.9265 0.0000 -0.0115 0.0000
# 2 30.0744 36.8512 23.6823 0.0000 2.5909 0.0000
# 3 57.9265 23.6823 97.4085 0.0000 7.0249 0.0000
# 4 0.0000 0.0000 0.0000 21.6213 0.0000 2.7124
# 5 -0.0115 2.5909 7.0249 0.0000 29.1446 0.0000
# 6 0.0000 0.0000 0.0000 2.7124 0.0000 19.4627
#
#
#
# Elastic Compliance Matrix: (Units=1/GPa)
#
#
# Indices 1 2 3 4 5 6 
#
# 1 0.010290 -0.005339 -0.004941 0.000000 0.001670 0.000000
# 2 -0.005339 0.034960 -0.005190 0.000000 -0.001859 0.000000
# 3 -0.004941 -0.005190 0.014689 0.000000 -0.003081 0.000000
# 4 0.000000 0.000000 0.000000 0.047074 0.000000 -0.006560
# 5 0.001670 -0.001859 -0.003081 0.000000 0.035220 0.000000
# 6 0.000000 0.000000 0.000000 -0.006560 0.000000 0.052294
#
#
# Mechanical properties :
#
#
# Convention : Reuss Voigt Hill
#
# Bulk Modulus (GPa) = 34.48728 55.35945 44.92337
# Shear Modulus (GPa) = 21.26445 24.92476 23.09461
#
# Velocity S-wave (km/s) = 3.40301 3.68427 3.54643
# Velocity P-wave (km/s) = 5.84998 6.94600 6.42142
#
# Compressibility (1/GPa) = 0.02899620
#
# Stress axis : x y z
#
# Youngs Moduli (GPa) = 97.18388 28.60421 68.07979
#
# Poissons Ratio (x) = 0.15273 0.33641
# Poissons Ratio (y) = 0.51890 0.35336
# Poissons Ratio (z) = 0.48022 0.14846
#
# Static dielectric constant tensor:
#      x y z
#    x 3.607280 0.000000 -0.113430 
#    y 0.000000 3.144420 0.000000 
#    z -0.113430 0.000000 3.624370 
# 
# 
# High freq. dielectric constant tensor:
#      x y z
#    x 1.724490 0.000000 -0.007070 
#    y 0.000000 1.680520 0.000000 
#    z -0.007070 0.000000 1.717740 
# 
# From -- ./inp_files/324229.got.cif
#   From: 2010.06.25/outbox.cif.g09.slc.cpg/sg12_163_cif.got.tgz:324229.got - 2010.06.28 00:19:55.
