data_PCOD8090287
_publ_section_title
;
Structure prediction by ZEFSAII (Michael W. Deem and Ramdas Pophale) SiO2 
 PCOD8090287
Probable space group: C 2/M
;
_chemical_formula_sum "Si O2"
_cell_formula_units_Z 64
_cell_length_a 13.253716
_cell_length_b 18.191277
_cell_length_c 13.858622
_cell_angle_alpha 90.000000
_cell_angle_beta 101.614478
_cell_angle_gamma 90.000000
_cell_volume 3272.925796
_symmetry_space_group_name_H-M "C 2/M"
_symmetry_group_IT_number 12
_symmetry_cell_setting 'monoclinic'
loop_
_space_group_symop_operation_xyz
x,y,z
-x,y,-z
-x,-y,-z
x,-y,z
1/2+x,1/2+y,z
1/2-x,1/2+y,-z
1/2-x,1/2-y,-z
1/2+x,1/2-y,z
loop_
_atom_site_type_symbol
_atom_site_label
_atom_site_fract_x
_atom_site_fract_y
_atom_site_fract_z
Si Si1 0.717328 0.801554 0.237444
Si Si2 0.048379 0.415667 0.718964
Si Si3 0.406095 0.314265 0.142530
Si Si4 0.624056 0.353406 0.233099
Si Si5 0.282190 0.084172 0.391430
Si Si6 0.491010 0.167063 0.892843
Si Si7 0.182469 0.414554 0.388765
Si Si8 0.122201 0.917624 0.027717
O O1 0.823745 0.785725 0.203333
O O2 0.672194 0.725588 0.270037
O O3 0.630621 0.833781 0.150157
O O4 0.740731 0.861440 0.324992
O O5 0.074682 0.500000 0.743342
O O6 0.133866 0.379154 0.664866
O O7 0.052864 0.377695 0.824075
O O8 0.939419 0.404836 0.646507
O O9 0.499892 0.355080 0.216560
O O10 0.459477 0.248409 0.093382
O O11 0.344566 0.367737 0.056949
O O12 0.668524 0.407637 0.323548
O O13 0.660787 0.380213 0.134114
O O14 0.286940 0.116804 0.500032
O O15 0.313527 0.000000 0.409389
O O16 0.500000 0.130327 0.000000
O O17 0.215281 0.500000 0.378403
O O18 0.168990 0.000000 0.028417
O O19 0.000000 0.921513 0.000000
#
# Coordination Sequence:
#
# PCOD8090287 Si02
#       8
#     8   8   8   8   8   8   8   8
#     4  10  21  35  54  75 103 142 174 212 266 317
#     4   9  18  33  54  79 107 141 177 212 259 317
#     4  10  20  35  53  74 103 144 179 206 258 323
#     4  10  20  34  52  78 106 130 174 227 260 303
#     4  10  19  33  56  80 104 137 175 221 268 305
#     4  10  20  34  52  78 109 137 173 219 260 304
#     4   9  19  36  54  76 106 138 176 218 263 317
#     4   9  18  33  52  74 103 138 173 210 253 305
#
# _framework density 19.554369999999999
#
# number of rings (size 3 to 8) (size 9 to 14) (size 15 to 20)
#    0.000    2.375    0.000    3.375    0.000    6.250 
#    0.000    0.625    0.000    1.500    0.000    0.000 
#    0.000    0.000    0.000    0.000    0.000    0.000 
#
# Total GULP energy -396728.171920 kJ/mol
# GULP energy per Si atom -12397.755372 kJ/mol
# Density = 1.950986 g / cm^3
# Si number density = 19.554370 Si / 1000 Ang^3
#
#
#
# Elastic Constant Matrix: (Units=GPa)
#
#
# Indices 1 2 3 4 5 6 
#
# 1 69.5036 10.8085 37.0312 0.0000 -9.7434 0.0000
# 2 10.8085 69.5710 41.1978 0.0000 -2.9149 0.0000
# 3 37.0312 41.1978 149.6259 0.0000 -1.9585 0.0000
# 4 0.0000 0.0000 0.0000 28.1520 0.0000 -0.2140
# 5 -9.7434 -2.9149 -1.9585 0.0000 19.6723 0.0000
# 6 0.0000 0.0000 0.0000 -0.2140 0.0000 16.7412
#
#
#
# Elastic Compliance Matrix: (Units=1/GPa)
#
#
# Indices 1 2 3 4 5 6 
#
# 1 0.017866 0.000156 -0.004354 0.000000 0.008439 0.000000
# 2 0.000156 0.017260 -0.004763 0.000000 0.002161 0.000000
# 3 -0.004354 -0.004763 0.009047 0.000000 -0.001962 0.000000
# 4 0.000000 0.000000 0.000000 0.035525 0.000000 0.000454
# 5 0.008439 0.002161 -0.001962 0.000000 0.055137 0.000000
# 6 0.000000 0.000000 0.000000 0.000454 0.000000 0.059739
#
#
# Mechanical properties :
#
#
# Convention : Reuss Voigt Hill
#
# Bulk Modulus (GPa) = 38.09262 51.86394 44.97828
# Shear Modulus (GPa) = 22.59919 26.22396 24.41158
#
# Velocity S-wave (km/s) = 3.40326 3.66605 3.53710
# Velocity P-wave (km/s) = 5.91317 6.67086 6.30341
#
# Compressibility (1/GPa) = 0.02625181
#
# Stress axis : x y z
#
# Youngs Moduli (GPa) = 55.97103 57.93578 110.53698
#
# Poissons Ratio (x) = -0.00906 0.48132
# Poissons Ratio (y) = -0.00875 0.52648
# Poissons Ratio (z) = 0.24372 0.27594
#
# Static dielectric constant tensor:
#      x y z
#    x 3.324270 0.000000 0.060810 
#    y 0.000000 3.599570 0.000000 
#    z 0.060810 0.000000 3.601450 
# 
# 
# High freq. dielectric constant tensor:
#      x y z
#    x 1.740470 0.000000 0.007940 
#    y 0.000000 1.753530 0.000000 
#    z 0.007940 0.000000 1.760470 
# 
# From -- ./inp_files/147649.got.cif
#   From: 2010.06.25/outbox.cif.g09.slc.cpg/sg12_74_cif.got.tgz:147649.got - 2010.06.28 00:19:55.
