data_PCOD8090158
_publ_section_title
;
Structure prediction by ZEFSAII (Michael W. Deem and Ramdas Pophale) SiO2 
 PCOD8090158
Probable space group: C 2/M
;
_chemical_formula_sum "Si O2"
_cell_formula_units_Z 56
_cell_length_a 28.431777
_cell_length_b 8.775222
_cell_length_c 14.158158
_cell_angle_alpha 90.000000
_cell_angle_beta 119.625340
_cell_angle_gamma 90.000000
_cell_volume 3070.624816
_symmetry_space_group_name_H-M "C 2/M"
_symmetry_group_IT_number 12
_symmetry_cell_setting 'monoclinic'
loop_
_space_group_symop_operation_xyz
x,y,z
-x,y,-z
-x,-y,-z
x,-y,z
1/2+x,1/2+y,z
1/2-x,1/2+y,-z
1/2-x,1/2-y,-z
1/2+x,1/2-y,z
loop_
_atom_site_type_symbol
_atom_site_label
_atom_site_fract_x
_atom_site_fract_y
_atom_site_fract_z
Si Si1 0.057687 0.178818 0.517350
Si Si2 0.255281 0.179653 0.901413
Si Si3 0.414770 0.830680 0.153154
Si Si4 0.863720 0.823281 0.937103
Si Si5 0.946617 0.679383 0.889113
Si Si6 0.847998 0.327558 0.269140
Si Si7 0.465923 0.175321 0.693327
O O1 0.107156 0.254961 0.620138
O O2 0.064569 0.221788 0.413901
O O3 0.000000 0.239391 0.500000
O O4 0.062337 0.000000 0.536190
O O5 0.310149 0.227026 0.903888
O O6 0.207508 0.233164 0.783778
O O7 0.253436 0.000000 0.911604
O O8 0.250000 0.250000 0.000000
O O9 0.366455 0.824390 0.179053
O O10 0.470521 0.796682 0.261694
O O11 0.418013 0.000000 0.109059
O O12 0.405569 0.705007 0.064098
O O13 0.893161 0.766444 0.871651
O O14 0.848908 0.000000 0.914428
O O15 0.938009 0.500000 0.892082
O O16 0.952001 0.727394 0.785362
O O17 0.000000 0.731242 0.000000
O O18 0.837249 0.500000 0.292174
O O19 0.449816 0.000000 0.660631
#
# Coordination Sequence:
#
# PCOD8090158 Si02
#       7
#     8   8   8   8   8   8   8
#     4  11  23  36  54  83 120 155 190 236 286 338
#     4  12  24  39  59  84 116 152 192 236 288 343
#     4  10  19  33  55  82 115 153 191 235 279 336
#     4  12  24  36  55  84 119 155 192 235 285 344
#     4  10  20  37  59  83 114 153 195 239 288 343
#     4  11  22  37  59  84 115 153 194 235 284 342
#     4  10  20  36  58  82 112 154 197 235 282 339
#
# _framework density 18.23733
#
# number of rings (size 3 to 8) (size 9 to 14) (size 15 to 20)
#    0.000    1.143    4.286    3.429    0.000    2.571 
#    0.000    0.000    0.000    0.857    0.000    0.000 
#    0.000    0.000    0.000    0.000    0.000    0.000 
#
# Total GULP energy -347256.789876 kJ/mol
# GULP energy per Si atom -12402.028210 kJ/mol
# Density = 1.819582 g / cm^3
# Si number density = 18.237330 Si / 1000 Ang^3
#
#
#
# Elastic Constant Matrix: (Units=GPa)
#
#
# Indices 1 2 3 4 5 6 
#
# 1 96.0173 43.5610 41.9759 0.0000 5.3002 0.0000
# 2 43.5610 110.0132 48.1130 0.0000 7.0390 0.0000
# 3 41.9759 48.1130 103.1349 0.0000 3.5682 0.0000
# 4 0.0000 0.0000 0.0000 31.7963 0.0000 1.9979
# 5 5.3002 7.0390 3.5682 0.0000 28.0638 0.0000
# 6 0.0000 0.0000 0.0000 1.9979 0.0000 28.4558
#
#
#
# Elastic Compliance Matrix: (Units=1/GPa)
#
#
# Indices 1 2 3 4 5 6 
#
# 1 0.013858 -0.003721 -0.003863 0.000000 -0.001193 0.000000
# 2 -0.003721 0.012555 -0.004277 0.000000 -0.001903 0.000000
# 3 -0.003863 -0.004277 0.013259 0.000000 0.000116 0.000000
# 4 0.000000 0.000000 0.000000 0.031590 0.000000 -0.002218
# 5 -0.001193 -0.001903 0.000116 0.000000 0.036321 0.000000
# 6 0.000000 0.000000 0.000000 -0.002218 0.000000 0.035298
#
#
# Mechanical properties :
#
#
# Convention : Reuss Voigt Hill
#
# Bulk Modulus (GPa) = 62.69379 64.05168 63.37273
# Shear Modulus (GPa) = 29.08340 29.36421 29.22380
#
# Velocity S-wave (km/s) = 3.99772 4.01698 4.00736
# Velocity P-wave (km/s) = 7.46728 7.53075 7.49909
#
# Compressibility (1/GPa) = 0.01595054
#
# Stress axis : x y z
#
# Youngs Moduli (GPa) = 72.16236 79.64640 75.41899
#
# Poissons Ratio (x) = 0.29640 0.29132
# Poissons Ratio (y) = 0.26855 0.32255
# Poissons Ratio (z) = 0.27874 0.34063
#
# Static dielectric constant tensor:
#      x y z
#    x 3.394020 0.000000 0.044870 
#    y 0.000000 3.373940 0.000000 
#    z 0.044870 0.000000 3.254210 
# 
# 
# High freq. dielectric constant tensor:
#      x y z
#    x 1.698720 0.000000 0.003630 
#    y 0.000000 1.708800 0.000000 
#    z 0.003630 0.000000 1.695300 
# 
# From -- ./inp_files/243621.got.cif
#   From: 2010.06.25/outbox.cif.g09.slc.cpg/sg12_122_cif.got.tgz:243621.got - 2010.06.28 00:19:55.
