data_PCOD8090808
_publ_section_title
;
Structure prediction by ZEFSAII (Michael W. Deem and Ramdas Pophale) SiO2 
 PCOD8090808
Probable space group: C 2/M
;
_chemical_formula_sum "Si O2"
_cell_formula_units_Z 64
_cell_length_a 31.508412
_cell_length_b 9.218415
_cell_length_c 23.171819
_cell_angle_alpha 90.000000
_cell_angle_beta 148.590200
_cell_angle_gamma 90.000000
_cell_volume 3507.602105
_symmetry_space_group_name_H-M "C 2/M"
_symmetry_group_IT_number 12
_symmetry_cell_setting 'monoclinic'
loop_
_space_group_symop_operation_xyz
x,y,z
-x,y,-z
-x,-y,-z
x,-y,z
1/2+x,1/2+y,z
1/2-x,1/2+y,-z
1/2-x,1/2-y,-z
1/2+x,1/2-y,z
loop_
_atom_site_type_symbol
_atom_site_label
_atom_site_fract_x
_atom_site_fract_y
_atom_site_fract_z
Si Si1 0.434762 0.159626 0.311767
Si Si2 0.631678 0.332933 0.157753
Si Si3 0.595765 0.334560 0.619213
Si Si4 0.701598 0.667856 0.634136
Si Si5 0.982966 0.326194 0.193354
Si Si6 0.511099 0.331706 0.919141
Si Si7 0.827382 0.343659 0.077172
Si Si8 0.937318 0.829580 0.610486
O O1 0.381841 0.231158 0.301502
O O2 0.372592 0.134782 0.188959
O O3 0.505947 0.267994 0.374578
O O4 0.469701 0.000000 0.370114
O O5 0.655432 0.500000 0.182251
O O6 0.712828 0.246840 0.265489
O O7 0.569141 0.303856 0.136695
O O8 0.590177 0.286881 0.048772
O O9 0.500000 0.316704 0.500000
O O10 0.619241 0.500000 0.660774
O O11 0.644389 0.277549 0.619980
O O12 0.720357 0.500000 0.664043
O O13 0.655266 0.694786 0.519327
O O14 0.992608 0.500000 0.208427
O O15 0.997084 0.271017 0.145468
O O16 0.891771 0.276224 0.106190
O O17 0.049028 0.254287 0.313343
O O18 0.517015 0.500000 0.907301
O O19 0.797684 0.500000 0.019392
O O20 0.750000 0.250000 0.000000
O O21 0.956381 0.000000 0.640647
#
# Coordination Sequence:
#
# PCOD8090808 Si02
#       8
#     8   8   8   8   8   8   8   8
#     4  10  20  33  49  74 104 137 181 227 268 312
#     4   9  20  38  60  84 111 141 178 225 274 327
#     4  10  19  34  51  72 105 144 183 218 259 317
#     4  10  21  35  54  81 112 144 185 228 273 328
#     4  10  21  36  56  84 110 138 182 232 272 318
#     4   9  19  39  62  83 108 143 182 219 272 338
#     4   9  20  35  49  71 105 138 175 219 263 311
#     4  10  19  35  55  76 107 148 184 218 266 328
#
# _framework density 18.246082999999999
#
# number of rings (size 3 to 8) (size 9 to 14) (size 15 to 20)
#    0.000    2.375    1.250    2.625    0.000    6.750 
#    0.000    6.875    0.000    0.000    0.000    0.000 
#    0.000    0.000    0.000    0.000    0.000    0.000 
#
# Total GULP energy -396637.769877 kJ/mol
# GULP energy per Si atom -12394.930309 kJ/mol
# Density = 1.820455 g / cm^3
# Si number density = 18.246083 Si / 1000 Ang^3
#
#
#
# Elastic Constant Matrix: (Units=GPa)
#
#
# Indices 1 2 3 4 5 6 
#
# 1 93.7592 50.1161 50.4052 0.0000 -14.3104 0.0000
# 2 50.1161 92.4630 55.1264 0.0000 -3.4829 0.0000
# 3 50.4052 55.1264 105.1093 0.0000 9.4680 0.0000
# 4 0.0000 0.0000 0.0000 34.2349 0.0000 0.2351
# 5 -14.3104 -3.4829 9.4680 0.0000 23.1837 0.0000
# 6 0.0000 0.0000 0.0000 0.2351 0.0000 0.0777
#
#
#
# Elastic Compliance Matrix: (Units=1/GPa)
#
#
# Indices 1 2 3 4 5 6 
#
# 1 0.020351 -0.005580 -0.008190 0.000000 0.015069 0.000000
# 2 -0.005580 0.018099 -0.007009 0.000000 0.002137 0.000001
# 3 -0.008190 -0.007009 0.018342 0.000000 -0.013599 0.000000
# 4 0.000000 0.000000 0.000000 0.029830 0.000000 -0.090321
# 5 0.015069 0.002137 -0.013599 0.000000 0.058310 0.000000
# 6 0.000000 0.000001 0.000000 -0.090321 0.000000 13.151217
#
#
# Mechanical properties :
#
#
# Convention : Reuss Voigt Hill
#
# Bulk Modulus (GPa) = 65.64140 66.95853 66.29996
# Shear Modulus (GPa) = 0.37473 20.54483 10.45978
#
# Velocity S-wave (km/s) = 0.45368 3.35921 2.39689
# Velocity P-wave (km/s) = 6.02728 7.19881 6.63894
#
# Compressibility (1/GPa) = 0.01523429
#
# Stress axis : x y z
#
# Youngs Moduli (GPa) = 49.13695 55.25264 54.51839
#
# Poissons Ratio (x) = 0.30831 0.44652
# Poissons Ratio (y) = 0.27418 0.38211
# Poissons Ratio (z) = 0.40245 0.38725
#
# Static dielectric constant tensor:
#      x y z
#    x 3.365970 0.000000 -0.188460 
#    y 0.000000 3.301020 0.000000 
#    z -0.188460 0.000000 3.062380 
# 
# 
# High freq. dielectric constant tensor:
#      x y z
#    x 1.699550 0.000000 -0.010140 
#    y 0.000000 1.712720 0.000000 
#    z -0.010140 0.000000 1.699530 
# 
# From -- ./inp_files/353459.got.cif
#   From: 2010.06.25/outbox.cif.g09.slc.cpg/sg12_177_cif.got.tgz:353459.got - 2010.06.28 00:19:55.
