data_PCOD8090486
_publ_section_title
;
Structure prediction by ZEFSAII (Michael W. Deem and Ramdas Pophale) SiO2 
 PCOD8090486
Probable space group: C 2/M
;
_chemical_formula_sum "Si O2"
_cell_formula_units_Z 56
_cell_length_a 20.315188
_cell_length_b 8.490840
_cell_length_c 17.383856
_cell_angle_alpha 90.000000
_cell_angle_beta 108.626895
_cell_angle_gamma 90.000000
_cell_volume 2841.523080
_symmetry_space_group_name_H-M "C 2/M"
_symmetry_group_IT_number 12
_symmetry_cell_setting 'monoclinic'
loop_
_space_group_symop_operation_xyz
x,y,z
-x,y,-z
-x,-y,-z
x,-y,z
1/2+x,1/2+y,z
1/2-x,1/2+y,-z
1/2-x,1/2-y,-z
1/2+x,1/2-y,z
loop_
_atom_site_type_symbol
_atom_site_label
_atom_site_fract_x
_atom_site_fract_y
_atom_site_fract_z
Si Si1 0.674504 0.683733 0.990524
Si Si2 0.076201 0.819667 0.238611
Si Si3 0.181144 0.681062 0.742911
Si Si4 0.176616 0.680700 0.152846
Si Si5 0.297230 0.181428 0.419289
Si Si6 0.347339 0.818772 0.599362
Si Si7 0.072700 0.317021 0.829130
O O1 0.671256 0.500000 0.969236
O O2 0.656638 0.710766 0.073064
O O3 0.750000 0.750000 0.000000
O O4 0.618682 0.777827 0.920077
O O5 0.123838 0.713310 0.202078
O O6 0.094950 0.782414 0.334399
O O7 0.995970 0.786838 0.193465
O O8 0.092603 0.000000 0.226393
O O9 0.202137 0.500000 0.766840
O O10 0.245026 0.788693 0.791365
O O11 0.162868 0.708117 0.646219
O O12 0.113863 0.728101 0.766801
O O13 0.170224 0.500000 0.125357
O O14 0.347870 0.228051 0.508943
O O15 0.228762 0.287975 0.394037
O O16 0.273483 0.000000 0.420034
O O17 0.366711 0.000000 0.618397
O O18 0.052438 0.500000 0.822706
#
# Coordination Sequence:
#
# PCOD8090486 Si02
#       7
#     8   8   8   8   8   8   8
#     4  12  24  41  64  93 126 161 202 248 300 356
#     4  12  25  42  61  86 124 165 205 250 310 370
#     4  10  20  37  62  91 122 158 200 249 304 362
#     4  12  24  39  64  93 121 157 205 254 302 359
#     4   9  18  33  57  89 122 156 199 249 303 359
#     4  10  19  33  56  88 122 158 201 250 302 359
#     4  11  24  42  64  90 123 160 203 253 308 365
#
# _framework density 19.707740999999999
#
# number of rings (size 3 to 8) (size 9 to 14) (size 15 to 20)
#    0.000    1.143    2.857    4.714    0.000    1.714 
#    0.000    3.571    0.000    4.286    0.000    0.000 
#    0.000    0.000    0.000    0.000    0.000    0.000 
#
# Total GULP energy -347337.351435 kJ/mol
# GULP energy per Si atom -12404.905408 kJ/mol
# Density = 1.966289 g / cm^3
# Si number density = 19.707741 Si / 1000 Ang^3
#
#
#
# Elastic Constant Matrix: (Units=GPa)
#
#
# Indices 1 2 3 4 5 6 
#
# 1 66.6158 23.8759 27.0067 0.0000 4.8249 0.0000
# 2 23.8759 64.4801 15.2011 0.0000 -2.7320 0.0000
# 3 27.0067 15.2011 115.3000 0.0000 -3.3631 0.0000
# 4 0.0000 0.0000 0.0000 32.0699 0.0000 3.1380
# 5 4.8249 -2.7320 -3.3631 0.0000 33.1123 0.0000
# 6 0.0000 0.0000 0.0000 3.1380 0.0000 28.6219
#
#
#
# Elastic Compliance Matrix: (Units=1/GPa)
#
#
# Indices 1 2 3 4 5 6 
#
# 1 0.019063 -0.006334 -0.003738 0.000000 -0.003680 0.000000
# 2 -0.006334 0.018151 -0.000841 0.000000 0.002335 0.000000
# 3 -0.003738 -0.000841 0.009702 0.000000 0.001461 0.000000
# 4 0.000000 0.000000 0.000000 0.031520 0.000000 -0.003456
# 5 -0.003680 0.002335 0.001461 0.000000 0.031077 0.000000
# 6 0.000000 0.000000 0.000000 -0.003456 0.000000 0.035317
#
#
# Mechanical properties :
#
#
# Convention : Reuss Voigt Hill
#
# Bulk Modulus (GPa) = 39.85432 42.06259 40.95846
# Shear Modulus (GPa) = 28.56819 30.78165 29.67492
#
# Velocity S-wave (km/s) = 3.81148 3.95638 3.88461
# Velocity P-wave (km/s) = 6.29575 6.50078 6.39908
#
# Compressibility (1/GPa) = 0.02509138
#
# Stress axis : x y z
#
# Youngs Moduli (GPa) = 52.45698 55.09283 103.07151
#
# Poissons Ratio (x) = 0.34894 0.38523
# Poissons Ratio (y) = 0.33224 0.08673
# Poissons Ratio (z) = 0.19606 0.04636
#
# Static dielectric constant tensor:
#      x y z
#    x 3.421670 0.000000 -0.148620 
#    y 0.000000 3.738410 0.000000 
#    z -0.148620 0.000000 3.914270 
# 
# 
# High freq. dielectric constant tensor:
#      x y z
#    x 1.742370 0.000000 -0.009780 
#    y 0.000000 1.774860 0.000000 
#    z -0.009780 0.000000 1.784140 
# 
# From -- ./inp_files/275208.got.cif
#   From: 2010.06.25/outbox.cif.g09.slc.cpg/sg12_138_cif.got.tgz:275208.got - 2010.06.28 00:19:55.
