data_PCOD8090323
_publ_section_title
;
Structure prediction by ZEFSAII (Michael W. Deem and Ramdas Pophale) SiO2 
 PCOD8090323
Probable space group: C 2/M
;
_chemical_formula_sum "Si O2"
_cell_formula_units_Z 64
_cell_length_a 25.641989
_cell_length_b 9.060686
_cell_length_c 31.654639
_cell_angle_alpha 90.000000
_cell_angle_beta 152.615313
_cell_angle_gamma 90.000000
_cell_volume 3382.770775
_symmetry_space_group_name_H-M "C 2/M"
_symmetry_group_IT_number 12
_symmetry_cell_setting 'monoclinic'
loop_
_space_group_symop_operation_xyz
x,y,z
-x,y,-z
-x,-y,-z
x,-y,z
1/2+x,1/2+y,z
1/2-x,1/2+y,-z
1/2-x,1/2-y,-z
1/2+x,1/2-y,z
loop_
_atom_site_type_symbol
_atom_site_label
_atom_site_fract_x
_atom_site_fract_y
_atom_site_fract_z
Si Si1 0.914319 0.666718 0.405873
Si Si2 0.444027 0.165523 0.333708
Si Si3 0.218701 0.670997 0.161156
Si Si4 0.037046 0.325435 0.786842
Si Si5 0.479653 0.827153 0.128703
Si Si6 0.833754 0.176052 0.793802
Si Si7 0.236968 0.670448 0.080347
Si Si8 0.135239 0.670434 0.406525
O O1 0.896592 0.500000 0.409347
O O2 0.977816 0.672267 0.406911
O O3 0.788081 0.736234 0.311029
O O4 0.000000 0.750197 0.500000
O O5 0.350481 0.287103 0.256543
O O6 0.555220 0.204987 0.388251
O O7 0.398914 0.000000 0.289822
O O8 0.202346 0.500000 0.160546
O O9 0.147989 0.763154 0.145221
O O10 0.180053 0.706119 0.085216
O O11 0.049940 0.500000 0.793574
O O12 0.019732 0.272780 0.822435
O O13 0.150716 0.263010 0.847727
O O14 0.927390 0.272226 0.681131
O O15 0.571207 0.733751 0.169147
O O16 0.508614 0.000000 0.145262
O O17 0.355739 0.790669 0.021585
O O18 0.836298 0.000000 0.798146
O O19 0.272593 0.500000 0.104156
O O20 0.163748 0.500000 0.421997
O O21 0.250000 0.750000 0.500000
#
# Coordination Sequence:
#
# PCOD8090323 Si02
#       8
#     8   8   8   8   8   8   8   8
#     4   8  15  29  51  76 100 131 175 223 269 318
#     4   9  17  32  52  74 104 139 178 225 270 322
#     4  10  19  33  56  81 107 141 179 225 277 328
#     4  10  21  38  59  81 111 149 187 233 282 330
#     4  10  22  39  56  79 115 151 183 228 285 336
#     4  10  21  36  55  81 111 145 186 228 276 332
#     4  10  21  36  58  85 109 144 190 230 278 338
#     4  10  21  35  53  80 110 145 186 227 279 330
#
# _framework density 18.919402000000002
#
# number of rings (size 3 to 8) (size 9 to 14) (size 15 to 20)
#    0.000    2.375    1.250    1.875    0.000    4.000 
#    0.000    3.750    0.000    9.375    0.000    0.000 
#    0.000    0.000    0.000    0.000    0.000    0.000 
#
# Total GULP energy -396667.443497 kJ/mol
# GULP energy per Si atom -12395.857609 kJ/mol
# Density = 1.887634 g / cm^3
# Si number density = 18.919402 Si / 1000 Ang^3
#
#
#
# Elastic Constant Matrix: (Units=GPa)
#
#
# Indices 1 2 3 4 5 6 
#
# 1 127.9867 42.6216 61.6166 0.0002 -7.4272 -0.0001
# 2 42.6216 49.9600 31.1022 0.0004 0.3220 0.0022
# 3 61.6166 31.1022 110.9239 0.0005 -13.2254 0.0004
# 4 0.0002 0.0004 0.0005 24.7697 0.0000 7.5653
# 5 -7.4272 0.3220 -13.2254 0.0000 27.7906 0.0001
# 6 -0.0001 0.0022 0.0004 7.5653 0.0001 30.3264
#
#
#
# Elastic Compliance Matrix: (Units=1/GPa)
#
#
# Indices 1 2 3 4 5 6 
#
# 1 0.012832 -0.008011 -0.004730 0.000000 0.001271 0.000001
# 2 -0.008011 0.029619 -0.004401 0.000000 -0.004579 -0.000002
# 3 -0.004730 -0.004401 0.013498 0.000000 0.005210 0.000000
# 4 0.000000 0.000000 0.000000 0.043702 0.000000 -0.010902
# 5 0.001271 -0.004579 0.005210 0.000000 0.038856 0.000000
# 6 0.000001 -0.000002 0.000000 -0.010902 0.000000 0.035694
#
#
# Mechanical properties :
#
#
# Convention : Reuss Voigt Hill
#
# Bulk Modulus (GPa) = 46.15671 62.17240 54.16456
# Shear Modulus (GPa) = 23.17956 26.81269 24.99613
#
# Velocity S-wave (km/s) = 3.50405 3.76866 3.63876
# Velocity P-wave (km/s) = 6.38910 7.20209 6.80774
#
# Compressibility (1/GPa) = 0.02166532
#
# Stress axis : x y z
#
# Youngs Moduli (GPa) = 77.92982 33.76172 74.08423
#
# Poissons Ratio (x) = 0.27045 0.35045
# Poissons Ratio (y) = 0.62426 0.32606
# Poissons Ratio (z) = 0.36864 0.14859
#
# Static dielectric constant tensor:
#      x y z
#    x 3.762520 0.000000 -0.322040 
#    y 0.000000 3.304290 0.000000 
#    z -0.322040 0.000000 3.590050 
# 
# 
# High freq. dielectric constant tensor:
#      x y z
#    x 1.745660 0.000000 -0.012120 
#    y 0.000000 1.716330 0.000000 
#    z -0.012120 0.000000 1.732270 
# 
# From -- ./inp_files/382473.got.cif
#   From: 2010.06.25/outbox.cif.g09.slc.cpg/sg12_192_cif.got.tgz:382473.got - 2010.06.28 00:19:55.
