data_PCOD8090527
_publ_section_title
;
Structure prediction by ZEFSAII (Michael W. Deem and Ramdas Pophale) SiO2 
 PCOD8090527
Probable space group: C 2/M
;
_chemical_formula_sum "Si O2"
_cell_formula_units_Z 48
_cell_length_a 19.096864
_cell_length_b 8.826529
_cell_length_c 15.749047
_cell_angle_alpha 90.000000
_cell_angle_beta 75.766763
_cell_angle_gamma 90.000000
_cell_volume 2573.154078
_symmetry_space_group_name_H-M "C 2/M"
_symmetry_group_IT_number 12
_symmetry_cell_setting 'monoclinic'
loop_
_space_group_symop_operation_xyz
x,y,z
-x,y,-z
-x,-y,-z
x,-y,z
1/2+x,1/2+y,z
1/2-x,1/2+y,-z
1/2-x,1/2-y,-z
1/2+x,1/2-y,z
loop_
_atom_site_type_symbol
_atom_site_label
_atom_site_fract_x
_atom_site_fract_y
_atom_site_fract_z
Si Si1 0.693684 0.322082 0.275323
Si Si2 0.160553 0.824833 0.766705
Si Si3 0.411944 0.822665 0.368312
Si Si4 0.014483 0.175012 0.900249
Si Si5 0.181995 0.178358 0.473471
Si Si6 0.057595 0.677045 0.233736
O O1 0.705335 0.500000 0.263134
O O2 0.764441 0.237370 0.218143
O O3 0.679809 0.271733 0.376291
O O4 0.626977 0.272759 0.237834
O O5 0.143494 0.730744 0.687289
O O6 0.099025 0.799585 0.855615
O O7 0.167478 0.000000 0.739346
O O8 0.392009 0.739010 0.461856
O O9 0.493536 0.780629 0.318324
O O10 0.401298 0.000000 0.383965
O O11 0.965552 0.277563 0.854047
O O12 0.992666 0.000000 0.893428
O O13 0.000000 0.229123 0.000000
O O14 0.250000 0.250000 0.500000
O O15 0.186571 0.000000 0.482045
O O16 0.075472 0.500000 0.230996
#
# Coordination Sequence:
#
# PCOD8090527 Si02
#       6
#     8   8   8   8   8   8
#     4  11  23  37  54  79 113 149 185 230 278 322
#     4  10  19  33  57  83 109 144 183 223 272 329
#     4  10  20  35  54  78 109 146 188 231 273 321
#     4   9  19  38  63  88 112 140 177 222 274 335
#     4  11  22  34  53  79 109 147 191 236 273 318
#     4  10  22  38  57  82 113 146 183 228 277 328
#
# _framework density 18.654149
#
# number of rings (size 3 to 8) (size 9 to 14) (size 15 to 20)
#    0.000    1.833    1.667    2.500    0.000    5.667 
#    0.000    4.167    0.000    0.000    0.000    0.000 
#    0.000    0.000    0.000    0.000    0.000    0.000 
#
# Total GULP energy -297710.225128 kJ/mol
# GULP energy per Si atom -12404.592714 kJ/mol
# Density = 1.861169 g / cm^3
# Si number density = 18.654149 Si / 1000 Ang^3
#
#
#
# Elastic Constant Matrix: (Units=GPa)
#
#
# Indices 1 2 3 4 5 6 
#
# 1 110.4255 33.1774 42.4416 0.0000 2.3197 0.0000
# 2 33.1774 62.5296 34.5006 0.0000 -1.1744 0.0000
# 3 42.4416 34.5006 101.7972 0.0000 -9.6822 0.0000
# 4 0.0000 0.0000 0.0000 26.8495 0.0000 0.2839
# 5 2.3197 -1.1744 -9.6822 0.0000 20.4200 0.0000
# 6 0.0000 0.0000 0.0000 0.2839 0.0000 32.6004
#
#
#
# Elastic Compliance Matrix: (Units=1/GPa)
#
#
# Indices 1 2 3 4 5 6 
#
# 1 0.011879 -0.004250 -0.003837 0.000000 -0.003413 0.000000
# 2 -0.004250 0.021280 -0.005527 0.000000 -0.000914 0.000000
# 3 -0.003837 -0.005527 0.013936 0.000000 0.006726 0.000000
# 4 0.000000 0.000000 0.000000 0.037248 0.000000 -0.000324
# 5 -0.003413 -0.000914 0.006726 0.000000 0.052496 0.000000
# 6 0.000000 0.000000 0.000000 -0.000324 0.000000 0.030677
#
#
# Mechanical properties :
#
#
# Convention : Reuss Voigt Hill
#
# Bulk Modulus (GPa) = 50.33464 54.99906 52.66685
# Shear Modulus (GPa) = 24.83033 26.94950 25.88991
#
# Velocity S-wave (km/s) = 3.65237 3.80503 3.72948
# Velocity P-wave (km/s) = 6.69537 6.98942 6.84397
#
# Compressibility (1/GPa) = 0.01986703
#
# Stress axis : x y z
#
# Youngs Moduli (GPa) = 84.18055 46.99294 71.75609
#
# Poissons Ratio (x) = 0.19972 0.27533
# Poissons Ratio (y) = 0.35777 0.39660
# Poissons Ratio (z) = 0.32300 0.25973
#
# Static dielectric constant tensor:
#      x y z
#    x 3.448690 0.000000 -0.223010 
#    y 0.000000 3.475450 0.000000 
#    z -0.223010 0.000000 3.427100 
# 
# 
# High freq. dielectric constant tensor:
#      x y z
#    x 1.724450 0.000000 -0.011920 
#    y 0.000000 1.736370 0.000000 
#    z -0.011920 0.000000 1.707890 
# 
# From -- ./inp_files/221526.got.cif
#   From: 2010.06.25/outbox.cif.g09.slc.cpg/sg12_111_cif.got.tgz:221526.got - 2010.06.28 00:19:55.
