data_PCOD8090064
_publ_section_title
;
Structure prediction by ZEFSAII (Michael W. Deem and Ramdas Pophale) SiO2 
 PCOD8090064
Probable space group: C 2/M
;
_chemical_formula_sum "Si O2"
_cell_formula_units_Z 64
_cell_length_a 22.700160
_cell_length_b 9.478051
_cell_length_c 20.092450
_cell_angle_alpha 90.000000
_cell_angle_beta 52.705012
_cell_angle_gamma 90.000000
_cell_volume 3439.026322
_symmetry_space_group_name_H-M "C 2/M"
_symmetry_group_IT_number 12
_symmetry_cell_setting 'monoclinic'
loop_
_space_group_symop_operation_xyz
x,y,z
-x,y,-z
-x,-y,-z
x,-y,z
1/2+x,1/2+y,z
1/2-x,1/2+y,-z
1/2-x,1/2-y,-z
1/2+x,1/2-y,z
loop_
_atom_site_type_symbol
_atom_site_label
_atom_site_fract_x
_atom_site_fract_y
_atom_site_fract_z
Si Si1 0.423328 0.661129 0.579619
Si Si2 0.399130 0.338062 0.750324
Si Si3 0.242297 0.666235 0.171977
Si Si4 0.974226 0.661677 0.123237
Si Si5 0.700867 0.662392 0.584498
Si Si6 0.286012 0.161308 0.657814
Si Si7 0.617161 0.837778 0.944542
Si Si8 0.957954 0.165656 0.265663
O O1 0.500000 0.723564 0.500000
O O2 0.413434 0.500000 0.563744
O O3 0.424337 0.678321 0.657618
O O4 0.357342 0.746658 0.590801
O O5 0.377513 0.500000 0.781089
O O6 0.329740 0.236721 0.812550
O O7 0.468011 0.285932 0.747318
O O8 0.240855 0.500000 0.158657
O O9 0.245803 0.702831 0.248084
O O10 0.314092 0.734818 0.088894
O O11 0.962349 0.500000 0.152260
O O12 0.920853 0.701999 0.099047
O O13 0.952938 0.759297 0.198681
O O14 0.059237 0.686729 0.043748
O O15 0.712843 0.500000 0.557188
O O16 0.750000 0.750000 0.500000
O O17 0.724498 0.691691 0.644537
O O18 0.614103 0.704909 0.640238
O O19 0.311908 0.000000 0.640582
O O20 0.644184 0.000000 0.924811
O O21 0.957869 0.000000 0.251622
#
# Coordination Sequence:
#
# PCOD8090064 Si02
#       8
#     8   8   8   8   8   8   8   8
#     4   9  18  31  52  76  95 126 175 221 258 305
#     4   9  19  35  52  74 104 141 178 217 268 317
#     4  10  19  33  55  81 106 136 176 222 265 312
#     4   9  19  35  56  83 111 141 176 214 262 317
#     4  10  22  37  53  76 105 139 176 216 263 315
#     4   9  19  34  49  72 105 134 165 210 265 312
#     4   9  18  34  56  82 112 140 171 217 266 313
#     4  10  21  37  56  76 108 145 177 218 267 316
#
# _framework density 18.609919000000001
#
# number of rings (size 3 to 8) (size 9 to 14) (size 15 to 20)
#    0.000    2.625    0.000    1.875    1.750    4.250 
#    0.000    1.875    0.000    0.000    0.000    0.000 
#    0.000    0.000    0.000    0.000    0.000    0.000 
#
# Total GULP energy -396834.945947 kJ/mol
# GULP energy per Si atom -12401.092061 kJ/mol
# Density = 1.856756 g / cm^3
# Si number density = 18.609919 Si / 1000 Ang^3
#
#
#
# Elastic Constant Matrix: (Units=GPa)
#
#
# Indices 1 2 3 4 5 6 
#
# 1 85.5968 44.3229 36.8322 -0.0001 -19.5350 0.0001
# 2 44.3229 72.0146 44.7455 -0.0008 -16.6503 0.0007
# 3 36.8322 44.7455 80.6862 0.0000 -20.4605 0.0000
# 4 -0.0001 -0.0008 0.0000 31.6072 0.0001 -2.0843
# 5 -19.5350 -16.6503 -20.4605 0.0001 31.3118 -0.0001
# 6 0.0001 0.0007 0.0000 -2.0843 -0.0001 30.2424
#
#
#
# Elastic Compliance Matrix: (Units=1/GPa)
#
#
# Indices 1 2 3 4 5 6 
#
# 1 0.018357 -0.008687 -0.002193 0.000000 0.005400 0.000000
# 2 -0.008687 0.025792 -0.009869 0.000001 0.001846 0.000000
# 3 -0.002193 -0.009869 0.020604 0.000000 0.006848 0.000000
# 4 0.000000 0.000001 0.000000 0.031783 0.000000 0.002190
# 5 0.005400 0.001846 0.006848 0.000000 0.040762 0.000000
# 6 0.000000 0.000000 0.000000 0.002190 0.000000 0.033217
#
#
# Mechanical properties :
#
#
# Convention : Reuss Voigt Hill
#
# Bulk Modulus (GPa) = 43.00256 54.45540 48.72898
# Shear Modulus (GPa) = 22.75152 26.12542 24.43847
#
# Velocity S-wave (km/s) = 3.50029 3.75086 3.62774
# Velocity P-wave (km/s) = 6.28439 6.93423 6.61729
#
# Compressibility (1/GPa) = 0.02325443
#
# Stress axis : x y z
#
# Youngs Moduli (GPa) = 54.47513 38.77185 48.53358
#
# Poissons Ratio (x) = 0.33682 0.10642
# Poissons Ratio (y) = 0.47323 0.47900
# Poissons Ratio (z) = 0.11945 0.38266
#
# Static dielectric constant tensor:
#      x y z
#    x 3.443120 0.000000 -0.167930 
#    y 0.000000 3.369400 0.000000 
#    z -0.167930 0.000000 3.307230 
# 
# 
# High freq. dielectric constant tensor:
#      x y z
#    x 1.720920 0.000000 -0.013800 
#    y 0.000000 1.717650 0.000000 
#    z -0.013800 0.000000 1.715790 
# 
# From -- ./inp_files/324181.got.cif
#   From: 2010.06.25/outbox.cif.g09.slc.cpg/sg12_163_cif.got.tgz:324181.got - 2010.06.28 00:19:55.
