data_PCOD8090018
_publ_section_title
;
Structure prediction by ZEFSAII (Michael W. Deem and Ramdas Pophale) SiO2 
 PCOD8090018
Probable space group: C 2/M
;
_chemical_formula_sum "Si O2"
_cell_formula_units_Z 56
_cell_length_a 26.779490
_cell_length_b 8.954589
_cell_length_c 14.518879
_cell_angle_alpha 90.000000
_cell_angle_beta 123.107676
_cell_angle_gamma 90.000000
_cell_volume 2916.361317
_symmetry_space_group_name_H-M "C 2/M"
_symmetry_group_IT_number 12
_symmetry_cell_setting 'monoclinic'
loop_
_space_group_symop_operation_xyz
x,y,z
-x,y,-z
-x,-y,-z
x,-y,z
1/2+x,1/2+y,z
1/2-x,1/2+y,-z
1/2-x,1/2-y,-z
1/2+x,1/2-y,z
loop_
_atom_site_type_symbol
_atom_site_label
_atom_site_fract_x
_atom_site_fract_y
_atom_site_fract_z
Si Si1 0.748861 0.823557 0.598624
Si Si2 0.533957 0.176182 0.187886
Si Si3 0.964610 0.828183 0.626135
Si Si4 0.097519 0.824945 0.744866
Si Si5 0.408924 0.672286 0.059458
Si Si6 0.633645 0.327189 0.176525
Si Si7 0.353161 0.672518 0.390380
O O1 0.750000 0.750000 0.500000
O O2 0.806216 0.770418 0.714549
O O3 0.691352 0.773862 0.597153
O O4 0.747624 0.000000 0.584369
O O5 0.559193 0.236348 0.310245
O O6 0.467794 0.232739 0.099727
O O7 0.577738 0.231519 0.152566
O O8 0.533572 0.000000 0.188460
O O9 0.919520 0.808660 0.497047
O O10 0.029801 0.765500 0.663761
O O11 0.969538 0.000000 0.662171
O O12 0.120328 0.782247 0.870967
O O13 0.141752 0.763378 0.709581
O O14 0.096737 0.000000 0.726523
O O15 0.429051 0.500000 0.084969
O O16 0.361449 0.697527 0.929424
O O17 0.622186 0.500000 0.188735
O O18 0.331992 0.500000 0.374621
#
# Coordination Sequence:
#
# PCOD8090018 Si02
#       7
#     8   8   8   8   8   8   8
#     4  11  24  40  56  76 103 135 174 216 257 303
#     4  11  21  31  49  80 112 136 164 211 266 310
#     4   9  17  31  52  77 106 141 176 207 246 304
#     4   8  15  30  54  81 104 130 170 214 250 296
#     4   9  18  35  57  77 101 136 175 210 248 303
#     4  10  21  37  55  73  98 138 181 214 249 303
#     4  10  19  33  55  80 105 135 173 215 257 300
#
# _framework density 19.202010999999999
#
# number of rings (size 3 to 8) (size 9 to 14) (size 15 to 20)
#    0.000    2.286    0.000    4.286    0.000    9.143 
#    0.000    3.571    0.000    4.286    0.000    0.000 
#    0.000    0.000    0.000    0.000    0.000    0.000 
#
# Total GULP energy -347099.193680 kJ/mol
# GULP energy per Si atom -12396.399774 kJ/mol
# Density = 1.915831 g / cm^3
# Si number density = 19.202011 Si / 1000 Ang^3
#
#
#
# Elastic Constant Matrix: (Units=GPa)
#
#
# Indices 1 2 3 4 5 6 
#
# 1 112.8265 30.3140 60.7342 0.0000 -29.2811 0.0000
# 2 30.3140 65.9894 37.4298 0.0000 -7.8610 0.0000
# 3 60.7342 37.4298 139.6631 0.0000 -21.3288 0.0000
# 4 0.0000 0.0000 0.0000 17.0664 0.0000 0.9423
# 5 -29.2811 -7.8610 -21.3288 0.0000 28.4092 0.0000
# 6 0.0000 0.0000 0.0000 0.9423 0.0000 21.5892
#
#
#
# Elastic Compliance Matrix: (Units=1/GPa)
#
#
# Indices 1 2 3 4 5 6 
#
# 1 0.014754 -0.003262 -0.003792 0.000000 0.011458 0.000000
# 2 -0.003262 0.018650 -0.003733 0.000000 -0.001004 0.000000
# 3 -0.003792 -0.003733 0.010228 0.000000 0.002737 0.000000
# 4 0.000000 0.000000 0.000000 0.058736 0.000000 -0.002564
# 5 0.011458 -0.001004 0.002737 0.000000 0.048786 0.000000
# 6 0.000000 0.000000 0.000000 -0.002564 0.000000 0.046431
#
#
# Mechanical properties :
#
#
# Convention : Reuss Voigt Hill
#
# Bulk Modulus (GPa) = 45.33554 63.93721 54.63638
# Shear Modulus (GPa) = 22.07376 26.07969 24.07673
#
# Velocity S-wave (km/s) = 3.39419 3.68934 3.54484
# Velocity P-wave (km/s) = 6.24674 7.17759 6.72828
#
# Compressibility (1/GPa) = 0.02205775
#
# Stress axis : x y z
#
# Youngs Moduli (GPa) = 67.77627 53.61849 97.77442
#
# Poissons Ratio (x) = 0.17490 0.37078
# Poissons Ratio (y) = 0.22109 0.36500
# Poissons Ratio (z) = 0.25702 0.20016
#
# Static dielectric constant tensor:
#      x y z
#    x 3.490120 0.000000 -0.260960 
#    y 0.000000 3.285430 0.000000 
#    z -0.260960 0.000000 3.735780 
# 
# 
# High freq. dielectric constant tensor:
#      x y z
#    x 1.734930 0.000000 -0.021440 
#    y 0.000000 1.721510 0.000000 
#    z -0.021440 0.000000 1.754870 
# 
# From -- ./inp_files/238971.got.cif
#   From: 2010.06.25/outbox.cif.g09.slc.cpg/sg12_120_cif.got.tgz:238971.got - 2010.06.28 00:19:55.
