data_PCOD8090514
_publ_section_title
;
Structure prediction by ZEFSAII (Michael W. Deem and Ramdas Pophale) SiO2 
 PCOD8090514
Probable space group: C 2/M
;
_chemical_formula_sum "Si O2"
_cell_formula_units_Z 40
_cell_length_a 10.240381
_cell_length_b 22.952089
_cell_length_c 8.857674
_cell_angle_alpha 90.000000
_cell_angle_beta 137.459438
_cell_angle_gamma 90.000000
_cell_volume 1407.591587
_symmetry_space_group_name_H-M "C 2/M"
_symmetry_group_IT_number 12
_symmetry_cell_setting 'monoclinic'
loop_
_space_group_symop_operation_xyz
x,y,z
-x,y,-z
-x,-y,-z
x,-y,z
1/2+x,1/2+y,z
1/2-x,1/2+y,-z
1/2-x,1/2-y,-z
1/2+x,1/2-y,z
loop_
_atom_site_type_symbol
_atom_site_label
_atom_site_fract_x
_atom_site_fract_y
_atom_site_fract_z
Si Si1 0.419715 0.733660 0.255659
Si Si2 0.153283 0.313576 0.268835
Si Si3 0.288469 0.066841 0.277111
Si Si4 0.210978 0.562841 0.249079
Si Si5 0.458594 0.393629 0.194438
O O1 0.335688 0.725627 0.357840
O O2 0.576887 0.784765 0.357708
O O3 0.512921 0.672878 0.280253
O O4 0.250000 0.750000 0.000000
O O5 0.222017 0.380108 0.367486
O O6 0.000000 0.316744 0.000000
O O7 0.500000 0.089678 0.500000
O O8 0.145264 0.071544 0.296749
O O9 0.297526 0.000000 0.228646
O O10 0.210355 0.107552 0.075879
O O11 0.243558 0.500000 0.358833
O O12 0.379000 0.570890 0.268877
O O13 0.000000 0.561873 0.000000
#
# Coordination Sequence:
#
# PCOD8090514 Si02
#       5
#     8   8   8   8   8
#     4   9  17  27  47  79 106 137 187 221 270 338
#     4   8  15  25  39  70 103 136 176 220 268 318
#     4  10  21  35  54  83 113 142 183 232 281 333
#     4   9  16  28  47  77 111 139 183 229 267 334
#     4  10  19  33  57  82 108 148 182 226 283 333
#
# _framework density 28.417334
#
# number of rings (size 3 to 8) (size 9 to 14) (size 15 to 20)
#    0.000    2.800    0.000    3.600    8.400    0.000 
#    0.000    0.000    0.000    2.400    0.000    5.600 
#    0.000    0.000    0.000    0.000    0.000    0.000 
#
# Total GULP energy -247930.166683 kJ/mol
# GULP energy per Si atom -12396.508334 kJ/mol
# Density = 2.835265 g / cm^3
# Si number density = 28.417334 Si / 1000 Ang^3
#
#
#
# Elastic Constant Matrix: (Units=GPa)
#
#
# Indices 1 2 3 4 5 6 
#
# 1 148.9454 104.6878 53.7708 0.0000 10.7026 0.0000
# 2 104.6878 232.2582 43.1431 0.0000 -5.5702 0.0000
# 3 53.7708 43.1431 97.0194 0.0000 4.9685 0.0000
# 4 0.0000 0.0000 0.0000 38.5752 0.0000 3.5298
# 5 10.7026 -5.5702 4.9685 0.0000 42.8205 0.0000
# 6 0.0000 0.0000 0.0000 3.5298 0.0000 52.9663
#
#
#
# Elastic Compliance Matrix: (Units=1/GPa)
#
#
# Indices 1 2 3 4 5 6 
#
# 1 0.011667 -0.004533 -0.004296 0.000000 -0.003007 0.000000
# 2 -0.004533 0.006486 -0.000476 0.000000 0.002032 0.000000
# 3 -0.004296 -0.000476 0.012925 0.000000 -0.000488 0.000000
# 4 0.000000 0.000000 0.000000 0.026082 0.000000 -0.001738
# 5 -0.003007 0.002032 -0.000488 0.000000 0.024426 0.000000
# 6 0.000000 0.000000 0.000000 -0.001738 0.000000 0.018996
#
#
# Mechanical properties :
#
#
# Convention : Reuss Voigt Hill
#
# Bulk Modulus (GPa) = 80.20972 97.93627 89.07299
# Shear Modulus (GPa) = 40.53568 45.31381 42.92475
#
# Velocity S-wave (km/s) = 3.78092 3.99756 3.89075
# Velocity P-wave (km/s) = 6.88095 7.47299 7.18307
#
# Compressibility (1/GPa) = 0.01246732
#
# Stress axis : x y z
#
# Youngs Moduli (GPa) = 85.71244 154.18306 77.36886
#
# Poissons Ratio (x) = 0.69888 0.33241
# Poissons Ratio (y) = 0.38851 0.03683
# Poissons Ratio (z) = 0.36826 0.07339
#
# Static dielectric constant tensor:
#      x y z
#    x 5.599830 0.000000 0.283010 
#    y 0.000000 5.756290 0.000000 
#    z 0.283010 0.000000 5.941580 
# 
# 
# High freq. dielectric constant tensor:
#      x y z
#    x 2.145180 0.000000 0.022860 
#    y 0.000000 2.152310 0.000000 
#    z 0.022860 0.000000 2.203910 
# 
# From -- ./inp_files/135610.got.cif
#   From: 2010.06.25/outbox.cif.g09.slc.cpg/sg12_68_cif.got.tgz:135610.got - 2010.06.28 00:19:55.
