data_PCOD8090812
_publ_section_title
;
Structure prediction by ZEFSAII (Michael W. Deem and Ramdas Pophale) SiO2 
 PCOD8090812
Probable space group: C 2/M
;
_chemical_formula_sum "Si O2"
_cell_formula_units_Z 40
_cell_length_a 15.364525
_cell_length_b 32.396975
_cell_length_c 5.203303
_cell_angle_alpha 90.000000
_cell_angle_beta 54.982280
_cell_angle_gamma 90.000000
_cell_volume 2121.158666
_symmetry_space_group_name_H-M "C 2/M"
_symmetry_group_IT_number 12
_symmetry_cell_setting 'monoclinic'
loop_
_space_group_symop_operation_xyz
x,y,z
-x,y,-z
-x,-y,-z
x,-y,z
1/2+x,1/2+y,z
1/2-x,1/2+y,-z
1/2-x,1/2-y,-z
1/2+x,1/2-y,z
loop_
_atom_site_type_symbol
_atom_site_label
_atom_site_fract_x
_atom_site_fract_y
_atom_site_fract_z
Si Si1 0.702399 0.326851 0.278104
Si Si2 0.612752 0.711190 0.910976
Si Si3 0.109135 0.048028 0.052913
Si Si4 0.432388 0.195472 0.873648
Si Si5 0.875061 0.916568 0.474900
O O1 0.690541 0.293948 0.532861
O O2 0.648558 0.368481 0.468487
O O3 0.647631 0.313852 0.104151
O O4 0.827964 0.332694 0.014686
O O5 0.500000 0.694361 0.000000
O O6 0.606734 0.758371 0.005503
O O7 0.175485 0.059137 0.196142
O O8 0.000836 0.074425 0.248990
O O9 0.081463 0.000000 0.080826
O O10 0.177060 0.063886 0.693802
O O11 0.500000 0.193695 0.500000
O O12 0.500000 0.178580 0.000000
#
# Coordination Sequence:
#
# PCOD8090812 Si02
#       5
#     8   8   8   8   8
#     4  12  23  36  57  81 114 138 189 247 272 321
#     4  11  23  36  55  80 110 148 182 225 294 340
#     4  10  19  34  51  74 118 150 170 201 258 351
#     4  11  23  42  57  75 102 151 199 236 286 329
#     4  10  20  30  49  78 104 141 181 205 264 311
#
# _framework density 18.857617000000001
#
# number of rings (size 3 to 8) (size 9 to 14) (size 15 to 20)
#    0.000    1.200    0.000    9.600    8.400    0.000 
#    0.000    0.000    0.000    0.000    0.000    0.000 
#    0.000   27.200    0.000    0.000    0.000    0.000 
#
# Total GULP energy -247880.140730 kJ/mol
# GULP energy per Si atom -12394.007036 kJ/mol
# Density = 1.881470 g / cm^3
# Si number density = 18.857617 Si / 1000 Ang^3
#
#
#
# Elastic Constant Matrix: (Units=GPa)
#
#
# Indices 1 2 3 4 5 6 
#
# 1 103.2738 42.2401 58.0059 0.0000 27.3627 0.0000
# 2 42.2401 65.8707 30.2880 0.0000 -3.1560 0.0000
# 3 58.0059 30.2880 124.9074 0.0000 32.9848 0.0000
# 4 0.0000 0.0000 0.0000 15.6335 0.0000 8.1723
# 5 27.3627 -3.1560 32.9848 0.0000 49.9344 0.0000
# 6 0.0000 0.0000 0.0000 8.1723 0.0000 15.5857
#
#
#
# Elastic Compliance Matrix: (Units=1/GPa)
#
#
# Indices 1 2 3 4 5 6 
#
# 1 0.018176 -0.010293 -0.003807 0.000000 -0.008096 0.000000
# 2 -0.010293 0.023844 -0.003500 0.000000 0.009459 0.000000
# 3 -0.003807 -0.003500 0.012270 0.000000 -0.006240 0.000000
# 4 0.000000 0.000000 0.000000 0.088118 0.000000 -0.046205
# 5 -0.008096 0.009459 -0.006240 0.000000 0.029183 0.000000
# 6 0.000000 0.000000 0.000000 -0.046205 0.000000 0.088389
#
#
# Mechanical properties :
#
#
# Convention : Reuss Voigt Hill
#
# Bulk Modulus (GPa) = 52.38020 61.67997 57.03008
# Shear Modulus (GPa) = 16.58130 27.13191 21.85660
#
# Velocity S-wave (km/s) = 2.96850 3.79724 3.40815
# Velocity P-wave (km/s) = 6.29176 7.21142 6.76723
#
# Compressibility (1/GPa) = 0.01909118
#
# Stress axis : x y z
#
# Youngs Moduli (GPa) = 55.01656 41.93898 81.49632
#
# Poissons Ratio (x) = 0.43168 0.31027
# Poissons Ratio (y) = 0.56629 0.28522
# Poissons Ratio (z) = 0.20945 0.14678
#
# Static dielectric constant tensor:
#      x y z
#    x 4.630170 0.000000 1.649730 
#    y 0.000000 3.211190 0.000000 
#    z 1.649730 0.000000 5.082480 
# 
# 
# High freq. dielectric constant tensor:
#      x y z
#    x 1.720530 0.000000 0.050520 
#    y 0.000000 1.710500 0.000000 
#    z 0.050520 0.000000 1.737630 
# 
# From -- ./inp_files/12729.got.cif
#   From: 2010.06.25/outbox.cif.g09.slc.cpg/sg12_7_cif.got.tgz:12729.got - 2010.06.28 00:19:55.
