data_PCOD8090881
_publ_section_title
;
Structure prediction by ZEFSAII (Michael W. Deem and Ramdas Pophale) SiO2 
 PCOD8090881
Probable space group: C 2/M
;
_chemical_formula_sum "Si O2"
_cell_formula_units_Z 48
_cell_length_a 29.140834
_cell_length_b 9.359061
_cell_length_c 19.007978
_cell_angle_alpha 90.000000
_cell_angle_beta 31.068596
_cell_angle_gamma 90.000000
_cell_volume 2675.307331
_symmetry_space_group_name_H-M "C 2/M"
_symmetry_group_IT_number 12
_symmetry_cell_setting 'monoclinic'
loop_
_space_group_symop_operation_xyz
x,y,z
-x,y,-z
-x,-y,-z
x,-y,z
1/2+x,1/2+y,z
1/2-x,1/2+y,-z
1/2-x,1/2-y,-z
1/2+x,1/2-y,z
loop_
_atom_site_type_symbol
_atom_site_label
_atom_site_fract_x
_atom_site_fract_y
_atom_site_fract_z
Si Si1 0.265172 0.333612 0.085737
Si Si2 0.160052 0.335317 0.615903
Si Si3 0.250371 0.669445 0.266395
Si Si4 0.082142 0.331276 0.572796
Si Si5 0.901902 0.665215 0.149285
Si Si6 0.115493 0.667357 0.173123
O O1 0.288538 0.500000 0.049370
O O2 0.252605 0.284448 0.182286
O O3 0.173651 0.297830 0.165474
O O4 0.346120 0.246596 0.945655
O O5 0.185749 0.500000 0.572399
O O6 0.250000 0.250000 0.500000
O O7 0.101957 0.281026 0.626368
O O8 0.104488 0.308336 0.759160
O O9 0.258534 0.500000 0.264882
O O10 0.157749 0.728333 0.420763
O O11 0.331721 0.739967 0.200056
O O12 0.082361 0.500000 0.566594
O O13 0.984112 0.274823 0.680672
O O14 0.885358 0.500000 0.151360
O O15 0.000000 0.715815 0.000000
O O16 0.115219 0.500000 0.155558
#
# Coordination Sequence:
#
# PCOD8090881 Si02
#       6
#     8   8   8   8   8   8
#     4   9  19  34  52  78 106 131 165 210 254 299
#     4  10  19  34  53  74 102 133 168 208 249 297
#     4  10  20  35  53  75 105 134 167 211 254 300
#     4   9  18  32  53  77  99 131 171 207 248 298
#     4  10  22  36  52  76 104 134 172 213 250 297
#     4   9  18  34  56  77 100 134 170 205 252 304
#
# _framework density 17.941863999999999
#
# number of rings (size 3 to 8) (size 9 to 14) (size 15 to 20)
#    0.000    2.500    1.667    0.000    2.333    1.667 
#    0.000    5.000    0.000    0.000    0.000    5.833 
#    0.000    0.000    0.000    0.000    0.000    0.000 
#
# Total GULP energy -297600.325695 kJ/mol
# GULP energy per Si atom -12400.013571 kJ/mol
# Density = 1.790103 g / cm^3
# Si number density = 17.941864 Si / 1000 Ang^3
#
#
#
# Elastic Constant Matrix: (Units=GPa)
#
#
# Indices 1 2 3 4 5 6 
#
# 1 101.0141 25.2151 72.6187 0.0007 4.5549 -0.0004
# 2 25.2151 28.1930 34.5852 0.0007 0.5980 -0.0010
# 3 72.6187 34.5852 161.6136 0.0006 -5.7755 -0.0004
# 4 0.0007 0.0007 0.0006 25.9520 0.0000 -0.9217
# 5 4.5549 0.5980 -5.7755 0.0000 39.0222 0.0000
# 6 -0.0004 -0.0010 -0.0004 -0.9217 0.0000 26.1656
#
#
#
# Elastic Compliance Matrix: (Units=1/GPa)
#
#
# Indices 1 2 3 4 5 6 
#
# 1 0.015909 -0.007174 -0.005706 0.000000 -0.002592 0.000000
# 2 -0.007174 0.051532 -0.007844 -0.000001 -0.001113 0.000002
# 3 -0.005706 -0.007844 0.010514 0.000000 0.002342 0.000000
# 4 0.000000 -0.000001 0.000000 0.038581 0.000000 0.001359
# 5 -0.002592 -0.001113 0.002342 0.000000 0.026293 0.000000
# 6 0.000000 0.000002 0.000000 0.001359 0.000000 0.038266
#
#
# Mechanical properties :
#
#
# Convention : Reuss Voigt Hill
#
# Bulk Modulus (GPa) = 27.39195 61.73985 44.56590
# Shear Modulus (GPa) = 21.30264 28.78806 25.04535
#
# Velocity S-wave (km/s) = 3.44948 4.00999 3.74025
# Velocity P-wave (km/s) = 5.58260 7.47835 6.59891
#
# Compressibility (1/GPa) = 0.03650707
#
# Stress axis : x y z
#
# Youngs Moduli (GPa) = 62.85639 19.40524 95.11306
#
# Poissons Ratio (x) = 0.13922 0.54271
# Poissons Ratio (y) = 0.45095 0.74607
# Poissons Ratio (z) = 0.35865 0.15222
#
# Static dielectric constant tensor:
#      x y z
#    x 3.455030 0.000010 -0.133510 
#    y 0.000010 3.127330 0.000010 
#    z -0.133510 0.000010 3.598970 
# 
# 
# High freq. dielectric constant tensor:
#      x y z
#    x 1.701120 0.000000 0.001770 
#    y 0.000000 1.669660 0.000000 
#    z 0.001770 0.000000 1.705620 
# 
# From -- ./inp_files/222595.got.cif
#   From: 2010.06.25/outbox.cif.g09.slc.cpg/sg12_112_cif.got.tgz:222595.got - 2010.06.28 00:19:55.
