data_PCOD8090426
_publ_section_title
;
Structure prediction by ZEFSAII (Michael W. Deem and Ramdas Pophale) SiO2 
 PCOD8090426
Probable space group: C 2/M
;
_chemical_formula_sum "Si O2"
_cell_formula_units_Z 52
_cell_length_a 26.252962
_cell_length_b 15.270450
_cell_length_c 7.705251
_cell_angle_alpha 90.000000
_cell_angle_beta 116.704728
_cell_angle_gamma 90.000000
_cell_volume 2759.503498
_symmetry_space_group_name_H-M "C 2/M"
_symmetry_group_IT_number 12
_symmetry_cell_setting 'monoclinic'
loop_
_space_group_symop_operation_xyz
x,y,z
-x,y,-z
-x,-y,-z
x,-y,z
1/2+x,1/2+y,z
1/2-x,1/2+y,-z
1/2-x,1/2-y,-z
1/2+x,1/2-y,z
loop_
_atom_site_type_symbol
_atom_site_label
_atom_site_fract_x
_atom_site_fract_y
_atom_site_fract_z
Si Si1 0.788262 0.599910 0.796678
Si Si2 0.147180 0.155475 0.910387
Si Si3 0.022104 0.901192 0.719196
Si Si4 0.768895 0.404252 0.157754
Si Si5 0.500000 0.277206 0.000000
Si Si6 0.312801 0.731340 0.380323
Si Si7 0.123819 0.721061 0.189391
O O1 0.772361 0.500000 0.725880
O O2 0.737586 0.663210 0.653815
O O3 0.846721 0.625810 0.785599
O O4 0.798796 0.612035 0.018084
O O5 0.090506 0.097612 0.826249
O O6 0.151997 0.205191 0.735150
O O7 0.201150 0.093266 0.021135
O O8 0.146894 0.225536 0.062038
O O9 0.000000 0.866726 0.500000
O O10 0.000275 0.000000 0.720010
O O11 0.996465 0.838465 0.826087
O O12 0.786473 0.500000 0.259113
O O13 0.786819 0.328777 0.318244
O O14 0.555216 0.214407 0.081473
O O15 0.356827 0.730707 0.605761
#
# Coordination Sequence:
#
# PCOD8090426 Si02
#       7
#     8   8   8   8   4   8   8
#     4  10  20  36  57  83 114 147 179 228 281 329
#     4  10  19  35  53  77 114 145 174 220 274 327
#     4  10  20  35  55  79 108 145 187 227 270 326
#     4  10  19  33  56  84 113 143 176 220 283 340
#     4  10  23  38  55  78 108 148 192 230 274 316
#     4  11  20  36  57  83 114 141 181 228 274 338
#     4  11  21  37  57  79 108 149 186 228 272 324
#
# _framework density 18.843969999999999
#
# number of rings (size 3 to 8) (size 9 to 14) (size 15 to 20)
#    0.000    1.692    3.077    3.000    0.000    1.231 
#    0.000    4.231    0.000    0.000    0.000    2.154 
#    0.000    0.000    0.000    0.000    0.000    0.000 
#
# Total GULP energy -322403.255564 kJ/mol
# GULP energy per Si atom -12400.125214 kJ/mol
# Density = 1.880108 g / cm^3
# Si number density = 18.843970 Si / 1000 Ang^3
#
#
#
# Elastic Constant Matrix: (Units=GPa)
#
#
# Indices 1 2 3 4 5 6 
#
# 1 97.3741 36.0832 37.9387 0.0000 -2.3052 0.0000
# 2 36.0832 101.8688 27.3455 0.0000 5.6498 0.0000
# 3 37.9387 27.3455 84.1422 0.0000 -4.6833 0.0000
# 4 0.0000 0.0000 0.0000 -1.6344 0.0000 -2.6771
# 5 -2.3052 5.6498 -4.6833 0.0000 21.5775 0.0000
# 6 0.0000 0.0000 0.0000 -2.6771 0.0000 17.7073
#
#
#
# Elastic Compliance Matrix: (Units=1/GPa)
#
#
# Indices 1 2 3 4 5 6 
#
# 1 0.013513 -0.003554 -0.004865 0.000000 0.001318 0.000000
# 2 -0.003554 0.011976 -0.002516 0.000000 -0.004061 0.000000
# 3 -0.004865 -0.002516 0.015086 0.000000 0.003413 0.000000
# 4 0.000000 0.000000 0.000000 -0.490395 0.000000 -0.074142
# 5 0.001318 -0.004061 0.003413 0.000000 0.048290 0.000000
# 6 0.000000 0.000000 0.000000 -0.074142 0.000000 0.045265
#
#
# Mechanical properties :
#
#
# Convention : Reuss Voigt Hill
#
# Bulk Modulus (GPa) = 53.45772 54.01334 53.73553
# Shear Modulus (GPa) = -15.23638 19.66457 2.21410
#
# Velocity S-wave (km/s) = -2.84659 3.23390 1.08513
# Velocity P-wave (km/s) = 4.19834 6.53222 5.49072
#
# Compressibility (1/GPa) = 0.01870637
#
# Stress axis : x y z
#
# Youngs Moduli (GPa) = 74.00222 83.50080 66.28831
#
# Poissons Ratio (x) = 0.29674 0.32246
# Poissons Ratio (y) = 0.26299 0.16677
# Poissons Ratio (z) = 0.35999 0.21007
#
# Static dielectric constant tensor:
#      x y z
#    x 3.493910 0.000000 -0.077580 
#    y 0.000000 3.349120 0.000000 
#    z -0.077580 0.000000 3.385050 
# 
# 
# High freq. dielectric constant tensor:
#      x y z
#    x 1.731350 0.000000 -0.012930 
#    y 0.000000 1.718440 0.000000 
#    z -0.012930 0.000000 1.729550 
# 
# From -- ./inp_files/111327.got.cif
#   From: 2010.06.25/outbox.cif.g09.slc.cpg/sg12_56_cif.got.tgz:111327.got - 2010.06.28 00:19:55.
