data_PCOD8090143
_publ_section_title
;
Structure prediction by ZEFSAII (Michael W. Deem and Ramdas Pophale) SiO2 
 PCOD8090143
Probable space group: C 2/M
;
_chemical_formula_sum "Si O2"
_cell_formula_units_Z 64
_cell_length_a 15.277142
_cell_length_b 8.947569
_cell_length_c 32.502854
_cell_angle_alpha 90.000000
_cell_angle_beta 46.984618
_cell_angle_gamma 90.000000
_cell_volume 3248.533711
_symmetry_space_group_name_H-M "C 2/M"
_symmetry_group_IT_number 12
_symmetry_cell_setting 'monoclinic'
loop_
_space_group_symop_operation_xyz
x,y,z
-x,y,-z
-x,-y,-z
x,-y,z
1/2+x,1/2+y,z
1/2-x,1/2+y,-z
1/2-x,1/2-y,-z
1/2+x,1/2-y,z
loop_
_atom_site_type_symbol
_atom_site_label
_atom_site_fract_x
_atom_site_fract_y
_atom_site_fract_z
Si Si1 0.945268 0.829199 0.605563
Si Si2 0.234975 0.672075 0.615405
Si Si3 0.513397 0.323803 0.313884
Si Si4 0.267990 0.322971 0.812044
Si Si5 0.339544 0.177098 0.503323
Si Si6 0.524601 0.673056 0.875080
Si Si7 0.305988 0.673582 0.891822
Si Si8 0.404454 0.324115 0.997158
O O1 0.807893 0.813857 0.634828
O O2 0.955378 0.778138 0.649500
O O3 0.026049 0.722954 0.551332
O O4 0.989918 0.000000 0.586194
O O5 0.223812 0.500000 0.604962
O O6 0.308472 0.763818 0.558187
O O7 0.104308 0.739936 0.664021
O O8 0.492240 0.500000 0.316439
O O9 0.621424 0.266985 0.250782
O O10 0.262730 0.500000 0.813837
O O11 0.146977 0.262652 0.830550
O O12 0.284833 0.260099 0.852993
O O13 0.250000 0.250000 0.500000
O O14 0.325539 0.000000 0.507008
O O15 0.557158 0.500000 0.870672
O O16 0.444007 0.700386 0.860458
O O17 0.450723 0.731766 0.938196
O O18 0.274266 0.500000 0.902948
O O19 0.222698 0.751494 0.952184
O O20 0.386251 0.500000 0.003972
O O21 0.500000 0.269265 0.000000
#
# Coordination Sequence:
#
# PCOD8090143 Si02
#       8
#     8   8   8   8   8   8   8   8
#     4  10  22  40  61  86 119 155 191 236 289 342
#     4  11  23  39  61  90 119 151 193 238 288 344
#     4  10  22  41  61  81 113 155 194 237 287 337
#     4  10  22  39  58  82 111 148 194 237 282 336
#     4  12  23  37  61  91 122 155 192 234 287 346
#     4  10  21  37  56  81 113 148 184 232 289 342
#     4  10  21  36  56  83 114 146 185 233 286 339
#     4  10  19  33  55  82 112 145 185 228 282 347
#
# _framework density 19.701197000000001
#
# number of rings (size 3 to 8) (size 9 to 14) (size 15 to 20)
#    0.000    1.625    2.500    2.250    0.000    5.250 
#    0.000    0.000    0.000    0.000    0.000    0.000 
#    0.000    0.000    0.000    0.000    0.000    0.000 
#
# Total GULP energy -396926.068126 kJ/mol
# GULP energy per Si atom -12403.939629 kJ/mol
# Density = 1.965636 g / cm^3
# Si number density = 19.701197 Si / 1000 Ang^3
#
#
#
# Elastic Constant Matrix: (Units=GPa)
#
#
# Indices 1 2 3 4 5 6 
#
# 1 113.6535 33.1116 40.3657 -0.0004 -21.2827 -0.0007
# 2 33.1116 64.8146 37.4597 -0.0007 -12.9666 -0.0012
# 3 40.3657 37.4597 119.3232 -0.0002 -28.1173 -0.0002
# 4 -0.0004 -0.0007 -0.0002 27.2715 -0.0002 -8.9658
# 5 -21.2827 -12.9666 -28.1173 -0.0002 24.1269 -0.0002
# 6 -0.0007 -0.0012 -0.0002 -8.9658 -0.0002 31.2514
#
#
#
# Elastic Compliance Matrix: (Units=1/GPa)
#
#
# Indices 1 2 3 4 5 6 
#
# 1 0.011615 -0.003938 -0.001072 0.000000 0.006880 0.000000
# 2 -0.003938 0.020538 -0.004595 0.000001 0.002209 0.000001
# 3 -0.001072 -0.004595 0.012932 0.000000 0.011657 0.000000
# 4 0.000000 0.000001 0.000000 0.040487 0.000001 0.011615
# 5 0.006880 0.002209 0.011657 0.000001 0.062289 0.000001
# 6 0.000000 0.000001 0.000000 0.011615 0.000001 0.035331
#
#
# Mechanical properties :
#
#
# Convention : Reuss Voigt Hill
#
# Bulk Modulus (GPa) = 38.64505 57.74060 48.19282
# Shear Modulus (GPa) = 23.69377 28.98692 26.34034
#
# Velocity S-wave (km/s) = 3.47170 3.83995 3.66046
# Velocity P-wave (km/s) = 5.97732 7.00229 6.51001
#
# Compressibility (1/GPa) = 0.02587654
#
# Stress axis : x y z
#
# Youngs Moduli (GPa) = 86.09576 48.69043 77.32543
#
# Poissons Ratio (x) = 0.19174 0.08287
# Poissons Ratio (y) = 0.33903 0.35530
# Poissons Ratio (z) = 0.09227 0.22372
#
# Static dielectric constant tensor:
#      x y z
#    x 3.717320 0.000000 0.069570 
#    y 0.000000 3.488130 0.000000 
#    z 0.069570 0.000000 3.611630 
# 
# 
# High freq. dielectric constant tensor:
#      x y z
#    x 1.782730 0.000000 -0.000910 
#    y 0.000000 1.758490 0.000000 
#    z -0.000910 0.000000 1.760860 
# 
# From -- ./inp_files/375434.got.cif
#   From: 2010.06.25/outbox.cif.g09.slc.cpg/sg12_188_cif.got.tgz:375434.got - 2010.06.28 00:19:55.
