data_PCOD8090444
_publ_section_title
;
Structure prediction by ZEFSAII (Michael W. Deem and Ramdas Pophale) SiO2 
 PCOD8090444
Probable space group: C 2/M
;
_chemical_formula_sum "Si O2"
_cell_formula_units_Z 64
_cell_length_a 29.925942
_cell_length_b 9.785746
_cell_length_c 22.927530
_cell_angle_alpha 90.000000
_cell_angle_beta 149.331000
_cell_angle_gamma 90.000000
_cell_volume 3424.800725
_symmetry_space_group_name_H-M "C 2/M"
_symmetry_group_IT_number 12
_symmetry_cell_setting 'monoclinic'
loop_
_space_group_symop_operation_xyz
x,y,z
-x,y,-z
-x,-y,-z
x,-y,z
1/2+x,1/2+y,z
1/2-x,1/2+y,-z
1/2-x,1/2-y,-z
1/2+x,1/2-y,z
loop_
_atom_site_type_symbol
_atom_site_label
_atom_site_fract_x
_atom_site_fract_y
_atom_site_fract_z
Si Si1 0.169553 0.156366 0.428058
Si Si2 0.051353 0.838433 0.002100
Si Si3 0.013266 0.841581 0.581818
Si Si4 0.334851 0.345796 0.439739
Si Si5 0.485793 0.337541 0.168062
Si Si6 0.166339 0.652348 0.761407
Si Si7 0.197532 0.157810 0.987153
Si Si8 0.241446 0.843980 0.252334
O O1 0.250000 0.250000 0.500000
O O2 0.163276 0.165507 0.489682
O O3 0.077827 0.212404 0.298775
O O4 0.186116 0.000000 0.426258
O O5 0.018808 0.778281 0.903297
O O6 0.037996 0.000000 0.985801
O O7 0.151436 0.796320 0.122489
O O8 0.000000 0.775345 0.000000
O O9 0.093567 0.759353 0.700275
O O10 0.000000 0.801426 0.500000
O O11 0.928564 0.796443 0.522270
O O12 0.035425 0.000000 0.614539
O O13 0.315790 0.500000 0.397114
O O14 0.260488 0.248375 0.329959
O O15 0.480995 0.500000 0.160989
O O16 0.402431 0.289067 0.114019
O O17 0.128998 0.500000 0.728968
O O18 0.184951 0.676552 0.714031
O O19 0.254926 0.671527 0.897255
O O20 0.198118 0.000000 0.966186
O O21 0.250000 0.250000 0.000000
O O22 0.235828 0.000000 0.267799
#
# Coordination Sequence:
#
# PCOD8090444 Si02
#       8
#     8   8   8   8   8   8   8   8
#     4  10  23  41  61  82 109 149 192 236 283 329
#     4   9  17  30  54  86 109 130 173 229 275 324
#     4  10  20  34  53  78 108 146 187 219 260 332
#     4  10  22  38  54  79 114 149 187 227 270 329
#     4   9  18  36  58  81 112 146 182 228 280 331
#     4  10  20  34  52  79 115 144 177 231 287 325
#     4  10  21  37  57  82 113 149 187 230 279 335
#     4  10  19  33  56  85 111 140 180 229 281 327
#
# _framework density 18.687218999999999
#
# number of rings (size 3 to 8) (size 9 to 14) (size 15 to 20)
#    0.000    2.250    2.500    0.000    3.500    1.750 
#    0.000    0.625    0.000    1.125    0.000    0.000 
#    0.000    0.000    0.000    0.000    0.000    0.000 
#
# Total GULP energy -396739.241525 kJ/mol
# GULP energy per Si atom -12398.101298 kJ/mol
# Density = 1.864469 g / cm^3
# Si number density = 18.687219 Si / 1000 Ang^3
#
#
#
# Elastic Constant Matrix: (Units=GPa)
#
#
# Indices 1 2 3 4 5 6 
#
# 1 100.0639 34.6100 44.5072 0.0000 12.1498 0.0000
# 2 34.6100 56.5562 54.2699 0.0000 6.3044 0.0000
# 3 44.5072 54.2699 125.7753 0.0000 5.1423 0.0000
# 4 0.0000 0.0000 0.0000 27.9689 0.0000 1.9543
# 5 12.1498 6.3044 5.1423 0.0000 28.3173 0.0000
# 6 0.0000 0.0000 0.0000 1.9543 0.0000 25.0528
#
#
#
# Elastic Compliance Matrix: (Units=1/GPa)
#
#
# Indices 1 2 3 4 5 6 
#
# 1 0.013409 -0.005729 -0.002106 0.000000 -0.004095 0.000000
# 2 -0.005729 0.033173 -0.012176 0.000000 -0.002717 0.000000
# 3 -0.002106 -0.012176 0.013905 0.000000 0.001089 0.000000
# 4 0.000000 0.000000 0.000000 0.035950 0.000000 -0.002804
# 5 -0.004095 -0.002717 0.001089 0.000000 0.037478 0.000000
# 6 0.000000 0.000000 0.000000 -0.002804 0.000000 0.040135
#
#
# Mechanical properties :
#
#
# Convention : Reuss Voigt Hill
#
# Bulk Modulus (GPa) = 48.85814 61.01888 54.93851
# Shear Modulus (GPa) = 22.63551 26.20167 24.41859
#
# Velocity S-wave (km/s) = 3.48412 3.74855 3.61875
# Velocity P-wave (km/s) = 6.51057 7.17350 6.85006
#
# Compressibility (1/GPa) = 0.02046742
#
# Stress axis : x y z
#
# Youngs Moduli (GPa) = 74.57754 30.14472 71.91754
#
# Poissons Ratio (x) = 0.17269 0.15143
# Poissons Ratio (y) = 0.42722 0.87563
# Poissons Ratio (z) = 0.15704 0.36703
#
# Static dielectric constant tensor:
#      x y z
#    x 3.390570 0.000000 -0.007430 
#    y 0.000000 3.199340 0.000000 
#    z -0.007430 0.000000 3.522990 
# 
# 
# High freq. dielectric constant tensor:
#      x y z
#    x 1.730320 0.000000 -0.000050 
#    y 0.000000 1.689150 0.000000 
#    z -0.000050 0.000000 1.733100 
# 
# From -- ./inp_files/249992.got.cif
#   From: 2010.06.25/outbox.cif.g09.slc.cpg/sg12_125_cif.got.tgz:249992.got - 2010.06.28 00:19:55.
