data_PCOD8090739
_publ_section_title
;
Structure prediction by ZEFSAII (Michael W. Deem and Ramdas Pophale) SiO2 
 PCOD8090739
Probable space group: C 2/M
;
_chemical_formula_sum "Si O2"
_cell_formula_units_Z 40
_cell_length_a 11.092339
_cell_length_b 17.651661
_cell_length_c 10.968002
_cell_angle_alpha 90.000000
_cell_angle_beta 107.645815
_cell_angle_gamma 90.000000
_cell_volume 2046.471500
_symmetry_space_group_name_H-M "C 2/M"
_symmetry_group_IT_number 12
_symmetry_cell_setting 'monoclinic'
loop_
_space_group_symop_operation_xyz
x,y,z
-x,y,-z
-x,-y,-z
x,-y,z
1/2+x,1/2+y,z
1/2-x,1/2+y,-z
1/2-x,1/2-y,-z
1/2+x,1/2-y,z
loop_
_atom_site_type_symbol
_atom_site_label
_atom_site_fract_x
_atom_site_fract_y
_atom_site_fract_z
Si Si1 0.893435 0.086415 0.558204
Si Si2 0.864880 0.368283 0.566024
Si Si3 0.118708 0.585066 0.707956
Si Si4 0.708262 0.772447 0.853701
Si Si5 0.078834 0.225969 0.277565
O O1 0.769440 0.097818 0.436783
O O2 0.892352 0.138903 0.678354
O O3 0.000000 0.113760 0.500000
O O4 0.909203 0.000000 0.607359
O O5 0.868454 0.378398 0.421419
O O6 0.882222 0.279069 0.597025
O O7 0.966555 0.415371 0.677592
O O8 0.173881 0.500000 0.732777
O O9 0.186785 0.636899 0.830344
O O10 0.827094 0.748904 0.803832
O O11 0.572069 0.732371 0.791553
O O12 0.750000 0.750000 0.000000
#
# Coordination Sequence:
#
# PCOD8090739 Si02
#       5
#     8   8   8   8   8
#     4  11  22  33  53  89 132 157 180 232 304 371
#     4  10  19  33  59  90 120 148 186 243 303 364
#     4  10  20  35  62  91 112 145 195 249 296 349
#     4  11  24  41  61  84 116 163 211 250 284 347
#     4  11  23  38  62  87 121 157 202 247 300 353
#
# _framework density 19.545836999999999
#
# number of rings (size 3 to 8) (size 9 to 14) (size 15 to 20)
#    0.000    1.400    2.000    4.800    5.600    0.000 
#    0.000    1.000    0.000   14.400    0.000    0.000 
#    0.000    0.000    0.000    0.000    0.000    0.000 
#
# Total GULP energy -247775.518192 kJ/mol
# GULP energy per Si atom -12388.775910 kJ/mol
# Density = 1.950135 g / cm^3
# Si number density = 19.545837 Si / 1000 Ang^3
#
#
#
# Elastic Constant Matrix: (Units=GPa)
#
#
# Indices 1 2 3 4 5 6 
#
# 1 148.4859 23.7435 37.3894 0.0000 4.9945 0.0000
# 2 23.7435 126.0346 68.3133 0.0000 -6.4472 0.0000
# 3 37.3894 68.3133 100.2101 0.0000 4.0003 0.0000
# 4 0.0000 0.0000 0.0000 11.8423 0.0000 12.3611
# 5 4.9945 -6.4472 4.0003 0.0000 20.3772 0.0000
# 6 0.0000 0.0000 0.0000 12.3611 0.0000 7.7286
#
#
#
# Elastic Compliance Matrix: (Units=1/GPa)
#
#
# Indices 1 2 3 4 5 6 
#
# 1 0.007467 0.000015 -0.002745 0.000000 -0.001286 0.000000
# 2 0.000015 0.013280 -0.009299 0.000000 0.006023 0.000000
# 3 -0.002745 -0.009299 0.017571 0.000000 -0.005719 0.000000
# 4 0.000000 0.000000 0.000000 -0.126133 0.000000 0.201738
# 5 -0.001286 0.006023 -0.005719 0.000000 0.052418 0.000000
# 6 0.000000 0.000000 0.000000 0.201738 0.000000 -0.193272
#
#
# Mechanical properties :
#
#
# Convention : Reuss Voigt Hill
#
# Bulk Modulus (GPa) = 70.12719 70.40257 70.26488
# Shear Modulus (GPa) = -25.01768 24.34189 -0.33789
#
# Velocity S-wave (km/s) = -3.58152 3.53282 -0.41623
# Velocity P-wave (km/s) = 4.34202 7.26212 5.98296
#
# Compressibility (1/GPa) = 0.01425981
#
# Stress axis : x y z
#
# Youngs Moduli (GPa) = 133.92860 75.30210 56.91284
#
# Poissons Ratio (x) = -0.00116 0.15623
# Poissons Ratio (y) = -0.00207 0.52924
# Poissons Ratio (z) = 0.36764 0.70024
#
# Static dielectric constant tensor:
#      x y z
#    x 4.682630 0.000000 0.317680 
#    y 0.000000 3.555140 0.000000 
#    z 0.317680 0.000000 3.223390 
# 
# 
# High freq. dielectric constant tensor:
#      x y z
#    x 1.798760 0.000000 0.013020 
#    y 0.000000 1.759680 0.000000 
#    z 0.013020 0.000000 1.710490 
# 
# From -- ./inp_files/129805.got.cif
#   From: 2010.06.25/outbox.cif.g09.slc.cpg/sg12_65_cif.got.tgz:129805.got - 2010.06.28 00:19:55.
