data_PCOD8090274
_publ_section_title
;
Structure prediction by ZEFSAII (Michael W. Deem and Ramdas Pophale) SiO2 
 PCOD8090274
Probable space group: C 2/M
;
_chemical_formula_sum "Si O2"
_cell_formula_units_Z 56
_cell_length_a 21.471151
_cell_length_b 9.265833
_cell_length_c 29.802903
_cell_angle_alpha 90.000000
_cell_angle_beta 150.348916
_cell_angle_gamma 90.000000
_cell_volume 2933.290723
_symmetry_space_group_name_H-M "C 2/M"
_symmetry_group_IT_number 12
_symmetry_cell_setting 'monoclinic'
loop_
_space_group_symop_operation_xyz
x,y,z
-x,y,-z
-x,-y,-z
x,-y,z
1/2+x,1/2+y,z
1/2-x,1/2+y,-z
1/2-x,1/2-y,-z
1/2+x,1/2-y,z
loop_
_atom_site_type_symbol
_atom_site_label
_atom_site_fract_x
_atom_site_fract_y
_atom_site_fract_z
Si Si1 0.971857 0.834734 0.772853
Si Si2 0.922321 0.837144 0.579209
Si Si3 0.358210 0.832117 0.779401
Si Si4 0.245568 0.334497 0.043466
Si Si5 0.367442 0.837385 0.627637
Si Si6 0.073503 0.828270 0.589276
Si Si7 0.021305 0.667530 0.964006
O O1 0.955500 0.760267 0.810980
O O2 0.883904 0.750578 0.683348
O O3 0.116684 0.824355 0.847866
O O4 0.927047 0.000000 0.747554
O O5 0.778828 0.836105 0.474461
O O6 0.945888 0.737669 0.637040
O O7 0.005053 0.771048 0.590962
O O8 0.964552 0.000000 0.617827
O O9 0.217464 0.775147 0.681467
O O10 0.396504 0.808448 0.855455
O O11 0.370608 0.000000 0.774019
O O12 0.209214 0.500000 0.009626
O O13 0.250000 0.250000 0.000000
O O14 0.143687 0.267641 0.014643
O O15 0.417487 0.000000 0.665071
O O16 0.000000 0.764550 0.500000
O O17 0.066653 0.000000 0.583849
O O18 0.049389 0.500000 0.989317
O O19 0.000000 0.739996 0.000000
#
# Coordination Sequence:
#
# PCOD8090274 Si02
#       7
#     8   8   8   8   8   8   8
#     4  11  22  34  53  80 109 141 179 224 275 327
#     4   9  18  34  54  77 109 142 178 226 273 318
#     4  10  19  33  56  79 103 141 182 226 274 326
#     4  10  20  35  56  80 107 139 175 223 275 324
#     4  10  20  34  54  78 106 143 182 223 270 324
#     4   9  17  30  51  79 107 138 178 220 266 321
#     4   9  18  33  54  81 108 136 178 228 275 326
#
# _framework density 19.091186
#
# number of rings (size 3 to 8) (size 9 to 14) (size 15 to 20)
#    0.000    2.286    1.429    1.714    0.000    4.571 
#    0.000    5.000    0.000    3.429    0.000    0.000 
#    0.000    0.000    0.000    0.000    0.000    0.000 
#
# Total GULP energy -347166.524778 kJ/mol
# GULP energy per Si atom -12398.804456 kJ/mol
# Density = 1.904773 g / cm^3
# Si number density = 19.091186 Si / 1000 Ang^3
#
#
#
# Elastic Constant Matrix: (Units=GPa)
#
#
# Indices 1 2 3 4 5 6 
#
# 1 149.7901 40.3841 46.0635 0.0000 -3.2753 0.0000
# 2 40.3841 75.7081 24.8276 -0.0001 -9.6952 0.0000
# 3 46.0635 24.8276 76.2249 -0.0002 -4.5996 0.0000
# 4 0.0000 -0.0001 -0.0002 16.2265 0.0000 -4.4657
# 5 -3.2753 -9.6952 -4.5996 0.0000 32.9885 0.0000
# 6 0.0000 0.0000 0.0000 -4.4657 0.0000 25.3769
#
#
#
# Elastic Compliance Matrix: (Units=1/GPa)
#
#
# Indices 1 2 3 4 5 6 
#
# 1 0.008911 -0.003433 -0.004311 0.000000 -0.000725 0.000000
# 2 -0.003433 0.016574 -0.003076 0.000000 0.004101 0.000000
# 3 -0.004311 -0.003076 0.016787 0.000000 0.001008 0.000000
# 4 0.000000 0.000000 0.000000 0.064764 0.000000 0.011397
# 5 -0.000725 0.004101 0.001008 0.000000 0.031587 0.000000
# 6 0.000000 0.000000 0.000000 0.011397 0.000000 0.041411
#
#
# Mechanical properties :
#
#
# Convention : Reuss Voigt Hill
#
# Bulk Modulus (GPa) = 48.46799 58.25263 53.36031
# Shear Modulus (GPa) = 23.97478 27.61492 25.79485
#
# Velocity S-wave (km/s) = 3.54758 3.80738 3.67977
# Velocity P-wave (km/s) = 6.49793 7.06451 6.78714
#
# Compressibility (1/GPa) = 0.02063217
#
# Stress axis : x y z
#
# Youngs Moduli (GPa) = 112.21725 60.33644 59.56958
#
# Poissons Ratio (x) = 0.20711 0.25680
# Poissons Ratio (y) = 0.38520 0.18326
# Poissons Ratio (z) = 0.48376 0.18562
#
# Static dielectric constant tensor:
#      x y z
#    x 3.715240 0.000000 0.050770 
#    y 0.000000 3.293420 0.000000 
#    z 0.050770 0.000000 3.488090 
# 
# 
# High freq. dielectric constant tensor:
#      x y z
#    x 1.747770 0.000000 -0.001390 
#    y 0.000000 1.706370 0.000000 
#    z -0.001390 0.000000 1.743190 
# 
# From -- ./inp_files/380723.got.cif
#   From: 2010.06.25/outbox.cif.g09.slc.cpg/sg12_191_cif.got.tgz:380723.got - 2010.06.28 00:19:55.
