data_PCOD8090369
_publ_section_title
;
Structure prediction by ZEFSAII (Michael W. Deem and Ramdas Pophale) SiO2 
 PCOD8090369
Probable space group: C 2/M
;
_chemical_formula_sum "Si O2"
_cell_formula_units_Z 56
_cell_length_a 18.185138
_cell_length_b 9.019602
_cell_length_c 24.525240
_cell_angle_alpha 90.000000
_cell_angle_beta 46.427368
_cell_angle_gamma 90.000000
_cell_volume 2914.448199
_symmetry_space_group_name_H-M "C 2/M"
_symmetry_group_IT_number 12
_symmetry_cell_setting 'monoclinic'
loop_
_space_group_symop_operation_xyz
x,y,z
-x,y,-z
-x,-y,-z
x,-y,z
1/2+x,1/2+y,z
1/2-x,1/2+y,-z
1/2-x,1/2-y,-z
1/2+x,1/2-y,z
loop_
_atom_site_type_symbol
_atom_site_label
_atom_site_fract_x
_atom_site_fract_y
_atom_site_fract_z
Si Si1 0.262777 0.328845 0.412104
Si Si2 0.364370 0.674711 0.823647
Si Si3 0.808206 0.172556 0.266052
Si Si4 0.809689 0.669441 0.015606
Si Si5 0.894882 0.674356 0.693486
Si Si6 0.489791 0.826222 0.855627
Si Si7 0.406340 0.327824 0.438279
O O1 0.228798 0.500000 0.431752
O O2 0.300305 0.282885 0.333320
O O3 0.355170 0.297158 0.405863
O O4 0.166221 0.229381 0.476576
O O5 0.385631 0.500000 0.806813
O O6 0.391307 0.752795 0.754177
O O7 0.437276 0.737788 0.833280
O O8 0.244301 0.709734 0.899006
O O9 0.705103 0.216587 0.288760
O O10 0.897211 0.267101 0.192768
O O11 0.833297 0.000000 0.246311
O O12 0.787271 0.500000 0.015747
O O13 0.929534 0.702454 0.944392
O O14 0.750000 0.750000 0.000000
O O15 0.908338 0.500000 0.693226
O O16 0.989142 0.738630 0.611601
O O17 0.491466 0.000000 0.840336
O O18 0.428263 0.500000 0.436457
#
# Coordination Sequence:
#
# PCOD8090369 Si02
#       7
#     8   8   8   8   8   8   8
#     4   9  19  37  58  78 103 136 173 214 263 318
#     4  10  19  34  56  79 107 141 177 219 268 320
#     4  10  22  38  54  75 107 147 184 218 262 314
#     4   8  16  30  50  78 106 134 171 217 267 315
#     4  11  23  37  53  76 108 144 183 223 263 311
#     4  10  19  33  56  83 108 136 176 223 267 315
#     4  10  20  35  58  84 106 132 171 219 270 321
#
# _framework density 19.214614999999998
#
# number of rings (size 3 to 8) (size 9 to 14) (size 15 to 20)
#    0.000    2.286    0.000    2.571    0.000    5.143 
#    0.000    3.571    0.000    4.286    0.000    0.000 
#    0.000    0.000    0.000    0.000    0.000    0.000 
#
# Total GULP energy -347075.613223 kJ/mol
# GULP energy per Si atom -12395.557615 kJ/mol
# Density = 1.917088 g / cm^3
# Si number density = 19.214615 Si / 1000 Ang^3
#
#
#
# Elastic Constant Matrix: (Units=GPa)
#
#
# Indices 1 2 3 4 5 6 
#
# 1 42.8700 24.2093 24.5533 0.0000 -22.7730 0.0001
# 2 24.2093 76.7523 46.5554 0.0000 -22.0860 0.0003
# 3 24.5533 46.5554 107.6949 0.0000 -33.7980 0.0001
# 4 0.0000 0.0000 0.0000 34.8691 0.0000 -6.5387
# 5 -22.7730 -22.0860 -33.7980 0.0000 24.0172 0.0000
# 6 0.0001 0.0003 0.0001 -6.5387 0.0000 22.2845
#
#
#
# Elastic Compliance Matrix: (Units=1/GPa)
#
#
# Indices 1 2 3 4 5 6 
#
# 1 0.050433 -0.004995 0.007570 0.000000 0.053880 0.000000
# 2 -0.004995 0.019557 -0.005655 0.000000 0.005289 0.000000
# 3 0.007570 -0.005655 0.019029 0.000000 0.028755 0.000000
# 4 0.000000 0.000000 0.000000 0.030348 0.000000 0.008905
# 5 0.053880 0.005289 0.028755 0.000000 0.138055 -0.000001
# 6 0.000000 0.000000 0.000000 0.008905 -0.000001 0.047487
#
#
# Mechanical properties :
#
#
# Convention : Reuss Voigt Hill
#
# Bulk Modulus (GPa) = 12.06882 46.43923 29.25402
# Shear Modulus (GPa) = 14.76279 25.03412 19.89846
#
# Velocity S-wave (km/s) = 2.77485 3.61344 3.22155
# Velocity P-wave (km/s) = 4.06953 6.45217 5.39405
#
# Compressibility (1/GPa) = 0.08285814
#
# Stress axis : x y z
#
# Youngs Moduli (GPa) = 19.82829 51.13261 52.55246
#
# Poissons Ratio (x) = 0.25542 -0.39784
# Poissons Ratio (y) = 0.09905 0.29721
# Poissons Ratio (z) = -0.15011 0.28918
#
# Static dielectric constant tensor:
#      x y z
#    x 3.217760 0.000000 -0.095470 
#    y 0.000000 3.554260 0.000000 
#    z -0.095470 0.000000 4.047170 
# 
# 
# High freq. dielectric constant tensor:
#      x y z
#    x 1.713480 0.000000 -0.008080 
#    y 0.000000 1.755370 0.000000 
#    z -0.008080 0.000000 1.770770 
# 
# From -- ./inp_files/342535.got.cif
#   From: 2010.06.25/outbox.cif.g09.slc.cpg/sg12_172_cif.got.tgz:342535.got - 2010.06.28 00:19:55.
