data_PCOD8090580
_publ_section_title
;
Structure prediction by ZEFSAII (Michael W. Deem and Ramdas Pophale) SiO2 
 PCOD8090580
Probable space group: C 2/M
;
_chemical_formula_sum "Si O2"
_cell_formula_units_Z 56
_cell_length_a 17.038840
_cell_length_b 21.285180
_cell_length_c 15.220411
_cell_angle_alpha 90.000000
_cell_angle_beta 29.397243
_cell_angle_gamma 90.000000
_cell_volume 2709.586346
_symmetry_space_group_name_H-M "C 2/M"
_symmetry_group_IT_number 12
_symmetry_cell_setting 'monoclinic'
loop_
_space_group_symop_operation_xyz
x,y,z
-x,y,-z
-x,-y,-z
x,-y,z
1/2+x,1/2+y,z
1/2-x,1/2+y,-z
1/2-x,1/2-y,-z
1/2+x,1/2-y,z
loop_
_atom_site_type_symbol
_atom_site_label
_atom_site_fract_x
_atom_site_fract_y
_atom_site_fract_z
Si Si1 0.930411 0.742164 0.159420
Si Si2 0.690794 0.071304 0.630950
Si Si3 0.180432 0.142370 0.343822
Si Si4 0.166195 0.132051 0.667901
Si Si5 0.632584 0.872157 0.011559
Si Si6 0.329715 0.573599 0.972645
Si Si7 0.809745 0.069035 0.184891
O O1 0.771700 0.702955 0.292551
O O2 0.889162 0.795870 0.270259
O O3 0.064405 0.698676 0.074454
O O4 0.000000 0.771020 0.000000
O O5 0.817830 0.088406 0.583259
O O6 0.707335 0.119982 0.533140
O O7 0.513000 0.078690 0.843311
O O8 0.718726 0.000000 0.572674
O O9 0.000000 0.162521 0.500000
O O10 0.265886 0.114279 0.174698
O O11 0.250349 0.114572 0.678959
O O12 0.018241 0.086943 0.788619
O O13 0.744667 0.881160 0.986322
O O14 0.303295 0.500000 0.976517
O O15 0.254969 0.591119 0.141171
O O16 0.739497 0.000000 0.272535
O O17 0.000000 0.066866 0.000000
#
# Coordination Sequence:
#
# PCOD8090580 Si02
#       7
#     8   8   8   8   8   8   8
#     4   9  20  39  60  85 120 159 197 240 296 348
#     4  11  23  38  59  88 121 157 193 237 301 359
#     4  10  22  41  63  87 114 150 199 249 293 350
#     4  11  20  35  58  84 117 153 198 243 286 347
#     4  10  22  39  58  84 121 157 193 244 299 349
#     4  10  19  33  57  86 114 152 201 245 290 347
#     4   8  15  29  50  77 108 142 185 238 286 328
#
# _framework density 20.667362000000001
#
# number of rings (size 3 to 8) (size 9 to 14) (size 15 to 20)
#    0.000    2.143    0.000    6.000    0.000    4.857 
#    0.000    6.429    0.000    2.571    0.000    0.000 
#    0.000    0.000    0.000    0.000    0.000    0.000 
#
# Total GULP energy -347151.522302 kJ/mol
# GULP energy per Si atom -12398.268654 kJ/mol
# Density = 2.062032 g / cm^3
# Si number density = 20.667362 Si / 1000 Ang^3
#
#
#
# Elastic Constant Matrix: (Units=GPa)
#
#
# Indices 1 2 3 4 5 6 
#
# 1 113.4237 41.0273 45.8335 -0.0228 24.2301 0.0328
# 2 41.0273 100.9400 40.9846 0.0372 20.9993 -0.0156
# 3 45.8335 40.9846 100.1041 -0.0088 13.8021 0.0086
# 4 -0.0228 0.0372 -0.0088 23.9658 0.0089 11.7937
# 5 24.2301 20.9993 13.8021 0.0089 32.8544 -0.0142
# 6 0.0328 -0.0156 0.0086 11.7937 -0.0142 25.2658
#
#
#
# Elastic Compliance Matrix: (Units=1/GPa)
#
#
# Indices 1 2 3 4 5 6 
#
# 1 0.012542 -0.002192 -0.003994 0.000034 -0.006170 -0.000035
# 2 -0.002192 0.013447 -0.003757 -0.000035 -0.005399 0.000026
# 3 -0.003994 -0.003757 0.013395 0.000010 -0.000280 -0.000007
# 4 0.000034 -0.000035 0.000010 0.054170 -0.000032 -0.025286
# 5 -0.006170 -0.005399 -0.000280 -0.000032 0.038557 0.000042
# 6 -0.000035 0.000026 -0.000007 -0.025286 0.000042 0.051382
#
#
# Mechanical properties :
#
#
# Convention : Reuss Voigt Hill
#
# Bulk Modulus (GPa) = 51.29055 63.35095 57.32075
# Shear Modulus (GPa) = 23.82338 28.85870 26.34104
#
# Velocity S-wave (km/s) = 3.39884 3.74082 3.57392
# Velocity P-wave (km/s) = 6.34617 7.02691 6.69520
#
# Compressibility (1/GPa) = 0.01949677
#
# Stress axis : x y z
#
# Youngs Moduli (GPa) = 79.73501 74.36739 74.65380
#
# Poissons Ratio (x) = 0.16303 0.29816
# Poissons Ratio (y) = 0.17480 0.28049
# Poissons Ratio (z) = 0.31846 0.27941
#
# Static dielectric constant tensor:
#      x y z
#    x 3.921190 -0.000140 0.302540 
#    y -0.000140 3.548410 0.000180 
#    z 0.302540 0.000180 3.649250 
# 
# 
# High freq. dielectric constant tensor:
#      x y z
#    x 1.808550 -0.000010 0.020440 
#    y -0.000010 1.796420 0.000010 
#    z 0.020440 0.000010 1.796420 
# 
# From -- ./inp_files/227592.got.cif
#   From: 2010.06.25/outbox.cif.g09.slc.cpg/sg12_114_cif.got.tgz:227592.got - 2010.06.28 00:19:55.
