data_PCOD8090127
_publ_section_title
;
Structure prediction by ZEFSAII (Michael W. Deem and Ramdas Pophale) SiO2 
 PCOD8090127
Probable space group: C 2/M
;
_chemical_formula_sum "Si O2"
_cell_formula_units_Z 56
_cell_length_a 14.570202
_cell_length_b 22.417509
_cell_length_c 9.804668
_cell_angle_alpha 90.000000
_cell_angle_beta 112.937861
_cell_angle_gamma 90.000000
_cell_volume 2949.249601
_symmetry_space_group_name_H-M "C 2/M"
_symmetry_group_IT_number 12
_symmetry_cell_setting 'monoclinic'
loop_
_space_group_symop_operation_xyz
x,y,z
-x,y,-z
-x,-y,-z
x,-y,z
1/2+x,1/2+y,z
1/2-x,1/2+y,-z
1/2-x,1/2-y,-z
1/2+x,1/2-y,z
loop_
_atom_site_type_symbol
_atom_site_label
_atom_site_fract_x
_atom_site_fract_y
_atom_site_fract_z
Si Si1 0.903039 0.568252 0.168011
Si Si2 0.089962 0.362796 0.290373
Si Si3 0.082357 0.136070 0.893731
Si Si4 0.821191 0.430588 0.408555
Si Si5 0.206544 0.647923 0.089701
Si Si6 0.950409 0.727499 0.108025
Si Si7 0.104626 0.931066 0.186508
O O1 0.883312 0.500000 0.166123
O O2 0.869179 0.593316 0.296050
O O3 0.017574 0.583475 0.201483
O O4 0.834310 0.588847 0.004567
O O5 0.141581 0.383145 0.459239
O O6 0.176151 0.349413 0.230446
O O7 0.015459 0.304951 0.265570
O O8 0.173770 0.142859 0.842562
O O9 0.038027 0.202239 0.880348
O O10 0.992476 0.093687 0.787156
O O11 0.117947 0.109604 0.059261
O O12 0.851188 0.500000 0.458336
O O13 0.701613 0.424863 0.335691
O O14 0.164162 0.703721 0.972682
O O15 0.000000 0.701160 0.000000
O O16 0.088019 0.000000 0.134811
#
# Coordination Sequence:
#
# PCOD8090127 Si02
#       7
#     8   8   8   8   8   8   8
#     4  10  19  33  55  82 110 147 193 232 274 333
#     4  10  21  35  52  82 118 148 180 228 281 346
#     4  11  18  35  60  80 108 149 187 237 285 311
#     4  10  20  37  57  81 115 151 187 228 281 336
#     4  10  21  33  54  84 115 144 186 234 278 339
#     4   9  18  34  55  82 110 146 189 229 276 334
#     4  10  21  35  58  87 109 138 197 245 273 325
#
# _framework density 18.987881999999999
#
# number of rings (size 3 to 8) (size 9 to 14) (size 15 to 20)
#    0.000    2.000    2.857    3.429    0.000    3.429 
#    0.000    1.429    0.000    3.429    0.000    0.000 
#    0.000    0.000    0.000    0.000    0.000    0.000 
#
# Total GULP energy -346887.610914 kJ/mol
# GULP energy per Si atom -12388.843247 kJ/mol
# Density = 1.894466 g / cm^3
# Si number density = 18.987882 Si / 1000 Ang^3
#
#
#
# Elastic Constant Matrix: (Units=GPa)
#
#
# Indices 1 2 3 4 5 6 
#
# 1 96.4059 28.3312 2.0289 0.0000 6.5962 0.0000
# 2 28.3312 104.5141 44.7043 0.0000 4.6549 0.0000
# 3 2.0289 44.7043 41.7849 0.0000 7.8931 0.0000
# 4 0.0000 0.0000 0.0000 17.5670 0.0000 0.6228
# 5 6.5962 4.6549 7.8931 0.0000 23.2391 0.0000
# 6 0.0000 0.0000 0.0000 0.6228 0.0000 22.8390
#
#
#
# Elastic Compliance Matrix: (Units=1/GPa)
#
#
# Indices 1 2 3 4 5 6 
#
# 1 0.012302 -0.005982 0.006663 0.000000 -0.004557 0.000000
# 2 -0.005982 0.020758 -0.022924 0.000000 0.005326 0.000000
# 3 0.006663 -0.022924 0.050888 0.000000 -0.014584 0.000000
# 4 0.000000 0.000000 0.000000 0.056980 0.000000 -0.001554
# 5 -0.004557 0.005326 -0.014584 0.000000 0.048211 0.000000
# 6 0.000000 0.000000 0.000000 -0.001554 0.000000 0.043827
#
#
# Mechanical properties :
#
#
# Convention : Reuss Voigt Hill
#
# Bulk Modulus (GPa) = 25.33945 43.64819 34.49382
# Shear Modulus (GPa) = 17.20546 23.90505 20.55526
#
# Velocity S-wave (km/s) = 3.01346 3.55204 3.29378
# Velocity P-wave (km/s) = 5.04797 6.31347 5.71585
#
# Compressibility (1/GPa) = 0.03946415
#
# Stress axis : x y z
#
# Youngs Moduli (GPa) = 81.28539 48.17493 19.65081
#
# Poissons Ratio (x) = 0.28819 -0.13094
# Poissons Ratio (y) = 0.48626 0.45047
# Poissons Ratio (z) = -0.54164 1.10434
#
# Static dielectric constant tensor:
#      x y z
#    x 3.704420 0.000000 0.092110 
#    y 0.000000 3.450330 0.000000 
#    z 0.092110 0.000000 3.171070 
# 
# 
# High freq. dielectric constant tensor:
#      x y z
#    x 1.747450 0.000000 0.012160 
#    y 0.000000 1.738230 0.000000 
#    z 0.012160 0.000000 1.697510 
# 
# From -- ./inp_files/65444.got.cif
#   From: 2010.06.25/outbox.cif.g09.slc.cpg/sg12_33_cif.got.tgz:65444.got - 2010.06.28 00:19:55.
