data_PCOD8090084
_publ_section_title
;
Structure prediction by ZEFSAII (Michael W. Deem and Ramdas Pophale) SiO2 
 PCOD8090084
Probable space group: C 2/M
;
_chemical_formula_sum "Si O2"
_cell_formula_units_Z 56
_cell_length_a 23.141655
_cell_length_b 9.391401
_cell_length_c 15.009106
_cell_angle_alpha 90.000000
_cell_angle_beta 63.616601
_cell_angle_gamma 90.000000
_cell_volume 2922.202730
_symmetry_space_group_name_H-M "C 2/M"
_symmetry_group_IT_number 12
_symmetry_cell_setting 'monoclinic'
loop_
_space_group_symop_operation_xyz
x,y,z
-x,y,-z
-x,-y,-z
x,-y,z
1/2+x,1/2+y,z
1/2-x,1/2+y,-z
1/2-x,1/2-y,-z
1/2+x,1/2-y,z
loop_
_atom_site_type_symbol
_atom_site_label
_atom_site_fract_x
_atom_site_fract_y
_atom_site_fract_z
Si Si1 0.241484 0.665479 0.641269
Si Si2 0.186698 0.835576 0.021777
Si Si3 0.441186 0.668005 0.789615
Si Si4 0.009209 0.665872 0.596075
Si Si5 0.829770 0.836745 0.170281
Si Si6 0.526393 0.665855 0.890882
Si Si7 0.844579 0.664301 0.467967
O O1 0.255314 0.500000 0.646884
O O2 0.222663 0.735011 0.748320
O O3 0.183627 0.692082 0.611021
O O4 0.307219 0.737848 0.563765
O O5 0.130900 0.793513 0.129480
O O6 0.204115 0.000000 0.018690
O O7 0.250000 0.750000 0.000000
O O8 0.162938 0.799782 0.938551
O O9 0.449796 0.500000 0.769410
O O10 0.455860 0.746897 0.687374
O O11 0.490695 0.730452 0.829515
O O12 0.995648 0.500000 0.620188
O O13 0.080619 0.707959 0.580827
O O14 0.000000 0.708814 0.500000
O O15 0.897880 0.807439 0.170881
O O16 0.808346 0.000000 0.198945
O O17 0.508215 0.500000 0.906931
O O18 0.500000 0.737717 0.000000
O O19 0.835160 0.500000 0.502594
#
# Coordination Sequence:
#
# PCOD8090084 Si02
#       7
#     8   8   8   8   8   8   8
#     4  10  20  33  54  82 111 140 176 226 276 321
#     4  10  22  38  55  78 110 147 183 219 262 318
#     4  10  20  36  59  85 110 138 179 231 276 317
#     4  10  22  39  58  79 107 145 185 224 271 328
#     4  10  19  33  55  81 109 143 180 217 267 329
#     4   9  15  29  56  84 108 136 175 221 268 321
#     4   9  19  37  56  77 108 143 181 224 273 328
#
# _framework density 19.163626000000001
#
# number of rings (size 3 to 8) (size 9 to 14) (size 15 to 20)
#    0.000    2.286    1.429    1.286    0.000    3.714 
#    0.000    4.286    0.000    0.857    0.000    0.000 
#    0.000    0.000    0.000    0.000    0.000    0.000 
#
# Total GULP energy -347256.925860 kJ/mol
# GULP energy per Si atom -12402.033066 kJ/mol
# Density = 1.912001 g / cm^3
# Si number density = 19.163626 Si / 1000 Ang^3
#
#
#
# Elastic Constant Matrix: (Units=GPa)
#
#
# Indices 1 2 3 4 5 6 
#
# 1 96.5984 39.5707 45.9870 0.0000 -7.0002 0.0000
# 2 39.5707 73.5786 72.0156 0.0000 -11.3925 0.0000
# 3 45.9870 72.0156 154.6683 0.0000 -11.3535 0.0000
# 4 0.0000 0.0000 0.0000 32.2049 0.0000 -1.8989
# 5 -7.0002 -11.3925 -11.3535 0.0000 21.9938 0.0000
# 6 0.0000 0.0000 0.0000 -1.8989 0.0000 26.4554
#
#
#
# Elastic Compliance Matrix: (Units=1/GPa)
#
#
# Indices 1 2 3 4 5 6 
#
# 1 0.013395 -0.005987 -0.001153 0.000000 0.000567 0.000000
# 2 -0.005987 0.028796 -0.011093 0.000000 0.007284 0.000000
# 3 -0.001153 -0.011093 0.011979 0.000000 0.000070 0.000000
# 4 0.000000 0.000000 0.000000 0.031183 0.000000 0.002238
# 5 0.000567 0.007284 0.000070 0.000000 0.049457 0.000000
# 6 0.000000 0.000000 0.000000 0.002238 0.000000 0.037960
#
#
# Mechanical properties :
#
#
# Convention : Reuss Voigt Hill
#
# Bulk Modulus (GPa) = 56.48948 71.11021 63.79985
# Shear Modulus (GPa) = 23.24096 27.28230 25.26163
#
# Velocity S-wave (km/s) = 3.48625 3.77722 3.63465
# Velocity P-wave (km/s) = 6.76363 7.49738 7.13994
#
# Compressibility (1/GPa) = 0.01770241
#
# Stress axis : x y z
#
# Youngs Moduli (GPa) = 74.65540 34.72710 83.48258
#
# Poissons Ratio (x) = 0.20792 0.09628
# Poissons Ratio (y) = 0.44698 0.92607
# Poissons Ratio (z) = 0.08610 0.38523
#
# Static dielectric constant tensor:
#      x y z
#    x 3.535000 0.000000 0.030350 
#    y 0.000000 3.291500 0.000000 
#    z 0.030350 0.000000 3.480920 
# 
# 
# High freq. dielectric constant tensor:
#      x y z
#    x 1.742670 0.000000 -0.002780 
#    y 0.000000 1.722510 0.000000 
#    z -0.002780 0.000000 1.752560 
# 
# From -- ./inp_files/238282.got.cif
#   From: 2010.06.25/outbox.cif.g09.slc.cpg/sg12_120_cif.got.tgz:238282.got - 2010.06.28 00:19:55.
