data_PCOD8090718
_publ_section_title
;
Structure prediction by ZEFSAII (Michael W. Deem and Ramdas Pophale) SiO2 
 PCOD8090718
Probable space group: C 2/M
;
_chemical_formula_sum "Si O2"
_cell_formula_units_Z 40
_cell_length_a 10.298410
_cell_length_b 22.417600
_cell_length_c 10.941087
_cell_angle_alpha 90.000000
_cell_angle_beta 38.374847
_cell_angle_gamma 90.000000
_cell_volume 1568.101050
_symmetry_space_group_name_H-M "C 2/M"
_symmetry_group_IT_number 12
_symmetry_cell_setting 'monoclinic'
loop_
_space_group_symop_operation_xyz
x,y,z
-x,y,-z
-x,-y,-z
x,-y,z
1/2+x,1/2+y,z
1/2-x,1/2+y,-z
1/2-x,1/2-y,-z
1/2+x,1/2-y,z
loop_
_atom_site_type_symbol
_atom_site_label
_atom_site_fract_x
_atom_site_fract_y
_atom_site_fract_z
Si Si1 0.173511 0.892037 0.207076
Si Si2 0.728066 0.566302 0.618837
Si Si3 0.054532 0.432442 0.785527
Si Si4 0.934613 0.763429 0.771017
Si Si5 0.707627 0.687151 0.764404
O O1 0.235492 0.915935 0.294609
O O2 0.099392 0.824638 0.276134
O O3 0.995841 0.933535 0.281116
O O4 0.367282 0.890649 0.968836
O O5 0.757089 0.500000 0.656727
O O6 0.907120 0.577166 0.385610
O O7 0.751884 0.617942 0.701448
O O8 0.992077 0.500000 0.862565
O O9 0.916293 0.711647 0.680065
O O10 0.154698 0.771021 0.683252
O O11 0.750000 0.750000 0.000000
O O12 0.500000 0.689327 0.000000
#
# Coordination Sequence:
#
# PCOD8090718 Si02
#       5
#     8   8   8   8   8
#     4  10  19  33  59  85 121 162 203 250 318 364
#     4  10  20  36  58  86 125 159 204 261 308 369
#     4  10  20  32  55  90 122 157 204 256 309 368
#     4   9  19  34  61  86 121 161 202 257 310 367
#     4   9  19  36  61  89 118 166 208 251 319 369
#
# _framework density 25.508559999999999
#
# number of rings (size 3 to 8) (size 9 to 14) (size 15 to 20)
#    0.000    2.400    0.000    3.000    8.400    2.000 
#    0.000    1.000    8.800    9.600    0.000   26.600 
#    0.000    0.000    0.000    0.000    0.000    0.000 
#
# Total GULP energy -247928.601475 kJ/mol
# GULP energy per Si atom -12396.430074 kJ/mol
# Density = 2.545050 g / cm^3
# Si number density = 25.508560 Si / 1000 Ang^3
#
#
#
# Elastic Constant Matrix: (Units=GPa)
#
#
# Indices 1 2 3 4 5 6 
#
# 1 122.8708 75.0191 29.7635 0.0000 1.8791 0.0000
# 2 75.0191 160.9242 20.1552 0.0000 22.2436 0.0000
# 3 29.7635 20.1552 23.4121 0.0000 8.1821 0.0000
# 4 0.0000 0.0000 0.0000 27.8232 0.0000 21.2398
# 5 1.8791 22.2436 8.1821 0.0000 29.5867 0.0000
# 6 0.0000 0.0000 0.0000 21.2398 0.0000 36.4350
#
#
#
# Elastic Compliance Matrix: (Units=1/GPa)
#
#
# Indices 1 2 3 4 5 6 
#
# 1 0.016526 -0.006644 -0.018452 0.000000 0.009048 0.000000
# 2 -0.006644 0.010082 0.002511 0.000000 -0.007852 0.000000
# 3 -0.018452 0.002511 0.071135 0.000000 -0.020388 0.000000
# 4 0.000000 0.000000 0.000000 0.064761 0.000000 -0.037752
# 5 0.009048 -0.007852 -0.020388 0.000000 0.044766 0.000000
# 6 0.000000 0.000000 0.000000 -0.037752 0.000000 0.049454
#
#
# Mechanical properties :
#
#
# Convention : Reuss Voigt Hill
#
# Bulk Modulus (GPa) = 19.02134 61.89809 40.45971
# Shear Modulus (GPa) = 15.65339 30.92027 23.28683
#
# Velocity S-wave (km/s) = 2.47989 3.48538 3.02471
# Velocity P-wave (km/s) = 3.95889 6.36517 5.30039
#
# Compressibility (1/GPa) = 0.05257254
#
# Stress axis : x y z
#
# Youngs Moduli (GPa) = 60.50897 99.18463 14.05780
#
# Poissons Ratio (x) = 0.65897 0.25940
# Poissons Ratio (y) = 0.40201 -0.03530
# Poissons Ratio (z) = 1.11654 -0.24903
#
# Static dielectric constant tensor:
#      x y z
#    x 4.864040 0.000000 0.092640 
#    y 0.000000 4.611650 0.000000 
#    z 0.092640 0.000000 4.416460 
# 
# 
# High freq. dielectric constant tensor:
#      x y z
#    x 2.020100 0.000000 0.000700 
#    y 0.000000 2.019470 0.000000 
#    z 0.000700 0.000000 2.014000 
# 
# From -- ./inp_files/133646.got.cif
#   From: 2010.06.25/outbox.cif.g09.slc.cpg/sg12_67_cif.got.tgz:133646.got - 2010.06.28 00:19:55.
