data_PCOD8090433
_publ_section_title
;
Structure prediction by ZEFSAII (Michael W. Deem and Ramdas Pophale) SiO2 
 PCOD8090433
Probable space group: C 2/M
;
_chemical_formula_sum "Si O2"
_cell_formula_units_Z 48
_cell_length_a 17.987711
_cell_length_b 8.770308
_cell_length_c 30.775357
_cell_angle_alpha 90.000000
_cell_angle_beta 30.499554
_cell_angle_gamma 90.000000
_cell_volume 2464.092357
_symmetry_space_group_name_H-M "C 2/M"
_symmetry_group_IT_number 12
_symmetry_cell_setting 'monoclinic'
loop_
_space_group_symop_operation_xyz
x,y,z
-x,y,-z
-x,-y,-z
x,-y,z
1/2+x,1/2+y,z
1/2-x,1/2+y,-z
1/2-x,1/2-y,-z
1/2+x,1/2-y,z
loop_
_atom_site_type_symbol
_atom_site_label
_atom_site_fract_x
_atom_site_fract_y
_atom_site_fract_z
Si Si1 0.927722 0.822573 0.490112
Si Si2 0.812299 0.175796 0.010827
Si Si3 0.890252 0.820316 0.350504
Si Si4 0.466493 0.820976 0.804913
Si Si5 0.073588 0.321123 0.335425
Si Si6 0.905751 0.177165 0.173768
O O1 0.772771 0.741637 0.566182
O O2 0.000000 0.793400 0.500000
O O3 0.036093 0.749867 0.400653
O O4 0.906000 0.000000 0.491119
O O5 0.708409 0.225099 0.103713
O O6 0.782371 0.000000 0.020125
O O7 0.750000 0.250000 0.000000
O O8 0.987374 0.211026 0.922223
O O9 0.968060 0.775659 0.266852
O O10 0.976983 0.753241 0.347130
O O11 0.885427 0.000000 0.357426
O O12 0.550430 0.779764 0.807125
O O13 0.489337 0.000000 0.783669
O O14 0.042367 0.500000 0.352173
O O15 0.243007 0.283644 0.240105
O O16 0.918771 0.000000 0.181165
#
# Coordination Sequence:
#
# PCOD8090433 Si02
#       6
#     8   8   8   8   8   8
#     4  11  24  42  64  88 113 141 178 224 273 328
#     4   8  15  29  51  80 111 144 183 227 274 322
#     4  12  25  40  58  80 112 150 187 228 275 329
#     4  10  19  33  56  84 114 147 186 232 278 326
#     4  11  23  39  59  83 114 149 185 226 274 328
#     4   9  18  34  57  84 113 147 187 229 274 327
#
# _framework density 19.479789
#
# number of rings (size 3 to 8) (size 9 to 14) (size 15 to 20)
#    0.000    1.833    0.000    4.500    0.000    6.000 
#    0.000    0.833    0.000    5.000    0.000    0.000 
#    0.000    0.000    0.000    0.000    0.000    0.000 
#
# Total GULP energy -297435.148748 kJ/mol
# GULP energy per Si atom -12393.131198 kJ/mol
# Density = 1.943545 g / cm^3
# Si number density = 19.479789 Si / 1000 Ang^3
#
#
#
# Elastic Constant Matrix: (Units=GPa)
#
#
# Indices 1 2 3 4 5 6 
#
# 1 57.6981 -14.5126 -27.8787 -0.0031 -66.7939 0.0122
# 2 -14.5126 -137.3845 -209.1329 0.0851 -197.6476 0.1654
# 3 -27.8787 -209.1329 -140.0577 0.0862 -229.9176 0.1578
# 4 -0.0031 0.0851 0.0862 24.8351 0.0594 -13.8702
# 5 -66.7939 -197.6476 -229.9176 0.0594 -113.6177 0.1168
# 6 0.0122 0.1654 0.1578 -13.8702 0.1168 -31.4743
#
#
#
# Elastic Compliance Matrix: (Units=1/GPa)
#
#
# Indices 1 2 3 4 5 6 
#
# 1 0.021884 -0.008972 -0.001955 0.000009 0.006698 -0.000028
# 2 -0.008972 0.014264 -0.005410 -0.000003 -0.008591 0.000014
# 3 -0.001955 -0.005410 0.006895 -0.000001 -0.003391 -0.000007
# 4 0.000009 -0.000003 -0.000001 0.032313 0.000005 -0.014240
# 5 0.006698 -0.008591 -0.003391 0.000005 0.009068 -0.000028
# 6 -0.000028 0.000014 -0.000007 -0.014240 -0.000028 -0.025497
#
#
# Mechanical properties :
#
#
# Convention : Reuss Voigt Hill
#
# Bulk Modulus (GPa) = 96.44294 -80.31028 8.06633
# Shear Modulus (GPa) = 52.59972 -21.93270 15.33351
#
# Velocity S-wave (km/s) = 5.20200 -3.35911 2.80866
# Velocity P-wave (km/s) = 9.25731 7.50745 3.82988
#
# Compressibility (1/GPa) = 0.01036883
#
# Stress axis : x y z
#
# Youngs Moduli (GPa) = 45.69499 70.10592 145.03842
#
# Poissons Ratio (x) = 0.62897 0.28357
# Poissons Ratio (y) = 0.40996 0.78470
# Poissons Ratio (z) = 0.08934 0.37930
#
# Static dielectric constant tensor:
#      x y z
#    x 3.333460 -0.000040 -0.072540 
#    y -0.000040 3.661620 0.000010 
#    z -0.072540 0.000010 4.500730 
# 
# 
# High freq. dielectric constant tensor:
#      x y z
#    x 1.730980 0.000000 -0.006790 
#    y 0.000000 1.768530 0.000000 
#    z -0.006790 0.000000 1.791540 
# 
# From -- ./inp_files/274123.got.cif
#   From: 2010.06.25/outbox.cif.g09.slc.cpg/sg12_138_cif.got.tgz:274123.got - 2010.06.28 00:19:55.
