data_PCOD8090484
_publ_section_title
;
Structure prediction by ZEFSAII (Michael W. Deem and Ramdas Pophale) SiO2 
 PCOD8090484
Probable space group: C 2/M
;
_chemical_formula_sum "Si O2"
_cell_formula_units_Z 64
_cell_length_a 29.542329
_cell_length_b 20.084866
_cell_length_c 18.940716
_cell_angle_alpha 90.000000
_cell_angle_beta 17.394612
_cell_angle_gamma 90.000000
_cell_volume 3359.774679
_symmetry_space_group_name_H-M "C 2/M"
_symmetry_group_IT_number 12
_symmetry_cell_setting 'monoclinic'
loop_
_space_group_symop_operation_xyz
x,y,z
-x,y,-z
-x,-y,-z
x,-y,z
1/2+x,1/2+y,z
1/2-x,1/2+y,-z
1/2-x,1/2-y,-z
1/2+x,1/2-y,z
loop_
_atom_site_type_symbol
_atom_site_label
_atom_site_fract_x
_atom_site_fract_y
_atom_site_fract_z
Si Si1 0.293029 0.711029 0.505172
Si Si2 0.146277 0.807128 0.982623
Si Si3 0.337538 0.574884 0.264913
Si Si4 0.718487 0.570807 0.487868
Si Si5 0.176974 0.297411 0.049591
Si Si6 0.075953 0.928549 0.168051
Si Si7 0.174835 0.314823 0.427294
Si Si8 0.882467 0.076264 0.736049
O O1 0.250000 0.750000 0.500000
O O2 0.196688 0.641046 0.654742
O O3 0.263037 0.752355 0.620339
O O4 0.468078 0.693042 0.234328
O O5 0.234491 0.816907 0.779606
O O6 0.198532 0.739218 0.942385
O O7 0.183705 0.870214 0.977832
O O8 0.316393 0.500000 0.267223
O O9 0.336666 0.576409 0.350053
O O10 0.203800 0.618756 0.429885
O O11 0.500000 0.604175 0.000000
O O12 0.811141 0.500000 0.341118
O O13 0.579578 0.567213 0.641747
O O14 0.000816 0.306982 0.329397
O O15 0.250000 0.250000 0.000000
O O16 0.246047 0.370881 0.938578
O O17 0.035647 0.915926 0.310220
O O18 0.161473 0.000000 0.033198
O O19 0.000000 0.095492 0.500000
O O20 0.822782 0.000000 0.813657
#
# Coordination Sequence:
#
# PCOD8090484 Si02
#       8
#     8   8   8   8   8   8   8   8
#     4  10  19  34  54  82 120 150 194 244 288 350
#     4  10  22  36  57  86 116 154 197 243 310 366
#     4  10  19  33  56  87 121 158 194 231 288 369
#     4   9  17  30  52  78 111 151 185 232 289 340
#     4  11  24  41  59  84 120 158 201 257 315 367
#     4   9  17  34  57  87 121 151 196 244 291 358
#     4  11  24  36  57  89 117 158 202 247 308 366
#     4  10  22  40  66  90 114 156 207 256 304 360
#
# _framework density 19.048895999999999
#
# number of rings (size 3 to 8) (size 9 to 14) (size 15 to 20)
#    0.000    2.000    2.500    1.500    1.750    2.000 
#    0.000    0.000    0.000    1.500    0.000    0.875 
#    0.000    0.500    0.000    0.000    0.000    0.000 
#
# Total GULP energy -396482.410246 kJ/mol
# GULP energy per Si atom -12390.075320 kJ/mol
# Density = 1.900554 g / cm^3
# Si number density = 19.048896 Si / 1000 Ang^3
#
#
#
# Elastic Constant Matrix: (Units=GPa)
#
#
# Indices 1 2 3 4 5 6 
#
# 1 120.2154 52.6632 37.9944 -0.0061 14.0839 0.0075
# 2 52.6632 165.2826 33.5586 -0.0222 3.8197 0.0320
# 3 37.9944 33.5586 42.2690 -0.0295 9.6917 0.0198
# 4 -0.0061 -0.0222 -0.0295 25.1884 0.0128 -2.0997
# 5 14.0839 3.8197 9.6917 0.0128 30.4821 -0.0100
# 6 0.0075 0.0320 0.0198 -2.0997 -0.0100 8.0034
#
#
#
# Elastic Compliance Matrix: (Units=1/GPa)
#
#
# Indices 1 2 3 4 5 6 
#
# 1 0.012325 -0.002074 -0.008830 -0.000007 -0.002627 0.000013
# 2 -0.002074 0.007590 -0.004491 -0.000001 0.001435 -0.000016
# 3 -0.008830 -0.004491 0.036777 0.000035 -0.007051 -0.000064
# 4 -0.000007 -0.000001 0.000035 0.040589 -0.000022 0.010649
# 5 -0.002627 0.001435 -0.007051 -0.000022 0.036082 0.000054
# 6 0.000013 -0.000016 -0.000064 0.010649 0.000054 0.127742
#
#
# Mechanical properties :
#
#
# Convention : Reuss Voigt Hill
#
# Bulk Modulus (GPa) = 38.60539 64.02216 51.31377
# Shear Modulus (GPa) = 16.63740 26.30483 21.47112
#
# Velocity S-wave (km/s) = 2.95855 3.72009 3.36096
# Velocity P-wave (km/s) = 5.65519 7.22042 6.48520
#
# Compressibility (1/GPa) = 0.02590312
#
# Stress axis : x y z
#
# Youngs Moduli (GPa) = 81.13300 131.76002 27.19078
#
# Poissons Ratio (x) = 0.27322 0.24010
# Poissons Ratio (y) = 0.16824 0.12210
# Poissons Ratio (z) = 0.71643 0.59169
#
# Static dielectric constant tensor:
#      x y z
#    x 3.646220 -0.000050 -0.001660 
#    y -0.000050 4.368400 0.000010 
#    z -0.001660 0.000010 2.978790 
# 
# 
# High freq. dielectric constant tensor:
#      x y z
#    x 1.758410 0.000000 0.005520 
#    y 0.000000 1.774180 0.000000 
#    z 0.005520 0.000000 1.681930 
# 
# From -- ./inp_files/184712.got.cif
#   From: 2010.06.25/outbox.cif.g09.slc.cpg/sg12_93_cif.got.tgz:184712.got - 2010.06.28 00:19:55.
