data_PCOD8090199
_publ_section_title
;
Structure prediction by ZEFSAII (Michael W. Deem and Ramdas Pophale) SiO2 
 PCOD8090199
Probable space group: C 2/M
;
_chemical_formula_sum "Si O2"
_cell_formula_units_Z 60
_cell_length_a 8.693628
_cell_length_b 16.758806
_cell_length_c 24.968291
_cell_angle_alpha 90.000000
_cell_angle_beta 123.506860
_cell_angle_gamma 90.000000
_cell_volume 3033.228392
_symmetry_space_group_name_H-M "C 2/M"
_symmetry_group_IT_number 12
_symmetry_cell_setting 'monoclinic'
loop_
_space_group_symop_operation_xyz
x,y,z
-x,y,-z
-x,-y,-z
x,-y,z
1/2+x,1/2+y,z
1/2-x,1/2+y,-z
1/2-x,1/2-y,-z
1/2+x,1/2-y,z
loop_
_atom_site_type_symbol
_atom_site_label
_atom_site_fract_x
_atom_site_fract_y
_atom_site_fract_z
Si Si1 0.998003 0.206307 0.287865
Si Si2 0.239798 0.813028 0.168364
Si Si3 0.240634 0.088073 0.266562
Si Si4 0.959918 0.089993 0.371668
Si Si5 0.386142 0.788472 0.086578
Si Si6 0.676157 0.907501 0.497684
Si Si7 0.126419 0.640756 0.372870
Si Si8 0.000000 0.296654 0.000000
O O1 0.837460 0.242573 0.220611
O O2 0.904168 0.145479 0.311153
O O3 0.136999 0.158097 0.277321
O O4 0.111130 0.273048 0.342034
O O5 0.233753 0.893739 0.201716
O O6 0.364488 0.833438 0.139408
O O7 0.030426 0.785187 0.116836
O O8 0.448763 0.086882 0.327203
O O9 0.155318 0.000000 0.259875
O O10 0.799874 0.092680 0.384206
O O11 0.147965 0.121063 0.434671
O O12 0.987273 0.000000 0.355819
O O13 0.180693 0.757769 0.036768
O O14 0.464851 0.842964 0.050703
O O15 0.500000 0.893507 0.500000
O O16 0.655297 0.851001 0.441984
O O17 0.696299 0.000000 0.483997
#
# Coordination Sequence:
#
# PCOD8090199 Si02
#       8
#     8   8   8   8   8   8   8   4
#     4  11  23  38  55  80 114 153 184 232 292 336
#     4  10  19  33  55  83 118 155 183 240 279 328
#     4  11  22  37  56  81 113 154 192 228 283 349
#     4  11  23  38  58  81 108 143 188 238 287 342
#     4   9  16  31  53  88 124 145 191 232 281 310
#     4  10  21  38  59  81 108 145 185 234 294 353
#     4  11  22  38  59  82 107 140 187 242 291 338
#     4   8  16  28  54  90 120 152 184 236 272 320
#
# _framework density 19.780905000000001
#
# number of rings (size 3 to 8) (size 9 to 14) (size 15 to 20)
#    0.000    1.733    1.333    4.400    1.867    2.667 
#    0.000    1.333    0.000    0.000    0.000   17.733 
#    0.000    0.000    0.000    0.000    0.000    0.000 
#
# Total GULP energy -371750.177499 kJ/mol
# GULP energy per Si atom -12391.672583 kJ/mol
# Density = 1.973588 g / cm^3
# Si number density = 19.780905 Si / 1000 Ang^3
#
#
#
# Elastic Constant Matrix: (Units=GPa)
#
#
# Indices 1 2 3 4 5 6 
#
# 1 117.3325 21.0234 50.1882 0.0000 -9.5110 0.0000
# 2 21.0234 82.3033 35.3202 0.0000 -9.1411 0.0000
# 3 50.1882 35.3202 105.5195 0.0000 -15.7841 0.0000
# 4 0.0000 0.0000 0.0000 7.1719 0.0000 -2.8215
# 5 -9.5110 -9.1411 -15.7841 0.0000 53.4033 0.0000
# 6 0.0000 0.0000 0.0000 -2.8215 0.0000 22.6546
#
#
#
# Elastic Compliance Matrix: (Units=1/GPa)
#
#
# Indices 1 2 3 4 5 6 
#
# 1 0.010736 -0.000623 -0.004842 0.000000 0.000374 0.000000
# 2 -0.000623 0.014283 -0.004327 0.000000 0.001055 0.000000
# 3 -0.004842 -0.004327 0.013589 0.000000 0.002414 0.000000
# 4 0.000000 0.000000 0.000000 0.146618 0.000000 0.018260
# 5 0.000374 0.001055 0.002414 0.000000 0.019686 0.000000
# 6 0.000000 0.000000 0.000000 0.018260 0.000000 0.046415
#
#
# Mechanical properties :
#
#
# Convention : Reuss Voigt Hill
#
# Bulk Modulus (GPa) = 52.56211 57.57988 55.07099
# Shear Modulus (GPa) = 18.03412 29.88753 23.96082
#
# Velocity S-wave (km/s) = 3.02270 3.89128 3.48416
# Velocity P-wave (km/s) = 6.22994 7.02577 6.63979
#
# Compressibility (1/GPa) = 0.01902511
#
# Stress axis : x y z
#
# Youngs Moduli (GPa) = 93.14656 70.01157 73.58809
#
# Poissons Ratio (x) = 0.04361 0.35629
# Poissons Ratio (y) = 0.05802 0.31841
# Poissons Ratio (z) = 0.45099 0.30293
#
# Static dielectric constant tensor:
#      x y z
#    x 3.944660 0.000000 -0.333060 
#    y 0.000000 3.196300 0.000000 
#    z -0.333060 0.000000 4.024160 
# 
# 
# High freq. dielectric constant tensor:
#      x y z
#    x 1.795990 0.000000 -0.010520 
#    y 0.000000 1.720920 0.000000 
#    z -0.010520 0.000000 1.784820 
# 
# From -- ./inp_files/333364.got.cif
#   From: 2010.06.25/outbox.cif.g09.slc.cpg/sg12_167_cif.got.tgz:333364.got - 2010.06.28 00:19:55.
