data_PCOD8090456
_publ_section_title
;
Structure prediction by ZEFSAII (Michael W. Deem and Ramdas Pophale) SiO2 
 PCOD8090456
Probable space group: C 2/M
;
_chemical_formula_sum "Si O2"
_cell_formula_units_Z 40
_cell_length_a 13.442844
_cell_length_b 11.906516
_cell_length_c 12.352161
_cell_angle_alpha 90.000000
_cell_angle_beta 134.007260
_cell_angle_gamma 90.000000
_cell_volume 1422.000483
_symmetry_space_group_name_H-M "C 2/M"
_symmetry_group_IT_number 12
_symmetry_cell_setting 'monoclinic'
loop_
_space_group_symop_operation_xyz
x,y,z
-x,y,-z
-x,-y,-z
x,-y,z
1/2+x,1/2+y,z
1/2-x,1/2+y,-z
1/2-x,1/2-y,-z
1/2+x,1/2-y,z
loop_
_atom_site_type_symbol
_atom_site_label
_atom_site_fract_x
_atom_site_fract_y
_atom_site_fract_z
Si Si1 0.224921 0.372784 0.424707
Si Si2 0.463963 0.866653 0.094905
Si Si3 0.636097 0.366600 0.248455
Si Si4 0.843966 0.866271 0.102588
Si Si5 0.866885 0.769288 0.347205
O O1 0.197342 0.500000 0.436590
O O2 0.283675 0.318030 0.581801
O O3 0.333688 0.367245 0.408849
O O4 0.081062 0.321539 0.266651
O O5 0.456425 0.000000 0.090925
O O6 0.500000 0.828094 0.000000
O O7 0.315799 0.819067 0.031220
O O8 0.637723 0.500000 0.246272
O O9 0.470641 0.329419 0.114578
O O10 0.735506 0.316573 0.229577
O O11 0.901301 0.832267 0.262962
O O12 0.834265 0.000000 0.088790
O O13 0.000000 0.704262 0.500000
#
# Coordination Sequence:
#
# PCOD8090456 Si02
#       5
#     8   8   8   8   8
#     4  10  19  33  56  85 115 144 181 231 282 330
#     4   9  16  29  53  86 116 141 179 229 281 334
#     4  10  23  40  57  81 114 152 192 231 278 335
#     4  10  20  36  61  88 114 146 184 233 286 333
#     4  12  22  33  59  84 117 145 190 233 285 327
#
# _framework density 28.129386
#
# number of rings (size 3 to 8) (size 9 to 14) (size 15 to 20)
#    0.000    1.800    4.000    1.200    0.000    1.200 
#    0.000    1.000    4.400    0.000    0.000    2.800 
#    0.000    0.000    0.000    0.000    0.000    0.000 
#
# Total GULP energy -247918.611036 kJ/mol
# GULP energy per Si atom -12395.930552 kJ/mol
# Density = 2.806536 g / cm^3
# Si number density = 28.129386 Si / 1000 Ang^3
#
#
#
# Elastic Constant Matrix: (Units=GPa)
#
#
# Indices 1 2 3 4 5 6 
#
# 1 125.6344 47.7284 38.2084 0.0000 51.0975 0.0000
# 2 47.7284 102.4328 62.4566 0.0000 35.3460 0.0000
# 3 38.2084 62.4566 147.6104 0.0000 56.8448 0.0000
# 4 0.0000 0.0000 0.0000 47.2481 0.0000 11.8858
# 5 51.0975 35.3460 56.8448 0.0000 53.9937 0.0000
# 6 0.0000 0.0000 0.0000 11.8858 0.0000 43.8189
#
#
#
# Elastic Compliance Matrix: (Units=1/GPa)
#
#
# Indices 1 2 3 4 5 6 
#
# 1 0.014363 -0.003741 0.003627 0.000000 -0.014962 0.000000
# 2 -0.003741 0.014857 -0.004938 0.000000 -0.000987 0.000000
# 3 0.003627 -0.004938 0.013459 0.000000 -0.014369 0.000000
# 4 0.000000 0.000000 0.000000 0.022715 0.000000 -0.006161
# 5 -0.014962 -0.000987 -0.014369 0.000000 0.048454 0.000000
# 6 0.000000 0.000000 0.000000 -0.006161 0.000000 0.024492
#
#
# Mechanical properties :
#
#
# Convention : Reuss Voigt Hill
#
# Bulk Modulus (GPa) = 30.69839 74.71826 52.70833
# Shear Modulus (GPa) = 31.38680 44.16441 37.77561
#
# Velocity S-wave (km/s) = 3.34398 3.96668 3.66857
# Velocity P-wave (km/s) = 5.08396 6.89923 6.05995
#
# Compressibility (1/GPa) = 0.03257500
#
# Stress axis : x y z
#
# Youngs Moduli (GPa) = 69.62269 67.30873 74.30148
#
# Poissons Ratio (x) = 0.25181 -0.26949
# Poissons Ratio (y) = 0.26046 0.36689
# Poissons Ratio (z) = -0.25252 0.33236
#
# Static dielectric constant tensor:
#      x y z
#    x 5.156530 0.000000 0.583400 
#    y 0.000000 5.556410 0.000000 
#    z 0.583400 0.000000 5.581200 
# 
# 
# High freq. dielectric constant tensor:
#      x y z
#    x 2.129760 0.000000 0.028650 
#    y 0.000000 2.208600 0.000000 
#    z 0.028650 0.000000 2.157610 
# 
# From -- ./inp_files/183328.got.cif
#   From: 2010.06.25/outbox.cif.g09.slc.cpg/sg12_92_cif.got.tgz:183328.got - 2010.06.28 00:19:55.
