data_PCOD8090280
_publ_section_title
;
Structure prediction by ZEFSAII (Michael W. Deem and Ramdas Pophale) SiO2 
 PCOD8090280
Probable space group: C 2/M
;
_chemical_formula_sum "Si O2"
_cell_formula_units_Z 64
_cell_length_a 20.592515
_cell_length_b 9.267863
_cell_length_c 20.347149
_cell_angle_alpha 90.000000
_cell_angle_beta 63.128753
_cell_angle_gamma 90.000000
_cell_volume 3463.931756
_symmetry_space_group_name_H-M "C 2/M"
_symmetry_group_IT_number 12
_symmetry_cell_setting 'monoclinic'
loop_
_space_group_symop_operation_xyz
x,y,z
-x,y,-z
-x,-y,-z
x,-y,z
1/2+x,1/2+y,z
1/2-x,1/2+y,-z
1/2-x,1/2-y,-z
1/2+x,1/2-y,z
loop_
_atom_site_type_symbol
_atom_site_label
_atom_site_fract_x
_atom_site_fract_y
_atom_site_fract_z
Si Si1 0.521448 0.168801 0.666613
Si Si2 0.850224 0.840208 0.343172
Si Si3 0.457725 0.166252 0.838179
Si Si4 0.555526 0.666913 0.415450
Si Si5 0.917956 0.840424 0.168483
Si Si6 0.201017 0.670767 0.350893
Si Si7 0.292736 0.171262 0.923509
Si Si8 0.729127 0.328363 0.815557
O O1 0.604331 0.229314 0.632305
O O2 0.479234 0.199426 0.753511
O O3 0.475586 0.250099 0.632902
O O4 0.525279 0.000000 0.648112
O O5 0.885554 0.847007 0.255807
O O6 0.765950 0.792360 0.372859
O O7 0.854192 0.000000 0.373550
O O8 0.509679 0.245057 0.866635
O O9 0.376307 0.219485 0.888721
O O10 0.466212 0.000000 0.849871
O O11 0.500000 0.683442 0.500000
O O12 0.568675 0.500000 0.391194
O O13 0.630485 0.740142 0.404896
O O14 0.854573 0.772688 0.151368
O O15 0.939846 0.000000 0.134387
O O16 0.184369 0.500000 0.358960
O O17 0.222503 0.725409 0.267889
O O18 0.262549 0.228665 0.867844
O O19 0.283214 0.000000 0.934279
O O20 0.250000 0.250000 0.000000
O O21 0.727336 0.500000 0.812833
#
# Coordination Sequence:
#
# PCOD8090280 Si02
#       8
#     8   8   8   8   8   8   8   8
#     4  10  19  33  56  80 100 129 169 206 246 301
#     4   8  15  29  51  80 108 127 152 201 256 299
#     4   9  18  32  51  75 101 127 156 200 252 292
#     4  11  24  38  50  70 104 139 169 208 254 293
#     4   8  14  27  50  76  98 123 157 196 240 293
#     4   9  17  33  58  81 100 129 168 206 250 303
#     4  10  20  34  49  67  97 133 167 203 243 287
#     4   8  15  31  54  76  98 126 161 203 247 289
#
# _framework density 18.476115
#
# number of rings (size 3 to 8) (size 9 to 14) (size 15 to 20)
#    0.000    2.875    0.000    3.000    0.000    4.500 
#    0.000    5.625    0.000    3.750    0.000    0.000 
#    0.000    0.000    0.000    0.000    0.000    0.000 
#
# Total GULP energy -396686.849259 kJ/mol
# GULP energy per Si atom -12396.464039 kJ/mol
# Density = 1.843406 g / cm^3
# Si number density = 18.476115 Si / 1000 Ang^3
#
#
#
# Elastic Constant Matrix: (Units=GPa)
#
#
# Indices 1 2 3 4 5 6 
#
# 1 146.8952 62.0771 41.2428 0.0000 -35.8004 0.0001
# 2 62.0771 78.9346 33.9790 0.0002 -17.8397 0.0003
# 3 41.2428 33.9790 48.2529 0.0000 -19.3096 0.0000
# 4 0.0000 0.0002 0.0000 24.3041 0.0000 -2.5365
# 5 -35.8004 -17.8397 -19.3096 0.0000 15.4023 0.0000
# 6 0.0001 0.0003 0.0000 -2.5365 0.0000 34.1502
#
#
#
# Elastic Compliance Matrix: (Units=1/GPa)
#
#
# Indices 1 2 3 4 5 6 
#
# 1 0.018646 -0.007920 0.006648 0.000000 0.042502 0.000000
# 2 -0.007920 0.022353 -0.011996 0.000000 -0.007558 0.000000
# 3 0.006648 -0.011996 0.048390 0.000000 0.062224 0.000000
# 4 0.000000 0.000000 0.000000 0.041467 0.000000 0.003080
# 5 0.042502 -0.007558 0.062224 0.000000 0.232971 0.000000
# 6 0.000000 0.000000 0.000000 0.003080 0.000000 0.029511
#
#
# Mechanical properties :
#
#
# Convention : Reuss Voigt Hill
#
# Bulk Modulus (GPa) = 15.90999 60.96450 38.43724
# Shear Modulus (GPa) = 11.34235 23.89022 17.61628
#
# Velocity S-wave (km/s) = 2.48037 3.59978 3.09117
# Velocity P-wave (km/s) = 4.10278 7.09548 5.79563
#
# Compressibility (1/GPa) = 0.06285360
#
# Stress axis : x y z
#
# Youngs Moduli (GPa) = 53.62947 44.73623 20.66557
#
# Poissons Ratio (x) = 0.35433 -0.13739
# Poissons Ratio (y) = 0.42477 0.24790
# Poissons Ratio (z) = -0.35654 0.53664
#
# Static dielectric constant tensor:
#      x y z
#    x 3.881240 0.000000 -0.107290 
#    y 0.000000 3.358590 0.000000 
#    z -0.107290 0.000000 3.142930 
# 
# 
# High freq. dielectric constant tensor:
#      x y z
#    x 1.737140 0.000000 -0.006970 
#    y 0.000000 1.700860 0.000000 
#    z -0.006970 0.000000 1.681870 
# 
# From -- ./inp_files/319870.got.cif
#   From: 2010.06.25/outbox.cif.g09.slc.cpg/sg12_160_cif.got.tgz:319870.got - 2010.06.28 00:19:55.
