data_PCOD8090223
_publ_section_title
;
Structure prediction by ZEFSAII (Michael W. Deem and Ramdas Pophale) SiO2 
 PCOD8090223
Probable space group: C 2/M
;
_chemical_formula_sum "Si O2"
_cell_formula_units_Z 64
_cell_length_a 32.637881
_cell_length_b 8.844692
_cell_length_c 20.578930
_cell_angle_alpha 90.000000
_cell_angle_beta 35.569737
_cell_angle_gamma 90.000000
_cell_volume 3455.585224
_symmetry_space_group_name_H-M "C 2/M"
_symmetry_group_IT_number 12
_symmetry_cell_setting 'monoclinic'
loop_
_space_group_symop_operation_xyz
x,y,z
-x,y,-z
-x,-y,-z
x,-y,z
1/2+x,1/2+y,z
1/2-x,1/2+y,-z
1/2-x,1/2-y,-z
1/2+x,1/2-y,z
loop_
_atom_site_type_symbol
_atom_site_label
_atom_site_fract_x
_atom_site_fract_y
_atom_site_fract_z
Si Si1 0.277127 0.675046 0.157217
Si Si2 0.928313 0.173098 0.908544
Si Si3 0.428983 0.826196 0.259309
Si Si4 0.429676 0.826062 0.773169
Si Si5 0.294517 0.678417 0.384919
Si Si6 0.085930 0.672583 0.569337
Si Si7 0.722994 0.323456 0.354815
Si Si8 0.288837 0.174069 0.890431
O O1 0.257302 0.500000 0.196349
O O2 0.253519 0.781367 0.245781
O O3 0.236605 0.738590 0.145790
O O4 0.360799 0.693746 0.041321
O O5 0.907701 0.225379 0.862822
O O6 0.991960 0.269971 0.856397
O O7 0.952583 0.000000 0.873799
O O8 0.375485 0.730042 0.284624
O O9 0.409057 0.802730 0.360043
O O10 0.423399 0.000000 0.245741
O O11 0.507334 0.783080 0.646647
O O12 0.373073 0.801353 0.788870
O O13 0.431318 0.000000 0.795215
O O14 0.288976 0.500000 0.398213
O O15 0.250000 0.750000 0.500000
O O16 0.264229 0.728066 0.355163
O O17 0.104265 0.500000 0.527436
O O18 0.140267 0.782604 0.463486
O O19 0.733124 0.500000 0.355145
O O20 0.267382 0.000000 0.920897
O O21 0.250000 0.250000 0.000000
#
# Coordination Sequence:
#
# PCOD8090223 Si02
#       8
#     8   8   8   8   8   8   8   8
#     4  10  22  39  57  81 117 157 193 234 290 348
#     4  10  19  33  55  84 116 151 189 233 287 338
#     4  10  20  35  58  87 117 149 187 234 283 334
#     4   9  18  32  55  84 114 146 188 236 285 339
#     4  12  23  38  61  88 117 148 188 237 284 338
#     4   9  18  34  55  80 113 150 186 231 283 338
#     4  12  25  39  58  83 113 153 194 237 288 342
#     4  10  19  34  57  86 115 148 191 240 287 338
#
# _framework density 18.520741000000001
#
# number of rings (size 3 to 8) (size 9 to 14) (size 15 to 20)
#    0.000    1.750    2.500    3.750    0.000    3.500 
#    0.000    1.250    0.000    7.500    0.000    0.000 
#    0.000    0.000    0.000    0.000    0.000    0.000 
#
# Total GULP energy -396889.214797 kJ/mol
# GULP energy per Si atom -12402.787962 kJ/mol
# Density = 1.847859 g / cm^3
# Si number density = 18.520741 Si / 1000 Ang^3
#
#
#
# Elastic Constant Matrix: (Units=GPa)
#
#
# Indices 1 2 3 4 5 6 
#
# 1 113.0099 43.0544 51.6940 0.0003 -9.1313 -0.0083
# 2 43.0544 111.1549 47.3260 0.0010 -3.3762 -0.0156
# 3 51.6940 47.3260 93.7269 -0.0007 -6.7755 -0.0009
# 4 0.0003 0.0010 -0.0007 31.0759 -0.0032 -1.0886
# 5 -9.1313 -3.3762 -6.7755 -0.0032 27.9142 0.0058
# 6 -0.0083 -0.0156 -0.0009 -1.0886 0.0058 27.1913
#
#
#
# Elastic Compliance Matrix: (Units=1/GPa)
#
#
# Indices 1 2 3 4 5 6 
#
# 1 0.012478 -0.002425 -0.005480 0.000000 0.002458 0.000002
# 2 -0.002425 0.011932 -0.004723 0.000000 -0.000497 0.000006
# 3 -0.005480 -0.004723 0.016190 0.000001 0.001566 -0.000004
# 4 0.000000 0.000000 0.000001 0.032224 0.000004 0.001290
# 5 0.002458 -0.000497 0.001566 0.000004 0.036948 -0.000007
# 6 0.000002 0.000006 -0.000004 0.001290 -0.000007 0.036828
#
#
# Mechanical properties :
#
#
# Convention : Reuss Voigt Hill
#
# Bulk Modulus (GPa) = 65.17578 66.89338 66.03458
# Shear Modulus (GPa) = 28.25329 28.95744 28.60536
#
# Velocity S-wave (km/s) = 3.90999 3.95842 3.93428
# Velocity P-wave (km/s) = 7.45997 7.55570 7.50799
#
# Compressibility (1/GPa) = 0.01534312
#
# Stress axis : x y z
#
# Youngs Moduli (GPa) = 80.14083 83.81036 61.76841
#
# Poissons Ratio (x) = 0.20328 0.33847
# Poissons Ratio (y) = 0.19438 0.29173
# Poissons Ratio (z) = 0.43915 0.39583
#
# Static dielectric constant tensor:
#      x y z
#    x 3.717380 -0.000040 -0.321320 
#    y -0.000040 3.459860 0.000030 
#    z -0.321320 0.000030 3.305230 
# 
# 
# High freq. dielectric constant tensor:
#      x y z
#    x 1.717730 0.000000 -0.026230 
#    y 0.000000 1.721920 0.000000 
#    z -0.026230 0.000000 1.704630 
# 
# From -- ./inp_files/295554.got.cif
#   From: 2010.06.25/outbox.cif.g09.slc.cpg/sg12_148_cif.got.tgz:295554.got - 2010.06.28 00:19:55.
