data_PCOD8090796
_publ_section_title
;
Structure prediction by ZEFSAII (Michael W. Deem and Ramdas Pophale) SiO2 
 PCOD8090796
Probable space group: C 2/M
;
_chemical_formula_sum "Si O2"
_cell_formula_units_Z 64
_cell_length_a 25.154746
_cell_length_b 8.809011
_cell_length_c 19.562310
_cell_angle_alpha 90.000000
_cell_angle_beta 62.860596
_cell_angle_gamma 90.000000
_cell_volume 3857.519160
_symmetry_space_group_name_H-M "C 2/M"
_symmetry_group_IT_number 12
_symmetry_cell_setting 'monoclinic'
loop_
_space_group_symop_operation_xyz
x,y,z
-x,y,-z
-x,-y,-z
x,-y,z
1/2+x,1/2+y,z
1/2-x,1/2+y,-z
1/2-x,1/2-y,-z
1/2+x,1/2-y,z
loop_
_atom_site_type_symbol
_atom_site_label
_atom_site_fract_x
_atom_site_fract_y
_atom_site_fract_z
Si Si1 0.039471 0.178147 0.831010
Si Si2 0.260548 0.679576 0.658558
Si Si3 0.641907 0.322781 0.669927
Si Si4 0.751918 0.679948 0.185786
Si Si5 0.800535 0.179888 0.923246
Si Si6 0.112579 0.677614 0.908170
Si Si7 0.415010 0.823248 0.919850
Si Si8 0.308611 0.677457 0.495093
O O1 0.079962 0.221972 0.741756
O O2 0.071482 0.226815 0.881789
O O3 0.978837 0.269612 0.855421
O O4 0.025841 0.000000 0.842184
O O5 0.256976 0.500000 0.665035
O O6 0.195246 0.733841 0.674622
O O7 0.275003 0.742128 0.726288
O O8 0.312283 0.731530 0.573011
O O9 0.655400 0.500000 0.672086
O O10 0.638075 0.282137 0.589830
O O11 0.753207 0.500000 0.183267
O O12 0.711227 0.738683 0.147319
O O13 0.819811 0.737889 0.137624
O O14 0.865618 0.232461 0.906851
O O15 0.795598 0.000000 0.931316
O O16 0.750000 0.250000 0.000000
O O17 0.106765 0.500000 0.893546
O O18 0.089645 0.712498 0.997405
O O19 0.405903 0.000000 0.910540
O O20 0.298214 0.500000 0.502294
O O21 0.250000 0.750000 0.500000
#
# Coordination Sequence:
#
# PCOD8090796 Si02
#       8
#     8   8   8   8   8   8   8   8
#     4  11  22  33  47  71  99 129 161 196 236 283
#     4   9  15  26  46  68  91 122 159 187 220 276
#     4   9  17  28  41  64  99 127 150 185 233 274
#     4   9  17  30  49  72  96 123 156 193 235 277
#     4  11  21  36  54  72  95 124 159 201 243 284
#     4  10  19  34  51  68  95 128 159 194 237 280
#     4  11  23  38  52  68  91 126 166 205 242 279
#     4   8  14  24  40  63  91 123 152 183 221 271
#
# _framework density 16.590973000000002
#
# number of rings (size 3 to 8) (size 9 to 14) (size 15 to 20)
#    0.000    2.250    2.500    1.500    0.000    3.000 
#    0.000    1.250    0.000    0.000    0.000    0.875 
#    0.000    7.000    0.000    0.000    0.000    0.000 
#
# Total GULP energy -396492.600799 kJ/mol
# GULP energy per Si atom -12390.393775 kJ/mol
# Density = 1.655321 g / cm^3
# Si number density = 16.590973 Si / 1000 Ang^3
#
#
#
# Elastic Constant Matrix: (Units=GPa)
#
#
# Indices 1 2 3 4 5 6 
#
# 1 80.7046 18.4141 59.4821 0.0000 3.9365 -0.0001
# 2 18.4141 29.5388 31.1772 0.0000 6.1504 -0.0005
# 3 59.4821 31.1772 162.8381 0.0000 17.4547 -0.0001
# 4 0.0000 0.0000 0.0000 17.4072 0.0000 -1.9117
# 5 3.9365 6.1504 17.4547 0.0000 18.0257 0.0001
# 6 -0.0001 -0.0005 -0.0001 -1.9117 0.0001 22.7331
#
#
#
# Elastic Compliance Matrix: (Units=1/GPa)
#
#
# Indices 1 2 3 4 5 6 
#
# 1 0.017792 -0.005743 -0.005795 0.000000 0.003685 0.000000
# 2 -0.005743 0.045179 -0.005617 0.000000 -0.008721 0.000001
# 3 -0.005795 -0.005617 0.010034 0.000000 -0.006534 0.000000
# 4 0.000000 0.000000 0.000000 0.057983 0.000000 0.004876
# 5 0.003685 -0.008721 -0.006534 0.000000 0.063974 -0.000001
# 6 0.000000 0.000001 0.000000 0.004876 -0.000001 0.044399
#
#
# Mechanical properties :
#
#
# Convention : Reuss Voigt Hill
#
# Bulk Modulus (GPa) = 25.84315 54.58094 40.21204
# Shear Modulus (GPa) = 17.44784 22.56706 20.00745
#
# Velocity S-wave (km/s) = 3.24643 3.69209 3.47641
# Velocity P-wave (km/s) = 5.44636 7.15156 6.35640
#
# Compressibility (1/GPa) = 0.03869497
#
# Stress axis : x y z
#
# Youngs Moduli (GPa) = 56.20392 22.13440 99.66427
#
# Poissons Ratio (x) = 0.12711 0.57753
# Poissons Ratio (y) = 0.32276 0.55986
# Poissons Ratio (z) = 0.32569 0.12434
#
# Static dielectric constant tensor:
#      x y z
#    x 3.022310 0.000000 0.205380 
#    y 0.000000 3.095060 0.000000 
#    z 0.205380 0.000000 3.927560 
# 
# 
# High freq. dielectric constant tensor:
#      x y z
#    x 1.599010 0.000000 0.010620 
#    y 0.000000 1.633470 0.000000 
#    z 0.010620 0.000000 1.657930 
# 
# From -- ./inp_files/323663.got.cif
#   From: 2010.06.25/outbox.cif.g09.slc.cpg/sg12_162_cif.got.tgz:323663.got - 2010.06.28 00:19:55.
