data_PCOD8090366
_publ_section_title
;
Structure prediction by ZEFSAII (Michael W. Deem and Ramdas Pophale) SiO2 
 PCOD8090366
Probable space group: C 2/M
;
_chemical_formula_sum "Si O2"
_cell_formula_units_Z 56
_cell_length_a 29.575150
_cell_length_b 8.875960
_cell_length_c 12.448884
_cell_angle_alpha 90.000000
_cell_angle_beta 58.616223
_cell_angle_gamma 90.000000
_cell_volume 2789.826024
_symmetry_space_group_name_H-M "C 2/M"
_symmetry_group_IT_number 12
_symmetry_cell_setting 'monoclinic'
loop_
_space_group_symop_operation_xyz
x,y,z
-x,y,-z
-x,-y,-z
x,-y,z
1/2+x,1/2+y,z
1/2-x,1/2+y,-z
1/2-x,1/2-y,-z
1/2+x,1/2-y,z
loop_
_atom_site_type_symbol
_atom_site_label
_atom_site_fract_x
_atom_site_fract_y
_atom_site_fract_z
Si Si1 0.955150 0.823217 0.477249
Si Si2 0.546898 0.664309 0.024311
Si Si3 0.852004 0.677949 0.873034
Si Si4 0.835325 0.827653 0.122810
Si Si5 0.029656 0.669655 0.245670
Si Si6 0.338920 0.321930 0.673178
Si Si7 0.748133 0.177849 0.620338
O O1 0.896637 0.758201 0.567299
O O2 0.000000 0.750582 0.500000
O O3 0.979281 0.775853 0.333231
O O4 0.952765 0.000000 0.493795
O O5 0.545649 0.500000 0.085889
O O6 0.538547 0.808322 0.109022
O O7 0.500000 0.668879 0.000000
O O8 0.605397 0.681166 0.901434
O O9 0.842517 0.500000 0.897280
O O10 0.913935 0.715825 0.770824
O O11 0.820818 0.742545 0.807393
O O12 0.832030 0.757341 0.006803
O O13 0.801301 0.735808 0.250327
O O14 0.815256 0.000000 0.140689
O O15 0.014298 0.500000 0.292267
O O16 0.339058 0.500000 0.693376
O O17 0.300291 0.277584 0.623705
O O18 0.750000 0.250000 0.500000
O O19 0.743581 0.000000 0.611187
#
# Coordination Sequence:
#
# PCOD8090366 Si02
#       7
#     8   8   8   8   8   8   8
#     4  10  19  33  56  82 113 152 192 231 278 339
#     4   9  19  36  58  83 111 148 194 238 281 337
#     4  10  20  35  58  89 122 152 188 236 293 354
#     4  10  21  39  64  88 116 154 195 242 294 347
#     4  10  20  32  50  81 120 154 183 228 288 344
#     4  10  22  39  60  87 116 155 202 245 290 346
#     4  11  25  45  65  85 116 154 199 248 292 345
#
# _framework density 20.072935999999999
#
# number of rings (size 3 to 8) (size 9 to 14) (size 15 to 20)
#    0.000    2.000    1.429    1.714    0.000    5.714 
#    0.000    5.714    0.000    0.000    0.000    0.000 
#    0.000    0.000    0.000    0.000    0.000    0.000 
#
# Total GULP energy -346983.149662 kJ/mol
# GULP energy per Si atom -12392.255345 kJ/mol
# Density = 2.002725 g / cm^3
# Si number density = 20.072936 Si / 1000 Ang^3
#
#
#
# Elastic Constant Matrix: (Units=GPa)
#
#
# Indices 1 2 3 4 5 6 
#
# 1 125.1893 53.1623 73.0376 0.0000 6.4129 0.0000
# 2 53.1623 65.7487 44.8253 0.0000 7.8251 0.0000
# 3 73.0376 44.8253 127.4145 0.0000 1.3472 0.0000
# 4 0.0000 0.0000 0.0000 37.9397 0.0000 2.2023
# 5 6.4129 7.8251 1.3472 0.0000 28.3344 0.0000
# 6 0.0000 0.0000 0.0000 2.2023 0.0000 18.4619
#
#
#
# Elastic Compliance Matrix: (Units=1/GPa)
#
#
# Indices 1 2 3 4 5 6 
#
# 1 0.014677 -0.007939 -0.005611 0.000000 -0.000862 0.000000
# 2 -0.007939 0.025097 -0.004226 0.000000 -0.004933 0.000000
# 3 -0.005611 -0.004226 0.012532 0.000000 0.001841 0.000000
# 4 0.000000 0.000000 0.000000 0.026541 0.000000 -0.003166
# 5 -0.000862 -0.004933 0.001841 0.000000 0.036763 0.000000
# 6 0.000000 0.000000 0.000000 -0.003166 0.000000 0.054543
#
#
# Mechanical properties :
#
#
# Convention : Reuss Voigt Hill
#
# Bulk Modulus (GPa) = 59.68954 73.37810 66.53382
# Shear Modulus (GPa) = 23.66389 26.76901 25.21645
#
# Velocity S-wave (km/s) = 3.43723 3.65579 3.54819
# Velocity P-wave (km/s) = 6.74934 7.37935 7.07137
#
# Compressibility (1/GPa) = 0.01675335
#
# Stress axis : x y z
#
# Youngs Moduli (GPa) = 68.13271 39.84480 79.79446
#
# Poissons Ratio (x) = 0.31634 0.44774
# Poissons Ratio (y) = 0.54093 0.33722
# Poissons Ratio (z) = 0.38230 0.16839
#
# Static dielectric constant tensor:
#      x y z
#    x 3.796990 0.000000 -0.089360 
#    y 0.000000 3.698830 0.000000 
#    z -0.089360 0.000000 3.606180 
# 
# 
# High freq. dielectric constant tensor:
#      x y z
#    x 1.778560 0.000000 -0.007800 
#    y 0.000000 1.784190 0.000000 
#    z -0.007800 0.000000 1.779670 
# 
# From -- ./inp_files/180794.got.cif
#   From: 2010.06.25/outbox.cif.g09.slc.cpg/sg12_91_cif.got.tgz:180794.got - 2010.06.28 00:19:55.
