data_PCOD8090784
_publ_section_title
;
Structure prediction by ZEFSAII (Michael W. Deem and Ramdas Pophale) SiO2 
 PCOD8090784
Probable space group: C 2/M
;
_chemical_formula_sum "Si O2"
_cell_formula_units_Z 48
_cell_length_a 25.126982
_cell_length_b 17.583612
_cell_length_c 15.979447
_cell_angle_alpha 90.000000
_cell_angle_beta 156.106727
_cell_angle_gamma 90.000000
_cell_volume 2859.577741
_symmetry_space_group_name_H-M "C 2/M"
_symmetry_group_IT_number 12
_symmetry_cell_setting 'monoclinic'
loop_
_space_group_symop_operation_xyz
x,y,z
-x,y,-z
-x,-y,-z
x,-y,z
1/2+x,1/2+y,z
1/2-x,1/2+y,-z
1/2-x,1/2-y,-z
1/2+x,1/2-y,z
loop_
_atom_site_type_symbol
_atom_site_label
_atom_site_fract_x
_atom_site_fract_y
_atom_site_fract_z
Si Si1 0.641181 0.227533 0.779759
Si Si2 0.932662 0.913021 0.619598
Si Si3 0.639202 0.724036 0.594690
Si Si4 0.595421 0.411841 0.236901
Si Si5 0.768114 0.084296 0.901721
Si Si6 0.682113 0.643752 0.199006
O O1 0.500051 0.234532 0.620298
O O2 0.659808 0.281168 0.724519
O O3 0.659146 0.139384 0.783148
O O4 0.750000 0.250000 0.000000
O O5 0.867420 0.859808 0.455365
O O6 0.856215 0.899498 0.598154
O O7 0.915392 0.000000 0.564619
O O8 0.086259 0.893984 0.855548
O O9 0.755655 0.771853 0.718261
O O10 0.550648 0.500000 0.161852
O O11 0.707412 0.390052 0.329264
O O12 0.473881 0.355560 0.043132
O O13 0.756712 0.090024 0.784670
O O14 0.731063 0.000000 0.877013
#
# Coordination Sequence:
#
# PCOD8090784 Si02
#       6
#     8   8   8   8   8   8
#     4  10  19  34  49  67 100 129 156 203 243 290
#     4   9  17  30  48  70  94 122 162 202 233 277
#     4  10  20  31  48  74  93 127 165 194 250 284
#     4   9  16  29  50  73  99 129 155 196 244 279
#     4   9  16  29  49  69  94 128 157 193 243 286
#     4   9  16  27  45  73 101 120 156 194 236 292
#
# _framework density 16.785693999999999
#
# number of rings (size 3 to 8) (size 9 to 14) (size 15 to 20)
#    0.000    2.667    1.667    3.000    0.000    0.667 
#    0.000   10.833    0.000    0.000    0.000    2.333 
#    0.000    0.000    0.000    0.000    0.000    0.000 
#
# Total GULP energy -297352.097423 kJ/mol
# GULP energy per Si atom -12389.670726 kJ/mol
# Density = 1.674749 g / cm^3
# Si number density = 16.785694 Si / 1000 Ang^3
#
#
#
# Elastic Constant Matrix: (Units=GPa)
#
#
# Indices 1 2 3 4 5 6 
#
# 1 77.3472 53.2640 34.7109 0.0000 -5.4771 0.0000
# 2 53.2640 109.9316 39.6625 0.0000 -5.9843 0.0000
# 3 34.7109 39.6625 60.5261 0.0000 -9.7667 0.0000
# 4 0.0000 0.0000 0.0000 27.5096 0.0000 -5.5727
# 5 -5.4771 -5.9843 -9.7667 0.0000 24.0209 0.0000
# 6 0.0000 0.0000 0.0000 -5.5727 0.0000 21.1701
#
#
#
# Elastic Compliance Matrix: (Units=1/GPa)
#
#
# Indices 1 2 3 4 5 6 
#
# 1 0.021577 -0.007845 -0.007229 0.000000 0.000026 0.000000
# 2 -0.007845 0.014766 -0.005215 0.000000 -0.000230 0.000000
# 3 -0.007229 -0.005215 0.025267 0.000000 0.007326 0.000000
# 4 0.000000 0.000000 0.000000 0.038399 0.000000 0.010108
# 5 0.000026 -0.000230 0.007326 0.000000 0.044558 0.000000
# 6 0.000000 0.000000 0.000000 0.010108 0.000000 0.049897
#
#
# Mechanical properties :
#
#
# Convention : Reuss Voigt Hill
#
# Bulk Modulus (GPa) = 47.54435 55.89774 51.72104
# Shear Modulus (GPa) = 20.65673 22.55129 21.60401
#
# Velocity S-wave (km/s) = 3.51182 3.66933 3.59144
# Velocity P-wave (km/s) = 6.69549 7.16415 6.93378
#
# Compressibility (1/GPa) = 0.02103299
#
# Stress axis : x y z
#
# Youngs Moduli (GPa) = 46.34561 67.72144 39.57753
#
# Poissons Ratio (x) = 0.53126 0.28612
# Poissons Ratio (y) = 0.36357 0.20638
# Poissons Ratio (z) = 0.33504 0.35314
#
# Static dielectric constant tensor:
#      x y z
#    x 2.757670 0.000000 -0.490480 
#    y 0.000000 3.143710 0.000000 
#    z -0.490480 0.000000 2.536620 
# 
# 
# High freq. dielectric constant tensor:
#      x y z
#    x 1.656660 0.000000 -0.004140 
#    y 0.000000 1.632960 0.000000 
#    z -0.004140 0.000000 1.606560 
# 
# From -- ./inp_files/293802.got.cif
#   From: 2010.06.25/outbox.cif.g09.slc.cpg/sg12_147_cif.got.tgz:293802.got - 2010.06.28 00:19:55.
