data_PCOD8090826
_publ_section_title
;
Structure prediction by ZEFSAII (Michael W. Deem and Ramdas Pophale) SiO2 
 PCOD8090826
Probable space group: C 2/M
;
_chemical_formula_sum "Si O2"
_cell_formula_units_Z 56
_cell_length_a 23.658351
_cell_length_b 9.208326
_cell_length_c 14.886150
_cell_angle_alpha 90.000000
_cell_angle_beta 71.447142
_cell_angle_gamma 90.000000
_cell_volume 3074.467229
_symmetry_space_group_name_H-M "C 2/M"
_symmetry_group_IT_number 12
_symmetry_cell_setting 'monoclinic'
loop_
_space_group_symop_operation_xyz
x,y,z
-x,y,-z
-x,-y,-z
x,-y,z
1/2+x,1/2+y,z
1/2-x,1/2+y,-z
1/2-x,1/2-y,-z
1/2+x,1/2-y,z
loop_
_atom_site_type_symbol
_atom_site_label
_atom_site_fract_x
_atom_site_fract_y
_atom_site_fract_z
Si Si1 0.923160 0.172766 0.623124
Si Si2 0.901891 0.828216 0.248690
Si Si3 0.555204 0.328042 0.583819
Si Si4 0.994304 0.664432 0.897395
Si Si5 0.641970 0.169105 0.046472
Si Si6 0.680086 0.331265 0.197136
Si Si7 0.314044 0.168133 0.168924
O O1 0.915256 0.228432 0.524016
O O2 0.870268 0.236530 0.711666
O O3 0.986991 0.229434 0.627582
O O4 0.919429 0.000000 0.627179
O O5 0.905399 0.778021 0.351243
O O6 0.843950 0.755971 0.234694
O O7 0.962474 0.778398 0.170802
O O8 0.896693 0.000000 0.241732
O O9 0.551035 0.500000 0.582330
O O10 0.011789 0.500000 0.861035
O O11 0.927384 0.701169 0.901165
O O12 0.000000 0.683339 0.000000
O O13 0.680182 0.252042 0.101534
O O14 0.657422 0.000000 0.045753
O O15 0.660985 0.226572 0.938697
O O16 0.668573 0.500000 0.184036
O O17 0.743590 0.306306 0.211944
O O18 0.331459 0.000000 0.171311
#
# Coordination Sequence:
#
# PCOD8090826 Si02
#       7
#     8   8   8   8   8   8   8
#     4   8  14  29  51  75 101 128 159 203 258 309
#     4  11  21  32  51  79 104 130 170 218 251 285
#     4   8  15  28  49  76 105 129 154 201 265 310
#     4  10  19  34  52  70 101 140 166 193 247 314
#     4  10  20  34  52  71  99 138 169 200 255 312
#     4  10  20  33  54  77  97 128 177 222 246 287
#     4  10  21  37  50  67 102 144 174 201 251 313
#
# _framework density 18.214538000000001
#
# number of rings (size 3 to 8) (size 9 to 14) (size 15 to 20)
#    0.000    2.429    1.429    2.571    0.000    3.143 
#    0.000    0.714    0.000    1.714    0.000    7.000 
#    0.000    0.000    0.000    0.000    0.000    0.000 
#
# Total GULP energy -347163.989020 kJ/mol
# GULP energy per Si atom -12398.713894 kJ/mol
# Density = 1.817308 g / cm^3
# Si number density = 18.214538 Si / 1000 Ang^3
#
#
#
# Elastic Constant Matrix: (Units=GPa)
#
#
# Indices 1 2 3 4 5 6 
#
# 1 98.7153 37.7207 65.8400 0.0000 19.1939 0.0000
# 2 37.7207 41.9837 30.6317 0.0000 11.1656 0.0000
# 3 65.8400 30.6317 102.3091 0.0000 15.0285 0.0000
# 4 0.0000 0.0000 0.0000 5.7618 0.0000 5.0449
# 5 19.1939 11.1656 15.0285 0.0000 27.9756 0.0000
# 6 0.0000 0.0000 0.0000 5.0449 0.0000 23.9560
#
#
#
# Elastic Compliance Matrix: (Units=1/GPa)
#
#
# Indices 1 2 3 4 5 6 
#
# 1 0.022196 -0.011098 -0.010178 0.000000 -0.005331 0.000000
# 2 -0.011098 0.037716 -0.003319 0.000000 -0.005656 0.000000
# 3 -0.010178 -0.003319 0.017477 0.000000 -0.001081 0.000000
# 4 0.000000 0.000000 0.000000 0.212792 0.000000 -0.044812
# 5 -0.005331 -0.005656 -0.001081 0.000000 0.042241 0.000000
# 6 0.000000 0.000000 0.000000 -0.044812 0.000000 0.051180
#
#
# Mechanical properties :
#
#
# Convention : Reuss Voigt Hill
#
# Bulk Modulus (GPa) = 35.46401 56.82142 46.14271
# Shear Modulus (GPa) = 11.30729 18.79306 15.05017
#
# Velocity S-wave (km/s) = 2.49426 3.21559 2.87761
# Velocity P-wave (km/s) = 5.27328 6.71193 6.03563
#
# Compressibility (1/GPa) = 0.02819760
#
# Stress axis : x y z
#
# Youngs Moduli (GPa) = 45.05306 26.51376 57.21875
#
# Poissons Ratio (x) = 0.29426 0.58237
# Poissons Ratio (y) = 0.50002 0.18993
# Poissons Ratio (z) = 0.45855 0.08801
#
# Static dielectric constant tensor:
#      x y z
#    x 3.431870 0.000000 0.060860 
#    y 0.000000 3.033470 0.000000 
#    z 0.060860 0.000000 3.634500 
# 
# 
# High freq. dielectric constant tensor:
#      x y z
#    x 1.709520 0.000000 0.006180 
#    y 0.000000 1.671220 0.000000 
#    z 0.006180 0.000000 1.705750 
# 
# From -- ./inp_files/237405.got.cif
#   From: 2010.06.25/outbox.cif.g09.slc.cpg/sg12_119_cif.got.tgz:237405.got - 2010.06.28 00:19:55.
