data_PCOD8090877
_publ_section_title
;
Structure prediction by ZEFSAII (Michael W. Deem and Ramdas Pophale) SiO2 
 PCOD8090877
Probable space group: C 2/M
;
_chemical_formula_sum "Si O2"
_cell_formula_units_Z 64
_cell_length_a 30.423729
_cell_length_b 8.856567
_cell_length_c 14.074235
_cell_angle_alpha 90.000000
_cell_angle_beta 87.967954
_cell_angle_gamma 90.000000
_cell_volume 3789.914942
_symmetry_space_group_name_H-M "C 2/M"
_symmetry_group_IT_number 12
_symmetry_cell_setting 'monoclinic'
loop_
_space_group_symop_operation_xyz
x,y,z
-x,y,-z
-x,-y,-z
x,-y,z
1/2+x,1/2+y,z
1/2-x,1/2+y,-z
1/2-x,1/2-y,-z
1/2+x,1/2-y,z
loop_
_atom_site_type_symbol
_atom_site_label
_atom_site_fract_x
_atom_site_fract_y
_atom_site_fract_z
Si Si1 0.917068 0.822857 0.872537
Si Si2 0.337574 0.178387 0.778161
Si Si3 0.505121 0.830417 0.887343
Si Si4 0.301793 0.324050 0.597590
Si Si5 0.799331 0.326055 0.406714
Si Si6 0.240020 0.824455 0.100376
Si Si7 0.670685 0.827818 0.799882
Si Si8 0.407812 0.324401 0.091735
O O1 0.885867 0.731601 0.804361
O O2 0.966794 0.771629 0.844885
O O3 0.912366 0.000000 0.854229
O O4 0.904394 0.779093 0.981505
O O5 0.329675 0.230792 0.671313
O O6 0.303015 0.250670 0.852696
O O7 0.334009 0.000000 0.785292
O O8 0.552716 0.762386 0.857951
O O9 0.501988 0.000000 0.846942
O O10 0.500000 0.828481 0.000000
O O11 0.310640 0.500000 0.613520
O O12 0.250694 0.282020 0.614798
O O13 0.317462 0.276519 0.490958
O O14 0.801140 0.500000 0.438520
O O15 0.829752 0.296077 0.312823
O O16 0.280351 0.796324 0.167681
O O17 0.230259 0.000000 0.086024
O O18 0.250000 0.750000 0.000000
O O19 0.637675 0.715625 0.854169
O O20 0.656829 0.000000 0.823215
O O21 0.417630 0.500000 0.101222
#
# Coordination Sequence:
#
# PCOD8090877 Si02
#       8
#     8   8   8   8   8   8   8   8
#     4  10  20  34  51  72 102 135 169 213 254 294
#     4  12  23  34  50  73 100 135 173 208 249 302
#     4   9  17  31  51  73  98 129 166 207 252 300
#     4  10  19  34  53  73  97 127 164 212 259 301
#     4   9  18  34  52  72  96 127 165 210 258 303
#     4  11  22  36  49  68  99 137 174 209 248 294
#     4  10  20  34  50  69  99 134 168 206 250 297
#     4  10  20  32  49  74 102 133 170 208 249 296
#
# _framework density 16.886921999999998
#
# number of rings (size 3 to 8) (size 9 to 14) (size 15 to 20)
#    0.000    1.875    1.250    3.750    0.000    7.000 
#    0.000    0.000    0.000    0.000    0.000    0.875 
#    0.000    7.000    0.000    0.000    0.000    0.000 
#
# Total GULP energy -396912.279959 kJ/mol
# GULP energy per Si atom -12403.508749 kJ/mol
# Density = 1.684849 g / cm^3
# Si number density = 16.886922 Si / 1000 Ang^3
#
#
#
# Elastic Constant Matrix: (Units=GPa)
#
#
# Indices 1 2 3 4 5 6 
#
# 1 52.6577 34.6364 22.4090 0.0000 20.6366 0.0000
# 2 34.6364 96.9431 38.4695 0.0000 11.4140 0.0000
# 3 22.4090 38.4695 77.4494 0.0000 11.6976 0.0000
# 4 0.0000 0.0000 0.0000 28.0578 0.0000 0.9326
# 5 20.6366 11.4140 11.6976 0.0000 15.1246 0.0000
# 6 0.0000 0.0000 0.0000 0.9326 0.0000 31.9548
#
#
#
# Elastic Compliance Matrix: (Units=1/GPa)
#
#
# Indices 1 2 3 4 5 6 
#
# 1 0.049053 -0.010572 -0.000043 0.000000 -0.058918 0.000000
# 2 -0.010572 0.015526 -0.005732 0.000000 0.007140 0.000000
# 3 -0.000043 -0.005732 0.017107 0.000000 -0.008847 0.000000
# 4 0.000000 0.000000 0.000000 0.035675 0.000000 -0.001041
# 5 -0.058918 0.007140 -0.008847 0.000000 0.147961 0.000000
# 6 0.000000 0.000000 0.000000 -0.001041 0.000000 0.031325
#
#
# Mechanical properties :
#
#
# Convention : Reuss Voigt Hill
#
# Bulk Modulus (GPa) = 20.41104 46.45335 33.43220
# Shear Modulus (GPa) = 14.46466 23.79646 19.13056
#
# Velocity S-wave (km/s) = 2.92988 3.75796 3.36945
# Velocity P-wave (km/s) = 4.85373 6.81160 5.91424
#
# Compressibility (1/GPa) = 0.04899309
#
# Stress axis : x y z
#
# Youngs Moduli (GPa) = 20.38632 64.40717 58.45498
#
# Poissons Ratio (x) = 0.68090 0.00252
# Poissons Ratio (y) = 0.21552 0.33504
# Poissons Ratio (z) = 0.00088 0.36916
#
# Static dielectric constant tensor:
#      x y z
#    x 3.071410 0.000000 0.091450 
#    y 0.000000 3.284510 0.000000 
#    z 0.091450 0.000000 3.111180 
# 
# 
# High freq. dielectric constant tensor:
#      x y z
#    x 1.636120 0.000000 0.007790 
#    y 0.000000 1.665250 0.000000 
#    z 0.007790 0.000000 1.631140 
# 
# From -- ./inp_files/244073.got.cif
#   From: 2010.06.25/outbox.cif.g09.slc.cpg/sg12_123_cif.got.tgz:244073.got - 2010.06.28 00:19:55.
