data_PCOD8090360
_publ_section_title
;
Structure prediction by ZEFSAII (Michael W. Deem and Ramdas Pophale) SiO2 
 PCOD8090360
Probable space group: C 2/M
;
_chemical_formula_sum "Si O2"
_cell_formula_units_Z 60
_cell_length_a 13.688011
_cell_length_b 13.185894
_cell_length_c 23.502075
_cell_angle_alpha 90.000000
_cell_angle_beta 131.219098
_cell_angle_gamma 90.000000
_cell_volume 3190.705752
_symmetry_space_group_name_H-M "C 2/M"
_symmetry_group_IT_number 12
_symmetry_cell_setting 'monoclinic'
loop_
_space_group_symop_operation_xyz
x,y,z
-x,y,-z
-x,-y,-z
x,-y,z
1/2+x,1/2+y,z
1/2-x,1/2+y,-z
1/2-x,1/2-y,-z
1/2+x,1/2-y,z
loop_
_atom_site_type_symbol
_atom_site_label
_atom_site_fract_x
_atom_site_fract_y
_atom_site_fract_z
Si Si1 0.497001 0.882816 0.619908
Si Si2 0.336120 0.115855 0.134593
Si Si3 0.955456 0.236982 0.826200
Si Si4 0.228573 0.264694 0.425717
Si Si5 0.048063 0.120534 0.289040
Si Si6 0.576068 0.384060 0.973904
Si Si7 0.000000 0.716484 0.500000
Si Si8 0.681865 0.244203 0.763448
O O1 0.373490 0.858414 0.614423
O O2 0.478312 0.854101 0.546648
O O3 0.619502 0.820558 0.688956
O O4 0.528064 0.000000 0.636677
O O5 0.470628 0.164340 0.167072
O O6 0.286218 0.172119 0.171366
O O7 0.362736 0.000000 0.160916
O O8 0.229792 0.125344 0.043926
O O9 0.929051 0.155297 0.766691
O O10 0.041127 0.183808 0.907022
O O11 0.820671 0.283620 0.796066
O O12 0.250000 0.250000 0.500000
O O13 0.367423 0.285306 0.446924
O O14 0.161782 0.165665 0.372437
O O15 0.906924 0.159513 0.255142
O O16 0.053129 0.000000 0.295763
O O17 0.535435 0.500000 0.945567
O O18 0.500000 0.344203 0.000000
#
# Coordination Sequence:
#
# PCOD8090360 Si02
#       8
#     8   8   8   8   8   8   4   8
#     4  10  20  34  54  79 107 138 176 220 267 320
#     4  10  21  36  54  79 111 147 185 228 279 330
#     4  11  21  35  58  83 110 145 188 233 274 324
#     4   9  20  36  54  79 111 140 172 218 269 321
#     4  10  22  38  57  82 111 143 182 227 275 324
#     4  10  19  33  56  82 110 146 187 231 279 329
#     4  10  19  34  55  78 106 138 175 220 265 318
#     4  10  21  36  54  79 109 143 180 225 274 326
#
# _framework density 18.804617
#
# number of rings (size 3 to 8) (size 9 to 14) (size 15 to 20)
#    0.000    2.000    1.333    2.200    0.000    5.867 
#    0.000    0.333    0.000   13.200    0.000    0.000 
#    0.000    0.000    0.000    0.000    0.000    0.000 
#
# Total GULP energy -371906.595134 kJ/mol
# GULP energy per Si atom -12396.886504 kJ/mol
# Density = 1.876182 g / cm^3
# Si number density = 18.804617 Si / 1000 Ang^3
#
#
#
# Elastic Constant Matrix: (Units=GPa)
#
#
# Indices 1 2 3 4 5 6 
#
# 1 123.0659 36.8807 29.8954 0.0000 18.8966 0.0000
# 2 36.8807 58.0820 24.7868 0.0000 3.7080 0.0000
# 3 29.8954 24.7868 89.8830 0.0000 -1.1645 0.0000
# 4 0.0000 0.0000 0.0000 18.5058 0.0000 -1.2965
# 5 18.8966 3.7080 -1.1645 0.0000 32.0433 0.0000
# 6 0.0000 0.0000 0.0000 -1.2965 0.0000 14.1844
#
#
#
# Elastic Compliance Matrix: (Units=1/GPa)
#
#
# Indices 1 2 3 4 5 6 
#
# 1 0.011367 -0.005872 -0.002241 0.000000 -0.006105 0.000000
# 2 -0.005872 0.022742 -0.004310 0.000000 0.000675 0.000000
# 3 -0.002241 -0.004310 0.013089 0.000000 0.002296 0.000000
# 4 0.000000 0.000000 0.000000 0.054385 0.000000 0.004971
# 5 -0.006105 0.000675 0.002296 0.000000 0.034814 0.000000
# 6 0.000000 0.000000 0.000000 0.004971 0.000000 0.070955
#
#
# Mechanical properties :
#
#
# Convention : Reuss Voigt Hill
#
# Bulk Modulus (GPa) = 44.73564 50.46186 47.59875
# Shear Modulus (GPa) = 20.86403 24.91123 22.88763
#
# Velocity S-wave (km/s) = 3.33455 3.64365 3.49252
# Velocity P-wave (km/s) = 6.21828 6.67792 6.45220
#
# Compressibility (1/GPa) = 0.02235354
#
# Stress axis : x y z
#
# Youngs Moduli (GPa) = 87.97229 43.97214 76.40005
#
# Poissons Ratio (x) = 0.25820 0.17118
# Poissons Ratio (y) = 0.51657 0.32926
# Poissons Ratio (z) = 0.19711 0.18950
#
# Static dielectric constant tensor:
#      x y z
#    x 3.717460 0.000000 0.103100 
#    y 0.000000 3.183540 0.000000 
#    z 0.103100 0.000000 3.713650 
# 
# 
# High freq. dielectric constant tensor:
#      x y z
#    x 1.736660 0.000000 0.004540 
#    y 0.000000 1.701980 0.000000 
#    z 0.004540 0.000000 1.750880 
# 
# From -- ./inp_files/336065.got.cif
#   From: 2010.06.25/outbox.cif.g09.slc.cpg/sg12_169_cif.got.tgz:336065.got - 2010.06.28 00:19:55.
