data_PCOD8090307
_publ_section_title
;
Structure prediction by ZEFSAII (Michael W. Deem and Ramdas Pophale) SiO2 
 PCOD8090307
Probable space group: C 2/M
;
_chemical_formula_sum "Si O2"
_cell_formula_units_Z 56
_cell_length_a 13.902210
_cell_length_b 13.166473
_cell_length_c 18.908616
_cell_angle_alpha 90.000000
_cell_angle_beta 117.583460
_cell_angle_gamma 90.000000
_cell_volume 3067.694153
_symmetry_space_group_name_H-M "C 2/M"
_symmetry_group_IT_number 12
_symmetry_cell_setting 'monoclinic'
loop_
_space_group_symop_operation_xyz
x,y,z
-x,y,-z
-x,-y,-z
x,-y,z
1/2+x,1/2+y,z
1/2-x,1/2+y,-z
1/2-x,1/2-y,-z
1/2+x,1/2-y,z
loop_
_atom_site_type_symbol
_atom_site_label
_atom_site_fract_x
_atom_site_fract_y
_atom_site_fract_z
Si Si1 0.497910 0.382281 0.295018
Si Si2 0.374854 0.217357 0.743256
Si Si3 0.092022 0.384259 0.853959
Si Si4 0.782913 0.780834 0.183401
Si Si5 0.700806 0.882462 0.423176
Si Si6 0.921902 0.212917 0.537913
Si Si7 0.619716 0.116474 0.023822
O O1 0.527264 0.500000 0.299547
O O2 0.582296 0.323275 0.273618
O O3 0.374544 0.365354 0.228242
O O4 0.508598 0.343133 0.378513
O O5 0.469304 0.156206 0.815127
O O6 0.282453 0.242987 0.768015
O O7 0.324502 0.146880 0.665761
O O8 0.090971 0.500000 0.828433
O O9 0.161765 0.324404 0.820107
O O10 0.144431 0.372916 0.949165
O O11 0.707462 0.817756 0.094427
O O12 0.826686 0.862078 0.481247
O O13 0.625611 0.819564 0.451191
O O14 0.674704 0.000000 0.426662
O O15 0.000000 0.239096 0.500000
O O16 0.627811 0.000000 0.052145
O O17 0.500000 0.158961 0.000000
#
# Coordination Sequence:
#
# PCOD8090307 Si02
#       7
#     8   8   8   8   8   8   8
#     4  10  22  37  54  79 109 139 175 219 265 314
#     4  10  21  36  54  79 108 139 178 220 260 311
#     4  10  21  36  54  79 109 139 176 220 264 312
#     4  11  21  35  57  80 105 140 179 218 262 314
#     4  10  21  36  56  80 108 142 178 217 261 313
#     4  10  21  37  55  80 110 139 176 219 264 312
#     4  10  19  33  56  81 105 137 176 219 265 310
#
# _framework density 18.254753999999998
#
# number of rings (size 3 to 8) (size 9 to 14) (size 15 to 20)
#    0.000    1.857    1.429    2.571    0.000    4.857 
#    0.000    0.000    0.000   10.714    0.000    0.000 
#    0.000    0.000    0.000    0.000    0.000    0.000 
#
# Total GULP energy -347340.385868 kJ/mol
# GULP energy per Si atom -12405.013781 kJ/mol
# Density = 1.821321 g / cm^3
# Si number density = 18.254754 Si / 1000 Ang^3
#
#
#
# Elastic Constant Matrix: (Units=GPa)
#
#
# Indices 1 2 3 4 5 6 
#
# 1 99.3945 53.6509 28.9564 0.0000 -10.6779 0.0000
# 2 53.6509 124.8547 38.0829 0.0000 -4.5285 0.0000
# 3 28.9564 38.0829 78.7982 0.0000 1.7015 0.0000
# 4 0.0000 0.0000 0.0000 17.7998 0.0000 0.6599
# 5 -10.6779 -4.5285 1.7015 0.0000 33.4646 0.0000
# 6 0.0000 0.0000 0.0000 0.6599 0.0000 12.7482
#
#
#
# Elastic Compliance Matrix: (Units=1/GPa)
#
#
# Indices 1 2 3 4 5 6 
#
# 1 0.014012 -0.005022 -0.002807 0.000000 0.003934 0.000000
# 2 -0.005022 0.011270 -0.003604 0.000000 0.000106 0.000000
# 3 -0.002807 -0.003604 0.015511 0.000000 -0.002172 0.000000
# 4 0.000000 0.000000 0.000000 0.056288 0.000000 -0.002914
# 5 0.003934 0.000106 -0.002172 0.000000 0.031262 0.000000
# 6 0.000000 0.000000 0.000000 -0.002914 0.000000 0.078593
#
#
# Mechanical properties :
#
#
# Convention : Reuss Voigt Hill
#
# Bulk Modulus (GPa) = 55.77977 60.49199 58.13588
# Shear Modulus (GPa) = 21.20633 24.95967 23.08300
#
# Velocity S-wave (km/s) = 3.41205 3.70171 3.55983
# Velocity P-wave (km/s) = 6.79304 7.17494 6.98660
#
# Compressibility (1/GPa) = 0.01792765
#
# Stress axis : x y z
#
# Youngs Moduli (GPa) = 71.36642 88.72753 64.47192
#
# Poissons Ratio (x) = 0.44562 0.18096
# Poissons Ratio (y) = 0.35842 0.23234
# Poissons Ratio (z) = 0.20031 0.31975
#
# Static dielectric constant tensor:
#      x y z
#    x 3.299550 0.000000 0.100290 
#    y 0.000000 3.232460 0.000000 
#    z 0.100290 0.000000 3.527670 
# 
# 
# High freq. dielectric constant tensor:
#      x y z
#    x 1.706800 0.000000 0.004790 
#    y 0.000000 1.701050 0.000000 
#    z 0.004790 0.000000 1.726620 
# 
# From -- ./inp_files/262837.got.cif
#   From: 2010.06.25/outbox.cif.g09.slc.cpg/sg12_132_cif.got.tgz:262837.got - 2010.06.28 00:19:55.
