data_PCOD8090035
_publ_section_title
;
Structure prediction by ZEFSAII (Michael W. Deem and Ramdas Pophale) SiO2 
 PCOD8090035
Probable space group: C 2/M
;
_chemical_formula_sum "Si O2"
_cell_formula_units_Z 48
_cell_length_a 15.884619
_cell_length_b 9.509106
_cell_length_c 16.686907
_cell_angle_alpha 90.000000
_cell_angle_beta 88.747999
_cell_angle_gamma 90.000000
_cell_volume 2519.930963
_symmetry_space_group_name_H-M "C 2/M"
_symmetry_group_IT_number 12
_symmetry_cell_setting 'monoclinic'
loop_
_space_group_symop_operation_xyz
x,y,z
-x,y,-z
-x,-y,-z
x,-y,z
1/2+x,1/2+y,z
1/2-x,1/2+y,-z
1/2-x,1/2-y,-z
1/2+x,1/2-y,z
loop_
_atom_site_type_symbol
_atom_site_label
_atom_site_fract_x
_atom_site_fract_y
_atom_site_fract_z
Si Si1 0.989843 0.835579 0.407683
Si Si2 0.156282 0.835609 0.308853
Si Si3 0.914137 0.337060 0.163447
Si Si4 0.833013 0.662892 0.005078
Si Si5 0.158268 0.661805 0.668154
Si Si6 0.597985 0.162490 0.170003
O O1 0.075911 0.785195 0.362546
O O2 0.000000 0.798327 0.500000
O O3 0.906466 0.757336 0.379038
O O4 0.974873 0.000000 0.393838
O O5 0.243840 0.803991 0.354937
O O6 0.159717 0.752494 0.224793
O O7 0.151186 0.000000 0.289057
O O8 0.929931 0.500000 0.146118
O O9 0.881920 0.271882 0.080622
O O10 0.849264 0.308815 0.236515
O O11 0.004547 0.275458 0.187529
O O12 0.810400 0.500000 0.019578
O O13 0.750000 0.750000 0.000000
O O14 0.886373 0.684999 0.924082
O O15 0.136104 0.500000 0.648988
O O16 0.608706 0.000000 0.194587
#
# Coordination Sequence:
#
# PCOD8090035 Si02
#       6
#     8   8   8   8   8   8
#     4  10  22  40  59  82 115 148 178 223 284 340
#     4  10  21  37  58  84 114 147 183 229 282 329
#     4   9  17  32  53  76 105 141 182 226 271 318
#     4  10  20  33  50  75 108 145 186 230 272 319
#     4  10  20  36  59  84 110 145 188 228 271 329
#     4  10  19  33  55  80 106 144 192 231 269 325
#
# _framework density 19.048141000000001
#
# number of rings (size 3 to 8) (size 9 to 14) (size 15 to 20)
#    0.000    2.167    1.667    1.500    0.000    5.667 
#    0.000    1.667    0.000    2.000    0.000    0.000 
#    0.000    0.000    0.000    0.000    0.000    0.000 
#
# Total GULP energy -297541.040624 kJ/mol
# GULP energy per Si atom -12397.543359 kJ/mol
# Density = 1.900479 g / cm^3
# Si number density = 19.048141 Si / 1000 Ang^3
#
#
#
# Elastic Constant Matrix: (Units=GPa)
#
#
# Indices 1 2 3 4 5 6 
#
# 1 136.0338 46.5823 49.0779 0.0000 17.0447 0.0000
# 2 46.5823 49.9215 43.1717 0.0000 11.1384 0.0000
# 3 49.0779 43.1717 104.3363 0.0000 16.9798 0.0000
# 4 0.0000 0.0000 0.0000 27.4960 0.0000 6.2872
# 5 17.0447 11.1384 16.9798 0.0000 26.0898 0.0000
# 6 0.0000 0.0000 0.0000 6.2872 0.0000 32.5452
#
#
#
# Elastic Compliance Matrix: (Units=1/GPa)
#
#
# Indices 1 2 3 4 5 6 
#
# 1 0.011112 -0.008752 -0.001154 0.000000 -0.002772 0.000000
# 2 -0.008752 0.038808 -0.011381 0.000000 -0.003444 0.000000
# 3 -0.001154 -0.011381 0.015572 0.000000 -0.004522 0.000000
# 4 0.000000 0.000000 0.000000 0.038050 0.000000 -0.007351
# 5 -0.002772 -0.003444 -0.004522 0.000000 0.044553 0.000000
# 6 0.000000 0.000000 0.000000 -0.007351 0.000000 0.032147
#
#
# Mechanical properties :
#
#
# Convention : Reuss Voigt Hill
#
# Bulk Modulus (GPa) = 43.63295 63.10616 53.36956
# Shear Modulus (GPa) = 21.69622 27.32352 24.50987
#
# Velocity S-wave (km/s) = 3.37860 3.79152 3.59100
# Velocity P-wave (km/s) = 6.17870 7.23666 6.72850
#
# Compressibility (1/GPa) = 0.02291846
#
# Stress axis : x y z
#
# Youngs Moduli (GPa) = 89.99451 25.76781 64.21629
#
# Poissons Ratio (x) = 0.22551 0.07414
# Poissons Ratio (y) = 0.78761 0.73083
# Poissons Ratio (z) = 0.10390 0.29326
#
# Static dielectric constant tensor:
#      x y z
#    x 4.569920 0.000000 -1.224900 
#    y 0.000000 3.235050 0.000000 
#    z -1.224900 0.000000 5.117900 
# 
# 
# High freq. dielectric constant tensor:
#      x y z
#    x 1.754340 0.000000 -0.000030 
#    y 0.000000 1.713690 0.000000 
#    z -0.000030 0.000000 1.740080 
# 
# From -- ./inp_files/212641.got.cif
#   From: 2010.06.25/outbox.cif.g09.slc.cpg/sg12_107_cif.got.tgz:212641.got - 2010.06.28 00:19:55.
