data_PCOD8090348
_publ_section_title
;
Structure prediction by ZEFSAII (Michael W. Deem and Ramdas Pophale) SiO2 
 PCOD8090348
Probable space group: C 2/M
;
_chemical_formula_sum "Si O2"
_cell_formula_units_Z 44
_cell_length_a 5.224705
_cell_length_b 25.920759
_cell_length_c 16.216758
_cell_angle_alpha 90.000000
_cell_angle_beta 64.130777
_cell_angle_gamma 90.000000
_cell_volume 1976.131257
_symmetry_space_group_name_H-M "C 2/M"
_symmetry_group_IT_number 12
_symmetry_cell_setting 'monoclinic'
loop_
_space_group_symop_operation_xyz
x,y,z
-x,y,-z
-x,-y,-z
x,-y,z
1/2+x,1/2+y,z
1/2-x,1/2+y,-z
1/2-x,1/2-y,-z
1/2+x,1/2-y,z
loop_
_atom_site_type_symbol
_atom_site_label
_atom_site_fract_x
_atom_site_fract_y
_atom_site_fract_z
Si Si1 0.967181 0.443038 0.147511
Si Si2 0.500000 0.786176 0.500000
Si Si3 0.678282 0.558218 0.364463
Si Si4 0.403227 0.728534 0.898048
Si Si5 0.535850 0.615647 0.851870
Si Si6 0.324991 0.120408 0.634654
O O1 0.055759 0.500000 0.105741
O O2 0.834984 0.445357 0.256103
O O3 0.733904 0.421961 0.116875
O O4 0.246627 0.407638 0.112000
O O5 0.250000 0.750000 0.500000
O O6 0.619834 0.822864 0.410237
O O7 0.622707 0.500000 0.405171
O O8 0.380386 0.588216 0.397254
O O9 0.878378 0.589195 0.400169
O O10 0.716319 0.754313 0.845123
O O11 0.419653 0.667918 0.905816
O O12 0.250000 0.750000 0.000000
O O13 0.680892 0.627249 0.743807
#
# Coordination Sequence:
#
# PCOD8090348 Si02
#       6
#     8   4   8   8   8   8
#     4   9  17  30  52  84 115 142 174 214 263 320
#     4  12  26  42  55  70 103 150 190 234 274 308
#     4   9  17  33  56  81 111 139 170 222 276 324
#     4  10  21  36  54  80 107 137 174 220 275 319
#     4  10  19  33  56  82 109 140 178 224 266 318
#     4  10  21  36  54  79 107 141 185 221 265 327
#
# _framework density 22.265726999999998
#
# number of rings (size 3 to 8) (size 9 to 14) (size 15 to 20)
#    0.000    2.182    0.000    3.273    0.000    5.818 
#    0.000    2.727    0.000    0.000    0.000   50.909 
#    0.000    0.000    0.000    0.000    0.000    0.000 
#
# Total GULP energy -272751.540156 kJ/mol
# GULP energy per Si atom -12397.797280 kJ/mol
# Density = 2.221505 g / cm^3
# Si number density = 22.265727 Si / 1000 Ang^3
#
#
#
# Elastic Constant Matrix: (Units=GPa)
#
#
# Indices 1 2 3 4 5 6 
#
# 1 212.7685 78.8210 8.2731 0.0000 10.9173 0.0000
# 2 78.8210 185.8053 21.1049 0.0000 1.3807 0.0000
# 3 8.2731 21.1049 20.0796 0.0000 -1.3067 0.0000
# 4 0.0000 0.0000 0.0000 -17.0547 0.0000 -0.1623
# 5 10.9173 1.3807 -1.3067 0.0000 4.5397 0.0000
# 6 0.0000 0.0000 0.0000 -0.1623 0.0000 51.2655
#
#
#
# Elastic Compliance Matrix: (Units=1/GPa)
#
#
# Indices 1 2 3 4 5 6 
#
# 1 0.006437 -0.002506 -0.000994 0.000000 -0.015004 0.000000
# 2 -0.002506 0.007152 -0.006353 0.000000 0.002023 0.000000
# 3 -0.000994 -0.006353 0.058261 0.000000 0.021093 0.000000
# 4 0.000000 0.000000 0.000000 -0.058633 0.000000 -0.000186
# 5 -0.015004 0.002023 0.021093 0.000000 0.261817 0.000000
# 6 0.000000 0.000000 0.000000 -0.000186 0.000000 0.019506
#
#
# Mechanical properties :
#
#
# Convention : Reuss Voigt Hill
#
# Bulk Modulus (GPa) = 19.17788 70.56129 44.86958
# Shear Modulus (GPa) = 15.07719 28.44707 21.76213
#
# Velocity S-wave (km/s) = 2.60503 3.57825 3.12970
# Velocity P-wave (km/s) = 4.20477 6.98793 5.76677
#
# Compressibility (1/GPa) = 0.05214341
#
# Stress axis : x y z
#
# Youngs Moduli (GPa) = 155.35459 139.82768 17.16413
#
# Poissons Ratio (x) = 0.35043 0.01707
# Poissons Ratio (y) = 0.38935 0.10904
# Poissons Ratio (z) = 0.15447 0.88827
#
# Static dielectric constant tensor:
#      x y z
#    x 4.294060 0.000000 0.172490 
#    y 0.000000 4.113550 0.000000 
#    z 0.172490 0.000000 3.610230 
# 
# 
# High freq. dielectric constant tensor:
#      x y z
#    x 1.902630 0.000000 0.001850 
#    y 0.000000 1.886310 0.000000 
#    z 0.001850 0.000000 1.845160 
# 
# From -- ./inp_files/252888.got.cif
#   From: 2010.06.25/outbox.cif.g09.slc.cpg/sg12_127_cif.got.tgz:252888.got - 2010.06.28 00:19:55.
