data_PCOD8090519
_publ_section_title
;
Structure prediction by ZEFSAII (Michael W. Deem and Ramdas Pophale) SiO2 
 PCOD8090519
Probable space group: C 2/M
;
_chemical_formula_sum "Si O2"
_cell_formula_units_Z 48
_cell_length_a 10.094066
_cell_length_b 15.743235
_cell_length_c 27.595863
_cell_angle_alpha 90.000000
_cell_angle_beta 35.483408
_cell_angle_gamma 90.000000
_cell_volume 2545.550779
_symmetry_space_group_name_H-M "C 2/M"
_symmetry_group_IT_number 12
_symmetry_cell_setting 'monoclinic'
loop_
_space_group_symop_operation_xyz
x,y,z
-x,y,-z
-x,-y,-z
x,-y,z
1/2+x,1/2+y,z
1/2-x,1/2+y,-z
1/2-x,1/2-y,-z
1/2+x,1/2-y,z
loop_
_atom_site_type_symbol
_atom_site_label
_atom_site_fract_x
_atom_site_fract_y
_atom_site_fract_z
Si Si1 0.874494 0.904607 0.344613
Si Si2 0.655330 0.093639 0.000752
Si Si3 0.972785 0.821803 0.168661
Si Si4 0.732627 0.824776 0.827613
Si Si5 0.747990 0.754652 0.557509
Si Si6 0.587509 0.095118 0.337685
O O1 0.851789 0.834452 0.393143
O O2 0.662611 0.891956 0.371128
O O3 0.111716 0.895210 0.244812
O O4 0.868762 0.000000 0.368614
O O5 0.882721 0.145866 0.920445
O O6 0.728261 0.000000 0.996399
O O7 0.500000 0.086564 0.000000
O O8 0.514515 0.137194 0.085758
O O9 0.807439 0.748111 0.199616
O O10 0.809917 0.896037 0.237242
O O11 0.139217 0.789664 0.162407
O O12 0.750000 0.750000 0.500000
O O13 0.597944 0.834028 0.620818
O O14 0.000000 0.773037 0.500000
O O15 0.488587 0.000000 0.359456
#
# Coordination Sequence:
#
# PCOD8090519 Si02
#       6
#     8   8   8   8   8   8
#     4  10  21  39  63  87 114 155 195 232 283 348
#     4   9  17  30  51  83 113 145 193 234 265 322
#     4  10  19  33  57  82 114 151 188 230 280 329
#     4  10  19  33  57  83 114 149 188 233 277 330
#     4  12  24  40  63  86 116 147 187 246 297 343
#     4  10  21  39  62  87 116 153 194 235 285 345
#
# _framework density 18.856431000000001
#
# number of rings (size 3 to 8) (size 9 to 14) (size 15 to 20)
#    0.000    1.833    3.333    1.500    0.000    5.333 
#    0.000    0.000    0.000    4.000    0.000    0.000 
#    0.000    0.000    0.000    0.000    0.000    0.000 
#
# Total GULP energy -297578.622774 kJ/mol
# GULP energy per Si atom -12399.109282 kJ/mol
# Density = 1.881351 g / cm^3
# Si number density = 18.856431 Si / 1000 Ang^3
#
#
#
# Elastic Constant Matrix: (Units=GPa)
#
#
# Indices 1 2 3 4 5 6 
#
# 1 70.9766 47.6637 36.7061 0.0021 -0.9971 0.0002
# 2 47.6637 148.7555 51.0745 -0.0083 -1.4074 0.0039
# 3 36.7061 51.0745 111.4863 -0.0230 -2.7422 0.0128
# 4 0.0021 -0.0083 -0.0230 24.9757 0.0038 0.2656
# 5 -0.9971 -1.4074 -2.7422 0.0038 26.0339 -0.0021
# 6 0.0002 0.0039 0.0128 0.2656 -0.0021 26.4652
#
#
#
# Elastic Compliance Matrix: (Units=1/GPa)
#
#
# Indices 1 2 3 4 5 6 
#
# 1 0.019493 -0.004797 -0.004219 -0.000007 0.000043 0.000003
# 2 -0.004797 0.009158 -0.002615 0.000001 0.000036 0.000000
# 3 -0.004219 -0.002615 0.011580 0.000010 0.000917 -0.000005
# 4 -0.000007 0.000001 0.000010 0.040043 -0.000005 -0.000402
# 5 0.000043 0.000036 0.000917 -0.000005 0.038512 0.000003
# 6 0.000003 0.000000 -0.000005 -0.000402 0.000003 0.037789
#
#
# Mechanical properties :
#
#
# Convention : Reuss Voigt Hill
#
# Bulk Modulus (GPa) = 58.93577 66.90076 62.91827
# Shear Modulus (GPa) = 26.95517 28.54656 27.75086
#
# Velocity S-wave (km/s) = 3.78497 3.89509 3.84043
# Velocity P-wave (km/s) = 7.10100 7.46894 7.28729
#
# Compressibility (1/GPa) = 0.01696762
#
# Stress axis : x y z
#
# Youngs Moduli (GPa) = 51.30023 109.19833 86.35937
#
# Poissons Ratio (x) = 0.52380 0.36438
# Poissons Ratio (y) = 0.24608 0.22584
# Poissons Ratio (z) = 0.21646 0.28557
#
# Static dielectric constant tensor:
#      x y z
#    x 3.119130 0.000000 -0.039320 
#    y 0.000000 3.447530 0.000010 
#    z -0.039320 0.000010 3.611660 
# 
# 
# High freq. dielectric constant tensor:
#      x y z
#    x 1.698440 0.000000 -0.002010 
#    y 0.000000 1.731750 0.000000 
#    z -0.002010 0.000000 1.750770 
# 
# From -- ./inp_files/204367.got.cif
#   From: 2010.06.25/outbox.cif.g09.slc.cpg/sg12_103_cif.got.tgz:204367.got - 2010.06.28 00:19:55.
