data_PCOD8090427
_publ_section_title
;
Structure prediction by ZEFSAII (Michael W. Deem and Ramdas Pophale) SiO2 
 PCOD8090427
Probable space group: C 2/M
;
_chemical_formula_sum "Si O2"
_cell_formula_units_Z 56
_cell_length_a 15.310311
_cell_length_b 24.079435
_cell_length_c 9.706887
_cell_angle_alpha 90.000000
_cell_angle_beta 121.810321
_cell_angle_gamma 90.000000
_cell_volume 3041.066092
_symmetry_space_group_name_H-M "C 2/M"
_symmetry_group_IT_number 12
_symmetry_cell_setting 'monoclinic'
loop_
_space_group_symop_operation_xyz
x,y,z
-x,y,-z
-x,-y,-z
x,-y,z
1/2+x,1/2+y,z
1/2-x,1/2+y,-z
1/2-x,1/2-y,-z
1/2+x,1/2-y,z
loop_
_atom_site_type_symbol
_atom_site_label
_atom_site_fract_x
_atom_site_fract_y
_atom_site_fract_z
Si Si1 0.788471 0.728239 0.674821
Si Si2 0.748266 0.562202 0.595234
Si Si3 0.898069 0.842237 0.501732
Si Si4 0.562975 0.129374 0.189104
Si Si5 0.768135 0.937820 0.733964
Si Si6 0.899729 0.831657 0.826281
Si Si7 0.555415 0.937050 0.688128
O O1 0.750000 0.750000 0.500000
O O2 0.688801 0.695166 0.648001
O O3 0.885356 0.687831 0.727411
O O4 0.821696 0.780632 0.797588
O O5 0.726807 0.500000 0.624852
O O6 0.643462 0.594895 0.539589
O O7 0.846571 0.584607 0.760137
O O8 0.777439 0.568010 0.458039
O O9 0.922006 0.827241 0.681065
O O10 0.000000 0.835773 0.500000
O O11 0.482754 0.108637 0.236353
O O12 0.500000 0.138562 0.000000
O O13 0.853474 0.891061 0.831763
O O14 0.677266 0.929340 0.768014
O O15 0.816151 0.000000 0.791081
O O16 0.000000 0.822326 0.000000
O O17 0.500000 0.924931 0.500000
O O18 0.531020 0.000000 0.718944
#
# Coordination Sequence:
#
# PCOD8090427 Si02
#       7
#     8   8   8   8   8   8   8
#     4   9  20  39  58  76 106 148 188 221 271 342
#     4   9  17  32  55  77 106 150 187 217 267 331
#     4   9  19  37  56  76 106 139 181 228 264 322
#     4  11  21  34  54  82 117 147 179 230 290 327
#     4   9  18  35  57  82 108 142 188 230 266 326
#     4  10  20  38  58  78 108 139 179 226 281 324
#     4  10  19  33  56  84 113 144 190 230 263 331
#
# _framework density 18.414594999999998
#
# number of rings (size 3 to 8) (size 9 to 14) (size 15 to 20)
#    0.000    2.429    1.429    1.714    0.000    1.714 
#   10.286    0.714    0.000    0.000    0.000    0.000 
#    0.000    0.000    0.000    0.000    0.000    0.000 
#
# Total GULP energy -347034.480160 kJ/mol
# GULP energy per Si atom -12394.088577 kJ/mol
# Density = 1.837268 g / cm^3
# Si number density = 18.414595 Si / 1000 Ang^3
#
#
#
# Elastic Constant Matrix: (Units=GPa)
#
#
# Indices 1 2 3 4 5 6 
#
# 1 112.7445 60.7734 41.1295 0.0000 5.3318 0.0000
# 2 60.7734 149.8389 54.2230 0.0000 15.2342 0.0000
# 3 41.1295 54.2230 98.7176 0.0000 23.4033 0.0000
# 4 0.0000 0.0000 0.0000 13.7635 0.0000 9.2800
# 5 5.3318 15.2342 23.4033 0.0000 22.8603 0.0000
# 6 0.0000 0.0000 0.0000 9.2800 0.0000 22.5809
#
#
#
# Elastic Compliance Matrix: (Units=1/GPa)
#
#
# Indices 1 2 3 4 5 6 
#
# 1 0.012208 -0.003955 -0.003782 0.000000 0.003660 0.000000
# 2 -0.003955 0.009634 -0.003090 0.000000 -0.002334 0.000000
# 3 -0.003782 -0.003090 0.016778 0.000000 -0.014235 0.000000
# 4 0.000000 0.000000 0.000000 0.100506 0.000000 -0.041305
# 5 0.003660 -0.002334 -0.014235 0.000000 0.059018 0.000000
# 6 0.000000 0.000000 0.000000 -0.041305 0.000000 0.061260
#
#
# Mechanical properties :
#
#
# Convention : Reuss Voigt Hill
#
# Bulk Modulus (GPa) = 58.94446 74.83920 66.89183
# Shear Modulus (GPa) = 17.43908 25.51925 21.47917
#
# Velocity S-wave (km/s) = 3.08072 3.72669 3.41900
# Velocity P-wave (km/s) = 6.68831 7.69722 7.21043
#
# Compressibility (1/GPa) = 0.01696512
#
# Stress axis : x y z
#
# Youngs Moduli (GPa) = 81.91350 103.80340 59.60347
#
# Poissons Ratio (x) = 0.41055 0.22539
# Poissons Ratio (y) = 0.32398 0.18420
# Poissons Ratio (z) = 0.30976 0.32079
#
# Static dielectric constant tensor:
#      x y z
#    x 3.225620 0.000000 0.215910 
#    y 0.000000 3.888410 0.000000 
#    z 0.215910 0.000000 3.241200 
# 
# 
# High freq. dielectric constant tensor:
#      x y z
#    x 1.694500 0.000000 0.020710 
#    y 0.000000 1.730270 0.000000 
#    z 0.020710 0.000000 1.692690 
# 
# From -- ./inp_files/65968.got.cif
#   From: 2010.06.25/outbox.cif.g09.slc.cpg/sg12_33_cif.got.tgz:65968.got - 2010.06.28 00:19:55.
