data_PCOD8090076
_publ_section_title
;
Structure prediction by ZEFSAII (Michael W. Deem and Ramdas Pophale) SiO2 
 PCOD8090076
Probable space group: C 2/M
;
_chemical_formula_sum "Si O2"
_cell_formula_units_Z 56
_cell_length_a 18.913565
_cell_length_b 8.682126
_cell_length_c 20.714987
_cell_angle_alpha 90.000000
_cell_angle_beta 113.893436
_cell_angle_gamma 90.000000
_cell_volume 3110.090582
_symmetry_space_group_name_H-M "C 2/M"
_symmetry_group_IT_number 12
_symmetry_cell_setting 'monoclinic'
loop_
_space_group_symop_operation_xyz
x,y,z
-x,y,-z
-x,-y,-z
x,-y,z
1/2+x,1/2+y,z
1/2-x,1/2+y,-z
1/2-x,1/2-y,-z
1/2+x,1/2-y,z
loop_
_atom_site_type_symbol
_atom_site_label
_atom_site_fract_x
_atom_site_fract_y
_atom_site_fract_z
Si Si1 0.693725 0.326804 0.428674
Si Si2 0.108853 0.177920 0.060602
Si Si3 0.562323 0.820590 0.312410
Si Si4 0.311925 0.325748 0.714720
Si Si5 0.524655 0.180397 0.913565
Si Si6 0.923601 0.820768 0.199913
Si Si7 0.768018 0.678504 0.186661
O O1 0.677184 0.500000 0.445537
O O2 0.750000 0.250000 0.500000
O O3 0.611143 0.237476 0.393107
O O4 0.732684 0.324050 0.371253
O O5 0.197582 0.205218 0.111675
O O6 0.054707 0.229717 0.100185
O O7 0.092433 0.000000 0.039345
O O8 0.089967 0.276959 0.990318
O O9 0.611217 0.780250 0.264950
O O10 0.481082 0.730980 0.278783
O O11 0.546102 0.000000 0.311812
O O12 0.339080 0.500000 0.742009
O O13 0.256609 0.264885 0.750710
O O14 0.556740 0.223017 0.855798
O O15 0.508046 0.000000 0.910420
O O16 0.836883 0.786484 0.189691
O O17 0.932699 0.000000 0.188460
O O18 0.793920 0.500000 0.197166
#
# Coordination Sequence:
#
# PCOD8090076 Si02
#       7
#     8   8   8   8   8   8   8
#     4   9  17  31  54  85 114 142 176 219 265 309
#     4  10  20  36  59  82 107 138 176 225 278 324
#     4  10  19  33  55  81 108 140 178 219 263 317
#     4   8  17  33  54  79 109 141 175 217 263 316
#     4  11  22  37  57  79 106 140 182 226 269 322
#     4  12  24  37  53  76 108 143 181 225 272 320
#     4  10  21  37  55  77 106 142 180 220 269 324
#
# _framework density 18.005906
#
# number of rings (size 3 to 8) (size 9 to 14) (size 15 to 20)
#    0.857    1.143    0.000    6.000    0.000    3.429 
#    0.000    0.000    0.000    0.857    0.000    6.000 
#    0.000    0.000    0.000    0.000    0.000    0.000 
#
# Total GULP energy -347079.328394 kJ/mol
# GULP energy per Si atom -12395.690300 kJ/mol
# Density = 1.796492 g / cm^3
# Si number density = 18.005906 Si / 1000 Ang^3
#
#
#
# Elastic Constant Matrix: (Units=GPa)
#
#
# Indices 1 2 3 4 5 6 
#
# 1 74.6575 26.6573 30.6729 0.0000 19.7242 0.0000
# 2 26.6573 96.7118 25.6417 0.0000 10.8682 0.0000
# 3 30.6729 25.6417 70.4568 0.0000 21.5037 0.0000
# 4 0.0000 0.0000 0.0000 27.5333 0.0000 2.7604
# 5 19.7242 10.8682 21.5037 0.0000 19.7675 0.0000
# 6 0.0000 0.0000 0.0000 2.7604 0.0000 29.7633
#
#
#
# Elastic Compliance Matrix: (Units=1/GPa)
#
#
# Indices 1 2 3 4 5 6 
#
# 1 0.019535 -0.002954 -0.002958 0.000000 -0.014650 0.000000
# 2 -0.002954 0.011983 -0.002940 0.000000 -0.000443 0.000000
# 3 -0.002958 -0.002940 0.022690 0.000000 -0.020115 0.000000
# 4 0.000000 0.000000 0.000000 0.036661 0.000000 -0.003400
# 5 -0.014650 -0.000443 -0.020115 0.000000 0.087331 0.000000
# 6 0.000000 0.000000 0.000000 -0.003400 0.000000 0.033914
#
#
# Mechanical properties :
#
#
# Convention : Reuss Voigt Hill
#
# Bulk Modulus (GPa) = 27.39405 45.30777 36.35091
# Shear Modulus (GPa) = 20.66233 26.00310 23.33271
#
# Velocity S-wave (km/s) = 3.39120 3.80431 3.60368
# Velocity P-wave (km/s) = 5.52997 6.67191 6.12760
#
# Compressibility (1/GPa) = 0.03650428
#
# Stress axis : x y z
#
# Youngs Moduli (GPa) = 51.18988 83.44814 44.07231
#
# Poissons Ratio (x) = 0.24650 0.13037
# Poissons Ratio (y) = 0.15121 0.12958
# Poissons Ratio (z) = 0.15143 0.24535
#
# Static dielectric constant tensor:
#      x y z
#    x 3.090810 0.000000 0.045450 
#    y 0.000000 3.324010 0.000000 
#    z 0.045450 0.000000 3.304520 
# 
# 
# High freq. dielectric constant tensor:
#      x y z
#    x 1.668530 0.000000 0.009110 
#    y 0.000000 1.707570 0.000000 
#    z 0.009110 0.000000 1.694130 
# 
# From -- ./inp_files/342027.got.cif
#   From: 2010.06.25/outbox.cif.g09.slc.cpg/sg12_172_cif.got.tgz:342027.got - 2010.06.28 00:19:55.
