data_PCOD8090148
_publ_section_title
;
Structure prediction by ZEFSAII (Michael W. Deem and Ramdas Pophale) SiO2 
 PCOD8090148
Probable space group: C 2/M
;
_chemical_formula_sum "Si O2"
_cell_formula_units_Z 56
_cell_length_a 24.772369
_cell_length_b 8.509361
_cell_length_c 16.697338
_cell_angle_alpha 90.000000
_cell_angle_beta 120.547422
_cell_angle_gamma 90.000000
_cell_volume 3031.239014
_symmetry_space_group_name_H-M "C 2/M"
_symmetry_group_IT_number 12
_symmetry_cell_setting 'monoclinic'
loop_
_space_group_symop_operation_xyz
x,y,z
-x,y,-z
-x,-y,-z
x,-y,z
1/2+x,1/2+y,z
1/2-x,1/2+y,-z
1/2-x,1/2-y,-z
1/2+x,1/2-y,z
loop_
_atom_site_type_symbol
_atom_site_label
_atom_site_fract_x
_atom_site_fract_y
_atom_site_fract_z
Si Si1 0.583840 0.819077 0.909521
Si Si2 0.743398 0.181657 0.780357
Si Si3 0.336766 0.318222 0.604340
Si Si4 0.696435 0.316720 0.902767
Si Si5 0.952471 0.179955 0.794225
Si Si6 0.721286 0.319139 0.602422
Si Si7 0.879567 0.318091 0.884836
O O1 0.628662 0.711597 0.889791
O O2 0.512405 0.790611 0.830035
O O3 0.601890 0.000000 0.909059
O O4 0.591455 0.772469 0.007809
O O5 0.698414 0.229875 0.819066
O O6 0.706786 0.215289 0.669814
O O7 0.805891 0.285335 0.830239
O O8 0.761625 0.000000 0.800629
O O9 0.317947 0.500000 0.604446
O O10 0.408034 0.286080 0.684224
O O11 0.328482 0.273774 0.504564
O O12 0.291652 0.212109 0.624531
O O13 0.708042 0.500000 0.898795
O O14 0.750000 0.250000 0.000000
O O15 0.914245 0.212283 0.846151
O O16 0.974682 0.000000 0.812381
O O17 0.715381 0.500000 0.622342
O O18 0.891387 0.500000 0.873523
#
# Coordination Sequence:
#
# PCOD8090148 Si02
#       7
#     8   8   8   8   8   8   8
#     4  11  24  40  57  80 114 153 195 234 276 333
#     4  12  23  36  57  84 116 149 187 233 283 335
#     4   9  19  34  53  81 115 149 186 230 281 340
#     4  12  24  40  61  84 111 147 190 235 282 330
#     4  11  22  36  56  83 117 153 191 232 282 338
#     4  10  19  33  55  82 113 148 187 231 284 336
#     4  11  22  36  55  81 114 152 191 231 278 334
#
# _framework density 18.474292999999999
#
# number of rings (size 3 to 8) (size 9 to 14) (size 15 to 20)
#    0.000    1.143    2.857    4.714    0.000    4.571 
#    0.000    0.000    0.000    0.857    0.000    6.000 
#    0.000    0.000    0.000    0.000    0.000    0.000 
#
# Total GULP energy -347364.751374 kJ/mol
# GULP energy per Si atom -12405.883978 kJ/mol
# Density = 1.843224 g / cm^3
# Si number density = 18.474293 Si / 1000 Ang^3
#
#
#
# Elastic Constant Matrix: (Units=GPa)
#
#
# Indices 1 2 3 4 5 6 
#
# 1 69.0933 13.9960 44.3448 0.0000 4.6251 0.0000
# 2 13.9960 58.5914 36.1592 0.0000 -7.8350 0.0000
# 3 44.3448 36.1592 131.1617 0.0000 -5.2819 0.0000
# 4 0.0000 0.0000 0.0000 27.2210 0.0000 -0.9883
# 5 4.6251 -7.8350 -5.2819 0.0000 23.9523 0.0000
# 6 0.0000 0.0000 0.0000 -0.9883 0.0000 30.6544
#
#
#
# Elastic Compliance Matrix: (Units=1/GPa)
#
#
# Indices 1 2 3 4 5 6 
#
# 1 0.019190 -0.001429 -0.006318 0.000000 -0.005566 0.000000
# 2 -0.001429 0.021424 -0.005176 0.000000 0.006143 0.000000
# 3 -0.006318 -0.005176 0.011268 0.000000 0.002012 0.000000
# 4 0.000000 0.000000 0.000000 0.036779 0.000000 0.001186
# 5 -0.005566 0.006143 0.002012 0.000000 0.045278 0.000000
# 6 0.000000 0.000000 0.000000 0.001186 0.000000 0.032660
#
#
# Mechanical properties :
#
#
# Convention : Reuss Voigt Hill
#
# Bulk Modulus (GPa) = 38.40756 49.76067 44.08412
# Shear Modulus (GPa) = 24.86009 27.32195 26.09102
#
# Velocity S-wave (km/s) = 3.67230 3.84984 3.76212
# Velocity P-wave (km/s) = 6.23024 6.83778 6.54107
#
# Compressibility (1/GPa) = 0.02603654
#
# Stress axis : x y z
#
# Youngs Moduli (GPa) = 52.10918 46.67580 88.74492
#
# Poissons Ratio (x) = 0.06671 0.56072
# Poissons Ratio (y) = 0.07447 0.45932
# Poissons Ratio (z) = 0.32924 0.24158
#
# Static dielectric constant tensor:
#      x y z
#    x 3.235420 0.000000 -0.093670 
#    y 0.000000 3.492330 0.000000 
#    z -0.093670 0.000000 3.652110 
# 
# 
# High freq. dielectric constant tensor:
#      x y z
#    x 1.688110 0.000000 -0.004950 
#    y 0.000000 1.729540 0.000000 
#    z -0.004950 0.000000 1.723120 
# 
# From -- ./inp_files/238891.got.cif
#   From: 2010.06.25/outbox.cif.g09.slc.cpg/sg12_120_cif.got.tgz:238891.got - 2010.06.28 00:19:55.
