data_PCOD8090458
_publ_section_title
;
Structure prediction by ZEFSAII (Michael W. Deem and Ramdas Pophale) SiO2 
 PCOD8090458
Probable space group: C 2/M
;
_chemical_formula_sum "Si O2"
_cell_formula_units_Z 64
_cell_length_a 15.208207
_cell_length_b 9.287705
_cell_length_c 33.181405
_cell_angle_alpha 90.000000
_cell_angle_beta 134.999833
_cell_angle_gamma 90.000000
_cell_volume 3314.114182
_symmetry_space_group_name_H-M "C 2/M"
_symmetry_group_IT_number 12
_symmetry_cell_setting 'monoclinic'
loop_
_space_group_symop_operation_xyz
x,y,z
-x,y,-z
-x,-y,-z
x,-y,z
1/2+x,1/2+y,z
1/2-x,1/2+y,-z
1/2-x,1/2-y,-z
1/2+x,1/2-y,z
loop_
_atom_site_type_symbol
_atom_site_label
_atom_site_fract_x
_atom_site_fract_y
_atom_site_fract_z
Si Si1 0.973609 0.334180 0.373890
Si Si2 0.323087 0.171074 0.058668
Si Si3 0.640999 0.166471 0.355780
Si Si4 0.522875 0.333131 0.247726
Si Si5 0.892379 0.665289 0.859012
Si Si6 0.077808 0.829617 0.563725
Si Si7 0.728365 0.664540 0.878694
Si Si8 0.224767 0.168907 0.248817
O O1 0.956312 0.500000 0.380989
O O2 0.984701 0.240075 0.417467
O O3 0.857089 0.283041 0.309288
O O4 0.098419 0.310680 0.388210
O O5 0.466676 0.217711 0.101216
O O6 0.268527 0.225893 0.083274
O O7 0.305449 0.000000 0.049524
O O8 0.250000 0.250000 0.000000
O O9 0.545263 0.248720 0.296148
O O10 0.780814 0.225459 0.395880
O O11 0.633524 0.000000 0.341453
O O12 0.543239 0.500000 0.263689
O O13 0.385793 0.299091 0.187651
O O14 0.619829 0.278405 0.245803
O O15 0.878311 0.500000 0.841589
O O16 0.853758 0.686383 0.893270
O O17 0.798135 0.754812 0.801016
O O18 0.000000 0.777925 0.500000
O O19 0.072167 0.000000 0.566826
O O20 0.718019 0.500000 0.891380
O O21 0.218001 0.000000 0.238701
#
# Coordination Sequence:
#
# PCOD8090458 Si02
#       8
#     8   8   8   8   8   8   8   8
#     4  10  21  37  56  82 113 144 181 224 276 332
#     4  11  24  41  60  83 111 147 189 232 274 321
#     4  10  21  36  56  81 111 146 182 226 276 328
#     4  10  19  33  57  86 115 146 179 220 273 330
#     4  10  22  38  59  86 114 146 185 225 271 327
#     4  10  22  39  56  77 107 144 188 234 277 323
#     4  10  21  39  60  84 115 148 181 224 275 327
#     4  10  19  33  56  85 116 145 176 222 275 328
#
# _framework density 19.311344999999999
#
# number of rings (size 3 to 8) (size 9 to 14) (size 15 to 20)
#    0.000    1.875    2.500    1.125    0.000    4.250 
#    0.000    2.500    0.000    0.000    0.000    0.000 
#    0.000    0.000    0.000    0.000    0.000    0.000 
#
# Total GULP energy -396935.015658 kJ/mol
# GULP energy per Si atom -12404.219239 kJ/mol
# Density = 1.926739 g / cm^3
# Si number density = 19.311345 Si / 1000 Ang^3
#
#
#
# Elastic Constant Matrix: (Units=GPa)
#
#
# Indices 1 2 3 4 5 6 
#
# 1 84.1880 27.4680 30.9138 0.0000 -20.0878 0.0000
# 2 27.4680 56.5913 50.2498 0.0000 -14.1772 0.0000
# 3 30.9138 50.2498 109.2576 0.0000 -20.5932 0.0000
# 4 0.0000 0.0000 0.0000 34.7822 0.0000 -8.8391
# 5 -20.0878 -14.1772 -20.5932 0.0000 21.2851 0.0000
# 6 0.0000 0.0000 0.0000 -8.8391 0.0000 30.7774
#
#
#
# Elastic Compliance Matrix: (Units=1/GPa)
#
#
# Indices 1 2 3 4 5 6 
#
# 1 0.016389 -0.004780 -0.000151 0.000000 0.012137 0.000000
# 2 -0.004780 0.032443 -0.012653 0.000000 0.004855 0.000000
# 3 -0.000151 -0.012653 0.016388 0.000000 0.007285 0.000000
# 4 0.000000 0.000000 0.000000 0.031014 0.000000 0.008907
# 5 0.012137 0.004855 0.007285 0.000000 0.068718 0.000000
# 6 0.000000 0.000000 0.000000 0.008907 0.000000 0.035049
#
#
# Mechanical properties :
#
#
# Convention : Reuss Voigt Hill
#
# Bulk Modulus (GPa) = 33.27701 51.92223 42.59962
# Shear Modulus (GPa) = 20.39258 26.79594 23.59426
#
# Velocity S-wave (km/s) = 3.25312 3.72906 3.49919
# Velocity P-wave (km/s) = 5.60176 6.74436 6.19944
#
# Compressibility (1/GPa) = 0.03005077
#
# Stress axis : x y z
#
# Youngs Moduli (GPa) = 61.01521 30.82373 61.02034
#
# Poissons Ratio (x) = 0.14734 0.00922
# Poissons Ratio (y) = 0.29167 0.77211
# Poissons Ratio (z) = 0.00922 0.39002
#
# Static dielectric constant tensor:
#      x y z
#    x 3.739760 0.000000 0.068690 
#    y 0.000000 3.401620 0.000000 
#    z 0.068690 0.000000 3.406210 
# 
# 
# High freq. dielectric constant tensor:
#      x y z
#    x 1.765070 0.000000 -0.000640 
#    y 0.000000 1.742600 0.000000 
#    z -0.000640 0.000000 1.744050 
# 
# From -- ./inp_files/375543.got.cif
#   From: 2010.06.25/outbox.cif.g09.slc.cpg/sg12_188_cif.got.tgz:375543.got - 2010.06.28 00:19:55.
