data_PCOD8090532
_publ_section_title
;
Structure prediction by ZEFSAII (Michael W. Deem and Ramdas Pophale) SiO2 
 PCOD8090532
Probable space group: C 2/M
;
_chemical_formula_sum "Si O2"
_cell_formula_units_Z 64
_cell_length_a 31.092232
_cell_length_b 9.838957
_cell_length_c 11.372585
_cell_angle_alpha 90.000000
_cell_angle_beta 81.260667
_cell_angle_gamma 90.000000
_cell_volume 3438.653494
_symmetry_space_group_name_H-M "C 2/M"
_symmetry_group_IT_number 12
_symmetry_cell_setting 'monoclinic'
loop_
_space_group_symop_operation_xyz
x,y,z
-x,y,-z
-x,-y,-z
x,-y,z
1/2+x,1/2+y,z
1/2-x,1/2+y,-z
1/2-x,1/2-y,-z
1/2+x,1/2-y,z
loop_
_atom_site_type_symbol
_atom_site_label
_atom_site_fract_x
_atom_site_fract_y
_atom_site_fract_z
Si Si1 0.394981 0.348350 0.967106
Si Si2 0.054279 0.653217 0.208088
Si Si3 0.026354 0.656197 0.606628
Si Si4 0.687336 0.251928 0.124628
Si Si5 0.844144 0.844388 0.211825
Si Si6 0.279594 0.148111 0.129009
Si Si7 0.389782 0.340001 0.437846
Si Si8 0.368530 0.848145 0.650864
O O1 0.414122 0.500000 0.958970
O O2 0.382027 0.301547 0.104223
O O3 0.433034 0.250738 0.904734
O O4 0.352200 0.346645 0.902374
O O5 0.060410 0.500000 0.159303
O O6 0.084955 0.677979 0.307766
O O7 0.004902 0.680209 0.268309
O O8 0.043620 0.500000 0.597543
O O9 0.064998 0.763296 0.602104
O O10 0.000000 0.687631 0.500000
O O11 0.727488 0.341125 0.152987
O O12 0.670471 0.160472 0.239255
O O13 0.703013 0.157348 0.011452
O O14 0.800690 0.758147 0.207030
O O15 0.860295 0.820585 0.335953
O O16 0.831157 0.000000 0.193683
O O17 0.292314 0.000000 0.171992
O O18 0.397699 0.500000 0.461671
O O19 0.363387 0.267674 0.554012
O O20 0.367481 0.000000 0.596050
#
# Coordination Sequence:
#
# PCOD8090532 Si02
#       8
#     8   8   8   8   8   8   8   8
#     4   9  17  32  54  76 104 140 173 209 260 313
#     4   9  18  32  52  79 108 132 164 215 266 309
#     4  10  19  36  56  77 106 139 171 212 265 315
#     4   9  19  32  52  84 114 134 164 218 271 308
#     4   9  21  39  53  71 106 146 178 215 265 313
#     4  10  19  33  57  84 107 136 179 220 257 310
#     4  11  23  37  54  77 105 139 180 221 259 308
#     4  10  19  34  54  77 107 142 173 208 262 319
#
# _framework density 18.611937000000001
#
# number of rings (size 3 to 8) (size 9 to 14) (size 15 to 20)
#    0.000    2.375    1.250    1.125    0.000   10.750 
#    0.000    1.250    0.000    3.750    0.000    0.000 
#    0.000    0.000    0.000    0.000    0.000    0.000 
#
# Total GULP energy -396752.560393 kJ/mol
# GULP energy per Si atom -12398.517512 kJ/mol
# Density = 1.856958 g / cm^3
# Si number density = 18.611937 Si / 1000 Ang^3
#
#
#
# Elastic Constant Matrix: (Units=GPa)
#
#
# Indices 1 2 3 4 5 6 
#
# 1 67.7467 33.2825 27.3936 0.0000 -11.2847 0.0000
# 2 33.2825 105.7267 38.4099 0.0000 -0.2164 0.0000
# 3 27.3936 38.4099 69.3913 0.0000 -5.2080 0.0000
# 4 0.0000 0.0000 0.0000 24.1261 0.0000 -1.0310
# 5 -11.2847 -0.2164 -5.2080 0.0000 23.0567 0.0000
# 6 0.0000 0.0000 0.0000 -1.0310 0.0000 24.1673
#
#
#
# Elastic Compliance Matrix: (Units=1/GPa)
#
#
# Indices 1 2 3 4 5 6 
#
# 1 0.020495 -0.004677 -0.004834 0.000000 0.008895 0.000000
# 2 -0.004677 0.012951 -0.005579 0.000000 -0.003428 0.000000
# 3 -0.004834 -0.005579 0.019558 0.000000 0.001999 0.000000
# 4 0.000000 0.000000 0.000000 0.041525 0.000000 0.001771
# 5 0.008895 -0.003428 0.001999 0.000000 0.048144 0.000000
# 6 0.000000 0.000000 0.000000 0.001771 0.000000 0.041454
#
#
# Mechanical properties :
#
#
# Convention : Reuss Voigt Hill
#
# Bulk Modulus (GPa) = 43.81778 49.00408 46.41093
# Shear Modulus (GPa) = 22.53108 23.85526 23.19317
#
# Velocity S-wave (km/s) = 3.48310 3.58399 3.53391
# Velocity P-wave (km/s) = 6.30634 6.59645 6.45303
#
# Compressibility (1/GPa) = 0.02282179
#
# Stress axis : x y z
#
# Youngs Moduli (GPa) = 48.79195 77.21592 51.13043
#
# Poissons Ratio (x) = 0.36117 0.24718
# Poissons Ratio (y) = 0.22822 0.28527
# Poissons Ratio (z) = 0.23587 0.43081
#
# Static dielectric constant tensor:
#      x y z
#    x 3.295590 0.000000 -0.165580 
#    y 0.000000 3.446780 0.000000 
#    z -0.165580 0.000000 3.356300 
# 
# 
# High freq. dielectric constant tensor:
#      x y z
#    x 1.705360 0.000000 -0.017880 
#    y 0.000000 1.726090 0.000000 
#    z -0.017880 0.000000 1.709910 
# 
# From -- ./inp_files/187605.got.cif
#   From: 2010.06.25/outbox.cif.g09.slc.cpg/sg12_94_cif.got.tgz:187605.got - 2010.06.28 00:19:55.
