data_PCOD8090516
_publ_section_title
;
Structure prediction by ZEFSAII (Michael W. Deem and Ramdas Pophale) SiO2 
 PCOD8090516
Probable space group: C 2/M
;
_chemical_formula_sum "Si O2"
_cell_formula_units_Z 48
_cell_length_a 14.579996
_cell_length_b 19.637889
_cell_length_c 12.732803
_cell_angle_alpha 90.000000
_cell_angle_beta 47.683747
_cell_angle_gamma 90.000000
_cell_volume 2695.747775
_symmetry_space_group_name_H-M "C 2/M"
_symmetry_group_IT_number 12
_symmetry_cell_setting 'monoclinic'
loop_
_space_group_symop_operation_xyz
x,y,z
-x,y,-z
-x,-y,-z
x,-y,z
1/2+x,1/2+y,z
1/2-x,1/2+y,-z
1/2-x,1/2-y,-z
1/2+x,1/2-y,z
loop_
_atom_site_type_symbol
_atom_site_label
_atom_site_fract_x
_atom_site_fract_y
_atom_site_fract_z
Si Si1 0.288949 0.689510 0.339562
Si Si2 0.468936 0.078801 0.903804
Si Si3 0.082525 0.313137 0.668775
Si Si4 0.791565 0.143504 0.943990
Si Si5 0.325349 0.228775 0.787824
Si Si6 0.524707 0.421579 0.861092
O O1 0.201219 0.673549 0.505454
O O2 0.395878 0.744470 0.281445
O O3 0.210572 0.719810 0.304641
O O4 0.352702 0.618327 0.266250
O O5 0.562798 0.123032 0.761086
O O6 0.490610 0.000000 0.859034
O O7 0.500000 0.094602 0.000000
O O8 0.326668 0.097376 0.990806
O O9 0.961660 0.302530 0.691708
O O10 0.822101 0.191497 0.820817
O O11 0.907963 0.095214 0.877078
O O12 0.770454 0.189392 0.063315
O O13 0.557832 0.500000 0.821941
O O14 0.500000 0.402234 0.000000
#
# Coordination Sequence:
#
# PCOD8090516 Si02
#       6
#     8   8   8   8   8   8
#     4  11  21  37  55  82 115 148 189 232 278 339
#     4  10  21  37  58  83 110 143 186 234 282 335
#     4  10  22  36  56  82 109 149 186 232 281 329
#     4  10  19  34  57  84 107 143 184 233 277 325
#     4  10  19  33  57  82 109 141 186 233 276 321
#     4  11  22  36  56  82 116 153 188 229 281 337
#
# _framework density 17.805820000000001
#
# number of rings (size 3 to 8) (size 9 to 14) (size 15 to 20)
#    0.000    1.667    3.333    2.000    0.000    1.333 
#    0.000    0.000    0.000    3.000    0.000    5.833 
#    0.000    0.000    0.000    0.000    0.000    0.000 
#
# Total GULP energy -297697.179624 kJ/mol
# GULP energy per Si atom -12404.049151 kJ/mol
# Density = 1.776529 g / cm^3
# Si number density = 17.805820 Si / 1000 Ang^3
#
#
#
# Elastic Constant Matrix: (Units=GPa)
#
#
# Indices 1 2 3 4 5 6 
#
# 1 95.8898 40.8386 34.3524 0.0002 8.3513 -0.0003
# 2 40.8386 103.1914 63.3437 0.0000 -0.2484 0.0000
# 3 34.3524 63.3437 81.6015 0.0002 -0.0391 -0.0003
# 4 0.0002 0.0000 0.0002 24.9775 -0.0002 1.0470
# 5 8.3513 -0.2484 -0.0391 -0.0002 25.8104 0.0003
# 6 -0.0003 0.0000 -0.0003 1.0470 0.0003 29.9419
#
#
#
# Elastic Compliance Matrix: (Units=1/GPa)
#
#
# Indices 1 2 3 4 5 6 
#
# 1 0.013340 -0.003517 -0.002888 0.000000 -0.004355 0.000000
# 2 -0.003517 0.019440 -0.013609 0.000000 0.001305 0.000000
# 3 -0.002888 -0.013609 0.024035 0.000000 0.000840 0.000000
# 4 0.000000 0.000000 0.000000 0.040095 0.000000 -0.001402
# 5 -0.004355 0.001305 0.000840 0.000000 0.040167 0.000000
# 6 0.000000 0.000000 0.000000 -0.001402 0.000000 0.033447
#
#
# Mechanical properties :
#
#
# Convention : Reuss Voigt Hill
#
# Bulk Modulus (GPa) = 59.57011 61.97245 60.77128
# Shear Modulus (GPa) = 23.13243 25.62249 24.37746
#
# Velocity S-wave (km/s) = 3.60828 3.79752 3.70411
# Velocity P-wave (km/s) = 7.13356 7.35584 7.24555
#
# Compressibility (1/GPa) = 0.01678694
#
# Stress axis : x y z
#
# Youngs Moduli (GPa) = 74.95993 51.44140 41.60672
#
# Poissons Ratio (x) = 0.18094 0.12015
# Poissons Ratio (y) = 0.26367 0.56621
# Poissons Ratio (z) = 0.21646 0.70005
#
# Static dielectric constant tensor:
#      x y z
#    x 3.337500 0.000000 0.037370 
#    y 0.000000 3.277470 0.000000 
#    z 0.037370 0.000000 3.157320 
# 
# 
# High freq. dielectric constant tensor:
#      x y z
#    x 1.703390 0.000000 -0.001860 
#    y 0.000000 1.689430 0.000000 
#    z -0.001860 0.000000 1.679280 
# 
# From -- ./inp_files/132679.got.cif
#   From: 2010.06.25/outbox.cif.g09.slc.cpg/sg12_67_cif.got.tgz:132679.got - 2010.06.28 00:19:55.
