data_PCOD8090178
_publ_section_title
;
Structure prediction by ZEFSAII (Michael W. Deem and Ramdas Pophale) SiO2 
 PCOD8090178
Probable space group: C 2/M
;
_chemical_formula_sum "Si O2"
_cell_formula_units_Z 48
_cell_length_a 20.517203
_cell_length_b 8.792085
_cell_length_c 15.072403
_cell_angle_alpha 90.000000
_cell_angle_beta 111.814082
_cell_angle_gamma 90.000000
_cell_volume 2524.207785
_symmetry_space_group_name_H-M "C 2/M"
_symmetry_group_IT_number 12
_symmetry_cell_setting 'monoclinic'
loop_
_space_group_symop_operation_xyz
x,y,z
-x,y,-z
-x,-y,-z
x,-y,z
1/2+x,1/2+y,z
1/2-x,1/2+y,-z
1/2-x,1/2-y,-z
1/2+x,1/2-y,z
loop_
_atom_site_type_symbol
_atom_site_label
_atom_site_fract_x
_atom_site_fract_y
_atom_site_fract_z
Si Si1 0.174340 0.820899 0.247911
Si Si2 0.079866 0.175752 0.529534
Si Si3 0.322413 0.322107 0.064597
Si Si4 0.078349 0.180894 0.037872
Si Si5 0.176249 0.678964 0.434923
Si Si6 0.316189 0.325243 0.261790
O O1 0.121424 0.762206 0.145262
O O2 0.152743 0.737045 0.326917
O O3 0.253536 0.782705 0.260570
O O4 0.168352 0.000000 0.260012
O O5 0.115795 0.277525 0.473002
O O6 0.117193 0.202799 0.642373
O O7 0.000000 0.229469 0.500000
O O8 0.084417 0.000000 0.502337
O O9 0.314482 0.500000 0.045636
O O10 0.340729 0.281465 0.175223
O O11 0.250000 0.250000 0.000000
O O12 0.383993 0.258420 0.032386
O O13 0.075292 0.000000 0.036361
O O14 0.000000 0.249947 0.000000
O O15 0.186507 0.500000 0.437758
O O16 0.250000 0.750000 0.500000
O O17 0.290335 0.500000 0.253811
#
# Coordination Sequence:
#
# PCOD8090178 Si02
#       6
#     8   8   8   8   8   8
#     4  11  21  35  60  89 115 152 197 244 293 348
#     4  10  22  40  61  89 121 155 196 243 297 355
#     4  10  19  33  55  83 111 147 189 234 287 337
#     4   9  19  35  56  85 119 151 192 240 287 341
#     4  12  24  39  61  88 119 156 200 247 299 353
#     4  10  20  34  57  85 116 152 191 242 293 347
#
# _framework density 19.015867
#
# number of rings (size 3 to 8) (size 9 to 14) (size 15 to 20)
#    0.000    1.667    3.333    2.000    0.000    1.667 
#    0.000    5.000    0.000    6.500    0.000    0.000 
#    0.000    0.000    0.000    0.000    0.000    0.000 
#
# Total GULP energy -297674.840567 kJ/mol
# GULP energy per Si atom -12403.118357 kJ/mol
# Density = 1.897259 g / cm^3
# Si number density = 19.015867 Si / 1000 Ang^3
#
#
#
# Elastic Constant Matrix: (Units=GPa)
#
#
# Indices 1 2 3 4 5 6 
#
# 1 153.0409 37.9187 80.5868 0.0000 -2.8465 0.0000
# 2 37.9187 72.3848 45.0282 0.0000 -6.8146 0.0000
# 3 80.5868 45.0282 161.4742 0.0000 -13.5472 0.0000
# 4 0.0000 0.0000 0.0000 25.8513 0.0000 -2.9257
# 5 -2.8465 -6.8146 -13.5472 0.0000 39.6909 0.0000
# 6 0.0000 0.0000 0.0000 -2.9257 0.0000 27.5664
#
#
#
# Elastic Compliance Matrix: (Units=1/GPa)
#
#
# Indices 1 2 3 4 5 6 
#
# 1 0.009237 -0.002442 -0.004024 0.000000 -0.001130 0.000000
# 2 -0.002442 0.017427 -0.003505 0.000000 0.001621 0.000000
# 3 -0.004024 -0.003505 0.009372 0.000000 0.002309 0.000000
# 4 0.000000 0.000000 0.000000 0.039153 0.000000 0.004155
# 5 -0.001130 0.001621 0.002309 0.000000 0.026180 0.000000
# 6 0.000000 0.000000 0.000000 0.004155 0.000000 0.036717
#
#
# Mechanical properties :
#
#
# Convention : Reuss Voigt Hill
#
# Bulk Modulus (GPa) = 62.13208 79.32972 70.73090
# Shear Modulus (GPa) = 30.60106 33.51280 32.05693
#
# Velocity S-wave (km/s) = 4.01588 4.20260 4.11030
# Velocity P-wave (km/s) = 7.36531 8.08439 7.73321
#
# Compressibility (1/GPa) = 0.01609474
#
# Stress axis : x y z
#
# Youngs Moduli (GPa) = 108.25965 57.38130 106.69956
#
# Poissons Ratio (x) = 0.14014 0.42933
# Poissons Ratio (y) = 0.26439 0.37397
# Poissons Ratio (z) = 0.43561 0.20112
#
# Static dielectric constant tensor:
#      x y z
#    x 3.609310 0.000000 -0.169570 
#    y 0.000000 3.331440 0.000000 
#    z -0.169570 0.000000 3.832670 
# 
# 
# High freq. dielectric constant tensor:
#      x y z
#    x 1.738650 0.000000 -0.008180 
#    y 0.000000 1.720190 0.000000 
#    z -0.008180 0.000000 1.756270 
# 
# From -- ./inp_files/230371.got.cif
#   From: 2010.06.25/outbox.cif.g09.slc.cpg/sg12_116_cif.got.tgz:230371.got - 2010.06.28 00:19:55.
