data_PCOD8090387
_publ_section_title
;
Structure prediction by ZEFSAII (Michael W. Deem and Ramdas Pophale) SiO2 
 PCOD8090387
Probable space group: C 2/M
;
_chemical_formula_sum "Si O2"
_cell_formula_units_Z 64
_cell_length_a 19.904443
_cell_length_b 8.927198
_cell_length_c 20.131815
_cell_angle_alpha 90.000000
_cell_angle_beta 78.447574
_cell_angle_gamma 90.000000
_cell_volume 3504.772206
_symmetry_space_group_name_H-M "C 2/M"
_symmetry_group_IT_number 12
_symmetry_cell_setting 'monoclinic'
loop_
_space_group_symop_operation_xyz
x,y,z
-x,y,-z
-x,-y,-z
x,-y,z
1/2+x,1/2+y,z
1/2-x,1/2+y,-z
1/2-x,1/2-y,-z
1/2+x,1/2-y,z
loop_
_atom_site_type_symbol
_atom_site_label
_atom_site_fract_x
_atom_site_fract_y
_atom_site_fract_z
Si Si1 0.236585 0.176371 0.072833
Si Si2 0.133487 0.324289 0.320753
Si Si3 0.156378 0.327059 0.836730
Si Si4 0.111953 0.677441 0.173563
Si Si5 0.530363 0.324170 0.806364
Si Si6 0.399165 0.324257 0.344799
Si Si7 0.002909 0.674823 0.576295
Si Si8 0.227735 0.325319 0.686249
O O1 0.302894 0.211577 0.104561
O O2 0.169328 0.248507 0.117120
O O3 0.224631 0.000000 0.068106
O O4 0.250000 0.250000 0.000000
O O5 0.147106 0.500000 0.322285
O O6 0.123115 0.271792 0.247163
O O7 0.067599 0.274939 0.375653
O O8 0.197270 0.240541 0.341119
O O9 0.134094 0.500000 0.837915
O O10 0.088134 0.226152 0.847787
O O11 0.205948 0.286569 0.765709
O O12 0.114767 0.500000 0.164767
O O13 0.038777 0.736355 0.162981
O O14 0.517428 0.500000 0.815577
O O15 0.555021 0.277938 0.727787
O O16 0.388679 0.500000 0.350672
O O17 0.434847 0.266065 0.404191
O O18 0.324664 0.249337 0.354919
O O19 0.016755 0.500000 0.585180
O O20 0.000000 0.717075 0.500000
O O21 0.229084 0.500000 0.671701
#
# Coordination Sequence:
#
# PCOD8090387 Si02
#       8
#     8   8   8   8   8   8   8   8
#     4  11  23  40  59  84 117 152 189 229 280 338
#     4  10  20  34  55  84 113 143 185 234 279 328
#     4   9  19  35  55  80 112 146 182 226 277 331
#     4  11  21  35  58  85 114 148 188 233 280 330
#     4  10  20  33  55  85 114 144 183 233 280 328
#     4  10  20  34  54  82 115 147 184 231 282 334
#     4  10  21  38  58  81 113 152 190 230 281 339
#     4  10  19  33  56  83 111 144 184 231 280 330
#
# _framework density 18.260815999999998
#
# number of rings (size 3 to 8) (size 9 to 14) (size 15 to 20)
#    0.000    1.875    2.500    1.875    0.000    3.750 
#    0.000    1.250    0.000    3.750    0.000    0.000 
#    0.000    0.000    0.000    0.000    0.000    0.000 
#
# Total GULP energy -396967.026055 kJ/mol
# GULP energy per Si atom -12405.219564 kJ/mol
# Density = 1.821925 g / cm^3
# Si number density = 18.260816 Si / 1000 Ang^3
#
#
#
# Elastic Constant Matrix: (Units=GPa)
#
#
# Indices 1 2 3 4 5 6 
#
# 1 138.5716 55.5182 57.0567 0.0000 13.0947 0.0000
# 2 55.5182 69.4748 35.2094 0.0000 9.6418 0.0000
# 3 57.0567 35.2094 97.2892 0.0000 5.7352 0.0000
# 4 0.0000 0.0000 0.0000 24.9969 0.0000 3.8895
# 5 13.0947 9.6418 5.7352 0.0000 25.0963 0.0000
# 6 0.0000 0.0000 0.0000 3.8895 0.0000 38.4394
#
#
#
# Elastic Compliance Matrix: (Units=1/GPa)
#
#
# Indices 1 2 3 4 5 6 
#
# 1 0.012108 -0.007096 -0.004380 0.000000 -0.002590 0.000000
# 2 -0.007096 0.022535 -0.003752 0.000000 -0.004097 0.000000
# 3 -0.004380 -0.003752 0.014176 0.000000 0.000487 0.000000
# 4 0.000000 0.000000 0.000000 0.040645 0.000000 -0.004113
# 5 -0.002590 -0.004097 0.000487 0.000000 0.042661 0.000000
# 6 0.000000 0.000000 0.000000 -0.004113 0.000000 0.026431
#
#
# Mechanical properties :
#
#
# Convention : Reuss Voigt Hill
#
# Bulk Modulus (GPa) = 54.45944 66.76713 60.61328
# Shear Modulus (GPa) = 25.62350 28.20994 26.91672
#
# Velocity S-wave (km/s) = 3.74999 3.93470 3.84346
# Velocity P-wave (km/s) = 6.97408 7.56868 7.27745
#
# Compressibility (1/GPa) = 0.01836229
#
# Stress axis : x y z
#
# Youngs Moduli (GPa) = 82.59132 44.37609 70.53930
#
# Poissons Ratio (x) = 0.31491 0.30896
# Poissons Ratio (y) = 0.58609 0.26467
# Poissons Ratio (z) = 0.36174 0.16650
#
# Static dielectric constant tensor:
#      x y z
#    x 3.418880 0.000000 0.086980 
#    y 0.000000 3.364520 0.000000 
#    z 0.086980 0.000000 3.175690 
# 
# 
# High freq. dielectric constant tensor:
#      x y z
#    x 1.719800 0.000000 0.009390 
#    y 0.000000 1.715510 0.000000 
#    z 0.009390 0.000000 1.682620 
# 
# From -- ./inp_files/314033.got.cif
#   From: 2010.06.25/outbox.cif.g09.slc.cpg/sg12_158_cif.got.tgz:314033.got - 2010.06.28 00:19:55.
