data_PCOD8090377
_publ_section_title
;
Structure prediction by ZEFSAII (Michael W. Deem and Ramdas Pophale) SiO2 
 PCOD8090377
Probable space group: C 2/M
;
_chemical_formula_sum "Si O2"
_cell_formula_units_Z 56
_cell_length_a 30.746190
_cell_length_b 8.911391
_cell_length_c 11.729356
_cell_angle_alpha 90.000000
_cell_angle_beta 115.599983
_cell_angle_gamma 90.000000
_cell_volume 2898.257247
_symmetry_space_group_name_H-M "C 2/M"
_symmetry_group_IT_number 12
_symmetry_cell_setting 'monoclinic'
loop_
_space_group_symop_operation_xyz
x,y,z
-x,y,-z
-x,-y,-z
x,-y,z
1/2+x,1/2+y,z
1/2-x,1/2+y,-z
1/2-x,1/2-y,-z
1/2+x,1/2-y,z
loop_
_atom_site_type_symbol
_atom_site_label
_atom_site_fract_x
_atom_site_fract_y
_atom_site_fract_z
Si Si1 0.907751 0.676930 0.719240
Si Si2 0.980392 0.676091 0.163775
Si Si3 0.546206 0.178570 0.617570
Si Si4 0.899523 0.822853 0.941681
Si Si5 0.184817 0.326077 0.021546
Si Si6 0.867679 0.677641 0.435270
Si Si7 0.220197 0.674159 0.810508
O O1 0.901355 0.500000 0.728919
O O2 0.884829 0.761463 0.800842
O O3 0.878597 0.735518 0.575121
O O4 0.963685 0.720704 0.768597
O O5 0.974177 0.500000 0.134235
O O6 0.955372 0.728256 0.252934
O O7 0.953084 0.762911 0.031877
O O8 0.500000 0.244975 0.500000
O O9 0.593685 0.245073 0.610537
O O10 0.545149 0.000000 0.609444
O O11 0.861666 0.765041 0.991807
O O12 0.899427 0.000000 0.940093
O O13 0.175812 0.500000 0.036631
O O14 0.231828 0.272792 0.144407
O O15 0.191896 0.294471 0.895849
O O16 0.873557 0.500000 0.439740
O O17 0.814216 0.723481 0.333319
O O18 0.234875 0.500000 0.819469
#
# Coordination Sequence:
#
# PCOD8090377 Si02
#       7
#     8   8   8   8   8   8   8
#     4  10  20  35  55  79 108 144 186 226 262 315
#     4  10  19  33  56  83 109 141 183 227 268 318
#     4   9  14  25  49  83 114 137 170 216 261 307
#     4  12  25  38  53  74 106 147 188 229 273 317
#     4  10  20  37  60  85 110 138 177 222 267 321
#     4   9  16  29  52  83 114 143 174 215 268 321
#     4   9  18  34  59  89 116 138 166 214 276 330
#
# _framework density 19.321954999999999
#
# number of rings (size 3 to 8) (size 9 to 14) (size 15 to 20)
#    0.000    2.143    1.429    3.000    0.000    5.143 
#    0.000    1.429    0.000    1.286    0.000    0.000 
#    0.000    0.000    0.000    0.000    0.000    0.000 
#
# Total GULP energy -347223.490638 kJ/mol
# GULP energy per Si atom -12400.838951 kJ/mol
# Density = 1.927798 g / cm^3
# Si number density = 19.321955 Si / 1000 Ang^3
#
#
#
# Elastic Constant Matrix: (Units=GPa)
#
#
# Indices 1 2 3 4 5 6 
#
# 1 50.6161 28.3494 31.7781 0.0000 6.9828 0.0000
# 2 28.3494 59.4096 33.2123 0.0000 2.6061 0.0000
# 3 31.7781 33.2123 132.4375 0.0000 11.8918 0.0000
# 4 0.0000 0.0000 0.0000 15.6428 0.0000 2.0106
# 5 6.9828 2.6061 11.8918 0.0000 27.5043 0.0000
# 6 0.0000 0.0000 0.0000 2.0106 0.0000 22.3573
#
#
#
# Elastic Compliance Matrix: (Units=1/GPa)
#
#
# Indices 1 2 3 4 5 6 
#
# 1 0.029268 -0.011712 -0.003660 0.000000 -0.004738 0.000000
# 2 -0.011712 0.024266 -0.003470 0.000000 0.002175 0.000000
# 3 -0.003660 -0.003470 0.009557 0.000000 -0.002874 0.000000
# 4 0.000000 0.000000 0.000000 0.064675 0.000000 -0.005816
# 5 -0.004738 0.002175 -0.002874 0.000000 0.038598 0.000000
# 6 0.000000 0.000000 0.000000 -0.005816 0.000000 0.045251
#
#
# Mechanical properties :
#
#
# Convention : Reuss Voigt Hill
#
# Bulk Modulus (GPa) = 39.36105 47.68252 43.52178
# Shear Modulus (GPa) = 19.39724 23.04244 21.21984
#
# Velocity S-wave (km/s) = 3.17187 3.45708 3.31754
# Velocity P-wave (km/s) = 5.81633 6.37704 6.10313
#
# Compressibility (1/GPa) = 0.02540583
#
# Stress axis : x y z
#
# Youngs Moduli (GPa) = 34.16696 41.21017 104.63186
#
# Poissons Ratio (x) = 0.48266 0.38297
# Poissons Ratio (y) = 0.40017 0.36310
# Poissons Ratio (z) = 0.12506 0.14301
#
# Static dielectric constant tensor:
#      x y z
#    x 3.488450 0.000000 0.018670 
#    y 0.000000 3.124050 0.000000 
#    z 0.018670 0.000000 3.754850 
# 
# 
# High freq. dielectric constant tensor:
#      x y z
#    x 1.745360 0.000000 0.002610 
#    y 0.000000 1.709640 0.000000 
#    z 0.002610 0.000000 1.762680 
# 
# From -- ./inp_files/186496.got.cif
#   From: 2010.06.25/outbox.cif.g09.slc.cpg/sg12_94_cif.got.tgz:186496.got - 2010.06.28 00:19:55.
