data_PCOD8090390
_publ_section_title
;
Structure prediction by ZEFSAII (Michael W. Deem and Ramdas Pophale) SiO2 
 PCOD8090390
Probable space group: C 2/M
;
_chemical_formula_sum "Si O2"
_cell_formula_units_Z 64
_cell_length_a 9.834264
_cell_length_b 20.250178
_cell_length_c 20.760754
_cell_angle_alpha 90.000000
_cell_angle_beta 52.464813
_cell_angle_gamma 90.000000
_cell_volume 3278.503855
_symmetry_space_group_name_H-M "C 2/M"
_symmetry_group_IT_number 12
_symmetry_cell_setting 'monoclinic'
loop_
_space_group_symop_operation_xyz
x,y,z
-x,y,-z
-x,-y,-z
x,-y,z
1/2+x,1/2+y,z
1/2-x,1/2+y,-z
1/2-x,1/2-y,-z
1/2+x,1/2-y,z
loop_
_atom_site_type_symbol
_atom_site_label
_atom_site_fract_x
_atom_site_fract_y
_atom_site_fract_z
Si Si1 0.977042 0.574621 0.313109
Si Si2 0.429933 0.799982 0.087290
Si Si3 0.468772 0.172813 0.807039
Si Si4 0.875784 0.923980 0.224754
Si Si5 0.026621 0.786656 0.394597
Si Si6 0.570923 0.652396 0.913162
Si Si7 0.232379 0.675469 0.561099
Si Si8 0.444999 0.690960 0.760264
O O1 0.928569 0.500000 0.313106
O O2 0.941546 0.614142 0.257700
O O3 0.171179 0.582352 0.281719
O O4 0.841084 0.602916 0.403441
O O5 0.500371 0.841019 0.126986
O O6 0.508371 0.725644 0.073680
O O7 0.226252 0.809026 0.147425
O O8 0.500000 0.829831 0.000000
O O9 0.269147 0.167865 0.854135
O O10 0.542388 0.242684 0.757310
O O11 0.967918 0.899666 0.132140
O O12 0.942538 0.874733 0.260912
O O13 0.930167 0.000000 0.222233
O O14 0.182016 0.787267 0.401403
O O15 0.097294 0.807288 0.303820
O O16 0.933926 0.715666 0.415828
O O17 0.874840 0.834847 0.464365
O O18 0.500000 0.621049 0.000000
#
# Coordination Sequence:
#
# PCOD8090390 Si02
#       8
#     8   8   8   8   8   8   8   8
#     4  10  21  38  61  85 119 158 197 243 298 359
#     4  10  21  33  54  86 115 149 193 251 300 347
#     4  10  19  33  56  83 111 145 198 238 289 351
#     4  10  22  38  55  84 118 155 198 243 298 357
#     4  10  22  36  62  97 122 151 199 243 296 341
#     4   9  19  31  54  81 110 146 190 245 294 344
#     4  10  21  39  61  95 124 154 192 247 292 350
#     4  11  21  34  60  84 117 155 194 246 294 349
#
# _framework density 19.521099
#
# number of rings (size 3 to 8) (size 9 to 14) (size 15 to 20)
#    0.000    2.000    2.500    0.750    3.500    1.750 
#    0.000    4.375    0.000    2.250    0.000    0.000 
#    0.000    0.000    0.000    0.000    0.000    0.000 
#
# Total GULP energy -396562.616486 kJ/mol
# GULP energy per Si atom -12392.581765 kJ/mol
# Density = 1.947667 g / cm^3
# Si number density = 19.521099 Si / 1000 Ang^3
#
#
#
# Elastic Constant Matrix: (Units=GPa)
#
#
# Indices 1 2 3 4 5 6 
#
# 1 46.9384 32.4686 10.3733 0.0001 17.3166 -0.0001
# 2 32.4686 119.7777 35.5586 0.0000 3.5229 0.0000
# 3 10.3733 35.5586 117.4920 0.0001 6.1817 -0.0001
# 4 0.0001 0.0000 0.0001 24.4142 -0.0001 1.1483
# 5 17.3166 3.5229 6.1817 -0.0001 23.0814 0.0001
# 6 -0.0001 0.0000 -0.0001 1.1483 0.0001 24.8069
#
#
#
# Elastic Compliance Matrix: (Units=1/GPa)
#
#
# Indices 1 2 3 4 5 6 
#
# 1 0.037871 -0.009776 0.001046 0.000000 -0.027200 0.000000
# 2 -0.009776 0.011707 -0.003014 0.000000 0.006355 0.000000
# 3 0.001046 -0.003014 0.009482 0.000000 -0.002864 0.000000
# 4 0.000000 0.000000 0.000000 0.041049 0.000000 -0.001900
# 5 -0.027200 0.006355 -0.002864 0.000000 0.063529 0.000000
# 6 0.000000 0.000000 0.000000 -0.001900 0.000000 0.040399
#
#
# Mechanical properties :
#
#
# Convention : Reuss Voigt Hill
#
# Bulk Modulus (GPa) = 28.11306 49.00102 38.55704
# Shear Modulus (GPa) = 20.88711 28.18100 24.53405
#
# Velocity S-wave (km/s) = 3.27460 3.80362 3.54898
# Velocity P-wave (km/s) = 5.36003 6.66679 6.04880
#
# Compressibility (1/GPa) = 0.03557066
#
# Stress axis : x y z
#
# Youngs Moduli (GPa) = 26.40568 85.42008 105.46526
#
# Poissons Ratio (x) = 0.83510 -0.11035
# Poissons Ratio (y) = 0.25815 0.31790
# Poissons Ratio (z) = -0.02763 0.25748
#
# Static dielectric constant tensor:
#      x y z
#    x 3.468680 0.000000 0.031060 
#    y 0.000000 3.425820 0.000000 
#    z 0.031060 0.000000 3.803180 
# 
# 
# High freq. dielectric constant tensor:
#      x y z
#    x 1.753170 0.000000 -0.003470 
#    y 0.000000 1.720160 0.000000 
#    z -0.003470 0.000000 1.773930 
# 
# From -- ./inp_files/306201.got.cif
#   From: 2010.06.25/outbox.cif.g09.slc.cpg/sg12_154_cif.got.tgz:306201.got - 2010.06.28 00:19:55.
