data_PCOD8090470
_publ_section_title
;
Structure prediction by ZEFSAII (Michael W. Deem and Ramdas Pophale) SiO2 
 PCOD8090470
Probable space group: C 2/M
;
_chemical_formula_sum "Si O2"
_cell_formula_units_Z 64
_cell_length_a 19.464460
_cell_length_b 13.506957
_cell_length_c 27.852750
_cell_angle_alpha 90.000000
_cell_angle_beta 152.317943
_cell_angle_gamma 90.000000
_cell_volume 3401.842564
_symmetry_space_group_name_H-M "C 2/M"
_symmetry_group_IT_number 12
_symmetry_cell_setting 'monoclinic'
loop_
_space_group_symop_operation_xyz
x,y,z
-x,y,-z
-x,-y,-z
x,-y,z
1/2+x,1/2+y,z
1/2-x,1/2+y,-z
1/2-x,1/2-y,-z
1/2+x,1/2-y,z
loop_
_atom_site_type_symbol
_atom_site_label
_atom_site_fract_x
_atom_site_fract_y
_atom_site_fract_z
Si Si1 0.360670 0.249232 0.441331
Si Si2 0.574475 0.384275 0.921530
Si Si3 0.394444 0.112611 0.231169
Si Si4 0.630578 0.264306 0.044419
Si Si5 0.519424 0.887444 0.406112
Si Si6 0.080051 0.613022 0.251603
Si Si7 0.347147 0.116750 0.027680
Si Si8 0.758839 0.888872 0.706855
O O1 0.500000 0.301094 0.500000
O O2 0.392296 0.203837 0.514035
O O3 0.223660 0.323115 0.353756
O O4 0.329475 0.150356 0.392880
O O5 0.573004 0.500000 0.915902
O O6 0.416899 0.334156 0.810384
O O7 0.599177 0.359545 0.992267
O O8 0.703516 0.341945 0.967359
O O9 0.273954 0.200466 0.163295
O O10 0.522666 0.129079 0.350694
O O11 0.462577 0.126092 0.220967
O O12 0.330698 0.000000 0.197192
O O13 0.500000 0.238473 0.000000
O O14 0.652075 0.168726 0.023652
O O15 0.344935 0.878774 0.310853
O O16 0.576714 0.000000 0.454588
O O17 0.134553 0.500000 0.281609
O O18 0.995798 0.643077 0.150022
O O19 0.335827 0.000000 0.012003
O O20 0.798603 0.000000 0.719393
#
# Coordination Sequence:
#
# PCOD8090470 Si02
#       8
#     8   8   8   8   8   8   8   8
#     4  10  20  33  54  79 105 138 185 232 276 326
#     4  10  19  33  56  86 115 144 184 230 278 338
#     4  10  21  36  54  80 112 146 180 221 283 342
#     4  12  23  33  55  86 117 150 185 229 278 333
#     4   9  18  34  52  76 115 148 173 215 278 345
#     4  10  21  38  58  77 102 141 189 237 278 323
#     4  10  22  40  59  80 111 154 195 229 272 333
#     4   9  17  29  51  83 112 139 170 215 276 336
#
# _framework density 18.813334000000001
#
# number of rings (size 3 to 8) (size 9 to 14) (size 15 to 20)
#    0.000    2.000    1.250    2.625    1.750    5.500 
#    0.000    0.000    0.000    0.750    0.000    0.000 
#    0.000    0.000    0.000    0.000    0.000    0.000 
#
# Total GULP energy -396470.964861 kJ/mol
# GULP energy per Si atom -12389.717652 kJ/mol
# Density = 1.877051 g / cm^3
# Si number density = 18.813334 Si / 1000 Ang^3
#
#
#
# Elastic Constant Matrix: (Units=GPa)
#
#
# Indices 1 2 3 4 5 6 
#
# 1 65.7607 13.7188 14.4588 -0.0013 -4.5130 0.0010
# 2 13.7188 48.6901 28.6970 -0.0032 4.5974 -0.0008
# 3 14.4588 28.6970 78.1596 0.0000 5.1228 -0.0007
# 4 -0.0013 -0.0032 0.0000 29.7697 -0.0008 1.7015
# 5 -4.5130 4.5974 5.1228 -0.0008 30.3910 0.0001
# 6 0.0010 -0.0008 -0.0007 1.7015 0.0001 18.4696
#
#
#
# Elastic Compliance Matrix: (Units=1/GPa)
#
#
# Indices 1 2 3 4 5 6 
#
# 1 0.016666 -0.003914 -0.001867 0.000000 0.003382 -0.000001
# 2 -0.003914 0.027299 -0.009091 0.000003 -0.003179 0.000001
# 3 -0.001867 -0.009091 0.016589 -0.000001 -0.001698 0.000000
# 4 0.000000 0.000003 -0.000001 0.033769 0.000001 -0.003111
# 5 0.003382 -0.003179 -0.001698 0.000001 0.034174 -0.000001
# 6 -0.000001 0.000001 0.000000 -0.003111 -0.000001 0.054430
#
#
# Mechanical properties :
#
#
# Convention : Reuss Voigt Hill
#
# Bulk Modulus (GPa) = 32.45835 34.03996 33.24916
# Shear Modulus (GPa) = 22.42748 24.77510 23.60129
#
# Velocity S-wave (km/s) = 3.45643 3.63284 3.54573
# Velocity P-wave (km/s) = 5.76364 5.97741 5.87150
#
# Compressibility (1/GPa) = 0.03080871
#
# Stress axis : x y z
#
# Youngs Moduli (GPa) = 60.00258 36.63153 60.28159
#
# Poissons Ratio (x) = 0.14339 0.11258
# Poissons Ratio (y) = 0.23487 0.54799
# Poissons Ratio (z) = 0.11205 0.33300
#
# Static dielectric constant tensor:
#      x y z
#    x 3.591340 0.000000 0.279830 
#    y 0.000000 3.311610 -0.000010 
#    z 0.279830 -0.000010 3.804140 
# 
# 
# High freq. dielectric constant tensor:
#      x y z
#    x 1.717450 0.000000 -0.003420 
#    y 0.000000 1.723660 0.000000 
#    z -0.003420 0.000000 1.733430 
# 
# From -- ./inp_files/278201.got.cif
#   From: 2010.06.25/outbox.cif.g09.slc.cpg/sg12_140_cif.got.tgz:278201.got - 2010.06.28 00:19:55.
