data_PCOD8090896
_publ_section_title
;
Structure prediction by ZEFSAII (Michael W. Deem and Ramdas Pophale) SiO2 
 PCOD8090896
Probable space group: C 2/M
;
_chemical_formula_sum "Si O2"
_cell_formula_units_Z 56
_cell_length_a 23.219620
_cell_length_b 9.400187
_cell_length_c 15.608573
_cell_angle_alpha 90.000000
_cell_angle_beta 116.818604
_cell_angle_gamma 90.000000
_cell_volume 3040.419593
_symmetry_space_group_name_H-M "C 2/M"
_symmetry_group_IT_number 12
_symmetry_cell_setting 'monoclinic'
loop_
_space_group_symop_operation_xyz
x,y,z
-x,y,-z
-x,-y,-z
x,-y,z
1/2+x,1/2+y,z
1/2-x,1/2+y,-z
1/2-x,1/2-y,-z
1/2+x,1/2-y,z
loop_
_atom_site_type_symbol
_atom_site_label
_atom_site_fract_x
_atom_site_fract_y
_atom_site_fract_z
Si Si1 0.471637 0.834190 0.751599
Si Si2 0.831738 0.163185 0.955007
Si Si3 0.557231 0.337553 0.101714
Si Si4 0.270426 0.333498 0.385450
Si Si5 0.722141 0.663810 0.802760
Si Si6 0.401419 0.336029 0.173743
Si Si7 0.155942 0.337110 0.431978
O O1 0.444235 0.767781 0.819967
O O2 0.536460 0.758360 0.763273
O O3 0.418025 0.810749 0.642651
O O4 0.485051 0.000000 0.776386
O O5 0.875072 0.183097 0.900052
O O6 0.766891 0.252420 0.899375
O O7 0.811857 0.000000 0.956186
O O8 0.870092 0.218362 0.063941
O O9 0.548060 0.500000 0.127042
O O10 0.500000 0.294703 0.000000
O O11 0.285376 0.500000 0.396354
O O12 0.269805 0.275772 0.287857
O O13 0.202016 0.295242 0.382953
O O14 0.328367 0.258035 0.475192
O O15 0.743337 0.500000 0.821381
O O16 0.648256 0.683709 0.781757
O O17 0.422939 0.500000 0.178185
O O18 0.168626 0.500000 0.465742
#
# Coordination Sequence:
#
# PCOD8090896 Si02
#       7
#     8   8   8   8   8   8   8
#     4  11  22  35  54  81 110 141 179 223 269 313
#     4  10  20  34  54  78 106 143 182 218 260 317
#     4  10  19  34  53  75 109 144 174 213 261 315
#     4   9  18  35  57  81 105 131 172 219 265 320
#     4  10  21  36  56  79 106 140 179 227 271 309
#     4  10  21  38  54  73 108 149 183 217 262 319
#     4   9  19  35  55  80 109 135 166 216 273 322
#
# _framework density 18.418510999999999
#
# number of rings (size 3 to 8) (size 9 to 14) (size 15 to 20)
#    0.000    2.143    1.429    1.714    0.000    4.857 
#    0.000    3.571    0.000    4.286    0.000    0.000 
#    0.000    0.000    0.000    0.000    0.000    0.000 
#
# Total GULP energy -347306.241023 kJ/mol
# GULP energy per Si atom -12403.794322 kJ/mol
# Density = 1.837659 g / cm^3
# Si number density = 18.418511 Si / 1000 Ang^3
#
#
#
# Elastic Constant Matrix: (Units=GPa)
#
#
# Indices 1 2 3 4 5 6 
#
# 1 75.2459 33.7739 39.9460 0.0000 7.8383 0.0000
# 2 33.7739 67.4655 46.1273 0.0000 12.7606 0.0000
# 3 39.9460 46.1273 91.0018 0.0000 11.8794 0.0000
# 4 0.0000 0.0000 0.0000 31.5767 0.0000 5.8376
# 5 7.8383 12.7606 11.8794 0.0000 25.9237 0.0000
# 6 0.0000 0.0000 0.0000 5.8376 0.0000 28.0753
#
#
#
# Elastic Compliance Matrix: (Units=1/GPa)
#
#
# Indices 1 2 3 4 5 6 
#
# 1 0.018675 -0.005662 -0.005270 0.000000 -0.000445 0.000000
# 2 -0.005662 0.025401 -0.009553 0.000000 -0.006414 0.000000
# 3 -0.005270 -0.009553 0.018424 0.000000 -0.002147 0.000000
# 4 0.000000 0.000000 0.000000 0.032935 0.000000 -0.006848
# 5 -0.000445 -0.006414 -0.002147 0.000000 0.042850 0.000000
# 6 0.000000 0.000000 0.000000 -0.006848 0.000000 0.037042
#
#
# Mechanical properties :
#
#
# Convention : Reuss Voigt Hill
#
# Bulk Modulus (GPa) = 46.44229 52.60084 49.52156
# Shear Modulus (GPa) = 22.37392 24.70619 23.54006
#
# Velocity S-wave (km/s) = 3.48911 3.66646 3.57888
# Velocity P-wave (km/s) = 6.44217 6.82236 6.63499
#
# Compressibility (1/GPa) = 0.02153210
#
# Stress axis : x y z
#
# Youngs Moduli (GPa) = 53.54797 39.36786 54.27566
#
# Poissons Ratio (x) = 0.22289 0.28601
# Poissons Ratio (y) = 0.30318 0.51849
# Poissons Ratio (z) = 0.28217 0.37608
#
# Static dielectric constant tensor:
#      x y z
#    x 3.360300 0.000000 0.001430 
#    y 0.000000 3.329270 0.000000 
#    z 0.001430 0.000000 3.335890 
# 
# 
# High freq. dielectric constant tensor:
#      x y z
#    x 1.714150 0.000000 0.002720 
#    y 0.000000 1.709730 0.000000 
#    z 0.002720 0.000000 1.707230 
# 
# From -- ./inp_files/239006.got.cif
#   From: 2010.06.25/outbox.cif.g09.slc.cpg/sg12_120_cif.got.tgz:239006.got - 2010.06.28 00:19:55.
