data_PCOD8090864
_publ_section_title
;
Structure prediction by ZEFSAII (Michael W. Deem and Ramdas Pophale) SiO2 
 PCOD8090864
Probable space group: C 2/M
;
_chemical_formula_sum "Si O2"
_cell_formula_units_Z 40
_cell_length_a 8.233471
_cell_length_b 20.317355
_cell_length_c 16.714525
_cell_angle_alpha 90.000000
_cell_angle_beta 46.661478
_cell_angle_gamma 90.000000
_cell_volume 2033.595718
_symmetry_space_group_name_H-M "C 2/M"
_symmetry_group_IT_number 12
_symmetry_cell_setting 'monoclinic'
loop_
_space_group_symop_operation_xyz
x,y,z
-x,y,-z
-x,-y,-z
x,-y,z
1/2+x,1/2+y,z
1/2-x,1/2+y,-z
1/2-x,1/2-y,-z
1/2+x,1/2-y,z
loop_
_atom_site_type_symbol
_atom_site_label
_atom_site_fract_x
_atom_site_fract_y
_atom_site_fract_z
Si Si1 0.371943 0.683158 0.624104
Si Si2 0.893551 0.428766 0.950336
Si Si3 0.611475 0.777133 0.235478
Si Si4 0.447998 0.339692 0.861748
Si Si5 0.372522 0.575732 0.738280
O O1 0.500000 0.699598 0.500000
O O2 0.422526 0.740903 0.669053
O O3 0.465292 0.614738 0.629704
O O4 0.106401 0.678518 0.701575
O O5 0.785056 0.500000 0.961879
O O6 0.104593 0.411729 0.823233
O O7 0.718956 0.368060 0.012993
O O8 0.000000 0.439072 0.000000
O O9 0.647534 0.725879 0.149500
O O10 0.823078 0.825454 0.169155
O O11 0.480682 0.395942 0.783331
O O12 0.440982 0.500000 0.708703
#
# Coordination Sequence:
#
# PCOD8090864 Si02
#       5
#     8   8   8   8   8
#     4  10  19  34  53  70  94 125 159 199 241 281
#     4   8  14  28  50  70  92 126 160 189 230 282
#     4   9  19  32  49  75  98 123 157 195 236 285
#     4   9  16  31  50  71  99 127 155 189 236 284
#     4   9  18  33  51  71  95 126 163 196 232 280
#
# _framework density 19.669592999999999
#
# number of rings (size 3 to 8) (size 9 to 14) (size 15 to 20)
#    0.000    3.000    0.000    2.400    0.000    0.400 
#    0.000   30.000    0.000    3.600    0.000    0.000 
#    0.000    0.000    0.000    0.000    0.000    0.000 
#
# Total GULP energy -247825.650112 kJ/mol
# GULP energy per Si atom -12391.282506 kJ/mol
# Density = 1.962482 g / cm^3
# Si number density = 19.669593 Si / 1000 Ang^3
#
#
#
# Elastic Constant Matrix: (Units=GPa)
#
#
# Indices 1 2 3 4 5 6 
#
# 1 60.8176 25.2134 -6.9664 0.0000 -12.1670 0.0000
# 2 25.2134 87.4972 11.5591 0.0000 -13.7456 0.0000
# 3 -6.9664 11.5591 25.7671 0.0000 0.2341 0.0000
# 4 0.0000 0.0000 0.0000 81.4945 0.0000 -3.1916
# 5 -12.1670 -13.7456 0.2341 0.0000 19.2693 0.0000
# 6 0.0000 0.0000 0.0000 -3.1916 0.0000 4.9862
#
#
#
# Elastic Compliance Matrix: (Units=1/GPa)
#
#
# Indices 1 2 3 4 5 6 
#
# 1 0.021739 -0.005900 0.008438 0.000000 0.009415 0.000000
# 2 -0.005900 0.015422 -0.008580 0.000000 0.007380 0.000000
# 3 0.008438 -0.008580 0.044952 0.000000 -0.001339 0.000000
# 4 0.000000 0.000000 0.000000 0.012586 0.000000 0.008056
# 5 0.009415 0.007380 -0.001339 0.000000 0.063122 0.000000
# 6 0.000000 0.000000 0.000000 0.008056 0.000000 0.205712
#
#
# Mechanical properties :
#
#
# Convention : Reuss Voigt Hill
#
# Bulk Modulus (GPa) = 14.27989 25.96601 20.12295
# Shear Modulus (GPa) = 12.53262 30.76840 21.65051
#
# Velocity S-wave (km/s) = 2.52694 3.95937 3.32129
# Velocity P-wave (km/s) = 3.97360 5.84225 4.99607
#
# Compressibility (1/GPa) = 0.07002856
#
# Stress axis : x y z
#
# Youngs Moduli (GPa) = 46.00093 64.84236 22.24603
#
# Poissons Ratio (x) = 0.38257 -0.18772
# Poissons Ratio (y) = 0.27140 0.19088
# Poissons Ratio (z) = -0.38817 0.55638
#
# Static dielectric constant tensor:
#      x y z
#    x 3.507720 0.000000 -0.019310 
#    y 0.000000 3.660390 0.000000 
#    z -0.019310 0.000000 3.558610 
# 
# 
# High freq. dielectric constant tensor:
#      x y z
#    x 1.750280 0.000000 0.008480 
#    y 0.000000 1.768610 0.000000 
#    z 0.008480 0.000000 1.740930 
# 
# From -- ./inp_files/120042.got.cif
#   From: 2010.06.25/outbox.cif.g09.slc.cpg/sg12_61_cif.got.tgz:120042.got - 2010.06.28 00:19:55.
