data_PCOD8090615
_publ_section_title
;
Structure prediction by ZEFSAII (Michael W. Deem and Ramdas Pophale) SiO2 
 PCOD8090615
Probable space group: C 2/M
;
_chemical_formula_sum "Si O2"
_cell_formula_units_Z 64
_cell_length_a 14.809458
_cell_length_b 17.249901
_cell_length_c 12.517204
_cell_angle_alpha 90.000000
_cell_angle_beta 71.153353
_cell_angle_gamma 90.000000
_cell_volume 3026.228193
_symmetry_space_group_name_H-M "C 2/M"
_symmetry_group_IT_number 12
_symmetry_cell_setting 'monoclinic'
loop_
_space_group_symop_operation_xyz
x,y,z
-x,y,-z
-x,-y,-z
x,-y,z
1/2+x,1/2+y,z
1/2-x,1/2+y,-z
1/2-x,1/2-y,-z
1/2+x,1/2-y,z
loop_
_atom_site_type_symbol
_atom_site_label
_atom_site_fract_x
_atom_site_fract_y
_atom_site_fract_z
Si Si1 0.171277 0.911880 0.402191
Si Si2 0.107473 0.907571 0.649976
Si Si3 0.265130 0.912986 0.741010
Si Si4 0.384421 0.198205 0.052313
Si Si5 0.778501 0.151209 0.032373
Si Si6 0.378091 0.089388 0.259334
Si Si7 0.599736 0.408339 0.208018
Si Si8 0.971575 0.407378 0.627315
O O1 0.119388 0.873357 0.525070
O O2 0.284949 0.907007 0.370100
O O3 0.142493 0.872861 0.301043
O O4 0.134638 0.000000 0.409256
O O5 0.190715 0.870873 0.690717
O O6 0.010533 0.884058 0.746249
O O7 0.115010 0.000000 0.641161
O O8 0.228303 0.915849 0.877110
O O9 0.367619 0.872000 0.692475
O O10 0.277037 0.000000 0.695215
O O11 0.324262 0.277935 0.083666
O O12 0.365771 0.142488 0.160018
O O13 0.500000 0.209095 0.000000
O O14 0.330691 0.161081 0.969166
O O15 0.851524 0.132724 0.910256
O O16 0.460662 0.123185 0.303680
O O17 0.396107 0.000000 0.215102
O O18 0.617108 0.500000 0.190462
O O19 0.975879 0.500000 0.627527
O O20 0.000000 0.375480 0.500000
#
# Coordination Sequence:
#
# PCOD8090615 Si02
#       8
#     8   8   8   8   8   8   8   8
#     4   9  16  30  53  85 120 146 182 236 288 341
#     4   9  18  30  51  86 121 153 186 228 285 341
#     4  10  20  34  55  86 120 152 192 241 285 342
#     4  11  25  42  59  82 109 154 195 240 292 347
#     4  11  24  40  58  84 113 158 198 237 293 344
#     4  10  19  34  60  90 116 149 191 241 297 352
#     4  10  19  33  57  88 120 152 192 240 286 341
#     4   9  17  31  56  91 124 153 189 239 298 350
#
# _framework density 21.148437999999999
#
# number of rings (size 3 to 8) (size 9 to 14) (size 15 to 20)
#    0.000    2.125    1.250    2.250    1.750    5.250 
#    0.000    1.875    0.000    3.000    0.000    0.000 
#    0.000    0.000    0.000    0.000    0.000    0.500 
#
# Total GULP energy -396438.174186 kJ/mol
# GULP energy per Si atom -12388.692943 kJ/mol
# Density = 2.110030 g / cm^3
# Si number density = 21.148438 Si / 1000 Ang^3
#
#
#
# Elastic Constant Matrix: (Units=GPa)
#
#
# Indices 1 2 3 4 5 6 
#
# 1 160.6047 29.5524 65.9723 0.0000 8.6546 0.0000
# 2 29.5524 31.6148 25.5339 0.0000 7.4304 0.0000
# 3 65.9723 25.5339 150.7234 0.0000 5.4080 0.0000
# 4 0.0000 0.0000 0.0000 6.4854 0.0000 5.0221
# 5 8.6546 7.4304 5.4080 0.0000 31.9989 0.0000
# 6 0.0000 0.0000 0.0000 5.0221 0.0000 19.6833
#
#
#
# Elastic Compliance Matrix: (Units=1/GPa)
#
#
# Indices 1 2 3 4 5 6 
#
# 1 0.008387 -0.005522 -0.002717 0.000000 -0.000527 0.000000
# 2 -0.005522 0.042164 -0.004455 0.000000 -0.007544 0.000000
# 3 -0.002717 -0.004455 0.008567 0.000000 0.000321 0.000000
# 4 0.000000 0.000000 0.000000 0.192157 0.000000 -0.049028
# 5 -0.000527 -0.007544 0.000321 0.000000 0.033091 0.000000
# 6 0.000000 0.000000 0.000000 -0.049028 0.000000 0.063313
#
#
# Mechanical properties :
#
#
# Convention : Reuss Voigt Hill
#
# Bulk Modulus (GPa) = 29.64702 65.00669 47.32685
# Shear Modulus (GPa) = 13.01032 26.42582 19.71807
#
# Velocity S-wave (km/s) = 2.48299 3.53872 3.05678
# Velocity P-wave (km/s) = 4.71904 6.89215 5.90640
#
# Compressibility (1/GPa) = 0.03373021
#
# Stress axis : x y z
#
# Youngs Moduli (GPa) = 119.23469 23.71702 116.72728
#
# Poissons Ratio (x) = 0.13096 0.31710
# Poissons Ratio (y) = 0.65839 0.52006
# Poissons Ratio (z) = 0.32391 0.10567
#
# Static dielectric constant tensor:
#      x y z
#    x 4.237440 0.000000 0.066210 
#    y 0.000000 3.260430 0.000000 
#    z 0.066210 0.000000 3.801530 
# 
# 
# High freq. dielectric constant tensor:
#      x y z
#    x 1.851910 0.000000 0.004130 
#    y 0.000000 1.767190 0.000000 
#    z 0.004130 0.000000 1.837100 
# 
# From -- ./inp_files/147623.got.cif
#   From: 2010.06.25/outbox.cif.g09.slc.cpg/sg12_74_cif.got.tgz:147623.got - 2010.06.28 00:19:55.
