data_PCOD8090719
_publ_section_title
;
Structure prediction by ZEFSAII (Michael W. Deem and Ramdas Pophale) SiO2 
 PCOD8090719
Probable space group: C 2/M
;
_chemical_formula_sum "Si O2"
_cell_formula_units_Z 48
_cell_length_a 14.300027
_cell_length_b 19.088667
_cell_length_c 9.755046
_cell_angle_alpha 90.000000
_cell_angle_beta 81.318602
_cell_angle_gamma 90.000000
_cell_volume 2632.311745
_symmetry_space_group_name_H-M "C 2/M"
_symmetry_group_IT_number 12
_symmetry_cell_setting 'monoclinic'
loop_
_space_group_symop_operation_xyz
x,y,z
-x,y,-z
-x,-y,-z
x,-y,z
1/2+x,1/2+y,z
1/2-x,1/2+y,-z
1/2-x,1/2-y,-z
1/2+x,1/2-y,z
loop_
_atom_site_type_symbol
_atom_site_label
_atom_site_fract_x
_atom_site_fract_y
_atom_site_fract_z
Si Si1 0.304352 0.582471 0.595286
Si Si2 0.500000 0.885992 0.500000
Si Si3 0.957626 0.275252 0.300009
Si Si4 0.153906 0.687950 0.137019
Si Si5 0.809557 0.423277 0.649532
Si Si6 0.784353 0.686210 0.171362
Si Si7 0.000000 0.844428 0.500000
O O1 0.299928 0.500000 0.626652
O O2 0.250239 0.602199 0.467741
O O3 0.253033 0.620843 0.733016
O O4 0.412293 0.606433 0.557050
O O5 0.439532 0.836264 0.413393
O O6 0.421140 0.932654 0.590878
O O7 0.862938 0.267882 0.232633
O O8 0.043059 0.300904 0.185012
O O9 0.977449 0.202240 0.371678
O O10 0.202997 0.632678 0.227865
O O11 0.197869 0.763723 0.154251
O O12 0.170654 0.658630 0.980658
O O13 0.773749 0.500000 0.705725
#
# Coordination Sequence:
#
# PCOD8090719 Si02
#       7
#     8   4   8   8   8   8   4
#     4  11  23  38  59  85 116 153 193 238 284 339
#     4   9  17  30  54  82 108 140 174 222 280 328
#     4  10  19  33  59  86 112 142 186 238 284 333
#     4  10  22  36  56  85 111 153 188 236 287 335
#     4  10  20  35  55  81 113 149 187 226 279 340
#     4  11  21  38  57  82 118 146 193 236 284 341
#     4  11  21  36  60  88 114 146 194 246 288 330
#
# _framework density 18.234922000000001
#
# number of rings (size 3 to 8) (size 9 to 14) (size 15 to 20)
#    0.000    1.667    3.333    2.000    0.000    2.000 
#    0.000    0.000    0.000    3.000    0.000    5.833 
#    0.000    0.000    0.000    0.000    0.000    0.000 
#
# Total GULP energy -297573.240542 kJ/mol
# GULP energy per Si atom -12398.885023 kJ/mol
# Density = 1.819342 g / cm^3
# Si number density = 18.234922 Si / 1000 Ang^3
#
#
#
# Elastic Constant Matrix: (Units=GPa)
#
#
# Indices 1 2 3 4 5 6 
#
# 1 83.5458 25.2917 35.5677 0.0000 2.0243 0.0000
# 2 25.2917 78.9723 45.1193 0.0000 -4.0625 0.0000
# 3 35.5677 45.1193 115.3825 0.0000 -4.9841 0.0000
# 4 0.0000 0.0000 0.0000 24.6418 0.0000 5.6075
# 5 2.0243 -4.0625 -4.9841 0.0000 26.9875 0.0000
# 6 0.0000 0.0000 0.0000 5.6075 0.0000 15.3540
#
#
#
# Elastic Compliance Matrix: (Units=1/GPa)
#
#
# Indices 1 2 3 4 5 6 
#
# 1 0.014310 -0.002729 -0.003435 0.000000 -0.002119 0.000000
# 2 -0.002729 0.016871 -0.005683 0.000000 0.001695 0.000000
# 3 -0.003435 -0.005683 0.012018 0.000000 0.001622 0.000000
# 4 0.000000 0.000000 0.000000 0.044260 0.000000 -0.016164
# 5 -0.002119 0.001695 0.001622 0.000000 0.037768 0.000000
# 6 0.000000 0.000000 0.000000 -0.016164 0.000000 0.071033
#
#
# Mechanical properties :
#
#
# Convention : Reuss Voigt Hill
#
# Bulk Modulus (GPa) = 51.27159 54.42869 52.85014
# Shear Modulus (GPa) = 22.07958 24.85813 23.46885
#
# Velocity S-wave (km/s) = 3.48349 3.69618 3.59141
# Velocity P-wave (km/s) = 6.66017 6.93751 6.80026
#
# Compressibility (1/GPa) = 0.01950398
#
# Stress axis : x y z
#
# Youngs Moduli (GPa) = 69.88363 59.27504 83.20847
#
# Poissons Ratio (x) = 0.16176 0.28585
# Poissons Ratio (y) = 0.19071 0.47284
# Poissons Ratio (z) = 0.24008 0.33684
#
# Static dielectric constant tensor:
#      x y z
#    x 3.343180 0.000000 0.013600 
#    y 0.000000 3.180390 0.000000 
#    z 0.013600 0.000000 3.465090 
# 
# 
# High freq. dielectric constant tensor:
#      x y z
#    x 1.715310 0.000000 0.001100 
#    y 0.000000 1.699580 0.000000 
#    z 0.001100 0.000000 1.702980 
# 
# From -- ./inp_files/61757.got.cif
#   From: 2010.06.25/outbox.cif.g09.slc.cpg/sg12_31_cif.got.tgz:61757.got - 2010.06.28 00:19:55.
