data_PCOD8090182
_publ_section_title
;
Structure prediction by ZEFSAII (Michael W. Deem and Ramdas Pophale) SiO2 
 PCOD8090182
Probable space group: C 2/M
;
_chemical_formula_sum "Si O2"
_cell_formula_units_Z 64
_cell_length_a 16.840343
_cell_length_b 13.606484
_cell_length_c 27.231304
_cell_angle_alpha 90.000000
_cell_angle_beta 34.305690
_cell_angle_gamma 90.000000
_cell_volume 3516.758140
_symmetry_space_group_name_H-M "C 2/M"
_symmetry_group_IT_number 12
_symmetry_cell_setting 'monoclinic'
loop_
_space_group_symop_operation_xyz
x,y,z
-x,y,-z
-x,-y,-z
x,-y,z
1/2+x,1/2+y,z
1/2-x,1/2+y,-z
1/2-x,1/2-y,-z
1/2+x,1/2-y,z
loop_
_atom_site_type_symbol
_atom_site_label
_atom_site_fract_x
_atom_site_fract_y
_atom_site_fract_z
Si Si1 0.664029 0.109014 0.907795
Si Si2 0.304359 0.740467 0.026801
Si Si3 0.634578 0.113830 0.645854
Si Si4 0.718171 0.886293 0.304402
Si Si5 0.864618 0.218428 0.145649
Si Si6 0.340122 0.772078 0.570649
Si Si7 0.171935 0.385838 0.170333
Si Si8 0.102264 0.389764 0.551703
O O1 0.690461 0.173983 0.844805
O O2 0.732474 0.000000 0.866614
O O3 0.500000 0.096790 0.000000
O O4 0.727802 0.162936 0.923429
O O5 0.468095 0.713129 0.944668
O O6 0.250000 0.750000 0.000000
O O7 0.213778 0.651982 0.095329
O O8 0.746435 0.174252 0.620959
O O9 0.479351 0.157402 0.736142
O O10 0.669309 0.128522 0.570648
O O11 0.648147 0.000000 0.654121
O O12 0.821083 0.810596 0.223164
O O13 0.714409 0.852850 0.362821
O O14 0.565391 0.874804 0.358069
O O15 0.769976 0.000000 0.275026
O O16 0.795679 0.138195 0.145284
O O17 0.500000 0.741480 0.500000
O O18 0.325690 0.817743 0.523897
O O19 0.154133 0.500000 0.176403
O O20 0.132348 0.500000 0.517936
#
# Coordination Sequence:
#
# PCOD8090182 Si02
#       8
#     8   8   8   8   8   8   8   8
#     4   8  16  34  55  73  97 138 185 221 254 303
#     4  10  22  34  53  81 111 143 175 221 270 322
#     4  10  20  35  57  79 106 145 183 224 267 321
#     4  10  19  33  55  83 113 139 174 225 279 323
#     4  10  19  34  57  79 104 143 184 223 260 313
#     4  10  21  34  54  82 111 145 175 219 277 331
#     4  10  20  36  56  79 106 141 183 225 270 319
#     4   9  17  34  58  82 104 136 181 221 269 328
#
# _framework density 18.198578000000001
#
# number of rings (size 3 to 8) (size 9 to 14) (size 15 to 20)
#    0.000    2.375    1.250    2.250    1.750    3.750 
#    0.000    0.625    0.000    1.500    0.000    0.000 
#    0.000    0.000    0.000    0.000    0.000    0.000 
#
# Total GULP energy -396691.897411 kJ/mol
# GULP energy per Si atom -12396.621794 kJ/mol
# Density = 1.815716 g / cm^3
# Si number density = 18.198578 Si / 1000 Ang^3
#
#
#
# Elastic Constant Matrix: (Units=GPa)
#
#
# Indices 1 2 3 4 5 6 
#
# 1 80.9432 41.7489 40.7414 0.0000 1.0739 0.0000
# 2 41.7489 101.9833 51.6487 -0.0001 -5.3819 0.0000
# 3 40.7414 51.6487 92.8925 -0.0003 7.4732 0.0001
# 4 0.0000 -0.0001 -0.0003 27.4532 0.0001 -0.0449
# 5 1.0739 -5.3819 7.4732 0.0001 16.2086 -0.0001
# 6 0.0000 0.0000 0.0001 -0.0449 -0.0001 24.3528
#
#
#
# Elastic Compliance Matrix: (Units=1/GPa)
#
#
# Indices 1 2 3 4 5 6 
#
# 1 0.017214 -0.004531 -0.005004 0.000000 -0.000338 0.000000
# 2 -0.004531 0.016021 -0.007657 0.000000 0.009150 0.000000
# 3 -0.005004 -0.007657 0.018065 0.000000 -0.010540 0.000000
# 4 0.000000 0.000000 0.000000 0.036426 0.000000 0.000067
# 5 -0.000338 0.009150 -0.010540 0.000000 0.069616 0.000000
# 6 0.000000 0.000000 0.000000 0.000067 0.000000 0.041063
#
#
# Mechanical properties :
#
#
# Convention : Reuss Voigt Hill
#
# Bulk Modulus (GPa) = 59.10970 60.45522 59.78246
# Shear Modulus (GPa) = 20.97093 23.04826 22.00960
#
# Velocity S-wave (km/s) = 3.39829 3.56263 3.48143
# Velocity P-wave (km/s) = 6.92451 7.08626 7.00585
#
# Compressibility (1/GPa) = 0.01691770
#
# Stress axis : x y z
#
# Youngs Moduli (GPa) = 58.09164 62.41884 55.35668
#
# Poissons Ratio (x) = 0.28281 0.27698
# Poissons Ratio (y) = 0.26320 0.42385
# Poissons Ratio (z) = 0.29067 0.47792
#
# Static dielectric constant tensor:
#      x y z
#    x 3.215260 0.000000 0.113450 
#    y 0.000000 3.514410 0.000000 
#    z 0.113450 0.000000 3.565350 
# 
# 
# High freq. dielectric constant tensor:
#      x y z
#    x 1.694040 0.000000 0.010250 
#    y 0.000000 1.701020 0.000000 
#    z 0.010250 0.000000 1.699500 
# 
# From -- ./inp_files/340141.got.cif
#   From: 2010.06.25/outbox.cif.g09.slc.cpg/sg12_171_cif.got.tgz:340141.got - 2010.06.28 00:19:55.
