data_PCOD8090618
_publ_section_title
;
Structure prediction by ZEFSAII (Michael W. Deem and Ramdas Pophale) SiO2 
 PCOD8090618
Probable space group: C 2/M
;
_chemical_formula_sum "Si O2"
_cell_formula_units_Z 56
_cell_length_a 25.146265
_cell_length_b 8.562068
_cell_length_c 17.319808
_cell_angle_alpha 90.000000
_cell_angle_beta 133.445825
_cell_angle_gamma 90.000000
_cell_volume 2707.364652
_symmetry_space_group_name_H-M "C 2/M"
_symmetry_group_IT_number 12
_symmetry_cell_setting 'monoclinic'
loop_
_space_group_symop_operation_xyz
x,y,z
-x,y,-z
-x,-y,-z
x,-y,z
1/2+x,1/2+y,z
1/2-x,1/2+y,-z
1/2-x,1/2-y,-z
1/2+x,1/2-y,z
loop_
_atom_site_type_symbol
_atom_site_label
_atom_site_fract_x
_atom_site_fract_y
_atom_site_fract_z
Si Si1 0.178632 0.682532 0.094582
Si Si2 0.335150 0.316508 0.193446
Si Si3 0.667412 0.182812 0.520310
Si Si4 0.578926 0.815825 0.285838
Si Si5 0.179692 0.184323 0.264541
Si Si6 0.085725 0.178490 0.577116
Si Si7 0.580262 0.315410 0.870914
O O1 0.176614 0.500000 0.112366
O O2 0.249465 0.726504 0.113315
O O3 0.181492 0.777978 0.176246
O O4 0.106999 0.731781 0.975664
O O5 0.348937 0.500000 0.206526
O O6 0.375940 0.246889 0.309234
O O7 0.371133 0.247655 0.151571
O O8 0.637782 0.243782 0.408371
O O9 0.746806 0.253523 0.621506
O O10 0.608034 0.224537 0.525061
O O11 0.676373 0.000000 0.526111
O O12 0.610097 0.769208 0.233356
O O13 0.503758 0.726486 0.227279
O O14 0.564658 0.000000 0.276384
O O15 0.171855 0.000000 0.268042
O O16 0.000000 0.192763 0.500000
O O17 0.111135 0.000000 0.590806
O O18 0.589543 0.500000 0.889463
#
# Coordination Sequence:
#
# PCOD8090618 Si02
#       7
#     8   8   8   8   8   8   8
#     4  11  22  40  64  91 123 161 203 250 303 361
#     4   9  19  36  59  89 123 159 201 245 296 357
#     4  10  22  39  60  89 124 157 199 249 301 359
#     4  11  24  42  62  89 123 161 202 250 307 363
#     4  11  23  41  64  92 121 158 205 252 302 359
#     4  10  19  33  57  88 123 163 202 241 292 356
#     4  11  23  41  63  90 123 160 204 254 302 357
#
# _framework density 20.684321000000001
#
# number of rings (size 3 to 8) (size 9 to 14) (size 15 to 20)
#    0.000    1.571    1.429    3.429    0.000    3.714 
#    0.000    6.429    0.000    0.000    0.000    0.000 
#    0.000    0.000    0.000    0.000    0.000    0.000 
#
# Total GULP energy -347305.613627 kJ/mol
# GULP energy per Si atom -12403.771915 kJ/mol
# Density = 2.063724 g / cm^3
# Si number density = 20.684321 Si / 1000 Ang^3
#
#
#
# Elastic Constant Matrix: (Units=GPa)
#
#
# Indices 1 2 3 4 5 6 
#
# 1 117.5230 14.7812 31.7200 0.0000 -5.5645 0.0000
# 2 14.7812 27.1493 23.4198 0.0000 -0.0373 0.0000
# 3 31.7200 23.4198 98.7400 0.0000 -9.1180 0.0000
# 4 0.0000 0.0000 0.0000 26.1311 0.0000 -2.9232
# 5 -5.5645 -0.0373 -9.1180 0.0000 23.0728 0.0000
# 6 0.0000 0.0000 0.0000 -2.9232 0.0000 25.3492
#
#
#
# Elastic Compliance Matrix: (Units=1/GPa)
#
#
# Indices 1 2 3 4 5 6 
#
# 1 0.009580 -0.003363 -0.002145 0.000000 0.001457 0.000000
# 2 -0.003363 0.047929 -0.010748 0.000000 -0.004981 0.000000
# 3 -0.002145 -0.010748 0.013821 0.000000 0.004927 0.000000
# 4 0.000000 0.000000 0.000000 0.038769 0.000000 0.004471
# 5 0.001457 -0.004981 0.004927 0.000000 0.045631 0.000000
# 6 0.000000 0.000000 0.000000 0.004471 0.000000 0.039965
#
#
# Mechanical properties :
#
#
# Convention : Reuss Voigt Hill
#
# Bulk Modulus (GPa) = 25.76147 42.58380 34.17263
# Shear Modulus (GPa) = 20.73433 26.47670 23.60551
#
# Velocity S-wave (km/s) = 3.16953 3.58164 3.38187
# Velocity P-wave (km/s) = 5.08687 6.14299 5.63971
#
# Compressibility (1/GPa) = 0.03881765
#
# Stress axis : x y z
#
# Youngs Moduli (GPa) = 104.38430 20.86424 72.35386
#
# Poissons Ratio (x) = 0.07017 0.15522
# Poissons Ratio (y) = 0.35106 0.77763
# Poissons Ratio (z) = 0.22393 0.22424
#
# Static dielectric constant tensor:
#      x y z
#    x 3.738740 0.000000 -0.032980 
#    y 0.000000 3.515140 0.000000 
#    z -0.032980 0.000000 3.909190 
# 
# 
# High freq. dielectric constant tensor:
#      x y z
#    x 1.817040 0.000000 -0.001320 
#    y 0.000000 1.791910 0.000000 
#    z -0.001320 0.000000 1.820040 
# 
# From -- ./inp_files/288226.got.cif
#   From: 2010.06.25/outbox.cif.g09.slc.cpg/sg12_145_cif.got.tgz:288226.got - 2010.06.28 00:19:55.
