data_PCOD8090932
_publ_section_title
;
Structure prediction by ZEFSAII (Michael W. Deem and Ramdas Pophale) SiO2 
 PCOD8090932
Probable space group: C 2/M
;
_chemical_formula_sum "Si O2"
_cell_formula_units_Z 64
_cell_length_a 28.538533
_cell_length_b 8.921988
_cell_length_c 14.435947
_cell_angle_alpha 90.000000
_cell_angle_beta 86.662391
_cell_angle_gamma 90.000000
_cell_volume 3669.452666
_symmetry_space_group_name_H-M "C 2/M"
_symmetry_group_IT_number 12
_symmetry_cell_setting 'monoclinic'
loop_
_space_group_symop_operation_xyz
x,y,z
-x,y,-z
-x,-y,-z
x,-y,z
1/2+x,1/2+y,z
1/2-x,1/2+y,-z
1/2-x,1/2-y,-z
1/2+x,1/2-y,z
loop_
_atom_site_type_symbol
_atom_site_label
_atom_site_fract_x
_atom_site_fract_y
_atom_site_fract_z
Si Si1 0.050159 0.676097 0.525478
Si Si2 0.093589 0.327985 0.056131
Si Si3 0.594614 0.824923 0.334283
Si Si4 0.639040 0.176730 0.865989
Si Si5 0.526852 0.323060 0.198994
Si Si6 0.674711 0.830357 0.195002
Si Si7 0.241209 0.322922 0.901876
Si Si8 0.065696 0.322450 0.728315
O O1 0.043837 0.500000 0.537416
O O2 0.089719 0.713617 0.443786
O O3 0.066420 0.741101 0.622900
O O4 0.000000 0.745526 0.500000
O O5 0.076718 0.500000 0.054149
O O6 0.051226 0.229858 0.101284
O O7 0.139609 0.312378 0.113656
O O8 0.107165 0.261830 0.954200
O O9 0.555611 0.731944 0.284686
O O10 0.646969 0.784783 0.292650
O O11 0.584214 0.000000 0.315348
O O12 0.692077 0.238807 0.865801
O O13 0.615082 0.221542 0.771227
O O14 0.641490 0.000000 0.878328
O O15 0.523821 0.500000 0.200778
O O16 0.475163 0.254521 0.208357
O O17 0.718710 0.721444 0.176207
O O18 0.693491 0.000000 0.199214
O O19 0.240846 0.500000 0.915283
O O20 0.250000 0.250000 0.000000
O O21 0.057667 0.500000 0.731968
#
# Coordination Sequence:
#
# PCOD8090932 Si02
#       8
#     8   8   8   8   8   8   8   8
#     4   9  15  27  53  81  95 118 168 215 244 279
#     4   9  17  33  51  68  97 133 171 202 236 290
#     4   9  17  32  52  74 101 130 163 205 245 291
#     4   9  19  34  52  73  96 129 170 208 243 292
#     4  11  21  31  45  72 105 133 166 201 244 294
#     4   9  17  30  50  74  99 127 161 202 247 289
#     4  11  20  33  52  75 100 127 165 206 247 291
#     4  10  19  34  54  72  96 131 170 207 247 289
#
# _framework density 17.441293000000002
#
# number of rings (size 3 to 8) (size 9 to 14) (size 15 to 20)
#    0.000    2.375    2.500    2.250    0.000    2.500 
#    0.000    5.625    0.000    0.750    0.000    0.000 
#    0.000    0.000    0.000    0.000    0.000    0.375 
#
# Total GULP energy -396701.339997 kJ/mol
# GULP energy per Si atom -12396.916875 kJ/mol
# Density = 1.740160 g / cm^3
# Si number density = 17.441293 Si / 1000 Ang^3
#
#
#
# Elastic Constant Matrix: (Units=GPa)
#
#
# Indices 1 2 3 4 5 6 
#
# 1 123.1494 39.6095 72.8154 0.0000 -5.1258 0.0000
# 2 39.6095 53.4689 23.7129 0.0000 -1.3492 0.0000
# 3 72.8154 23.7129 129.1496 0.0000 -5.0788 0.0000
# 4 0.0000 0.0000 0.0000 11.8538 0.0000 -6.0095
# 5 -5.1258 -1.3492 -5.0788 0.0000 24.5523 0.0000
# 6 0.0000 0.0000 0.0000 -6.0095 0.0000 22.0546
#
#
#
# Elastic Compliance Matrix: (Units=1/GPa)
#
#
# Indices 1 2 3 4 5 6 
#
# 1 0.014726 -0.007857 -0.006812 0.000000 0.001234 0.000000
# 2 -0.007857 0.024556 -0.000091 0.000000 -0.000310 0.000000
# 3 -0.006812 -0.000091 0.011639 0.000000 0.000980 0.000000
# 4 0.000000 0.000000 0.000000 0.097883 0.000000 0.026671
# 5 0.001234 -0.000310 0.000980 0.000000 0.041173 0.000000
# 6 0.000000 0.000000 0.000000 0.026671 0.000000 0.052610
#
#
# Mechanical properties :
#
#
# Convention : Reuss Voigt Hill
#
# Bulk Modulus (GPa) = 46.72646 64.22706 55.47676
# Shear Modulus (GPa) = 17.90585 23.00080 20.45333
#
# Velocity S-wave (km/s) = 3.20759 3.63541 3.42818
# Velocity P-wave (km/s) = 6.36923 7.38419 6.89541
#
# Compressibility (1/GPa) = 0.02140115
#
# Stress axis : x y z
#
# Youngs Moduli (GPa) = 67.90580 40.72407 85.92065
#
# Poissons Ratio (x) = 0.31998 0.58526
# Poissons Ratio (y) = 0.53355 0.00781
# Poissons Ratio (z) = 0.46255 0.00370
#
# Static dielectric constant tensor:
#      x y z
#    x 3.276340 0.000000 -0.140970 
#    y 0.000000 2.953490 0.000000 
#    z -0.140970 0.000000 3.436300 
# 
# 
# High freq. dielectric constant tensor:
#      x y z
#    x 1.660010 0.000000 -0.016110 
#    y 0.000000 1.643360 0.000000 
#    z -0.016110 0.000000 1.671410 
# 
# From -- ./inp_files/243928.got.cif
#   From: 2010.06.25/outbox.cif.g09.slc.cpg/sg12_122_cif.got.tgz:243928.got - 2010.06.28 00:19:55.
