data_PCOD8090858
_publ_section_title
;
Structure prediction by ZEFSAII (Michael W. Deem and Ramdas Pophale) SiO2 
 PCOD8090858
Probable space group: C 2/M
;
_chemical_formula_sum "Si O2"
_cell_formula_units_Z 48
_cell_length_a 29.228720
_cell_length_b 16.665486
_cell_length_c 9.985719
_cell_angle_alpha 90.000000
_cell_angle_beta 31.531198
_cell_angle_gamma 90.000000
_cell_volume 2543.770238
_symmetry_space_group_name_H-M "C 2/M"
_symmetry_group_IT_number 12
_symmetry_cell_setting 'monoclinic'
loop_
_space_group_symop_operation_xyz
x,y,z
-x,y,-z
-x,-y,-z
x,-y,z
1/2+x,1/2+y,z
1/2-x,1/2+y,-z
1/2-x,1/2-y,-z
1/2+x,1/2-y,z
loop_
_atom_site_type_symbol
_atom_site_label
_atom_site_fract_x
_atom_site_fract_y
_atom_site_fract_z
Si Si1 0.665503 0.747364 0.554171
Si Si2 0.658709 0.711086 0.272161
Si Si3 0.630174 0.088259 0.536966
Si Si4 0.983709 0.336039 0.397377
Si Si5 0.366092 0.275642 0.080696
Si Si6 0.669557 0.410210 0.032146
O O1 0.641902 0.704185 0.473360
O O2 0.628066 0.839397 0.649413
O O3 0.620311 0.704196 0.794464
O O4 0.769317 0.740984 0.305457
O O5 0.584678 0.766799 0.394874
O O6 0.750000 0.750000 0.000000
O O7 0.645959 0.623969 0.237705
O O8 0.556973 0.100614 0.605370
O O9 0.725811 0.091906 0.233582
O O10 0.614374 0.000000 0.642441
O O11 0.000000 0.379830 0.500000
O O12 0.070111 0.295569 0.121217
O O13 0.376218 0.356877 0.969437
O O14 0.632549 0.500000 0.110257
#
# Coordination Sequence:
#
# PCOD8090858 Si02
#       6
#     8   8   8   8   8   8
#     4   9  19  34  57  73 105 146 185 213 252 328
#     4  11  17  34  53  79 103 141 183 214 255 323
#     4   9  19  33  52  78 110 144 174 216 269 315
#     4  11  19  30  55  80 108 138 182 224 258 318
#     4  10  19  34  52  82 102 140 182 219 264 309
#     4  10  19  35  57  79 107 142 180 220 268 316
#
# _framework density 18.869629
#
# number of rings (size 3 to 8) (size 9 to 14) (size 15 to 20)
#    0.000    2.000    6.667    0.000    0.000    3.000 
#    0.000    4.167    0.000    2.000    0.000    5.833 
#    0.000    0.000    0.000    0.000    0.000    0.000 
#
# Total GULP energy -297374.540887 kJ/mol
# GULP energy per Si atom -12390.605870 kJ/mol
# Density = 1.882668 g / cm^3
# Si number density = 18.869629 Si / 1000 Ang^3
#
#
#
# Elastic Constant Matrix: (Units=GPa)
#
#
# Indices 1 2 3 4 5 6 
#
# 1 116.8577 43.1185 29.4782 0.0000 20.7619 0.0000
# 2 43.1185 107.3359 19.6093 0.0000 13.9865 0.0000
# 3 29.4782 19.6093 43.7224 0.0000 3.9937 0.0000
# 4 0.0000 0.0000 0.0000 11.1950 0.0000 -0.5272
# 5 20.7619 13.9865 3.9937 0.0000 33.4354 0.0000
# 6 0.0000 0.0000 0.0000 -0.5272 0.0000 23.4587
#
#
#
# Elastic Compliance Matrix: (Units=1/GPa)
#
#
# Indices 1 2 3 4 5 6 
#
# 1 0.012290 -0.003036 -0.006413 0.000000 -0.005595 0.000000
# 2 -0.003036 0.011383 -0.002826 0.000000 -0.002539 0.000000
# 3 -0.006413 -0.002826 0.028300 0.000000 0.001784 0.000000
# 4 0.000000 0.000000 0.000000 0.089420 0.000000 0.002010
# 5 -0.005595 -0.002539 0.001784 0.000000 0.034232 0.000000
# 6 0.000000 0.000000 0.000000 0.002010 0.000000 0.042673
#
#
# Mechanical properties :
#
#
# Convention : Reuss Voigt Hill
#
# Bulk Modulus (GPa) = 36.46749 50.25868 43.36308
# Shear Modulus (GPa) = 19.84208 25.33182 22.58695
#
# Velocity S-wave (km/s) = 3.24626 3.66794 3.46352
# Velocity P-wave (km/s) = 5.78091 6.68064 6.24699
#
# Compressibility (1/GPa) = 0.02742169
#
# Stress axis : x y z
#
# Youngs Moduli (GPa) = 81.37007 87.84683 35.33572
#
# Poissons Ratio (x) = 0.26672 0.22661
# Poissons Ratio (y) = 0.24706 0.09987
# Poissons Ratio (z) = 0.52182 0.24829
#
# Static dielectric constant tensor:
#      x y z
#    x 3.823790 0.000000 0.007450 
#    y 0.000000 3.515610 0.000000 
#    z 0.007450 0.000000 3.458080 
# 
# 
# High freq. dielectric constant tensor:
#      x y z
#    x 1.741170 0.000000 -0.003760 
#    y 0.000000 1.698050 0.000000 
#    z -0.003760 0.000000 1.727790 
# 
# From -- ./inp_files/189361.got.cif
#   From: 2010.06.25/outbox.cif.g09.slc.cpg/sg12_95_cif.got.tgz:189361.got - 2010.06.28 00:19:55.
