data_PCOD8090803
_publ_section_title
;
Structure prediction by ZEFSAII (Michael W. Deem and Ramdas Pophale) SiO2 
 PCOD8090803
Probable space group: C 2/M
;
_chemical_formula_sum "Si O2"
_cell_formula_units_Z 60
_cell_length_a 21.162831
_cell_length_b 14.889549
_cell_length_c 20.776738
_cell_angle_alpha 90.000000
_cell_angle_beta 150.093743
_cell_angle_gamma 90.000000
_cell_volume 3264.146331
_symmetry_space_group_name_H-M "C 2/M"
_symmetry_group_IT_number 12
_symmetry_cell_setting 'monoclinic'
loop_
_space_group_symop_operation_xyz
x,y,z
-x,y,-z
-x,-y,-z
x,-y,z
1/2+x,1/2+y,z
1/2-x,1/2+y,-z
1/2-x,1/2-y,-z
1/2+x,1/2-y,z
loop_
_atom_site_type_symbol
_atom_site_label
_atom_site_fract_x
_atom_site_fract_y
_atom_site_fract_z
Si Si1 0.500000 0.219980 0.000000
Si Si2 0.134601 0.766304 0.241039
Si Si3 0.813679 0.397578 0.914652
Si Si4 0.572022 0.766341 0.499702
Si Si5 0.485842 0.101790 0.804517
Si Si6 0.578189 0.897449 0.392751
Si Si7 0.478197 0.395093 0.342275
Si Si8 0.371925 0.602917 0.653118
O O1 0.445778 0.281978 0.895022
O O2 0.383690 0.159358 0.921833
O O3 0.281092 0.781130 0.356002
O O4 0.116487 0.665471 0.251617
O O5 0.082539 0.837614 0.246661
O O6 0.822946 0.500000 0.900001
O O7 0.668571 0.367755 0.793018
O O8 0.877905 0.384453 0.041461
O O9 0.500000 0.795580 0.500000
O O10 0.526295 0.832058 0.402107
O O11 0.541263 0.663286 0.454570
O O12 0.499769 0.123588 0.741167
O O13 0.435263 0.000000 0.768666
O O14 0.725477 0.878154 0.507311
O O15 0.558444 0.000000 0.398027
O O16 0.497547 0.500000 0.375781
O O17 0.545918 0.368722 0.335648
O O18 0.395893 0.500000 0.693057
#
# Coordination Sequence:
#
# PCOD8090803 Si02
#       8
#     4   8   8   8   8   8   8   8
#     4  10  19  34  51  70  98 136 172 198 234 288
#     4  10  20  34  52  73  99 130 167 205 242 290
#     4   9  18  32  50  73 103 135 164 197 239 292
#     4  11  22  34  49  73 103 133 164 200 244 294
#     4   9  17  31  53  78  99 125 164 205 243 286
#     4   9  18  34  55  75  96 126 167 209 246 286
#     4  10  20  34  52  76 104 130 159 200 251 298
#     4   9  18  34  55  75  96 126 164 208 253 290
#
# _framework density 18.381529
#
# number of rings (size 3 to 8) (size 9 to 14) (size 15 to 20)
#    0.000    2.400    0.000    2.600    0.000    4.800 
#    0.000    7.667    0.000    0.000    0.000    0.000 
#    0.000    0.000    0.000    0.000    0.000    0.000 
#
# Total GULP energy -372065.893747 kJ/mol
# GULP energy per Si atom -12402.196458 kJ/mol
# Density = 1.833969 g / cm^3
# Si number density = 18.381529 Si / 1000 Ang^3
#
#
#
# Elastic Constant Matrix: (Units=GPa)
#
#
# Indices 1 2 3 4 5 6 
#
# 1 109.3509 31.4344 29.5246 -0.0001 -1.2851 0.0000
# 2 31.4344 52.0992 18.7018 0.0000 -6.9472 0.0000
# 3 29.5246 18.7018 52.9546 -0.0004 -9.6301 -0.0002
# 4 -0.0001 0.0000 -0.0004 23.8180 -0.0002 -4.6693
# 5 -1.2851 -6.9472 -9.6301 -0.0002 33.5887 -0.0001
# 6 0.0000 0.0000 -0.0002 -4.6693 -0.0001 24.4224
#
#
#
# Elastic Compliance Matrix: (Units=1/GPa)
#
#
# Indices 1 2 3 4 5 6 
#
# 1 0.012173 -0.005793 -0.005142 0.000000 -0.002207 0.000000
# 2 -0.005793 0.024930 -0.004935 0.000000 0.003520 0.000000
# 3 -0.005142 -0.004935 0.024553 0.000001 0.005822 0.000000
# 4 0.000000 0.000000 0.000001 0.043620 0.000000 0.008340
# 5 -0.002207 0.003520 0.005822 0.000000 0.032085 0.000000
# 6 0.000000 0.000000 0.000000 0.008340 0.000000 0.042540
#
#
# Mechanical properties :
#
#
# Convention : Reuss Voigt Hill
#
# Bulk Modulus (GPa) = 33.42700 41.52515 37.47607
# Shear Modulus (GPa) = 22.56202 25.34876 23.95539
#
# Velocity S-wave (km/s) = 3.50727 3.71756 3.61395
# Velocity P-wave (km/s) = 5.88437 6.40834 6.15193
#
# Compressibility (1/GPa) = 0.02991593
#
# Stress axis : x y z
#
# Youngs Moduli (GPa) = 82.15216 40.11238 40.72883
#
# Poissons Ratio (x) = 0.23236 0.20944
# Poissons Ratio (y) = 0.47589 0.20098
# Poissons Ratio (z) = 0.42245 0.19794
#
# Static dielectric constant tensor:
#      x y z
#    x 3.319080 0.000000 -0.089410 
#    y 0.000000 3.390730 0.000000 
#    z -0.089410 0.000000 3.379780 
# 
# 
# High freq. dielectric constant tensor:
#      x y z
#    x 1.707470 0.000000 -0.008140 
#    y 0.000000 1.707760 0.000000 
#    z -0.008140 0.000000 1.707850 
# 
# From -- ./inp_files/322140.got.cif
#   From: 2010.06.25/outbox.cif.g09.slc.cpg/sg12_162_cif.got.tgz:322140.got - 2010.06.28 00:19:55.
