data_PCOD8090777
_publ_section_title
;
Structure prediction by ZEFSAII (Michael W. Deem and Ramdas Pophale) SiO2 
 PCOD8090777
Probable space group: C 2/M
;
_chemical_formula_sum "Si O2"
_cell_formula_units_Z 64
_cell_length_a 25.825191
_cell_length_b 16.356925
_cell_length_c 9.488700
_cell_angle_alpha 90.000000
_cell_angle_beta 99.019853
_cell_angle_gamma 90.000000
_cell_volume 3958.658030
_symmetry_space_group_name_H-M "C 2/M"
_symmetry_group_IT_number 12
_symmetry_cell_setting 'monoclinic'
loop_
_space_group_symop_operation_xyz
x,y,z
-x,y,-z
-x,-y,-z
x,-y,z
1/2+x,1/2+y,z
1/2-x,1/2+y,-z
1/2-x,1/2-y,-z
1/2+x,1/2-y,z
loop_
_atom_site_type_symbol
_atom_site_label
_atom_site_fract_x
_atom_site_fract_y
_atom_site_fract_z
Si Si1 0.702402 0.806236 0.312242
Si Si2 0.345677 0.321571 0.253228
Si Si3 0.068088 0.905991 0.889988
Si Si4 0.137257 0.824671 0.412909
Si Si5 0.724493 0.177282 0.806618
Si Si6 0.257394 0.905228 0.890878
Si Si7 0.448813 0.406367 0.795414
Si Si8 0.757955 0.908087 0.568546
O O1 0.650493 0.766944 0.359138
O O2 0.731318 0.736857 0.235270
O O3 0.694530 0.879823 0.194873
O O4 0.739487 0.839152 0.452011
O O5 0.392261 0.345746 0.169670
O O6 0.366513 0.325836 0.420805
O O7 0.329862 0.227753 0.210766
O O8 0.297019 0.383876 0.211567
O O9 0.009663 0.881820 0.818054
O O10 0.080120 0.000000 0.854774
O O11 0.074941 0.893390 0.059544
O O12 0.081062 0.849293 0.327910
O O13 0.180594 0.890149 0.378152
O O14 0.723710 0.100926 0.697657
O O15 0.740165 0.146795 0.966495
O O16 0.261057 0.000000 0.928793
O O17 0.442183 0.500000 0.746106
O O18 0.750145 0.000000 0.507667
#
# Coordination Sequence:
#
# PCOD8090777 Si02
#       8
#     8   8   8   8   8   8   8   8
#     4  10  19  34  47  68 100 133 163 201 244 283
#     4  11  20  33  49  70  99 133 165 201 243 286
#     4   9  20  36  51  70  98 128 163 206 245 282
#     4  11  20  32  50  72  97 132 170 196 241 292
#     4  10  20  34  45  69 100 133 165 203 244 285
#     4  11  22  32  47  73 101 132 170 204 238 286
#     4   9  20  36  51  71  97 127 165 206 243 286
#     4  11  19  31  49  70 101 135 167 199 235 289
#
# _framework density 16.167095
#
# number of rings (size 3 to 8) (size 9 to 14) (size 15 to 20)
#    0.000    1.750    3.750    4.500    5.250    2.000 
#    0.000    1.250    0.000    0.000    0.000    0.000 
#    0.000    6.000    0.000    0.000    0.000    0.000 
#
# Total GULP energy -396628.501875 kJ/mol
# GULP energy per Si atom -12394.640684 kJ/mol
# Density = 1.613030 g / cm^3
# Si number density = 16.167095 Si / 1000 Ang^3
#
#
#
# Elastic Constant Matrix: (Units=GPa)
#
#
# Indices 1 2 3 4 5 6 
#
# 1 50.0306 24.9795 24.2787 0.0000 -2.1576 0.0000
# 2 24.9795 66.6832 23.5682 0.0000 5.1150 0.0000
# 3 24.2787 23.5682 96.4174 0.0000 6.3238 0.0000
# 4 0.0000 0.0000 0.0000 28.7402 0.0000 -1.5080
# 5 -2.1576 5.1150 6.3238 0.0000 26.5223 0.0000
# 6 0.0000 0.0000 0.0000 -1.5080 0.0000 24.4553
#
#
#
# Elastic Compliance Matrix: (Units=1/GPa)
#
#
# Indices 1 2 3 4 5 6 
#
# 1 0.026991 -0.008735 -0.004994 0.000000 0.005071 0.000000
# 2 -0.008735 0.019374 -0.002280 0.000000 -0.003903 0.000000
# 3 -0.004994 -0.002280 0.012378 0.000000 -0.002918 0.000000
# 4 0.000000 0.000000 0.000000 0.034907 0.000000 0.002153
# 5 0.005071 -0.003903 -0.002918 0.000000 0.039565 0.000000
# 6 0.000000 0.000000 0.000000 0.002153 0.000000 0.041024
#
#
# Mechanical properties :
#
#
# Convention : Reuss Voigt Hill
#
# Bulk Modulus (GPa) = 37.41875 39.86490 38.64182
# Shear Modulus (GPa) = 23.23800 25.29722 24.26761
#
# Velocity S-wave (km/s) = 3.79537 3.95996 3.87854
# Velocity P-wave (km/s) = 6.51166 6.75426 6.63407
#
# Compressibility (1/GPa) = 0.02672457
#
# Stress axis : x y z
#
# Youngs Moduli (GPa) = 37.04928 51.61664 80.78938
#
# Poissons Ratio (x) = 0.45086 0.40347
# Poissons Ratio (y) = 0.32362 0.18422
# Poissons Ratio (z) = 0.18503 0.11770
#
# Static dielectric constant tensor:
#      x y z
#    x 2.849980 0.000000 -0.181410 
#    y 0.000000 3.195470 0.000000 
#    z -0.181410 0.000000 3.238880 
# 
# 
# High freq. dielectric constant tensor:
#      x y z
#    x 1.579830 0.000000 -0.011960 
#    y 0.000000 1.611070 0.000000 
#    z -0.011960 0.000000 1.642460 
# 
# From -- ./inp_files/97766.got.cif
#   From: 2010.06.25/outbox.cif.g09.slc.cpg/sg12_49_cif.got.tgz:97766.got - 2010.06.28 00:19:55.
