data_PCOD8090675
_publ_section_title
;
Structure prediction by ZEFSAII (Michael W. Deem and Ramdas Pophale) SiO2 
 PCOD8090675
Probable space group: C 2/M
;
_chemical_formula_sum "Si O2"
_cell_formula_units_Z 64
_cell_length_a 30.315232
_cell_length_b 9.417568
_cell_length_c 25.396120
_cell_angle_alpha 90.000000
_cell_angle_beta 27.582755
_cell_angle_gamma 90.000000
_cell_volume 3357.186661
_symmetry_space_group_name_H-M "C 2/M"
_symmetry_group_IT_number 12
_symmetry_cell_setting 'monoclinic'
loop_
_space_group_symop_operation_xyz
x,y,z
-x,y,-z
-x,-y,-z
x,-y,z
1/2+x,1/2+y,z
1/2-x,1/2+y,-z
1/2-x,1/2-y,-z
1/2+x,1/2-y,z
loop_
_atom_site_type_symbol
_atom_site_label
_atom_site_fract_x
_atom_site_fract_y
_atom_site_fract_z
Si Si1 0.333113 0.836195 0.493698
Si Si2 0.231160 0.163481 0.250087
Si Si3 0.877900 0.162910 0.737773
Si Si4 0.838252 0.334217 0.883559
Si Si5 0.618127 0.336488 0.736745
Si Si6 0.469680 0.836231 0.258053
Si Si7 0.105198 0.166180 0.869977
Si Si8 0.407873 0.661748 0.511103
O O1 0.221416 0.814223 0.601134
O O2 0.393565 0.775716 0.380834
O O3 0.361165 0.758205 0.516727
O O4 0.359267 0.000000 0.474712
O O5 0.202789 0.196258 0.219963
O O6 0.321835 0.257018 0.168560
O O7 0.140428 0.200752 0.382394
O O8 0.260230 0.000000 0.226176
O O9 0.866439 0.271099 0.797574
O O10 0.979790 0.188881 0.602756
O O11 0.868998 0.000000 0.767278
O O12 0.813308 0.500000 0.903240
O O13 0.924495 0.312729 0.832722
O O14 0.750000 0.250000 0.000000
O O15 0.586419 0.500000 0.769571
O O16 0.541024 0.249495 0.784826
O O17 0.619060 0.279560 0.795568
O O18 0.448500 0.000000 0.268342
O O19 0.126437 0.000000 0.851403
O O20 0.000000 0.205237 0.000000
O O21 0.386786 0.500000 0.517446
#
# Coordination Sequence:
#
# PCOD8090675 Si02
#       8
#     8   8   8   8   8   8   8   8
#     4  10  19  35  57  84 117 148 184 234 287 342
#     4  10  21  37  59  88 119 152 191 235 286 343
#     4  10  21  38  60  88 121 153 189 235 287 344
#     4  11  24  42  62  85 115 153 197 243 289 338
#     4  10  21  36  58  85 115 150 187 232 287 344
#     4  10  22  38  58  84 115 147 186 236 285 340
#     4  10  22  40  59  81 112 150 194 242 288 336
#     4  10  19  33  58  88 118 153 188 229 285 346
#
# _framework density 19.063582
#
# number of rings (size 3 to 8) (size 9 to 14) (size 15 to 20)
#    0.000    1.875    2.500    1.125    0.000    5.750 
#    0.000    2.500    0.000    2.250    0.000    0.000 
#    0.000    0.000    0.000    0.000    0.000    0.000 
#
# Total GULP energy -396913.349425 kJ/mol
# GULP energy per Si atom -12403.542170 kJ/mol
# Density = 1.902019 g / cm^3
# Si number density = 19.063582 Si / 1000 Ang^3
#
#
#
# Elastic Constant Matrix: (Units=GPa)
#
#
# Indices 1 2 3 4 5 6 
#
# 1 106.7208 55.9496 18.9498 -0.0043 -13.0862 -0.0002
# 2 55.9496 74.7582 32.9679 0.0095 -11.2214 -0.0044
# 3 18.9498 32.9679 75.4917 0.0177 -17.9740 -0.0056
# 4 -0.0043 0.0095 0.0177 26.6536 -0.0032 0.9205
# 5 -13.0862 -11.2214 -17.9740 -0.0032 17.4331 0.0015
# 6 -0.0002 -0.0044 -0.0056 0.9205 0.0015 34.3705
#
#
#
# Elastic Compliance Matrix: (Units=1/GPa)
#
#
# Indices 1 2 3 4 5 6 
#
# 1 0.016230 -0.012405 0.003105 0.000006 0.007400 -0.000001
# 2 -0.012405 0.026290 -0.008688 -0.000006 -0.001347 0.000002
# 3 0.003105 -0.008688 0.020522 -0.000008 0.017898 0.000002
# 4 0.000006 -0.000006 -0.000008 0.037553 0.000000 -0.001006
# 5 0.007400 -0.001347 0.017898 0.000000 0.080503 -0.000001
# 6 -0.000001 0.000002 0.000002 -0.001006 -0.000001 0.029122
#
#
# Mechanical properties :
#
#
# Convention : Reuss Voigt Hill
#
# Bulk Modulus (GPa) = 36.94599 52.52283 44.73441
# Shear Modulus (GPa) = 19.59113 25.63166 22.61140
#
# Velocity S-wave (km/s) = 3.20921 3.67077 3.44772
# Velocity P-wave (km/s) = 5.75800 6.75109 6.27422
#
# Compressibility (1/GPa) = 0.02706654
#
# Stress axis : x y z
#
# Youngs Moduli (GPa) = 61.61510 38.03772 48.72709
#
# Poissons Ratio (x) = 0.47187 -0.15131
# Poissons Ratio (y) = 0.76435 0.42333
# Poissons Ratio (z) = -0.19133 0.33046
#
# Static dielectric constant tensor:
#      x y z
#    x 3.509030 -0.000020 0.077180 
#    y -0.000020 3.458930 0.000030 
#    z 0.077180 0.000030 3.662910 
# 
# 
# High freq. dielectric constant tensor:
#      x y z
#    x 1.744480 0.000000 -0.001030 
#    y 0.000000 1.736030 0.000000 
#    z -0.001030 0.000000 1.744290 
# 
# From -- ./inp_files/243866.got.cif
#   From: 2010.06.25/outbox.cif.g09.slc.cpg/sg12_122_cif.got.tgz:243866.got - 2010.06.28 00:19:55.
