data_PCOD8090096
_publ_section_title
;
Structure prediction by ZEFSAII (Michael W. Deem and Ramdas Pophale) SiO2 
 PCOD8090096
Probable space group: C 2/M
;
_chemical_formula_sum "Si O2"
_cell_formula_units_Z 56
_cell_length_a 29.882069
_cell_length_b 8.779122
_cell_length_c 21.805185
_cell_angle_alpha 90.000000
_cell_angle_beta 32.980792
_cell_angle_gamma 90.000000
_cell_volume 3113.909677
_symmetry_space_group_name_H-M "C 2/M"
_symmetry_group_IT_number 12
_symmetry_cell_setting 'monoclinic'
loop_
_space_group_symop_operation_xyz
x,y,z
-x,y,-z
-x,-y,-z
x,-y,z
1/2+x,1/2+y,z
1/2-x,1/2+y,-z
1/2-x,1/2-y,-z
1/2+x,1/2-y,z
loop_
_atom_site_type_symbol
_atom_site_label
_atom_site_fract_x
_atom_site_fract_y
_atom_site_fract_z
Si Si1 0.371618 0.322698 0.348154
Si Si2 0.834602 0.678430 0.610542
Si Si3 0.249293 0.822674 0.403436
Si Si4 0.656111 0.321663 0.271814
Si Si5 0.016006 0.321378 0.359578
Si Si6 0.213608 0.321578 0.980860
Si Si7 0.952551 0.179245 0.806685
O O1 0.361681 0.500000 0.344147
O O2 0.336915 0.226084 0.331101
O O3 0.322449 0.280845 0.466262
O O4 0.465706 0.274721 0.250288
O O5 0.828737 0.500000 0.630835
O O6 0.766005 0.726698 0.640266
O O7 0.815394 0.770993 0.693954
O O8 0.923679 0.725352 0.482571
O O9 0.250390 0.000000 0.385904
O O10 0.636238 0.500000 0.293184
O O11 0.574104 0.229429 0.348576
O O12 0.729418 0.278220 0.141682
O O13 0.024528 0.500000 0.338199
O O14 0.044316 0.234021 0.266659
O O15 0.207317 0.500000 0.998222
O O16 0.250000 0.250000 0.000000
O O17 0.123332 0.255544 0.070872
O O18 0.939973 0.000000 0.819538
#
# Coordination Sequence:
#
# PCOD8090096 Si02
#       7
#     8   8   8   8   8   8   8
#     4   9  19  34  53  81 113 144 181 224 273 329
#     4  11  23  37  55  81 114 149 185 226 276 331
#     4  10  19  33  55  81 112 146 181 223 273 329
#     4  11  24  39  56  78 109 149 190 229 274 328
#     4  11  22  35  54  81 113 148 184 225 273 328
#     4  11  23  38  57  81 109 145 188 233 276 324
#     4  11  21  35  57  83 113 147 183 227 277 325
#
# _framework density 17.983823999999998
#
# number of rings (size 3 to 8) (size 9 to 14) (size 15 to 20)
#    0.000    1.429    2.857    3.000    0.000    6.857 
#    0.000    0.000    0.000    0.857    0.000    6.000 
#    0.000    0.000    0.000    0.000    0.000    0.000 
#
# Total GULP energy -347379.273384 kJ/mol
# GULP energy per Si atom -12406.402621 kJ/mol
# Density = 1.794289 g / cm^3
# Si number density = 17.983824 Si / 1000 Ang^3
#
#
#
# Elastic Constant Matrix: (Units=GPa)
#
#
# Indices 1 2 3 4 5 6 
#
# 1 115.7780 33.2249 46.7256 0.0303 -7.2496 -0.0025
# 2 33.2249 58.4994 35.3426 0.0788 -3.4811 -0.0155
# 3 46.7256 35.3426 71.2819 0.0525 -5.5964 -0.0090
# 4 0.0303 0.0788 0.0525 28.0314 -0.0209 -0.9430
# 5 -7.2496 -3.4811 -5.5964 -0.0209 26.4387 0.0000
# 6 -0.0025 -0.0155 -0.0090 -0.9430 0.0000 35.1844
#
#
#
# Elastic Compliance Matrix: (Units=1/GPa)
#
#
# Indices 1 2 3 4 5 6 
#
# 1 0.012160 -0.002957 -0.006380 0.000008 0.001595 -0.000002
# 2 -0.002957 0.025135 -0.010502 -0.000047 0.000275 0.000007
# 3 -0.006380 -0.010502 0.023564 -0.000006 0.001856 0.000001
# 4 0.000008 -0.000047 -0.000006 0.035707 0.000023 0.000957
# 5 0.001595 0.000275 0.001856 0.000023 0.038690 0.000001
# 6 -0.000002 0.000007 0.000001 0.000957 0.000001 0.028447
#
#
# Mechanical properties :
#
#
# Convention : Reuss Voigt Hill
#
# Bulk Modulus (GPa) = 47.21276 52.90503 50.05890
# Shear Modulus (GPa) = 23.75955 26.61533 25.18744
#
# Velocity S-wave (km/s) = 3.63872 3.85120 3.74647
# Velocity P-wave (km/s) = 6.63051 7.01838 6.82720
#
# Compressibility (1/GPa) = 0.02118071
#
# Stress axis : x y z
#
# Youngs Moduli (GPa) = 82.23357 39.78482 42.43832
#
# Poissons Ratio (x) = 0.11766 0.27075
# Poissons Ratio (y) = 0.24319 0.44569
# Poissons Ratio (z) = 0.52463 0.41783
#
# Static dielectric constant tensor:
#      x y z
#    x 3.323530 -0.000020 -0.116370 
#    y -0.000020 3.377190 0.000040 
#    z -0.116370 0.000040 3.359230 
# 
# 
# High freq. dielectric constant tensor:
#      x y z
#    x 1.697640 0.000000 -0.008810 
#    y 0.000000 1.710440 0.000000 
#    z -0.008810 0.000000 1.677660 
# 
# From -- ./inp_files/287391.got.cif
#   From: 2010.06.25/outbox.cif.g09.slc.cpg/sg12_144_cif.got.tgz:287391.got - 2010.06.28 00:19:55.
