data_PCOD8090579
_publ_section_title
;
Structure prediction by ZEFSAII (Michael W. Deem and Ramdas Pophale) SiO2 
 PCOD8090579
Probable space group: C 2/M
;
_chemical_formula_sum "Si O2"
_cell_formula_units_Z 56
_cell_length_a 28.484051
_cell_length_b 8.813206
_cell_length_c 17.425934
_cell_angle_alpha 90.000000
_cell_angle_beta 43.350963
_cell_angle_gamma 90.000000
_cell_volume 3002.965916
_symmetry_space_group_name_H-M "C 2/M"
_symmetry_group_IT_number 12
_symmetry_cell_setting 'monoclinic'
loop_
_space_group_symop_operation_xyz
x,y,z
-x,y,-z
-x,-y,-z
x,-y,z
1/2+x,1/2+y,z
1/2-x,1/2+y,-z
1/2-x,1/2-y,-z
1/2+x,1/2-y,z
loop_
_atom_site_type_symbol
_atom_site_label
_atom_site_fract_x
_atom_site_fract_y
_atom_site_fract_z
Si Si1 0.642916 0.325651 0.414554
Si Si2 0.307525 0.319773 0.070519
Si Si3 0.781660 0.176030 0.269928
Si Si4 0.411306 0.178710 0.831810
Si Si5 0.335978 0.321116 0.781747
Si Si6 0.054385 0.177633 0.659452
Si Si7 0.319425 0.677038 0.388847
O O1 0.662727 0.500000 0.396831
O O2 0.707045 0.241609 0.375275
O O3 0.630742 0.279951 0.340402
O O4 0.576122 0.290953 0.545104
O O5 0.315438 0.500000 0.050524
O O6 0.313512 0.263913 0.152074
O O7 0.234937 0.267844 0.122200
O O8 0.367358 0.233931 0.955842
O O9 0.829869 0.213403 0.285503
O O10 0.770137 0.000000 0.272925
O O11 0.389182 0.265631 0.781440
O O12 0.489285 0.221252 0.756548
O O13 0.402994 0.000000 0.830382
O O14 0.322685 0.500000 0.806842
O O15 0.114433 0.236577 0.644389
O O16 0.038027 0.000000 0.692150
O O17 0.311558 0.500000 0.413304
O O18 0.250000 0.750000 0.500000
#
# Coordination Sequence:
#
# PCOD8090579 Si02
#       7
#     8   8   8   8   8   8   8
#     4   9  18  33  55  83 111 143 179 218 267 324
#     4  10  20  37  59  82 110 143 182 226 270 319
#     4   9  18  32  55  86 113 139 176 223 270 315
#     4  12  25  39  54  76 107 146 189 230 275 322
#     4  10  20  36  59  84 110 141 181 225 271 323
#     4  10  21  37  55  79 113 149 182 218 267 325
#     4  10  19  33  57  86 114 143 178 218 265 322
#
# _framework density 18.648230000000002
#
# number of rings (size 3 to 8) (size 9 to 14) (size 15 to 20)
#    0.000    2.000    1.429    2.571    0.000    2.857 
#    0.000    3.571    0.000    4.286    0.000    0.000 
#    0.000    0.000    0.000    0.000    0.000    0.000 
#
# Total GULP energy -347180.839223 kJ/mol
# GULP energy per Si atom -12399.315687 kJ/mol
# Density = 1.860579 g / cm^3
# Si number density = 18.648230 Si / 1000 Ang^3
#
#
#
# Elastic Constant Matrix: (Units=GPa)
#
#
# Indices 1 2 3 4 5 6 
#
# 1 109.9584 25.9347 59.3918 0.0053 0.0460 -0.0090
# 2 25.9347 42.4109 26.2142 -0.0229 5.6988 0.0221
# 3 59.3918 26.2142 81.1247 0.0118 -7.4612 0.0059
# 4 0.0053 -0.0229 0.0118 29.3644 0.0113 -4.7402
# 5 0.0460 5.6988 -7.4612 0.0113 19.2481 -0.0021
# 6 -0.0090 0.0221 0.0059 -4.7402 -0.0021 25.1026
#
#
#
# Elastic Compliance Matrix: (Units=1/GPa)
#
#
# Indices 1 2 3 4 5 6 
#
# 1 0.015570 -0.002221 -0.011017 0.000003 -0.003650 0.000010
# 2 -0.002221 0.033215 -0.010381 0.000032 -0.013853 -0.000023
# 3 -0.011017 -0.010381 0.024920 -0.000022 0.012760 -0.000004
# 4 0.000003 0.000032 -0.000022 0.035126 -0.000038 0.006633
# 5 -0.003650 -0.013853 0.012760 -0.000038 0.061010 0.000006
# 6 0.000010 -0.000023 -0.000004 0.006633 0.000006 0.041089
#
#
# Mechanical properties :
#
#
# Convention : Reuss Voigt Hill
#
# Bulk Modulus (GPa) = 37.78237 50.73060 44.25648
# Shear Modulus (GPa) = 18.72722 22.87324 20.80023
#
# Velocity S-wave (km/s) = 3.17241 3.50603 3.34338
# Velocity P-wave (km/s) = 5.80719 6.60702 6.21997
#
# Compressibility (1/GPa) = 0.02646737
#
# Stress axis : x y z
#
# Youngs Moduli (GPa) = 64.22404 30.10689 40.12777
#
# Poissons Ratio (x) = 0.06688 0.44210
# Poissons Ratio (y) = 0.14266 0.41656
# Poissons Ratio (z) = 0.70757 0.31253
#
# Static dielectric constant tensor:
#      x y z
#    x 3.743780 0.000000 0.351430 
#    y 0.000000 3.422220 0.000060 
#    z 0.351430 0.000060 3.555430 
# 
# 
# High freq. dielectric constant tensor:
#      x y z
#    x 1.724290 0.000000 0.018910 
#    y 0.000000 1.722730 0.000000 
#    z 0.018910 0.000000 1.719360 
# 
# From -- ./inp_files/288263.got.cif
#   From: 2010.06.25/outbox.cif.g09.slc.cpg/sg12_145_cif.got.tgz:288263.got - 2010.06.28 00:19:55.
