data_PCOD8090210
_publ_section_title
;
Structure prediction by ZEFSAII (Michael W. Deem and Ramdas Pophale) SiO2 
 PCOD8090210
Probable space group: C 2/M
;
_chemical_formula_sum "Si O2"
_cell_formula_units_Z 64
_cell_length_a 13.659323
_cell_length_b 13.364248
_cell_length_c 33.231226
_cell_angle_alpha 90.000000
_cell_angle_beta 148.535721
_cell_angle_gamma 90.000000
_cell_volume 3166.379875
_symmetry_space_group_name_H-M "C 2/M"
_symmetry_group_IT_number 12
_symmetry_cell_setting 'monoclinic'
loop_
_space_group_symop_operation_xyz
x,y,z
-x,y,-z
-x,-y,-z
x,-y,z
1/2+x,1/2+y,z
1/2-x,1/2+y,-z
1/2-x,1/2-y,-z
1/2+x,1/2-y,z
loop_
_atom_site_type_symbol
_atom_site_label
_atom_site_fract_x
_atom_site_fract_y
_atom_site_fract_z
Si Si1 0.437765 0.117737 0.059015
Si Si2 0.113560 0.382682 0.428767
Si Si3 0.475970 0.386490 0.103799
Si Si4 0.520567 0.273142 0.461502
Si Si5 0.859152 0.618542 0.266466
Si Si6 0.547763 0.886903 0.842597
Si Si7 0.876599 0.210892 0.918851
Si Si8 0.839765 0.386843 0.692837
O O1 0.475354 0.145251 0.119002
O O2 0.596869 0.177987 0.090667
O O3 0.462483 0.000000 0.059870
O O4 0.235153 0.159849 0.971422
O O5 0.094042 0.500000 0.429695
O O6 0.321869 0.358888 0.486251
O O7 0.076993 0.326453 0.457511
O O8 0.965174 0.343637 0.343416
O O9 0.445787 0.500000 0.105475
O O10 0.642373 0.337837 0.190180
O O11 0.561183 0.377155 0.089252
O O12 0.500000 0.239085 0.500000
O O13 0.328475 0.314674 0.376836
O O14 0.840751 0.500000 0.260249
O O15 0.974329 0.650642 0.266601
O O16 0.667295 0.804146 0.860864
O O17 0.361827 0.885985 0.749418
O O18 0.633540 0.000000 0.872188
O O19 0.000000 0.193469 0.000000
O O20 0.793784 0.500000 0.662287
#
# Coordination Sequence:
#
# PCOD8090210 Si02
#       8
#     8   8   8   8   8   8   8   8
#     4  10  23  40  56  78 113 154 194 236 282 339
#     4  10  22  39  59  87 120 152 187 231 281 336
#     4  10  19  33  55  84 114 143 184 238 287 331
#     4  11  22  37  61  89 117 150 191 230 281 337
#     4   9  17  32  56  85 114 144 183 234 285 330
#     4  10  21  38  60  85 115 148 188 239 290 336
#     4  12  22  33  56  81 110 143 193 238 284 333
#     4  10  19  34  58  89 116 146 186 234 287 335
#
# _framework density 20.212357000000001
#
# number of rings (size 3 to 8) (size 9 to 14) (size 15 to 20)
#    0.000    1.750    3.750    1.125    0.000    2.500 
#    0.000    0.000    0.000    0.750    0.000    0.000 
#    0.000    0.000    0.000    0.000    0.000    0.000 
#
# Total GULP energy -396455.055600 kJ/mol
# GULP energy per Si atom -12389.220487 kJ/mol
# Density = 2.016635 g / cm^3
# Si number density = 20.212357 Si / 1000 Ang^3
#
#
#
# Elastic Constant Matrix: (Units=GPa)
#
#
# Indices 1 2 3 4 5 6 
#
# 1 18.8176 -28.3226 42.1321 0.0000 29.0753 0.0000
# 2 -28.3226 -6.1829 42.5663 0.0000 43.9633 0.0000
# 3 42.1321 42.5663 120.8140 0.0000 -13.4107 0.0000
# 4 0.0000 0.0000 0.0000 26.6681 0.0000 -2.9858
# 5 29.0753 43.9633 -13.4107 0.0000 2.7802 0.0000
# 6 0.0000 0.0000 0.0000 -2.9858 0.0000 28.8434
#
#
#
# Elastic Compliance Matrix: (Units=1/GPa)
#
#
# Indices 1 2 3 4 5 6 
#
# 1 0.018439 -0.013065 -0.000643 0.000000 0.010664 0.000000
# 2 -0.013065 0.008719 0.002899 0.000000 0.012748 0.000000
# 3 -0.000643 0.002899 0.006753 0.000000 -0.006545 0.000000
# 4 0.000000 0.000000 0.000000 0.037938 0.000000 0.003927
# 5 0.010664 0.012748 -0.006545 0.000000 0.015001 0.000000
# 6 0.000000 0.000000 0.000000 0.003927 0.000000 0.035077
#
#
# Mechanical properties :
#
#
# Convention : Reuss Voigt Hill
#
# Bulk Modulus (GPa) = 81.34593 27.35560 54.35077
# Shear Modulus (GPa) = 33.86548 16.79653 25.33101
#
# Velocity S-wave (km/s) = 4.09771 2.88584 3.54396
# Velocity P-wave (km/s) = 7.91968 4.96665 6.61018
#
# Compressibility (1/GPa) = 0.01229318
#
# Stress axis : x y z
#
# Youngs Moduli (GPa) = 54.23231 114.69014 148.07373
#
# Poissons Ratio (x) = 1.49848 0.09525
# Poissons Ratio (y) = 0.70857 -0.42933
# Poissons Ratio (z) = 0.03489 -0.33254
#
# Static dielectric constant tensor:
#      x y z
#    x 3.501670 0.000000 -0.068370 
#    y 0.000000 3.488650 0.000000 
#    z -0.068370 0.000000 4.061360 
# 
# 
# High freq. dielectric constant tensor:
#      x y z
#    x 1.768040 0.000000 -0.008650 
#    y 0.000000 1.774780 0.000000 
#    z -0.008650 0.000000 1.806350 
# 
# From -- ./inp_files/358482.got.cif
#   From: 2010.06.25/outbox.cif.g09.slc.cpg/sg12_180_cif.got.tgz:358482.got - 2010.06.28 00:19:55.
