data_PCOD8090354
_publ_section_title
;
Structure prediction by ZEFSAII (Michael W. Deem and Ramdas Pophale) SiO2 
 PCOD8090354
Probable space group: C 2/M
;
_chemical_formula_sum "Si O2"
_cell_formula_units_Z 56
_cell_length_a 21.464782
_cell_length_b 8.667130
_cell_length_c 15.295569
_cell_angle_alpha 90.000000
_cell_angle_beta 92.248448
_cell_angle_gamma 90.000000
_cell_volume 2843.367125
_symmetry_space_group_name_H-M "C 2/M"
_symmetry_group_IT_number 12
_symmetry_cell_setting 'monoclinic'
loop_
_space_group_symop_operation_xyz
x,y,z
-x,y,-z
-x,-y,-z
x,-y,z
1/2+x,1/2+y,z
1/2-x,1/2+y,-z
1/2-x,1/2-y,-z
1/2+x,1/2-y,z
loop_
_atom_site_type_symbol
_atom_site_label
_atom_site_fract_x
_atom_site_fract_y
_atom_site_fract_z
Si Si1 0.585171 0.683040 0.441773
Si Si2 0.245146 0.681043 0.778007
Si Si3 0.568572 0.676760 0.980089
Si Si4 0.955451 0.816530 0.374354
Si Si5 0.616685 0.322980 0.794906
Si Si6 0.720215 0.682434 0.411314
Si Si7 0.195015 0.318202 0.057398
O O1 0.581749 0.500000 0.443615
O O2 0.581164 0.741839 0.541733
O O3 0.526623 0.746026 0.382572
O O4 0.648882 0.741255 0.402394
O O5 0.258040 0.500000 0.783259
O O6 0.177695 0.720589 0.812993
O O7 0.248571 0.740363 0.677342
O O8 0.296060 0.763978 0.841875
O O9 0.573894 0.500000 0.012427
O O10 0.572847 0.689087 0.876156
O O11 0.500000 0.744318 0.000000
O O12 0.625403 0.769620 0.026226
O O13 0.921493 0.749004 0.287629
O O14 0.955839 0.000000 0.368171
O O15 0.637029 0.500000 0.778567
O O16 0.724373 0.500000 0.419661
O O17 0.750000 0.750000 0.500000
O O18 0.201060 0.500000 0.051137
O O19 0.250000 0.250000 0.000000
#
# Coordination Sequence:
#
# PCOD8090354 Si02
#       7
#     8   8   8   8   8   8   8
#     4   8  14  27  46  72 106 139 178 229 278 331
#     4  11  23  37  57  86 117 155 200 246 297 359
#     4  10  22  39  60  89 123 157 197 249 306 364
#     4   8  14  25  47  76 102 136 183 230 278 336
#     4  10  19  33  56  82 109 147 193 240 294 353
#     4  10  21  35  54  81 115 151 189 237 292 347
#     4  12  24  41  65  89 118 157 203 255 308 368
#
# _framework density 19.694959000000001
#
# number of rings (size 3 to 8) (size 9 to 14) (size 15 to 20)
#    0.000    2.143    1.429    3.429    0.000    3.714 
#    0.000    4.286    0.000    0.857    0.000    4.000 
#    0.000    0.000    0.000    0.000    0.000    0.000 
#
# Total GULP energy -347104.398159 kJ/mol
# GULP energy per Si atom -12396.585649 kJ/mol
# Density = 1.965013 g / cm^3
# Si number density = 19.694959 Si / 1000 Ang^3
#
#
#
# Elastic Constant Matrix: (Units=GPa)
#
#
# Indices 1 2 3 4 5 6 
#
# 1 134.4434 35.8665 55.0685 0.0000 0.4169 0.0000
# 2 35.8665 65.7167 36.8090 0.0000 3.4133 0.0000
# 3 55.0685 36.8090 118.6764 0.0000 13.8370 0.0000
# 4 0.0000 0.0000 0.0000 23.2031 0.0000 4.5713
# 5 0.4169 3.4133 13.8370 0.0000 38.7712 0.0000
# 6 0.0000 0.0000 0.0000 4.5713 0.0000 22.8745
#
#
#
# Elastic Compliance Matrix: (Units=1/GPa)
#
#
# Indices 1 2 3 4 5 6 
#
# 1 0.009851 -0.003384 -0.003698 0.000000 0.001512 0.000000
# 2 -0.003384 0.019586 -0.004495 0.000000 -0.000084 0.000000
# 3 -0.003698 -0.004495 0.011984 0.000000 -0.003842 0.000000
# 4 0.000000 0.000000 0.000000 0.044864 0.000000 -0.008966
# 5 0.001512 -0.000084 -0.003842 0.000000 0.027154 0.000000
# 6 0.000000 0.000000 0.000000 -0.008966 0.000000 0.045508
#
#
# Mechanical properties :
#
#
# Convention : Reuss Voigt Hill
#
# Bulk Modulus (GPa) = 54.74070 63.81385 59.27727
# Shear Modulus (GPa) = 26.56903 29.70926 28.13914
#
# Velocity S-wave (km/s) = 3.67689 3.88812 3.78398
# Velocity P-wave (km/s) = 6.77353 7.25452 7.01815
#
# Compressibility (1/GPa) = 0.01826794
#
# Stress axis : x y z
#
# Youngs Moduli (GPa) = 101.51621 51.05808 83.44370
#
# Poissons Ratio (x) = 0.17276 0.30855
# Poissons Ratio (y) = 0.34349 0.37507
# Poissons Ratio (z) = 0.37538 0.22950
#
# Static dielectric constant tensor:
#      x y z
#    x 3.952580 0.000000 0.048760 
#    y 0.000000 3.227170 0.000000 
#    z 0.048760 0.000000 3.837970 
# 
# 
# High freq. dielectric constant tensor:
#      x y z
#    x 1.774380 0.000000 0.007390 
#    y 0.000000 1.729060 0.000000 
#    z 0.007390 0.000000 1.776580 
# 
# From -- ./inp_files/231038.got.cif
#   From: 2010.06.25/outbox.cif.g09.slc.cpg/sg12_116_cif.got.tgz:231038.got - 2010.06.28 00:19:55.
