data_PCOD8090907
_publ_section_title
;
Structure prediction by ZEFSAII (Michael W. Deem and Ramdas Pophale) SiO2 
 PCOD8090907
Probable space group: C 2/M
;
_chemical_formula_sum "Si O2"
_cell_formula_units_Z 64
_cell_length_a 14.825430
_cell_length_b 23.990456
_cell_length_c 12.157782
_cell_angle_alpha 90.000000
_cell_angle_beta 138.906395
_cell_angle_gamma 90.000000
_cell_volume 2842.221546
_symmetry_space_group_name_H-M "C 2/M"
_symmetry_group_IT_number 12
_symmetry_cell_setting 'monoclinic'
loop_
_space_group_symop_operation_xyz
x,y,z
-x,y,-z
-x,-y,-z
x,-y,z
1/2+x,1/2+y,z
1/2-x,1/2+y,-z
1/2-x,1/2-y,-z
1/2+x,1/2-y,z
loop_
_atom_site_type_symbol
_atom_site_label
_atom_site_fract_x
_atom_site_fract_y
_atom_site_fract_z
Si Si1 0.003976 0.584522 0.761172
Si Si2 0.795794 0.438131 0.385321
Si Si3 0.410967 0.765928 0.817956
Si Si4 0.426612 0.436224 0.638363
Si Si5 0.730805 0.439117 0.878335
Si Si6 0.203487 0.318789 0.683782
Si Si7 0.986622 0.703384 0.304362
Si Si8 0.771976 0.620170 0.697042
O O1 0.934592 0.560530 0.586332
O O2 0.891318 0.581263 0.754948
O O3 0.051310 0.647515 0.793447
O O4 0.144348 0.553241 0.920575
O O5 0.783938 0.500000 0.318594
O O6 0.660017 0.424579 0.330974
O O7 0.802668 0.386479 0.304126
O O8 0.353729 0.706155 0.804993
O O9 0.491768 0.753230 0.776795
O O10 0.296131 0.814089 0.694246
O O11 0.500000 0.789706 0.000000
O O12 0.403999 0.500000 0.581139
O O13 0.587656 0.423015 0.807709
O O14 0.372886 0.396169 0.491581
O O15 0.710916 0.500000 0.803874
O O16 0.765955 0.392170 0.821000
O O17 0.137911 0.284802 0.726191
O O18 0.125911 0.304239 0.500042
#
# Coordination Sequence:
#
# PCOD8090907 Si02
#       8
#     8   8   8   8   8   8   8   8
#     4   9  18  33  55  82 116 157 199 250 311 359
#     4   9  18  37  62  86 115 156 204 252 306 372
#     4  11  23  41  63  92 127 161 204 263 315 364
#     4   9  19  34  52  82 122 161 203 251 303 369
#     4  11  20  31  50  84 125 160 202 254 305 366
#     4  10  21  41  66  93 121 163 208 256 312 366
#     4   9  20  41  64  88 126 158 204 260 299 370
#     4  10  19  34  53  76 115 163 207 250 301 368
#
# _framework density 22.517596999999999
#
# number of rings (size 3 to 8) (size 9 to 14) (size 15 to 20)
#    0.000    2.250    0.000    4.125    0.000    3.500 
#    9.000    5.625    0.000    1.875    0.000    0.000 
#    0.000    0.000    0.000    0.000    0.000    0.000 
#
# Total GULP energy -396532.926556 kJ/mol
# GULP energy per Si atom -12391.653955 kJ/mol
# Density = 2.246635 g / cm^3
# Si number density = 22.517597 Si / 1000 Ang^3
#
#
#
# Elastic Constant Matrix: (Units=GPa)
#
#
# Indices 1 2 3 4 5 6 
#
# 1 91.3610 30.8468 48.7524 0.0000 3.8085 0.0000
# 2 30.8468 81.1448 19.9419 0.0000 7.3174 0.0000
# 3 48.7524 19.9419 70.4940 0.0000 20.4161 0.0000
# 4 0.0000 0.0000 0.0000 18.0087 0.0000 2.5059
# 5 3.8085 7.3174 20.4161 0.0000 32.8206 0.0000
# 6 0.0000 0.0000 0.0000 2.5059 0.0000 27.1729
#
#
#
# Elastic Compliance Matrix: (Units=1/GPa)
#
#
# Indices 1 2 3 4 5 6 
#
# 1 0.020176 -0.004721 -0.014935 0.000000 0.008002 0.000000
# 2 -0.004721 0.014365 -0.000036 0.000000 -0.002632 0.000000
# 3 -0.014935 -0.000036 0.029299 0.000000 -0.016484 0.000000
# 4 0.000000 0.000000 0.000000 0.056250 0.000000 -0.005187
# 5 0.008002 -0.002632 -0.016484 0.000000 0.040381 0.000000
# 6 0.000000 0.000000 0.000000 -0.005187 0.000000 0.037280
#
#
# Mechanical properties :
#
#
# Convention : Reuss Voigt Hill
#
# Bulk Modulus (GPa) = 40.89247 49.12023 45.00635
# Shear Modulus (GPa) = 20.38432 25.16436 22.77434
#
# Velocity S-wave (km/s) = 3.01202 3.34659 3.18370
# Velocity P-wave (km/s) = 5.50418 6.06584 5.79182
#
# Compressibility (1/GPa) = 0.02445438
#
# Stress axis : x y z
#
# Youngs Moduli (GPa) = 49.56456 69.61574 34.13100
#
# Poissons Ratio (x) = 0.32865 0.50975
# Poissons Ratio (y) = 0.23399 0.00124
# Poissons Ratio (z) = 0.74025 0.00253
#
# Static dielectric constant tensor:
#      x y z
#    x 4.182670 0.000000 0.115520 
#    y 0.000000 3.924380 0.000000 
#    z 0.115520 0.000000 3.757230 
# 
# 
# High freq. dielectric constant tensor:
#      x y z
#    x 1.886150 0.000000 0.007730 
#    y 0.000000 1.871770 0.000000 
#    z 0.007730 0.000000 1.860740 
# 
# From -- ./inp_files/149803.got.cif
#   From: 2010.06.25/outbox.cif.g09.slc.cpg/sg12_75_cif.got.tgz:149803.got - 2010.06.28 00:19:55.
