data_PCOD8090077
_publ_section_title
;
Structure prediction by ZEFSAII (Michael W. Deem and Ramdas Pophale) SiO2 
 PCOD8090077
Probable space group: C 2/M
;
_chemical_formula_sum "Si O2"
_cell_formula_units_Z 48
_cell_length_a 22.897956
_cell_length_b 12.258853
_cell_length_c 23.049191
_cell_angle_alpha 90.000000
_cell_angle_beta 25.045107
_cell_angle_gamma 90.000000
_cell_volume 2738.942817
_symmetry_space_group_name_H-M "C 2/M"
_symmetry_group_IT_number 12
_symmetry_cell_setting 'monoclinic'
loop_
_space_group_symop_operation_xyz
x,y,z
-x,y,-z
-x,-y,-z
x,-y,z
1/2+x,1/2+y,z
1/2-x,1/2+y,-z
1/2-x,1/2-y,-z
1/2+x,1/2-y,z
loop_
_atom_site_type_symbol
_atom_site_label
_atom_site_fract_x
_atom_site_fract_y
_atom_site_fract_z
Si Si1 0.566449 0.871512 0.380799
Si Si2 0.873764 0.124917 0.070085
Si Si3 0.368258 0.373220 0.850538
Si Si4 0.414306 0.754474 0.917804
Si Si5 0.422303 0.761112 0.403088
Si Si6 0.350108 0.127700 0.350791
O O1 0.500000 0.824600 0.500000
O O2 0.728524 0.839311 0.230093
O O3 0.477000 0.825538 0.408887
O O4 0.549388 0.000000 0.394591
O O5 0.861944 0.000000 0.058732
O O6 0.909638 0.204746 0.985522
O O7 0.000000 0.137844 0.000000
O O8 0.349251 0.500000 0.862145
O O9 0.432037 0.343884 0.855873
O O10 0.469875 0.333161 0.709096
O O11 0.222327 0.318990 0.973355
O O12 0.538976 0.840030 0.798183
O O13 0.407337 0.846734 0.363676
O O14 0.280672 0.701979 0.545825
O O15 0.314549 0.000000 0.378421
#
# Coordination Sequence:
#
# PCOD8090077 Si02
#       6
#     8   8   8   8   8   8
#     4  10  21  37  58  82 108 142 181 223 272 322
#     4  10  21  37  57  82 111 141 177 225 274 321
#     4  10  19  33  55  81 108 140 181 221 268 327
#     4  10  20  34  54  83 110 142 176 221 277 320
#     4  10  20  36  56  81 111 145 180 222 271 317
#     4  10  21  35  55  83 114 145 178 221 271 323
#
# _framework density 17.525010999999999
#
# number of rings (size 3 to 8) (size 9 to 14) (size 15 to 20)
#    0.000    2.000    1.667    2.000    2.333    0.000 
#    0.000    1.667    0.000    6.000    0.000    0.000 
#    0.000    0.000    0.000    0.000    0.000    0.000 
#
# Total GULP energy -297598.919331 kJ/mol
# GULP energy per Si atom -12399.954972 kJ/mol
# Density = 1.748512 g / cm^3
# Si number density = 17.525011 Si / 1000 Ang^3
#
#
#
# Elastic Constant Matrix: (Units=GPa)
#
#
# Indices 1 2 3 4 5 6 
#
# 1 98.3735 22.9599 38.3417 0.0003 0.0425 -0.0001
# 2 22.9599 53.2263 23.6080 -0.0007 4.3873 0.0003
# 3 38.3417 23.6080 132.8070 0.0003 0.5104 -0.0002
# 4 0.0003 -0.0007 0.0003 26.5614 -0.0005 1.8047
# 5 0.0425 4.3873 0.5104 -0.0005 29.7581 0.0002
# 6 -0.0001 0.0003 -0.0002 1.8047 0.0002 24.4089
#
#
#
# Elastic Compliance Matrix: (Units=1/GPa)
#
#
# Indices 1 2 3 4 5 6 
#
# 1 0.012209 -0.004075 -0.002803 0.000000 0.000631 0.000000
# 2 -0.004075 0.022018 -0.002725 0.000001 -0.003194 0.000000
# 3 -0.002803 -0.002725 0.008822 0.000000 0.000254 0.000000
# 4 0.000000 0.000001 0.000000 0.037839 0.000001 -0.002798
# 5 0.000631 -0.003194 0.000254 0.000001 0.034070 0.000000
# 6 0.000000 0.000000 0.000000 -0.002798 0.000000 0.041176
#
#
# Mechanical properties :
#
#
# Convention : Reuss Voigt Hill
#
# Bulk Modulus (GPa) = 41.94206 50.46956 46.20581
# Shear Modulus (GPa) = 27.27976 29.44547 28.36261
#
# Velocity S-wave (km/s) = 3.94968 4.10347 4.02731
# Velocity P-wave (km/s) = 6.69213 7.16327 6.93170
#
# Compressibility (1/GPa) = 0.02384242
#
# Stress axis : x y z
#
# Youngs Moduli (GPa) = 81.90970 45.41828 113.34928
#
# Poissons Ratio (x) = 0.18509 0.31768
# Poissons Ratio (y) = 0.33381 0.30888
# Poissons Ratio (z) = 0.22956 0.12377
#
# Static dielectric constant tensor:
#      x y z
#    x 3.188650 0.000000 0.011590 
#    y 0.000000 3.118850 0.000000 
#    z 0.011590 0.000000 3.567940 
# 
# 
# High freq. dielectric constant tensor:
#      x y z
#    x 1.664130 0.000000 -0.007740 
#    y 0.000000 1.668580 0.000000 
#    z -0.007740 0.000000 1.698880 
# 
# From -- ./inp_files/94300.got.cif
#   From: 2010.06.25/outbox.cif.g09.slc.cpg/sg12_48_cif.got.tgz:94300.got - 2010.06.28 00:19:55.
