data_PCOD8090614
_publ_section_title
;
Structure prediction by ZEFSAII (Michael W. Deem and Ramdas Pophale) SiO2 
 PCOD8090614
Probable space group: C 2/M
;
_chemical_formula_sum "Si O2"
_cell_formula_units_Z 64
_cell_length_a 25.589591
_cell_length_b 18.206380
_cell_length_c 18.448153
_cell_angle_alpha 90.000000
_cell_angle_beta 157.847634
_cell_angle_gamma 90.000000
_cell_volume 3240.879430
_symmetry_space_group_name_H-M "C 2/M"
_symmetry_group_IT_number 12
_symmetry_cell_setting 'monoclinic'
loop_
_space_group_symop_operation_xyz
x,y,z
-x,y,-z
-x,-y,-z
x,-y,z
1/2+x,1/2+y,z
1/2-x,1/2+y,-z
1/2-x,1/2-y,-z
1/2+x,1/2-y,z
loop_
_atom_site_type_symbol
_atom_site_label
_atom_site_fract_x
_atom_site_fract_y
_atom_site_fract_z
Si Si1 0.157670 0.162938 0.023058
Si Si2 0.610815 0.825623 0.930126
Si Si3 0.122623 0.918067 0.342627
Si Si4 0.801420 0.307989 0.505583
Si Si5 0.858849 0.811907 0.844651
Si Si6 0.619183 0.418388 0.502418
Si Si7 0.306428 0.412834 0.075484
Si Si8 0.386171 0.851212 0.908627
O O1 0.212567 0.148058 0.176781
O O2 0.186898 0.247567 0.039390
O O3 0.225585 0.111426 0.048800
O O4 0.995393 0.142922 0.819182
O O5 0.464703 0.807054 0.706600
O O6 0.697194 0.875319 0.986843
O O7 0.590737 0.873842 0.977905
O O8 0.252996 0.890206 0.463832
O O9 0.172688 0.920845 0.489353
O O10 0.076454 0.000000 0.258075
O O11 0.750000 0.250000 0.500000
O O12 0.746284 0.292068 0.354284
O O13 0.915013 0.735196 0.948249
O O14 0.000000 0.854683 0.000000
O O15 0.622835 0.500000 0.541420
O O16 0.460991 0.388099 0.299713
O O17 0.726407 0.368158 0.683908
O O18 0.292687 0.500000 0.060967
O O19 0.500000 0.888427 0.000000
#
# Coordination Sequence:
#
# PCOD8090614 Si02
#       8
#     8   8   8   8   8   8   8   8
#     4  10  19  39  59  85 118 154 203 255 301 354
#     4  11  23  36  61  89 118 159 205 250 300 371
#     4  10  19  33  57  88 119 154 199 241 301 369
#     4  12  20  36  61  88 125 159 189 251 314 363
#     4  10  19  34  57  90 120 150 197 248 306 370
#     4   9  19  35  57  82 115 164 201 236 297 364
#     4  10  23  42  62  83 118 165 210 250 301 368
#     4  10  20  35  55  90 125 152 192 252 311 364
#
# _framework density 19.747726
#
# number of rings (size 3 to 8) (size 9 to 14) (size 15 to 20)
#    0.000    1.750    2.500    4.500    1.750    1.750 
#    0.000    3.750    0.000    0.750    0.000    0.000 
#    0.000    0.000    0.000    0.000    0.000    0.000 
#
# Total GULP energy -396505.402693 kJ/mol
# GULP energy per Si atom -12390.793834 kJ/mol
# Density = 1.970278 g / cm^3
# Si number density = 19.747726 Si / 1000 Ang^3
#
#
#
# Elastic Constant Matrix: (Units=GPa)
#
#
# Indices 1 2 3 4 5 6 
#
# 1 150.7496 45.3056 63.8974 0.0000 -4.5395 0.0000
# 2 45.3056 71.7395 17.6631 0.0001 4.2565 0.0000
# 3 63.8974 17.6631 89.4823 0.0003 -8.0570 0.0001
# 4 0.0000 0.0001 0.0003 23.9936 0.0002 4.7021
# 5 -4.5395 4.2565 -8.0570 0.0002 35.4005 0.0001
# 6 0.0000 0.0000 0.0001 4.7021 0.0001 23.8677
#
#
#
# Elastic Compliance Matrix: (Units=1/GPa)
#
#
# Indices 1 2 3 4 5 6 
#
# 1 0.011187 -0.005403 -0.006875 0.000000 0.000519 0.000000
# 2 -0.005403 0.017476 0.000160 0.000000 -0.002758 0.000000
# 3 -0.006875 0.000160 0.016306 0.000000 0.002810 0.000000
# 4 0.000000 0.000000 0.000000 0.043352 0.000000 -0.008541
# 5 0.000519 -0.002758 0.002810 0.000000 0.029286 0.000000
# 6 0.000000 0.000000 0.000000 -0.008541 0.000000 0.043580
#
#
# Mechanical properties :
#
#
# Convention : Reuss Voigt Hill
#
# Bulk Modulus (GPa) = 48.23185 62.85597 55.54391
# Shear Modulus (GPa) = 25.99649 28.99270 27.49460
#
# Velocity S-wave (km/s) = 3.63220 3.83581 3.73539
# Velocity P-wave (km/s) = 6.48595 7.17750 6.84047
#
# Compressibility (1/GPa) = 0.02073319
#
# Stress axis : x y z
#
# Youngs Moduli (GPa) = 89.38844 57.22252 61.32629
#
# Poissons Ratio (x) = 0.30918 0.42163
# Poissons Ratio (y) = 0.48297 -0.00983
# Poissons Ratio (z) = 0.61456 -0.00918
#
# Static dielectric constant tensor:
#      x y z
#    x 3.837450 0.000000 -0.089780 
#    y 0.000000 3.516980 0.000000 
#    z -0.089780 0.000000 3.341860 
# 
# 
# High freq. dielectric constant tensor:
#      x y z
#    x 1.775640 0.000000 -0.009670 
#    y 0.000000 1.751830 0.000000 
#    z -0.009670 0.000000 1.745390 
# 
# From -- ./inp_files/290936.got.cif
#   From: 2010.06.25/outbox.cif.g09.slc.cpg/sg12_146_cif.got.tgz:290936.got - 2010.06.28 00:19:55.
