data_PCOD8090328
_publ_section_title
;
Structure prediction by ZEFSAII (Michael W. Deem and Ramdas Pophale) SiO2 
 PCOD8090328
Probable space group: C 2/M
;
_chemical_formula_sum "Si O2"
_cell_formula_units_Z 40
_cell_length_a 35.100616
_cell_length_b 10.314663
_cell_length_c 9.010777
_cell_angle_alpha 90.000000
_cell_angle_beta 38.062961
_cell_angle_gamma 90.000000
_cell_volume 2011.333769
_symmetry_space_group_name_H-M "C 2/M"
_symmetry_group_IT_number 12
_symmetry_cell_setting 'monoclinic'
loop_
_space_group_symop_operation_xyz
x,y,z
-x,y,-z
-x,-y,-z
x,-y,z
1/2+x,1/2+y,z
1/2-x,1/2+y,-z
1/2-x,1/2-y,-z
1/2+x,1/2-y,z
loop_
_atom_site_type_symbol
_atom_site_label
_atom_site_fract_x
_atom_site_fract_y
_atom_site_fract_z
Si Si1 0.775743 0.285716 0.580285
Si Si2 0.364236 0.645536 0.500395
Si Si3 0.347033 0.645298 0.894348
Si Si4 0.435618 0.149692 0.772176
Si Si5 0.592193 0.139221 0.814954
O O1 0.750000 0.250000 0.500000
O O2 0.801625 0.161039 0.593869
O O3 0.834575 0.379040 0.374843
O O4 0.723741 0.355958 0.836588
O O5 0.389526 0.500000 0.406041
O O6 0.349407 0.681372 0.714482
O O7 0.417162 0.745816 0.277318
O O8 0.374016 0.500000 0.838862
O O9 0.383769 0.753333 0.872140
O O10 0.500000 0.187079 0.500000
O O11 0.417158 0.000000 0.794740
O O12 0.443335 0.173134 0.924236
O O13 0.568257 0.000000 0.826009
#
# Coordination Sequence:
#
# PCOD8090328 Si02
#       5
#     8   8   8   8   8
#     4  10  19  33  56  81 113 147 174 222 267 328
#     4   9  21  35  53  83 117 148 178 220 272 331
#     4  11  21  37  57  83 115 145 182 224 274 328
#     4  10  22  40  59  81 108 142 188 234 275 323
#     4   9  19  35  55  79 108 143 182 224 270 323
#
# _framework density 19.8873
#
# number of rings (size 3 to 8) (size 9 to 14) (size 15 to 20)
#    1.200    1.000    2.000    1.200    0.000    6.000 
#    0.000    1.000    0.000    6.000    0.000    0.000 
#    0.000    0.000    0.000    0.000    0.000    0.000 
#
# Total GULP energy -247776.966598 kJ/mol
# GULP energy per Si atom -12388.848330 kJ/mol
# Density = 1.984204 g / cm^3
# Si number density = 19.887300 Si / 1000 Ang^3
#
#
#
# Elastic Constant Matrix: (Units=GPa)
#
#
# Indices 1 2 3 4 5 6 
#
# 1 39.7688 27.4756 7.7231 0.0000 22.8198 0.0000
# 2 27.4756 111.7630 34.1049 0.0000 24.1193 0.0000
# 3 7.7231 34.1049 121.5817 0.0000 27.1213 0.0000
# 4 0.0000 0.0000 0.0000 13.4767 0.0000 15.1346
# 5 22.8198 24.1193 27.1213 0.0000 37.3229 0.0000
# 6 0.0000 0.0000 0.0000 15.1346 0.0000 21.5226
#
#
#
# Elastic Compliance Matrix: (Units=1/GPa)
#
#
# Indices 1 2 3 4 5 6 
#
# 1 0.043672 -0.006620 0.004875 0.000000 -0.025966 0.000000
# 2 -0.006620 0.011701 -0.002480 0.000000 -0.001712 0.000000
# 3 0.004875 -0.002480 0.010644 0.000000 -0.009113 0.000000
# 4 0.000000 0.000000 0.000000 0.352851 0.000000 -0.248124
# 5 -0.025966 -0.001712 -0.009113 0.000000 0.050398 0.000000
# 6 0.000000 0.000000 0.000000 -0.248124 0.000000 0.220943
#
#
# Mechanical properties :
#
#
# Convention : Reuss Voigt Hill
#
# Bulk Modulus (GPa) = 17.37096 45.74672 31.55884
# Shear Modulus (GPa) = 6.96526 28.05175 17.50851
#
# Velocity S-wave (km/s) = 1.87349 3.75978 2.97035
# Velocity P-wave (km/s) = 3.66519 6.47309 5.25997
#
# Compressibility (1/GPa) = 0.05756735
#
# Stress axis : x y z
#
# Youngs Moduli (GPa) = 22.89781 85.46127 93.95295
#
# Poissons Ratio (x) = 0.56578 -0.45804
# Poissons Ratio (y) = 0.15159 0.23299
# Poissons Ratio (z) = -0.11163 0.21194
#
# Static dielectric constant tensor:
#      x y z
#    x 3.256560 0.000000 0.240480 
#    y 0.000000 3.547920 0.000000 
#    z 0.240480 0.000000 3.720360 
# 
# 
# High freq. dielectric constant tensor:
#      x y z
#    x 1.751620 0.000000 0.024890 
#    y 0.000000 1.776940 0.000000 
#    z 0.024890 0.000000 1.781270 
# 
# From -- ./inp_files/109688.got.cif
#   From: 2010.06.25/outbox.cif.g09.slc.cpg/sg12_55_cif.got.tgz:109688.got - 2010.06.28 00:19:55.
