data_PCOD8090113
_publ_section_title
;
Structure prediction by ZEFSAII (Michael W. Deem and Ramdas Pophale) SiO2 
 PCOD8090113
Probable space group: C 2/M
;
_chemical_formula_sum "Si O2"
_cell_formula_units_Z 64
_cell_length_a 20.118413
_cell_length_b 9.008611
_cell_length_c 24.827543
_cell_angle_alpha 90.000000
_cell_angle_beta 131.432034
_cell_angle_gamma 90.000000
_cell_volume 3373.624027
_symmetry_space_group_name_H-M "C 2/M"
_symmetry_group_IT_number 12
_symmetry_cell_setting 'monoclinic'
loop_
_space_group_symop_operation_xyz
x,y,z
-x,y,-z
-x,-y,-z
x,-y,z
1/2+x,1/2+y,z
1/2-x,1/2+y,-z
1/2-x,1/2-y,-z
1/2+x,1/2-y,z
loop_
_atom_site_type_symbol
_atom_site_label
_atom_site_fract_x
_atom_site_fract_y
_atom_site_fract_z
Si Si1 0.768661 0.172508 0.590276
Si Si2 0.038842 0.168154 0.900361
Si Si3 0.630400 0.824992 0.161106
Si Si4 0.204171 0.827974 0.925790
Si Si5 0.949336 0.171299 0.417432
Si Si6 0.336628 0.672832 0.930755
Si Si7 0.235376 0.326330 0.691048
Si Si8 0.381606 0.327386 0.553324
O O1 0.785911 0.210804 0.662000
O O2 0.679367 0.251217 0.523833
O O3 0.852867 0.222203 0.598530
O O4 0.750214 0.000000 0.573314
O O5 0.098260 0.188675 0.878044
O O6 0.956795 0.280076 0.851860
O O7 0.002251 0.000000 0.883599
O O8 0.097239 0.202026 0.984406
O O9 0.620514 0.749847 0.097745
O O10 0.718262 0.766504 0.237247
O O11 0.636350 0.000000 0.158063
O O12 0.240219 0.747295 0.891311
O O13 0.231702 0.000000 0.939026
O O14 0.250000 0.750000 0.000000
O O15 0.866579 0.279413 0.367248
O O16 0.000000 0.204012 0.500000
O O17 0.015792 0.210178 0.403441
O O18 0.918048 0.000000 0.398263
O O19 0.322077 0.500000 0.911751
O O20 0.240697 0.500000 0.707629
O O21 0.365170 0.500000 0.535962
#
# Coordination Sequence:
#
# PCOD8090113 Si02
#       8
#     8   8   8   8   8   8   8   8
#     4   9  18  32  52  78 104 135 173 214 260 315
#     4   9  19  36  58  84 114 148 185 227 278 331
#     4  12  25  38  55  79 109 148 192 235 285 340
#     4   9  17  31  54  84 115 146 182 227 277 327
#     4  10  19  33  55  82 109 139 174 216 268 325
#     4  10  20  36  59  85 115 148 185 233 283 335
#     4  11  23  38  55  75 107 145 183 227 278 333
#     4   9  17  31  53  80 108 135 168 213 264 315
#
# _framework density 18.970697999999999
#
# number of rings (size 3 to 8) (size 9 to 14) (size 15 to 20)
#    0.000    2.125    1.250    3.375    0.000    5.750 
#    0.000    1.250    0.000    6.000    0.000    0.000 
#    0.000    0.000    0.000    0.000    0.000    0.000 
#
# Total GULP energy -396726.756631 kJ/mol
# GULP energy per Si atom -12397.711145 kJ/mol
# Density = 1.892752 g / cm^3
# Si number density = 18.970698 Si / 1000 Ang^3
#
#
#
# Elastic Constant Matrix: (Units=GPa)
#
#
# Indices 1 2 3 4 5 6 
#
# 1 101.9193 41.1441 21.2577 0.0000 8.8851 0.0000
# 2 41.1441 99.2647 28.8683 0.0000 7.1785 0.0000
# 3 21.2577 28.8683 44.4698 0.0000 9.3934 0.0000
# 4 0.0000 0.0000 0.0000 28.0306 0.0000 2.6052
# 5 8.8851 7.1785 9.3934 0.0000 16.6185 0.0000
# 6 0.0000 0.0000 0.0000 2.6052 0.0000 33.7694
#
#
#
# Elastic Compliance Matrix: (Units=1/GPa)
#
#
# Indices 1 2 3 4 5 6 
#
# 1 0.012291 -0.004128 -0.002480 0.000000 -0.003386 0.000000
# 2 -0.004128 0.013818 -0.007043 0.000000 0.000219 0.000000
# 3 -0.002480 -0.007043 0.031026 0.000000 -0.013169 0.000000
# 4 0.000000 0.000000 0.000000 0.035933 0.000000 -0.002772
# 5 -0.003386 0.000219 -0.013169 0.000000 0.069333 0.000000
# 6 0.000000 0.000000 0.000000 -0.002772 0.000000 0.029826
#
#
# Mechanical properties :
#
#
# Convention : Reuss Voigt Hill
#
# Bulk Modulus (GPa) = 33.52072 47.57711 40.54891
# Shear Modulus (GPa) = 21.78900 25.97594 23.88247
#
# Velocity S-wave (km/s) = 3.39272 3.70437 3.55197
# Velocity P-wave (km/s) = 5.74939 6.59016 6.18408
#
# Compressibility (1/GPa) = 0.02983230
#
# Stress axis : x y z
#
# Youngs Moduli (GPa) = 81.36231 72.37191 32.23069
#
# Poissons Ratio (x) = 0.29877 0.07993
# Poissons Ratio (y) = 0.33588 0.22699
# Poissons Ratio (z) = 0.20179 0.50970
#
# Static dielectric constant tensor:
#      x y z
#    x 4.088910 0.000000 -0.138420 
#    y 0.000000 3.557190 0.000000 
#    z -0.138420 0.000000 3.128940 
# 
# 
# High freq. dielectric constant tensor:
#      x y z
#    x 1.758150 0.000000 -0.004910 
#    y 0.000000 1.741010 0.000000 
#    z -0.004910 0.000000 1.695500 
# 
# From -- ./inp_files/346102.got.cif
#   From: 2010.06.25/outbox.cif.g09.slc.cpg/sg12_174_cif.got.tgz:346102.got - 2010.06.28 00:19:55.
