data_PCOD8090093
_publ_section_title
;
Structure prediction by ZEFSAII (Michael W. Deem and Ramdas Pophale) SiO2 
 PCOD8090093
Probable space group: C 2/M
;
_chemical_formula_sum "Si O2"
_cell_formula_units_Z 48
_cell_length_a 17.811940
_cell_length_b 8.697193
_cell_length_c 15.335443
_cell_angle_alpha 90.000000
_cell_angle_beta 86.449069
_cell_angle_gamma 90.000000
_cell_volume 2371.112009
_symmetry_space_group_name_H-M "C 2/M"
_symmetry_group_IT_number 12
_symmetry_cell_setting 'monoclinic'
loop_
_space_group_symop_operation_xyz
x,y,z
-x,y,-z
-x,-y,-z
x,-y,z
1/2+x,1/2+y,z
1/2-x,1/2+y,-z
1/2-x,1/2-y,-z
1/2+x,1/2-y,z
loop_
_atom_site_type_symbol
_atom_site_label
_atom_site_fract_x
_atom_site_fract_y
_atom_site_fract_z
Si Si1 0.357848 0.317960 0.660487
Si Si2 0.332085 0.819323 0.489864
Si Si3 0.668510 0.681134 0.020266
Si Si4 0.577742 0.819360 0.178374
Si Si5 0.812261 0.680449 0.302408
Si Si6 0.089802 0.318125 0.863161
O O1 0.364902 0.500000 0.667141
O O2 0.381735 0.264154 0.560822
O O3 0.414507 0.236644 0.722921
O O4 0.273163 0.256725 0.687094
O O5 0.250000 0.750000 0.500000
O O6 0.359146 0.784564 0.388503
O O7 0.330399 0.000000 0.508943
O O8 0.674817 0.500000 0.016516
O O9 0.610406 0.739765 0.952274
O O10 0.750000 0.750000 0.000000
O O11 0.639637 0.731809 0.116838
O O12 0.495301 0.773458 0.151818
O O13 0.591616 0.000000 0.170472
O O14 0.806893 0.500000 0.289599
O O15 0.856893 0.750910 0.217117
O O16 0.099914 0.500000 0.872107
#
# Coordination Sequence:
#
# PCOD8090093 Si02
#       6
#     8   8   8   8   8   8
#     4  10  19  33  55  81 111 148 191 237 283 334
#     4   9  16  29  51  79 110 143 185 235 285 335
#     4  12  25  41  62  86 113 145 185 231 278 333
#     4  11  23  38  58  84 114 149 187 230 282 338
#     4   8  16  32  55  80 105 141 186 231 278 328
#     4  10  21  39  60  83 114 149 187 231 281 337
#
# _framework density 20.243666000000001
#
# number of rings (size 3 to 8) (size 9 to 14) (size 15 to 20)
#    0.000    2.000    0.000    5.500    0.000    4.667 
#    0.000    5.000    0.000    5.000    0.000    0.000 
#    0.000    0.000    0.000    0.000    0.000    0.000 
#
# Total GULP energy -297559.736342 kJ/mol
# GULP energy per Si atom -12398.322348 kJ/mol
# Density = 2.019759 g / cm^3
# Si number density = 20.243666 Si / 1000 Ang^3
#
#
#
# Elastic Constant Matrix: (Units=GPa)
#
#
# Indices 1 2 3 4 5 6 
#
# 1 60.8702 37.9859 16.2458 0.0000 22.4225 0.0000
# 2 37.9859 67.5420 21.7774 0.0000 15.0312 0.0000
# 3 16.2458 21.7774 99.3304 0.0000 30.3668 0.0000
# 4 0.0000 0.0000 0.0000 35.9755 0.0000 4.9308
# 5 22.4225 15.0312 30.3668 0.0000 35.0373 0.0000
# 6 0.0000 0.0000 0.0000 4.9308 0.0000 21.9878
#
#
#
# Elastic Compliance Matrix: (Units=1/GPa)
#
#
# Indices 1 2 3 4 5 6 
#
# 1 0.030659 -0.014679 0.003098 0.000000 -0.016008 0.000000
# 2 -0.014679 0.023682 -0.003479 0.000000 0.002249 0.000000
# 3 0.003098 -0.003479 0.014249 0.000000 -0.012839 0.000000
# 4 0.000000 0.000000 0.000000 0.028678 0.000000 -0.006431
# 5 -0.016008 0.002249 -0.012839 0.000000 0.048948 0.000000
# 6 0.000000 0.000000 0.000000 -0.006431 0.000000 0.046922
#
#
# Mechanical properties :
#
#
# Convention : Reuss Voigt Hill
#
# Bulk Modulus (GPa) = 25.99475 42.19566 34.09520
# Shear Modulus (GPa) = 21.17912 28.71568 24.94740
#
# Velocity S-wave (km/s) = 3.23803 3.77039 3.51430
# Velocity P-wave (km/s) = 5.18156 6.31217 5.77460
#
# Compressibility (1/GPa) = 0.03846931
#
# Stress axis : x y z
#
# Youngs Moduli (GPa) = 32.61711 42.22571 70.18195
#
# Poissons Ratio (x) = 0.61983 -0.21741
# Poissons Ratio (y) = 0.47878 0.24417
# Poissons Ratio (z) = -0.10104 0.14690
#
# Static dielectric constant tensor:
#      x y z
#    x 3.597820 0.000000 0.116590 
#    y 0.000000 3.591460 0.000000 
#    z 0.116590 0.000000 4.385880 
# 
# 
# High freq. dielectric constant tensor:
#      x y z
#    x 1.766060 0.000000 0.011120 
#    y 0.000000 1.780160 0.000000 
#    z 0.011120 0.000000 1.814710 
# 
# From -- ./inp_files/221624.got.cif
#   From: 2010.06.25/outbox.cif.g09.slc.cpg/sg12_111_cif.got.tgz:221624.got - 2010.06.28 00:19:55.
