data_PCOD8090270
_publ_section_title
;
Structure prediction by ZEFSAII (Michael W. Deem and Ramdas Pophale) SiO2 
 PCOD8090270
Probable space group: C 2/M
;
_chemical_formula_sum "Si O2"
_cell_formula_units_Z 56
_cell_length_a 20.128265
_cell_length_b 18.136505
_cell_length_c 9.270774
_cell_angle_alpha 90.000000
_cell_angle_beta 116.574951
_cell_angle_gamma 90.000000
_cell_volume 3026.797742
_symmetry_space_group_name_H-M "C 2/M"
_symmetry_group_IT_number 12
_symmetry_cell_setting 'monoclinic'
loop_
_space_group_symop_operation_xyz
x,y,z
-x,y,-z
-x,-y,-z
x,-y,z
1/2+x,1/2+y,z
1/2-x,1/2+y,-z
1/2-x,1/2-y,-z
1/2+x,1/2-y,z
loop_
_atom_site_type_symbol
_atom_site_label
_atom_site_fract_x
_atom_site_fract_y
_atom_site_fract_z
Si Si1 0.221404 0.658955 0.814269
Si Si2 0.398037 0.723677 0.276275
Si Si3 0.691963 0.585794 0.850438
Si Si4 0.054304 0.271526 0.365829
Si Si5 0.313471 0.706672 0.647777
Si Si6 0.235987 0.081762 0.577241
Si Si7 0.626187 0.083254 0.480784
O O1 0.172099 0.724969 0.833822
O O2 0.289282 0.695625 0.789925
O O3 0.172052 0.606185 0.666356
O O4 0.252673 0.606504 0.967889
O O5 0.380414 0.638848 0.217929
O O6 0.469669 0.748976 0.253146
O O7 0.414459 0.730581 0.462004
O O8 0.667552 0.500000 0.840298
O O9 0.735685 0.602727 0.745038
O O10 0.107241 0.248016 0.283791
O O11 0.057761 0.360271 0.391945
O O12 0.250000 0.750000 0.500000
O O13 0.321232 0.628982 0.573364
O O14 0.320574 0.090486 0.606115
O O15 0.205959 0.000000 0.524721
O O16 0.595402 0.000000 0.468099
#
# Coordination Sequence:
#
# PCOD8090270 Si02
#       7
#     8   8   8   8   8   8   8
#     4  10  20  33  57  78 110 138 181 221 268 316
#     4  10  20  35  52  81 108 141 178 224 263 320
#     4  11  21  35  54  80 111 143 178 223 269 315
#     4  10  19  33  56  78 110 139 181 222 267 316
#     4  11  16  33  55  79 102 140 182 221 256 312
#     4   9  17  29  51  79 104 132 176 222 261 304
#     4   9  17  32  54  82 108 135 173 223 270 318
#
# _framework density 18.501401999999999
#
# number of rings (size 3 to 8) (size 9 to 14) (size 15 to 20)
#    0.000    2.000    5.714    0.857    0.000    0.571 
#    0.000    9.286    0.000    0.857    0.000    3.000 
#    0.000    0.000    0.000    0.000    0.000    0.000 
#
# Total GULP energy -347114.839505 kJ/mol
# GULP energy per Si atom -12396.958554 kJ/mol
# Density = 1.845929 g / cm^3
# Si number density = 18.501402 Si / 1000 Ang^3
#
#
#
# Elastic Constant Matrix: (Units=GPa)
#
#
# Indices 1 2 3 4 5 6 
#
# 1 110.2576 61.3688 32.1558 0.0000 5.5875 0.0000
# 2 61.3688 147.0971 41.7029 0.0000 9.8606 0.0000
# 3 32.1558 41.7029 50.5915 0.0000 -1.5627 0.0000
# 4 0.0000 0.0000 0.0000 25.5621 0.0000 -1.1632
# 5 5.5875 9.8606 -1.5627 0.0000 16.1646 0.0000
# 6 0.0000 0.0000 0.0000 -1.1632 0.0000 25.4991
#
#
#
# Elastic Compliance Matrix: (Units=1/GPa)
#
#
# Indices 1 2 3 4 5 6 
#
# 1 0.012758 -0.003682 -0.005156 0.000000 -0.002662 0.000000
# 2 -0.003682 0.010586 -0.006565 0.000000 -0.005819 0.000000
# 3 -0.005156 -0.006565 0.028719 0.000000 0.008563 0.000000
# 4 0.000000 0.000000 0.000000 0.039202 0.000000 0.001788
# 5 -0.002662 -0.005819 0.008563 0.000000 0.067161 0.000000
# 6 0.000000 0.000000 0.000000 0.001788 0.000000 0.039299
#
#
# Mechanical properties :
#
#
# Convention : Reuss Voigt Hill
#
# Bulk Modulus (GPa) = 47.04443 64.26678 55.65561
# Shear Modulus (GPa) = 21.22088 24.95974 23.09031
#
# Velocity S-wave (km/s) = 3.39039 3.67696 3.53658
# Velocity P-wave (km/s) = 6.38820 7.26899 6.84278
#
# Compressibility (1/GPa) = 0.02125650
#
# Stress axis : x y z
#
# Youngs Moduli (GPa) = 78.38352 94.46494 34.81980
#
# Poissons Ratio (x) = 0.34786 0.17951
# Poissons Ratio (y) = 0.28864 0.22860
# Poissons Ratio (z) = 0.40411 0.62019
#
# Static dielectric constant tensor:
#      x y z
#    x 3.469650 0.000000 -0.189880 
#    y 0.000000 3.794960 0.000000 
#    z -0.189880 0.000000 3.049240 
# 
# 
# High freq. dielectric constant tensor:
#      x y z
#    x 1.704880 0.000000 -0.020120 
#    y 0.000000 1.733910 0.000000 
#    z -0.020120 0.000000 1.679300 
# 
# From -- ./inp_files/88058.got.cif
#   From: 2010.06.25/outbox.cif.g09.slc.cpg/sg12_45_cif.got.tgz:88058.got - 2010.06.28 00:19:55.
