data_PCOD8090866
_publ_section_title
;
Structure prediction by ZEFSAII (Michael W. Deem and Ramdas Pophale) SiO2 
 PCOD8090866
Probable space group: C 2/M
;
_chemical_formula_sum "Si O2"
_cell_formula_units_Z 64
_cell_length_a 18.448443
_cell_length_b 10.354647
_cell_length_c 20.712650
_cell_angle_alpha 90.000000
_cell_angle_beta 116.970671
_cell_angle_gamma 90.000000
_cell_volume 3526.344748
_symmetry_space_group_name_H-M "C 2/M"
_symmetry_group_IT_number 12
_symmetry_cell_setting 'monoclinic'
loop_
_space_group_symop_operation_xyz
x,y,z
-x,y,-z
-x,-y,-z
x,-y,z
1/2+x,1/2+y,z
1/2-x,1/2+y,-z
1/2-x,1/2-y,-z
1/2+x,1/2-y,z
loop_
_atom_site_type_symbol
_atom_site_label
_atom_site_fract_x
_atom_site_fract_y
_atom_site_fract_z
Si Si1 0.617202 0.644352 0.929652
Si Si2 0.877155 0.649100 0.738699
Si Si3 0.531284 0.651016 0.583927
Si Si4 0.700952 0.648676 0.701210
Si Si5 0.354102 0.224626 0.193782
Si Si6 0.511097 0.857265 0.331996
Si Si7 0.434491 0.647573 0.856791
Si Si8 0.314650 0.643773 0.915258
O O1 0.648395 0.500000 0.928921
O O2 0.619453 0.711295 0.861762
O O3 0.525762 0.646739 0.920641
O O4 0.672854 0.710827 0.008880
O O5 0.884996 0.500000 0.767514
O O6 0.785648 0.708087 0.709561
O O7 0.934457 0.750200 0.798570
O O8 0.906866 0.654360 0.676831
O O9 0.500000 0.677569 0.500000
O O10 0.519668 0.500000 0.599124
O O11 0.625758 0.694245 0.625985
O O12 0.482295 0.743020 0.613071
O O13 0.713339 0.500000 0.696545
O O14 0.680774 0.674979 0.767829
O O15 0.430533 0.149689 0.254496
O O16 0.278389 0.133761 0.145081
O O17 0.508815 0.000000 0.363878
O O18 0.409972 0.500000 0.825577
O O19 0.371993 0.707615 0.884111
O O20 0.349515 0.500000 0.938220
#
# Coordination Sequence:
#
# PCOD8090866 Si02
#       8
#     8   8   8   8   8   8   8   8
#     4  10  20  32  48  71  97 132 179 226 270 316
#     4  10  19  35  53  75 105 136 172 211 254 306
#     4   9  19  37  60  85 111 138 169 205 245 295
#     4   9  18  32  54  77 101 136 171 209 253 302
#     4  11  18  31  51  71 102 133 175 220 262 312
#     4  10  21  34  54  80 108 140 170 208 256 304
#     4  10  19  34  53  71  96 134 177 222 266 311
#     4  10  20  32  47  69  99 134 175 225 274 315
#
# _framework density 18.149104999999999
#
# number of rings (size 3 to 8) (size 9 to 14) (size 15 to 20)
#    0.000    2.125    2.500    1.500    0.000    2.750 
#    0.000    0.625    0.000    3.000    0.000    0.000 
#    0.000    0.000    0.000    0.000    0.000    0.000 
#
# Total GULP energy -396454.846173 kJ/mol
# GULP energy per Si atom -12389.213943 kJ/mol
# Density = 1.810780 g / cm^3
# Si number density = 18.149105 Si / 1000 Ang^3
#
#
#
# Elastic Constant Matrix: (Units=GPa)
#
#
# Indices 1 2 3 4 5 6 
#
# 1 97.6483 14.0522 31.9353 0.0000 -7.7207 0.0000
# 2 14.0522 58.6144 33.5792 0.0000 -14.6016 0.0000
# 3 31.9353 33.5792 100.8692 0.0000 -8.1355 0.0000
# 4 0.0000 0.0000 0.0000 23.2433 0.0000 -2.6091
# 5 -7.7207 -14.6016 -8.1355 0.0000 20.7086 0.0000
# 6 0.0000 0.0000 0.0000 -2.6091 0.0000 22.8013
#
#
#
# Elastic Compliance Matrix: (Units=1/GPa)
#
#
# Indices 1 2 3 4 5 6 
#
# 1 0.011599 -0.000106 -0.003402 0.000000 0.002913 0.000000
# 2 -0.000106 0.024765 -0.007028 0.000000 0.014661 0.000000
# 3 -0.003402 -0.007028 0.013248 0.000000 -0.001019 0.000000
# 4 0.000000 0.000000 0.000000 0.043583 0.000000 0.004987
# 5 0.002913 0.014661 -0.001019 0.000000 0.059312 0.000000
# 6 0.000000 0.000000 0.000000 0.004987 0.000000 0.044428
#
#
# Mechanical properties :
#
#
# Convention : Reuss Voigt Hill
#
# Bulk Modulus (GPa) = 35.03901 46.25172 40.64536
# Shear Modulus (GPa) = 21.97606 25.18832 23.58219
#
# Velocity S-wave (km/s) = 3.48352 3.72943 3.60857
# Velocity P-wave (km/s) = 5.96054 6.63962 6.30922
#
# Compressibility (1/GPa) = 0.02853962
#
# Stress axis : x y z
#
# Youngs Moduli (GPa) = 86.21407 40.38036 75.48124
#
# Poissons Ratio (x) = 0.00429 0.25679
# Poissons Ratio (y) = 0.00915 0.53048
# Poissons Ratio (z) = 0.29330 0.28379
#
# Static dielectric constant tensor:
#      x y z
#    x 3.534670 0.000000 0.106350 
#    y 0.000000 3.237520 0.000000 
#    z 0.106350 0.000000 3.261160 
# 
# 
# High freq. dielectric constant tensor:
#      x y z
#    x 1.714520 0.000000 0.004120 
#    y 0.000000 1.686450 0.000000 
#    z 0.004120 0.000000 1.686020 
# 
# From -- ./inp_files/315325.got.cif
#   From: 2010.06.25/outbox.cif.g09.slc.cpg/sg12_158_cif.got.tgz:315325.got - 2010.06.28 00:19:55.
