data_PCOD8090291
_publ_section_title
;
Structure prediction by ZEFSAII (Michael W. Deem and Ramdas Pophale) SiO2 
 PCOD8090291
Probable space group: C 2/M
;
_chemical_formula_sum "Si O2"
_cell_formula_units_Z 40
_cell_length_a 23.945070
_cell_length_b 18.205222
_cell_length_c 15.473047
_cell_angle_alpha 90.000000
_cell_angle_beta 163.376945
_cell_angle_gamma 90.000000
_cell_volume 1929.595430
_symmetry_space_group_name_H-M "C 2/M"
_symmetry_group_IT_number 12
_symmetry_cell_setting 'monoclinic'
loop_
_space_group_symop_operation_xyz
x,y,z
-x,y,-z
-x,-y,-z
x,-y,z
1/2+x,1/2+y,z
1/2-x,1/2+y,-z
1/2-x,1/2-y,-z
1/2+x,1/2-y,z
loop_
_atom_site_type_symbol
_atom_site_label
_atom_site_fract_x
_atom_site_fract_y
_atom_site_fract_z
Si Si1 0.666381 0.416733 0.868886
Si Si2 0.646093 0.315428 0.295670
Si Si3 0.374587 0.419710 0.995262
Si Si4 0.465250 0.267457 0.352049
Si Si5 0.078884 0.632526 0.428401
O O1 0.597067 0.500000 0.744008
O O2 0.710081 0.405723 0.034788
O O3 0.857153 0.396229 0.095044
O O4 0.497860 0.356128 0.597119
O O5 0.750000 0.250000 0.500000
O O6 0.816753 0.368201 0.510257
O O7 0.500000 0.291890 0.000000
O O8 0.531345 0.359422 0.199422
O O9 0.474585 0.500000 0.139505
O O10 0.189701 0.420980 0.657954
O O11 0.500000 0.238886 0.500000
O O12 0.604086 0.217902 0.497739
O O13 0.250000 0.250000 0.000000
#
# Coordination Sequence:
#
# PCOD8090291 Si02
#       5
#     8   8   8   8   8
#     4  10  20  33  52  79 111 144 178 220 274 328
#     4  10  22  37  56  81 111 145 182 225 271 323
#     4  10  20  35  55  81 112 143 179 226 275 320
#     4  10  20  34  54  80 109 140 179 223 268 318
#     4  10  19  33  56  80 107 141 184 228 267 317
#
# _framework density 20.729735000000002
#
# number of rings (size 3 to 8) (size 9 to 14) (size 15 to 20)
#    0.000    2.000    0.000    4.800    0.000   11.200 
#    0.000    0.000    0.000    0.600    0.000    0.000 
#    0.000    0.000    0.000    0.000    0.000    0.000 
#
# Total GULP energy -247805.854390 kJ/mol
# GULP energy per Si atom -12390.292720 kJ/mol
# Density = 2.068255 g / cm^3
# Si number density = 20.729735 Si / 1000 Ang^3
#
#
#
# Elastic Constant Matrix: (Units=GPa)
#
#
# Indices 1 2 3 4 5 6 
#
# 1 69.6259 6.1009 25.9201 0.0000 8.6335 0.0000
# 2 6.1009 115.8740 22.8836 0.0000 6.7216 0.0000
# 3 25.9201 22.8836 55.6032 0.0000 -3.2753 0.0000
# 4 0.0000 0.0000 0.0000 29.4458 0.0000 2.5243
# 5 8.6335 6.7216 -3.2753 0.0000 29.5296 0.0000
# 6 0.0000 0.0000 0.0000 2.5243 0.0000 29.1621
#
#
#
# Elastic Compliance Matrix: (Units=1/GPa)
#
#
# Indices 1 2 3 4 5 6 
#
# 1 0.018690 0.001320 -0.009658 0.000000 -0.006836 0.000000
# 2 0.001320 0.009687 -0.004786 0.000000 -0.003122 0.000000
# 3 -0.009658 -0.004786 0.024849 0.000000 0.006669 0.000000
# 4 0.000000 0.000000 0.000000 0.034215 0.000000 -0.002962
# 5 -0.006836 -0.003122 0.006669 0.000000 0.037313 0.000000
# 6 0.000000 0.000000 0.000000 -0.002962 0.000000 0.034547
#
#
# Mechanical properties :
#
#
# Convention : Reuss Voigt Hill
#
# Bulk Modulus (GPa) = 37.06780 38.99026 38.02903
# Shear Modulus (GPa) = 25.70126 30.04071 27.87099
#
# Velocity S-wave (km/s) = 3.52494 3.81091 3.67071
# Velocity P-wave (km/s) = 5.87258 6.18173 6.02914
#
# Compressibility (1/GPa) = 0.02697759
#
# Stress axis : x y z
#
# Youngs Moduli (GPa) = 53.50421 103.23354 40.24236
#
# Poissons Ratio (x) = -0.13626 0.38868
# Poissons Ratio (y) = -0.07062 0.19259
# Poissons Ratio (z) = 0.51677 0.49405
#
# Static dielectric constant tensor:
#      x y z
#    x 3.819860 0.000000 0.077970 
#    y 0.000000 4.288610 0.000000 
#    z 0.077970 0.000000 3.502290 
# 
# 
# High freq. dielectric constant tensor:
#      x y z
#    x 1.813600 0.000000 0.002370 
#    y 0.000000 1.819910 0.000000 
#    z 0.002370 0.000000 1.776720 
# 
# From -- ./inp_files/47048.got.cif
#   From: 2010.06.25/outbox.cif.g09.slc.cpg/sg12_24_cif.got.tgz:47048.got - 2010.06.28 00:19:55.
