data_PCOD8090957
_publ_section_title
;
Structure prediction by ZEFSAII (Michael W. Deem and Ramdas Pophale) SiO2 
 PCOD8090957
Probable space group: C 2/M
;
_chemical_formula_sum "Si O2"
_cell_formula_units_Z 64
_cell_length_a 28.589666
_cell_length_b 8.872942
_cell_length_c 14.464444
_cell_angle_alpha 90.000000
_cell_angle_beta 107.497513
_cell_angle_gamma 90.000000
_cell_volume 3499.483206
_symmetry_space_group_name_H-M "C 2/M"
_symmetry_group_IT_number 12
_symmetry_cell_setting 'monoclinic'
loop_
_space_group_symop_operation_xyz
x,y,z
-x,y,-z
-x,-y,-z
x,-y,z
1/2+x,1/2+y,z
1/2-x,1/2+y,-z
1/2-x,1/2-y,-z
1/2+x,1/2-y,z
loop_
_atom_site_type_symbol
_atom_site_label
_atom_site_fract_x
_atom_site_fract_y
_atom_site_fract_z
Si Si1 0.607166 0.824573 0.198122
Si Si2 0.848474 0.822347 0.942462
Si Si3 0.333136 0.828231 0.251472
Si Si4 0.313778 0.674877 0.625063
Si Si5 0.098570 0.674794 0.865050
Si Si6 0.297630 0.173157 0.427520
Si Si7 0.748203 0.823481 0.098416
Si Si8 0.000286 0.675658 0.896106
O O1 0.610827 0.733919 0.104595
O O2 0.644428 0.766556 0.297219
O O3 0.550144 0.795486 0.190605
O O4 0.617434 0.000000 0.186834
O O5 0.797948 0.749303 0.876118
O O6 0.843558 0.000000 0.939119
O O7 0.861038 0.765822 0.052526
O O8 0.386676 0.803224 0.234880
O O9 0.333534 0.798172 0.361632
O O10 0.296219 0.710269 0.185236
O O11 0.315232 0.000000 0.222624
O O12 0.326056 0.500000 0.644233
O O13 0.316968 0.719220 0.519519
O O14 0.259185 0.712513 0.631104
O O15 0.102574 0.500000 0.894890
O O16 0.044592 0.740194 0.858093
O O17 0.300377 0.000000 0.462863
O O18 0.741087 0.000000 0.083532
O O19 0.750000 0.750000 0.000000
O O20 0.009704 0.500000 0.914375
O O21 0.000000 0.747665 0.000000
#
# Coordination Sequence:
#
# PCOD8090957 Si02
#       8
#     8   8   8   8   8   8   8   8
#     4  11  21  35  57  80 107 143 182 228 279 328
#     4  12  23  34  49  74 108 143 182 223 267 322
#     4  10  20  34  55  79 107 143 182 225 271 324
#     4  10  20  35  56  82 111 139 174 224 276 331
#     4  10  19  34  54  75 104 143 184 222 270 322
#     4   9  19  36  56  80 109 140 176 220 270 328
#     4  12  23  34  49  72 106 145 183 219 262 318
#     4   9  17  32  54  79 106 141 186 230 272 323
#
# _framework density 18.288414
#
# number of rings (size 3 to 8) (size 9 to 14) (size 15 to 20)
#    0.000    1.625    2.500    3.750    0.000    2.000 
#    0.000    1.875    0.000    0.750    0.000    5.250 
#    0.000    0.000    0.000    0.000    0.000    0.000 
#
# Total GULP energy -396682.658308 kJ/mol
# GULP energy per Si atom -12396.333072 kJ/mol
# Density = 1.824679 g / cm^3
# Si number density = 18.288414 Si / 1000 Ang^3
#
#
#
# Elastic Constant Matrix: (Units=GPa)
#
#
# Indices 1 2 3 4 5 6 
#
# 1 125.0979 32.1758 43.8287 0.0000 -15.4393 0.0000
# 2 32.1758 91.0020 21.7970 0.0000 -1.5240 0.0000
# 3 43.8287 21.7970 72.3258 0.0000 -9.0521 0.0000
# 4 0.0000 0.0000 0.0000 26.1687 0.0000 0.3603
# 5 -15.4393 -1.5240 -9.0521 0.0000 29.7317 0.0000
# 6 0.0000 0.0000 0.0000 0.3603 0.0000 17.1154
#
#
#
# Elastic Compliance Matrix: (Units=1/GPa)
#
#
# Indices 1 2 3 4 5 6 
#
# 1 0.011035 -0.002535 -0.005429 0.000000 0.003948 0.000000
# 2 -0.002535 0.012433 -0.002387 0.000000 -0.001406 0.000000
# 3 -0.005429 -0.002387 0.018159 0.000000 0.002587 0.000000
# 4 0.000000 0.000000 0.000000 0.038225 0.000000 -0.000805
# 5 0.003948 -0.001406 0.002587 0.000000 0.036400 0.000000
# 6 0.000000 0.000000 0.000000 -0.000805 0.000000 0.058444
#
#
# Mechanical properties :
#
#
# Convention : Reuss Voigt Hill
#
# Bulk Modulus (GPa) = 47.78784 53.78098 50.78441
# Shear Modulus (GPa) = 24.70685 27.31145 26.00915
#
# Velocity S-wave (km/s) = 3.67952 3.86861 3.77525
# Velocity P-wave (km/s) = 6.65122 7.03035 6.84341
#
# Compressibility (1/GPa) = 0.02092583
#
# Stress axis : x y z
#
# Youngs Moduli (GPa) = 90.61994 80.42937 55.06799
#
# Poissons Ratio (x) = 0.20391 0.29897
# Poissons Ratio (y) = 0.22974 0.13143
# Poissons Ratio (z) = 0.49198 0.19196
#
# Static dielectric constant tensor:
#      x y z
#    x 3.687370 0.000000 -0.137550 
#    y 0.000000 3.275020 0.000000 
#    z -0.137550 0.000000 3.139650 
# 
# 
# High freq. dielectric constant tensor:
#      x y z
#    x 1.711340 0.000000 -0.012600 
#    y 0.000000 1.701380 0.000000 
#    z -0.012600 0.000000 1.681600 
# 
# From -- ./inp_files/244227.got.cif
#   From: 2010.06.25/outbox.cif.g09.slc.cpg/sg12_123_cif.got.tgz:244227.got - 2010.06.28 00:19:55.
