data_PCOD8090019
_publ_section_title
;
Structure prediction by ZEFSAII (Michael W. Deem and Ramdas Pophale) SiO2 
 PCOD8090019
Probable space group: C 2/M
;
_chemical_formula_sum "Si O2"
_cell_formula_units_Z 64
_cell_length_a 27.634431
_cell_length_b 9.458407
_cell_length_c 14.099680
_cell_angle_alpha 90.000000
_cell_angle_beta 104.636075
_cell_angle_gamma 90.000000
_cell_volume 3565.753515
_symmetry_space_group_name_H-M "C 2/M"
_symmetry_group_IT_number 12
_symmetry_cell_setting 'monoclinic'
loop_
_space_group_symop_operation_xyz
x,y,z
-x,y,-z
-x,-y,-z
x,-y,z
1/2+x,1/2+y,z
1/2-x,1/2+y,-z
1/2-x,1/2-y,-z
1/2+x,1/2-y,z
loop_
_atom_site_type_symbol
_atom_site_label
_atom_site_fract_x
_atom_site_fract_y
_atom_site_fract_z
Si Si1 0.479968 0.333233 0.090163
Si Si2 0.980776 0.159247 0.691258
Si Si3 0.414805 0.254905 0.330333
Si Si4 0.595602 0.158395 0.464730
Si Si5 0.103002 0.348751 0.879279
Si Si6 0.709573 0.167962 0.541613
Si Si7 0.193930 0.160211 0.719537
Si Si8 0.215658 0.664130 0.912858
O O1 0.475352 0.500000 0.085045
O O2 0.513614 0.285009 0.197083
O O3 0.424409 0.275103 0.077972
O O4 0.500000 0.273685 0.000000
O O5 0.938176 0.244869 0.617628
O O6 0.033535 0.161803 0.661449
O O7 0.961380 0.000000 0.683179
O O8 0.418117 0.173337 0.431338
O O9 0.406485 0.148607 0.238826
O O10 0.366443 0.356975 0.308180
O O11 0.653780 0.191487 0.472583
O O12 0.582697 0.000000 0.428362
O O13 0.083312 0.500000 0.907092
O O14 0.160946 0.332979 0.931419
O O15 0.750000 0.250000 0.500000
O O16 0.712690 0.243033 0.643737
O O17 0.721543 0.000000 0.555401
O O18 0.216516 0.245106 0.818105
O O19 0.215675 0.000000 0.725295
O O20 0.232846 0.500000 0.905342
O O21 0.250000 0.750000 0.000000
#
# Coordination Sequence:
#
# PCOD8090019 Si02
#       8
#     8   8   8   8   8   8   8   8
#     4   9  19  36  54  71  96 133 174 212 251 300
#     4  10  20  32  49  75 104 133 168 208 248 296
#     4   9  18  31  51  76 106 138 168 198 242 306
#     4  10  21  34  50  75 106 136 164 201 251 304
#     4   9  18  32  52  77 101 129 169 212 251 299
#     4  10  21  38  57  76 100 135 179 219 257 306
#     4  10  19  33  55  80 105 136 173 213 260 311
#     4  10  20  34  52  77 108 138 171 215 265 314
#
# _framework density 17.948521
#
# number of rings (size 3 to 8) (size 9 to 14) (size 15 to 20)
#    0.000    2.375    0.000    2.250    0.000   13.250 
#    0.000    1.250    0.000    6.000    0.000    0.000 
#    0.000    0.000    0.000    0.000    0.000    0.000 
#
# Total GULP energy -396567.821047 kJ/mol
# GULP energy per Si atom -12392.744408 kJ/mol
# Density = 1.790767 g / cm^3
# Si number density = 17.948521 Si / 1000 Ang^3
#
#
#
# Elastic Constant Matrix: (Units=GPa)
#
#
# Indices 1 2 3 4 5 6 
#
# 1 90.2430 53.8004 73.4455 0.0000 -4.6955 0.0000
# 2 53.8004 116.6490 61.7241 0.0000 7.2828 0.0000
# 3 73.4455 61.7241 116.4088 0.0000 1.5077 0.0000
# 4 0.0000 0.0000 0.0000 18.2369 0.0000 -2.7608
# 5 -4.6955 7.2828 1.5077 0.0000 29.2261 0.0000
# 6 0.0000 0.0000 0.0000 -2.7608 0.0000 26.8009
#
#
#
# Elastic Compliance Matrix: (Units=1/GPa)
#
#
# Indices 1 2 3 4 5 6 
#
# 1 0.025211 -0.004924 -0.013372 0.000000 0.005967 0.000000
# 2 -0.004924 0.013086 -0.003782 0.000000 -0.003857 0.000000
# 3 -0.013372 -0.003782 0.019061 0.000000 -0.002189 0.000000
# 4 0.000000 0.000000 0.000000 0.055702 0.000000 0.005738
# 5 0.005967 -0.003857 -0.002189 0.000000 0.036249 0.000000
# 6 0.000000 0.000000 0.000000 0.005738 0.000000 0.037903
#
#
# Mechanical properties :
#
#
# Convention : Reuss Voigt Hill
#
# Bulk Modulus (GPa) = 75.75359 77.91565 76.83462
# Shear Modulus (GPa) = 21.20722 23.80818 22.50770
#
# Velocity S-wave (km/s) = 3.44111 3.64603 3.54505
# Velocity P-wave (km/s) = 7.62142 7.82493 7.72384
#
# Compressibility (1/GPa) = 0.01320069
#
# Stress axis : x y z
#
# Youngs Moduli (GPa) = 39.66576 76.41912 52.46315
#
# Poissons Ratio (x) = 0.37630 0.70156
# Poissons Ratio (y) = 0.19532 0.19840
# Poissons Ratio (z) = 0.53043 0.28900
#
# Static dielectric constant tensor:
#      x y z
#    x 2.904350 0.000000 0.888990 
#    y 0.000000 3.381600 0.000000 
#    z 0.888990 0.000000 1.020590 
# 
# 
# High freq. dielectric constant tensor:
#      x y z
#    x 1.680540 0.000000 0.002800 
#    y 0.000000 1.704750 0.000000 
#    z 0.002800 0.000000 1.689510 
# 
# From -- ./inp_files/244061.got.cif
#   From: 2010.06.25/outbox.cif.g09.slc.cpg/sg12_123_cif.got.tgz:244061.got - 2010.06.28 00:19:55.
