data_PCOD8090442
_publ_section_title
;
Structure prediction by ZEFSAII (Michael W. Deem and Ramdas Pophale) SiO2 
 PCOD8090442
Probable space group: C 2/M
;
_chemical_formula_sum "Si O2"
_cell_formula_units_Z 64
_cell_length_a 22.246714
_cell_length_b 17.844558
_cell_length_c 17.838570
_cell_angle_alpha 90.000000
_cell_angle_beta 150.998445
_cell_angle_gamma 90.000000
_cell_volume 3433.398364
_symmetry_space_group_name_H-M "C 2/M"
_symmetry_group_IT_number 12
_symmetry_cell_setting 'monoclinic'
loop_
_space_group_symop_operation_xyz
x,y,z
-x,y,-z
-x,-y,-z
x,-y,z
1/2+x,1/2+y,z
1/2-x,1/2+y,-z
1/2-x,1/2-y,-z
1/2+x,1/2-y,z
loop_
_atom_site_type_symbol
_atom_site_label
_atom_site_fract_x
_atom_site_fract_y
_atom_site_fract_z
Si Si1 0.256843 0.207848 0.824170
Si Si2 0.798688 0.912765 0.971826
Si Si3 0.303558 0.085518 0.979452
Si Si4 0.094270 0.703878 0.406465
Si Si5 0.901190 0.412620 0.705906
Si Si6 0.583834 0.162752 0.657535
Si Si7 0.823574 0.713014 0.728071
Si Si8 0.472260 0.287351 0.138265
O O1 0.231726 0.126250 0.832474
O O2 0.131246 0.255703 0.681533
O O3 0.322964 0.202112 0.816215
O O4 0.345252 0.244215 0.983181
O O5 0.699276 0.892188 0.798753
O O6 0.824381 0.000000 0.997463
O O7 0.744571 0.885324 0.992680
O O8 0.932284 0.874243 0.101631
O O9 0.266761 0.000000 0.929799
O O10 0.451034 0.096990 0.133754
O O11 0.152371 0.632433 0.424879
O O12 0.196079 0.751601 0.560814
O O13 0.995576 0.669859 0.354802
O O14 0.029114 0.760214 0.278099
O O15 0.860425 0.500000 0.660843
O O16 0.847448 0.369931 0.720079
O O17 0.500000 0.127675 0.500000
O O18 0.930922 0.772145 0.823201
#
# Coordination Sequence:
#
# PCOD8090442 Si02
#       8
#     8   8   8   8   8   8   8   8
#     4  11  20  35  58  84 116 147 182 241 278 332
#     4  10  21  38  60  84 113 145 190 243 285 333
#     4  10  19  33  56  85 110 143 183 232 286 328
#     4  11  20  38  59  83 116 151 190 237 275 333
#     4  10  20  35  57  83 113 147 189 230 277 334
#     4  11  21  35  58  88 109 144 193 237 291 334
#     4  11  22  36  56  85 121 151 185 229 283 336
#     4  10  20  35  58  81 108 151 195 224 278 332
#
# _framework density 18.640423999999999
#
# number of rings (size 3 to 8) (size 9 to 14) (size 15 to 20)
#    0.000    1.500    5.000    2.625    0.000    2.750 
#    0.000    3.750    0.000    7.125    0.000    0.000 
#    0.000    0.000    0.000    0.000    0.000    0.000 
#
# Total GULP energy -396729.310942 kJ/mol
# GULP energy per Si atom -12397.790967 kJ/mol
# Density = 1.859800 g / cm^3
# Si number density = 18.640424 Si / 1000 Ang^3
#
#
#
# Elastic Constant Matrix: (Units=GPa)
#
#
# Indices 1 2 3 4 5 6 
#
# 1 85.1521 35.9033 15.2599 -0.0005 -15.9474 -0.0002
# 2 35.9033 108.5702 32.6551 -0.0004 -5.3767 0.0000
# 3 15.2599 32.6551 64.5355 -0.0010 -8.8366 -0.0002
# 4 -0.0005 -0.0004 -0.0010 16.9038 -0.0006 15.8565
# 5 -15.9474 -5.3767 -8.8366 -0.0006 24.4305 -0.0003
# 6 -0.0002 0.0000 -0.0002 15.8565 -0.0003 1.7842
#
#
#
# Elastic Compliance Matrix: (Units=1/GPa)
#
#
# Indices 1 2 3 4 5 6 
#
# 1 0.015392 -0.004624 -0.000067 0.000000 0.009006 0.000000
# 2 -0.004624 0.012257 -0.005421 0.000000 -0.002282 0.000000
# 3 -0.000067 -0.005421 0.019027 0.000000 0.005646 0.000001
# 4 0.000000 0.000000 0.000000 -0.008063 0.000001 0.071661
# 5 0.009006 -0.002282 0.005646 0.000001 0.048351 0.000001
# 6 0.000000 0.000000 0.000001 0.071661 0.000001 -0.076394
#
#
# Mechanical properties :
#
#
# Convention : Reuss Voigt Hill
#
# Bulk Modulus (GPa) = 37.80337 47.32161 42.56249
# Shear Modulus (GPa) = 126.22726 20.25300 73.24013
#
# Velocity S-wave (km/s) = 8.23796 3.29980 6.27506
# Velocity P-wave (km/s) = 10.52661 6.32138 8.68244
#
# Compressibility (1/GPa) = 0.02645267
#
# Stress axis : x y z
#
# Youngs Moduli (GPa) = 64.96952 81.58391 52.55597
#
# Poissons Ratio (x) = 0.37724 0.00350
# Poissons Ratio (y) = 0.30041 0.28492
# Poissons Ratio (z) = 0.00433 0.44229
#
# Static dielectric constant tensor:
#      x y z
#    x 3.468750 0.000000 -0.019320 
#    y 0.000000 3.540690 0.000000 
#    z -0.019320 0.000000 3.386960 
# 
# 
# High freq. dielectric constant tensor:
#      x y z
#    x 1.728170 0.000000 -0.004280 
#    y 0.000000 1.714780 0.000000 
#    z -0.004280 0.000000 1.712530 
# 
# From -- ./inp_files/285240.got.cif
#   From: 2010.06.25/outbox.cif.g09.slc.cpg/sg12_143_cif.got.tgz:285240.got - 2010.06.28 00:19:55.
