data_PCOD8090097
_publ_section_title
;
Structure prediction by ZEFSAII (Michael W. Deem and Ramdas Pophale) SiO2 
 PCOD8090097
Probable space group: C 2/M
;
_chemical_formula_sum "Si O2"
_cell_formula_units_Z 64
_cell_length_a 15.228667
_cell_length_b 8.977759
_cell_length_c 24.497926
_cell_angle_alpha 90.000000
_cell_angle_beta 72.625274
_cell_angle_gamma 90.000000
_cell_volume 3196.516185
_symmetry_space_group_name_H-M "C 2/M"
_symmetry_group_IT_number 12
_symmetry_cell_setting 'monoclinic'
loop_
_space_group_symop_operation_xyz
x,y,z
-x,y,-z
-x,-y,-z
x,-y,z
1/2+x,1/2+y,z
1/2-x,1/2+y,-z
1/2-x,1/2-y,-z
1/2+x,1/2-y,z
loop_
_atom_site_type_symbol
_atom_site_label
_atom_site_fract_x
_atom_site_fract_y
_atom_site_fract_z
Si Si1 0.614047 0.167192 0.546748
Si Si2 0.620741 0.327453 0.059028
Si Si3 0.197706 0.675204 0.320368
Si Si4 0.122237 0.672696 0.746442
Si Si5 0.566678 0.826783 0.878160
Si Si6 0.687018 0.666604 0.436579
Si Si7 0.002958 0.323811 0.668767
Si Si8 0.790887 0.827531 0.074348
O O1 0.611948 0.265495 0.492261
O O2 0.714545 0.164831 0.553732
O O3 0.544729 0.239210 0.604226
O O4 0.583469 0.000000 0.536646
O O5 0.621162 0.500000 0.075771
O O6 0.519164 0.262485 0.082226
O O7 0.688700 0.238438 0.086498
O O8 0.651073 0.305419 0.991253
O O9 0.211040 0.500000 0.320037
O O10 0.280524 0.744551 0.270666
O O11 0.193716 0.732526 0.382411
O O12 0.103804 0.720454 0.306632
O O13 0.142876 0.500000 0.731900
O O14 0.070192 0.697739 0.812802
O O15 0.057526 0.740969 0.710835
O O16 0.659689 0.762116 0.886769
O O17 0.557220 0.000000 0.895280
O O18 0.656324 0.500000 0.426258
O O19 0.016505 0.500000 0.665420
O O20 0.782263 0.000000 0.092281
#
# Coordination Sequence:
#
# PCOD8090097 Si02
#       8
#     8   8   8   8   8   8   8   8
#     4   9  17  33  57  79 105 145 185 223 275 341
#     4  10  21  38  61  90 124 159 198 245 295 348
#     4  11  22  36  59  86 109 142 191 237 282 341
#     4  10  22  43  61  79 112 152 193 236 287 335
#     4  11  23  37  60  89 119 159 201 245 296 356
#     4  10  19  33  55  81 113 146 177 225 285 341
#     4   9  19  38  60  79 106 147 187 227 280 342
#     4  10  21  38  61  89 124 162 198 242 294 349
#
# _framework density 20.021796999999999
#
# number of rings (size 3 to 8) (size 9 to 14) (size 15 to 20)
#    0.000    2.000    1.250    2.250    0.000    6.000 
#    0.000    6.250    0.000    0.000    0.000    0.000 
#    0.000    0.000    0.000    0.000    0.000    0.000 
#
# Total GULP energy -396889.295493 kJ/mol
# GULP energy per Si atom -12402.790484 kJ/mol
# Density = 1.997623 g / cm^3
# Si number density = 20.021797 Si / 1000 Ang^3
#
#
#
# Elastic Constant Matrix: (Units=GPa)
#
#
# Indices 1 2 3 4 5 6 
#
# 1 59.2601 27.8718 14.2025 0.0000 -10.2028 0.0000
# 2 27.8718 85.8257 31.9196 0.0000 -5.3643 0.0000
# 3 14.2025 31.9196 44.2062 0.0000 0.9627 0.0000
# 4 0.0000 0.0000 0.0000 29.2345 0.0000 -3.3045
# 5 -10.2028 -5.3643 0.9627 0.0000 15.4217 0.0000
# 6 0.0000 0.0000 0.0000 -3.3045 0.0000 30.0598
#
#
#
# Elastic Compliance Matrix: (Units=1/GPa)
#
#
# Indices 1 2 3 4 5 6 
#
# 1 0.022465 -0.005015 -0.003888 0.000000 0.013361 0.000000
# 2 -0.005015 0.017677 -0.011230 0.000000 0.003532 0.000000
# 3 -0.003888 -0.011230 0.032164 0.000000 -0.008486 0.000000
# 4 0.000000 0.000000 0.000000 0.034637 0.000000 0.003808
# 5 0.013361 0.003532 -0.008486 0.000000 0.075442 0.000000
# 6 0.000000 0.000000 0.000000 0.003808 0.000000 0.033686
#
#
# Mechanical properties :
#
#
# Convention : Reuss Voigt Hill
#
# Bulk Modulus (GPa) = 31.20912 37.47554 34.34233
# Shear Modulus (GPa) = 18.72546 22.62973 20.67759
#
# Velocity S-wave (km/s) = 3.06151 3.36557 3.21714
# Velocity P-wave (km/s) = 5.30269 5.81900 5.56684
#
# Compressibility (1/GPa) = 0.03204192
#
# Stress axis : x y z
#
# Youngs Moduli (GPa) = 44.51280 56.56960 31.09077
#
# Poissons Ratio (x) = 0.28367 0.12088
# Poissons Ratio (y) = 0.22321 0.34915
# Poissons Ratio (z) = 0.17306 0.63527
#
# Static dielectric constant tensor:
#      x y z
#    x 3.705210 0.000000 0.017520 
#    y 0.000000 3.677530 0.000000 
#    z 0.017520 0.000000 3.598250 
# 
# 
# High freq. dielectric constant tensor:
#      x y z
#    x 1.786000 0.000000 -0.001180 
#    y 0.000000 1.774830 0.000000 
#    z -0.001180 0.000000 1.777100 
# 
# From -- ./inp_files/359719.got.cif
#   From: 2010.06.25/outbox.cif.g09.slc.cpg/sg12_180_cif.got.tgz:359719.got - 2010.06.28 00:19:55.
