data_PCOD8090656
_publ_section_title
;
Structure prediction by ZEFSAII (Michael W. Deem and Ramdas Pophale) SiO2 
 PCOD8090656
Probable space group: C 2/M
;
_chemical_formula_sum "Si O2"
_cell_formula_units_Z 56
_cell_length_a 15.254310
_cell_length_b 8.935694
_cell_length_c 22.340360
_cell_angle_alpha 90.000000
_cell_angle_beta 109.012781
_cell_angle_gamma 90.000000
_cell_volume 2879.040132
_symmetry_space_group_name_H-M "C 2/M"
_symmetry_group_IT_number 12
_symmetry_cell_setting 'monoclinic'
loop_
_space_group_symop_operation_xyz
x,y,z
-x,y,-z
-x,-y,-z
x,-y,z
1/2+x,1/2+y,z
1/2-x,1/2+y,-z
1/2-x,1/2-y,-z
1/2+x,1/2-y,z
loop_
_atom_site_type_symbol
_atom_site_label
_atom_site_fract_x
_atom_site_fract_y
_atom_site_fract_z
Si Si1 0.903582 0.823149 0.788294
Si Si2 0.410294 0.826506 0.141143
Si Si3 0.552311 0.176635 0.430769
Si Si4 0.902152 0.323788 0.003737
Si Si5 0.706469 0.326222 0.121114
Si Si6 0.326789 0.173265 0.656175
Si Si7 0.624869 0.677034 0.563573
O O1 0.851582 0.760547 0.835963
O O2 0.846474 0.771042 0.718440
O O3 0.008116 0.763072 0.808360
O O4 0.905487 0.000000 0.789493
O O5 0.315796 0.798638 0.157049
O O6 0.438827 0.000000 0.146948
O O7 0.394987 0.767965 0.070242
O O8 0.597606 0.212262 0.377208
O O9 0.450254 0.249610 0.408498
O O10 0.615229 0.251318 0.495911
O O11 0.545959 0.000000 0.441557
O O12 0.890924 0.500000 0.996566
O O13 0.820661 0.252232 0.946755
O O14 0.000000 0.267948 0.000000
O O15 0.685671 0.500000 0.108041
O O16 0.225768 0.217319 0.610154
O O17 0.331767 0.000000 0.675079
O O18 0.608273 0.500000 0.555628
#
# Coordination Sequence:
#
# PCOD8090656 Si02
#       7
#     8   8   8   8   8   8   8
#     4  11  24  39  56  81 110 145 190 234 276 326
#     4  10  21  39  59  80 112 148 183 226 280 338
#     4  10  20  36  59  87 116 148 185 227 277 329
#     4  10  19  33  58  87 111 142 182 226 279 334
#     4  10  22  38  57  82 111 145 183 229 282 332
#     4  10  23  40  58  80 112 153 190 226 277 331
#     4  10  20  36  59  88 118 148 184 228 277 327
#
# _framework density 19.450927
#
# number of rings (size 3 to 8) (size 9 to 14) (size 15 to 20)
#    0.000    1.857    1.429    3.000    0.000    5.429 
#    0.000    4.286    0.000    0.000    0.000    0.000 
#    0.000    0.000    0.000    0.000    0.000    0.000 
#
# Total GULP energy -347302.564215 kJ/mol
# GULP energy per Si atom -12403.663008 kJ/mol
# Density = 1.940666 g / cm^3
# Si number density = 19.450927 Si / 1000 Ang^3
#
#
#
# Elastic Constant Matrix: (Units=GPa)
#
#
# Indices 1 2 3 4 5 6 
#
# 1 87.1120 31.3500 25.8364 0.0000 1.8182 0.0000
# 2 31.3500 66.6167 32.0100 0.0000 3.1127 0.0000
# 3 25.8364 32.0100 73.3882 0.0000 -2.0746 0.0000
# 4 0.0000 0.0000 0.0000 35.8702 0.0000 3.7811
# 5 1.8182 3.1127 -2.0746 0.0000 18.2263 0.0000
# 6 0.0000 0.0000 0.0000 3.7811 0.0000 26.7147
#
#
#
# Elastic Compliance Matrix: (Units=1/GPa)
#
#
# Indices 1 2 3 4 5 6 
#
# 1 0.014225 -0.005363 -0.002691 0.000000 -0.000809 0.000000
# 2 -0.005363 0.021340 -0.007532 0.000000 -0.003967 0.000000
# 3 -0.002691 -0.007532 0.017961 0.000000 0.003599 0.000000
# 4 0.000000 0.000000 0.000000 0.028301 0.000000 -0.004006
# 5 -0.000809 -0.003967 0.003599 0.000000 0.056034 0.000000
# 6 0.000000 0.000000 0.000000 -0.004006 0.000000 0.037999
#
#
# Mechanical properties :
#
#
# Convention : Reuss Voigt Hill
#
# Bulk Modulus (GPa) = 44.73840 45.05665 44.89753
# Shear Modulus (GPa) = 23.31198 25.35695 24.33446
#
# Velocity S-wave (km/s) = 3.46569 3.61451 3.54088
# Velocity P-wave (km/s) = 6.25022 6.37449 6.31266
#
# Compressibility (1/GPa) = 0.02235216
#
# Stress axis : x y z
#
# Youngs Moduli (GPa) = 70.30025 46.86121 55.67734
#
# Poissons Ratio (x) = 0.25132 0.14985
# Poissons Ratio (y) = 0.37703 0.41935
# Poissons Ratio (z) = 0.18921 0.35295
#
# Static dielectric constant tensor:
#      x y z
#    x 3.730280 0.000000 -0.061580 
#    y 0.000000 3.467540 0.000000 
#    z -0.061580 0.000000 3.439270 
# 
# 
# High freq. dielectric constant tensor:
#      x y z
#    x 1.771820 0.000000 0.001170 
#    y 0.000000 1.755130 0.000000 
#    z 0.001170 0.000000 1.751020 
# 
# From -- ./inp_files/338161.got.cif
#   From: 2010.06.25/outbox.cif.g09.slc.cpg/sg12_170_cif.got.tgz:338161.got - 2010.06.28 00:19:55.
