data_PCOD8090293
_publ_section_title
;
Structure prediction by ZEFSAII (Michael W. Deem and Ramdas Pophale) SiO2 
 PCOD8090293
Probable space group: C 2/M
;
_chemical_formula_sum "Si O2"
_cell_formula_units_Z 64
_cell_length_a 14.194533
_cell_length_b 14.294759
_cell_length_c 17.968578
_cell_angle_alpha 90.000000
_cell_angle_beta 116.317261
_cell_angle_gamma 90.000000
_cell_volume 3268.065019
_symmetry_space_group_name_H-M "C 2/M"
_symmetry_group_IT_number 12
_symmetry_cell_setting 'monoclinic'
loop_
_space_group_symop_operation_xyz
x,y,z
-x,y,-z
-x,-y,-z
x,-y,z
1/2+x,1/2+y,z
1/2-x,1/2+y,-z
1/2-x,1/2-y,-z
1/2+x,1/2-y,z
loop_
_atom_site_type_symbol
_atom_site_label
_atom_site_fract_x
_atom_site_fract_y
_atom_site_fract_z
Si Si1 0.456574 0.206086 0.654228
Si Si2 0.763096 0.107935 0.816851
Si Si3 0.273091 0.106792 0.658868
Si Si4 0.720015 0.108246 0.169575
Si Si5 0.113741 0.241716 0.826310
Si Si6 0.616453 0.271192 0.517197
Si Si7 0.369457 0.894655 0.372991
Si Si8 0.546709 0.258013 0.096975
O O1 0.386952 0.153422 0.690608
O O2 0.535718 0.271298 0.728543
O O3 0.380878 0.265200 0.572015
O O4 0.520112 0.132129 0.626322
O O5 0.681105 0.162449 0.841600
O O6 0.725235 0.115576 0.718528
O O7 0.877390 0.154879 0.858393
O O8 0.769074 0.000000 0.845231
O O9 0.237279 0.121806 0.731327
O O10 0.190785 0.147184 0.571577
O O11 0.285748 0.000000 0.642566
O O12 0.807020 0.153537 0.145796
O O13 0.608592 0.159815 0.121426
O O14 0.704089 0.000000 0.143144
O O15 0.051057 0.244086 0.881011
O O16 0.500000 0.299459 0.500000
O O17 0.653291 0.172788 0.565643
O O18 0.377917 0.000000 0.406208
O O19 0.500000 0.274466 0.000000
#
# Coordination Sequence:
#
# PCOD8090293 Si02
#       8
#     8   8   8   8   8   8   8   8
#     4  10  19  33  56  80 110 150 193 239 289 334
#     4   9  20  38  60  88 118 153 194 237 290 350
#     4  11  21  35  55  79 113 154 198 239 279 338
#     4  10  22  40  61  88 121 158 195 238 290 351
#     4  10  21  40  63  84 117 155 194 237 294 353
#     4  10  20  33  51  79 113 151 193 239 288 331
#     4   9  18  33  55  80 112 146 185 237 290 339
#     4  11  23  40  63  89 117 151 192 243 297 354
#
# _framework density 19.583455000000001
#
# number of rings (size 3 to 8) (size 9 to 14) (size 15 to 20)
#    0.000    2.000    1.250    3.750    0.000    7.000 
#    0.000    1.875    0.000    0.000    0.000    0.000 
#    0.000    0.000    0.000    0.000    0.000    0.000 
#
# Total GULP energy -396829.026460 kJ/mol
# GULP energy per Si atom -12400.907077 kJ/mol
# Density = 1.953888 g / cm^3
# Si number density = 19.583455 Si / 1000 Ang^3
#
#
#
# Elastic Constant Matrix: (Units=GPa)
#
#
# Indices 1 2 3 4 5 6 
#
# 1 107.8077 41.4933 22.7506 0.0000 -8.3484 0.0000
# 2 41.4933 81.1956 8.5429 0.0000 8.0947 0.0000
# 3 22.7506 8.5429 56.6237 0.0000 0.6100 0.0000
# 4 0.0000 0.0000 0.0000 14.7459 0.0000 4.3965
# 5 -8.3484 8.0947 0.6100 0.0000 26.8120 0.0000
# 6 0.0000 0.0000 0.0000 4.3965 0.0000 18.9446
#
#
#
# Elastic Compliance Matrix: (Units=1/GPa)
#
#
# Indices 1 2 3 4 5 6 
#
# 1 0.013401 -0.007024 -0.004394 0.000000 0.006393 0.000000
# 2 -0.007024 0.016581 0.000398 0.000000 -0.007202 0.000000
# 3 -0.004394 0.000398 0.019387 0.000000 -0.001929 0.000000
# 4 0.000000 0.000000 0.000000 0.072857 0.000000 -0.016908
# 5 0.006393 -0.007202 -0.001929 0.000000 0.041506 0.000000
# 6 0.000000 0.000000 0.000000 -0.016908 0.000000 0.056709
#
#
# Mechanical properties :
#
#
# Convention : Reuss Voigt Hill
#
# Bulk Modulus (GPa) = 36.58918 43.46673 40.02795
# Shear Modulus (GPa) = 19.87366 23.62317 21.74842
#
# Velocity S-wave (km/s) = 3.18908 3.47693 3.33611
# Velocity P-wave (km/s) = 5.68195 6.19375 5.94336
#
# Compressibility (1/GPa) = 0.02733049
#
# Stress axis : x y z
#
# Youngs Moduli (GPa) = 74.61986 60.30904 51.58223
#
# Poissons Ratio (x) = 0.42358 0.22663
# Poissons Ratio (y) = 0.52409 -0.02052
# Poissons Ratio (z) = 0.32785 -0.02400
#
# Static dielectric constant tensor:
#      x y z
#    x 3.537100 0.000000 0.083890 
#    y 0.000000 3.521160 0.000000 
#    z 0.083890 0.000000 3.569770 
# 
# 
# High freq. dielectric constant tensor:
#      x y z
#    x 1.763280 0.000000 0.008390 
#    y 0.000000 1.751490 0.000000 
#    z 0.008390 0.000000 1.759990 
# 
# From -- ./inp_files/270316.got.cif
#   From: 2010.06.25/outbox.cif.g09.slc.cpg/sg12_136_cif.got.tgz:270316.got - 2010.06.28 00:19:55.
