data_PCOD8090587
_publ_section_title
;
Structure prediction by ZEFSAII (Michael W. Deem and Ramdas Pophale) SiO2 
 PCOD8090587
Probable space group: C 2/M
;
_chemical_formula_sum "Si O2"
_cell_formula_units_Z 64
_cell_length_a 17.664576
_cell_length_b 14.543583
_cell_length_c 24.156183
_cell_angle_alpha 90.000000
_cell_angle_beta 30.248253
_cell_angle_gamma 90.000000
_cell_volume 3126.194286
_symmetry_space_group_name_H-M "C 2/M"
_symmetry_group_IT_number 12
_symmetry_cell_setting 'monoclinic'
loop_
_space_group_symop_operation_xyz
x,y,z
-x,y,-z
-x,-y,-z
x,-y,z
1/2+x,1/2+y,z
1/2-x,1/2+y,-z
1/2-x,1/2-y,-z
1/2+x,1/2-y,z
loop_
_atom_site_type_symbol
_atom_site_label
_atom_site_fract_x
_atom_site_fract_y
_atom_site_fract_z
Si Si1 0.243822 0.603319 0.013020
Si Si2 0.028007 0.107382 0.042820
Si Si3 0.361545 0.716779 0.624758
Si Si4 0.034429 0.834250 0.210583
Si Si5 0.200157 0.899096 0.717659
Si Si6 0.023737 0.786283 0.633365
Si Si7 0.324853 0.103337 0.425296
Si Si8 0.417658 0.858644 0.250060
O O1 0.303540 0.500000 0.967081
O O2 0.064053 0.601599 0.127224
O O3 0.318851 0.643007 0.022820
O O4 0.303243 0.660539 0.922220
O O5 0.887624 0.130046 0.170852
O O6 0.047583 0.000000 0.020382
O O7 0.000000 0.154542 0.000000
O O8 0.500000 0.683239 0.500000
O O9 0.325685 0.821769 0.628690
O O10 0.398075 0.710997 0.666104
O O11 0.222619 0.646709 0.703346
O O12 0.918933 0.908848 0.258003
O O13 0.050736 0.836130 0.266332
O O14 0.949203 0.742201 0.250339
O O15 0.275553 0.000000 0.676731
O O16 0.162279 0.849573 0.527555
O O17 0.065973 0.677815 0.614049
O O18 0.375911 0.082730 0.330297
O O19 0.326124 0.000000 0.452680
#
# Coordination Sequence:
#
# PCOD8090587 Si02
#       8
#     8   8   8   8   8   8   8   8
#     4  10  19  33  57  86 116 151 197 245 291 352
#     4   8  15  29  50  80 119 151 179 232 297 353
#     4  11  22  40  58  77 117 161 195 252 310 347
#     4   9  19  36  58  81 117 157 189 233 302 367
#     4   9  19  34  56  87 116 150 194 238 301 374
#     4  10  22  40  59  87 119 154 199 250 302 361
#     4  10  21  38  62  87 114 154 203 253 300 351
#     4  10  20  37  58  83 116 158 204 242 286 354
#
# _framework density 20.472176000000001
#
# number of rings (size 3 to 8) (size 9 to 14) (size 15 to 20)
#    0.000    2.375    1.250    1.875    1.750    3.750 
#    0.000    3.750    0.000    0.750    0.000    0.000 
#    0.000    0.000    0.000    0.000    0.000    0.000 
#
# Total GULP energy -396490.088820 kJ/mol
# GULP energy per Si atom -12390.315276 kJ/mol
# Density = 2.042558 g / cm^3
# Si number density = 20.472176 Si / 1000 Ang^3
#
#
#
# Elastic Constant Matrix: (Units=GPa)
#
#
# Indices 1 2 3 4 5 6 
#
# 1 135.2550 25.6185 60.9354 -0.0016 4.5320 0.0006
# 2 25.6185 55.8690 18.9007 -0.0012 2.6405 0.0000
# 3 60.9354 18.9007 113.2764 0.0016 -0.9704 0.0010
# 4 -0.0016 -0.0012 0.0016 21.9142 0.0007 2.3766
# 5 4.5320 2.6405 -0.9704 0.0007 26.2735 -0.0003
# 6 0.0006 0.0000 0.0010 2.3766 -0.0003 16.9076
#
#
#
# Elastic Compliance Matrix: (Units=1/GPa)
#
#
# Indices 1 2 3 4 5 6 
#
# 1 0.010282 -0.002925 -0.005057 0.000001 -0.001666 0.000000
# 2 -0.002925 0.019910 -0.001762 0.000001 -0.001561 0.000000
# 3 -0.005057 -0.001762 0.011855 -0.000001 0.001487 0.000000
# 4 0.000001 0.000001 -0.000001 0.046339 -0.000002 -0.006513
# 5 -0.001666 -0.001561 0.001487 -0.000002 0.038560 0.000001
# 6 0.000000 0.000000 0.000000 -0.006513 0.000001 0.060061
#
#
# Mechanical properties :
#
#
# Convention : Reuss Voigt Hill
#
# Bulk Modulus (GPa) = 44.32886 57.25663 50.79275
# Shear Modulus (GPa) = 23.36292 26.28213 24.82252
#
# Velocity S-wave (km/s) = 3.38184 3.58690 3.48588
# Velocity P-wave (km/s) = 6.07859 6.72184 6.40830
#
# Compressibility (1/GPa) = 0.02255867
#
# Stress axis : x y z
#
# Youngs Moduli (GPa) = 97.26084 50.22566 84.35200
#
# Poissons Ratio (x) = 0.14691 0.42657
# Poissons Ratio (y) = 0.28449 0.14863
# Poissons Ratio (z) = 0.49186 0.08850
#
# Static dielectric constant tensor:
#      x y z
#    x 3.957780 0.000010 0.203640 
#    y 0.000010 3.758260 0.000010 
#    z 0.203640 0.000010 3.653480 
# 
# 
# High freq. dielectric constant tensor:
#      x y z
#    x 1.783530 0.000000 0.003970 
#    y 0.000000 1.786960 0.000000 
#    z 0.003970 0.000000 1.795430 
# 
# From -- ./inp_files/344005.got.cif
#   From: 2010.06.25/outbox.cif.g09.slc.cpg/sg12_173_cif.got.tgz:344005.got - 2010.06.28 00:19:55.
