data_PCOD8090722
_publ_section_title
;
Structure prediction by ZEFSAII (Michael W. Deem and Ramdas Pophale) SiO2 
 PCOD8090722
Probable space group: C 2/M
;
_chemical_formula_sum "Si O2"
_cell_formula_units_Z 56
_cell_length_a 23.094041
_cell_length_b 13.103857
_cell_length_c 15.242671
_cell_angle_alpha 90.000000
_cell_angle_beta 143.390871
_cell_angle_gamma 90.000000
_cell_volume 2750.827786
_symmetry_space_group_name_H-M "C 2/M"
_symmetry_group_IT_number 12
_symmetry_cell_setting 'monoclinic'
loop_
_space_group_symop_operation_xyz
x,y,z
-x,y,-z
-x,-y,-z
x,-y,z
1/2+x,1/2+y,z
1/2-x,1/2+y,-z
1/2-x,1/2-y,-z
1/2+x,1/2-y,z
loop_
_atom_site_type_symbol
_atom_site_label
_atom_site_fract_x
_atom_site_fract_y
_atom_site_fract_z
Si Si1 0.675404 0.881617 0.917731
Si Si2 0.217058 0.116593 0.665440
Si Si3 0.333036 0.712086 0.220312
Si Si4 0.610938 0.386338 0.108959
Si Si5 0.497221 0.615125 0.650128
Si Si6 0.043027 0.761689 0.869358
Si Si7 0.329230 0.241998 0.673617
O O1 0.674248 0.829861 0.819454
O O2 0.595802 0.832495 0.886121
O O3 0.652230 0.000000 0.878246
O O4 0.781656 0.861704 0.086371
O O5 0.216164 0.194482 0.745920
O O6 0.302554 0.145691 0.702745
O O7 0.116992 0.132900 0.493048
O O8 0.231528 0.000000 0.715239
O O9 0.446415 0.680086 0.355903
O O10 0.651636 0.500000 0.134716
O O11 0.672391 0.343223 0.266714
O O12 0.500000 0.397937 0.000000
O O13 0.613121 0.305816 0.030933
O O14 0.525729 0.500000 0.666076
O O15 0.528514 0.645009 0.785642
O O16 0.938105 0.720898 0.772897
O O17 0.250000 0.250000 0.500000
#
# Coordination Sequence:
#
# PCOD8090722 Si02
#       7
#     8   8   8   8   8   8   8
#     4  10  21  38  61  86 116 154 193 241 297 361
#     4  11  22  36  57  84 116 154 196 246 299 354
#     4  10  21  37  58  85 114 146 193 249 295 351
#     4   9  19  35  58  84 116 156 200 248 296 343
#     4  10  19  33  59  87 113 147 191 249 305 349
#     4  10  20  37  60  88 122 159 197 245 295 358
#     4  11  22  38  56  85 125 163 198 244 293 359
#
# _framework density 20.357509
#
# number of rings (size 3 to 8) (size 9 to 14) (size 15 to 20)
#    0.000    1.857    1.429    3.000    0.000    2.857 
#    0.000    5.714    0.000   11.143    0.000    0.000 
#    0.000    0.000    0.000    0.000    0.000    0.000 
#
# Total GULP energy -347092.346846 kJ/mol
# GULP energy per Si atom -12396.155245 kJ/mol
# Density = 2.031117 g / cm^3
# Si number density = 20.357509 Si / 1000 Ang^3
#
#
#
# Elastic Constant Matrix: (Units=GPa)
#
#
# Indices 1 2 3 4 5 6 
#
# 1 105.1528 47.9195 29.4638 0.0000 -6.9187 0.0000
# 2 47.9195 140.7252 50.7352 0.0000 -12.2943 0.0000
# 3 29.4638 50.7352 87.2774 0.0000 -11.4523 0.0000
# 4 0.0000 0.0000 0.0000 22.1247 0.0000 -1.0396
# 5 -6.9187 -12.2943 -11.4523 0.0000 35.7354 0.0000
# 6 0.0000 0.0000 0.0000 -1.0396 0.0000 28.0639
#
#
#
# Elastic Compliance Matrix: (Units=1/GPa)
#
#
# Indices 1 2 3 4 5 6 
#
# 1 0.011545 -0.003170 -0.001988 0.000000 0.000507 0.000000
# 2 -0.003170 0.009936 -0.004528 0.000000 0.001353 0.000000
# 3 -0.001988 -0.004528 0.015143 0.000000 0.002910 0.000000
# 4 0.000000 0.000000 0.000000 0.045277 0.000000 0.001677
# 5 0.000507 0.001353 0.002910 0.000000 0.029480 0.000000
# 6 0.000000 0.000000 0.000000 0.001677 0.000000 0.035695
#
#
# Mechanical properties :
#
#
# Convention : Reuss Voigt Hill
#
# Bulk Modulus (GPa) = 57.96607 65.48804 61.72705
# Shear Modulus (GPa) = 29.03594 30.85393 29.94493
#
# Velocity S-wave (km/s) = 3.78074 3.89730 3.83946
# Velocity P-wave (km/s) = 6.89888 7.24505 7.07408
#
# Compressibility (1/GPa) = 0.01725147
#
# Stress axis : x y z
#
# Youngs Moduli (GPa) = 86.61661 100.64019 66.03692
#
# Poissons Ratio (x) = 0.31906 0.13128
# Poissons Ratio (y) = 0.27460 0.29903
# Poissons Ratio (z) = 0.17219 0.45573
#
# Static dielectric constant tensor:
#      x y z
#    x 3.817780 0.000000 -0.004390 
#    y 0.000000 3.581900 0.000000 
#    z -0.004390 0.000000 3.778850 
# 
# 
# High freq. dielectric constant tensor:
#      x y z
#    x 1.805360 0.000000 0.000570 
#    y 0.000000 1.777880 0.000000 
#    z 0.000570 0.000000 1.792730 
# 
# From -- ./inp_files/233718.got.cif
#   From: 2010.06.25/outbox.cif.g09.slc.cpg/sg12_117_cif.got.tgz:233718.got - 2010.06.28 00:19:55.
