data_PCOD8090320
_publ_section_title
;
Structure prediction by ZEFSAII (Michael W. Deem and Ramdas Pophale) SiO2 
 PCOD8090320
Probable space group: C 2/M
;
_chemical_formula_sum "Si O2"
_cell_formula_units_Z 40
_cell_length_a 5.288265
_cell_length_b 18.825446
_cell_length_c 19.495629
_cell_angle_alpha 90.000000
_cell_angle_beta 109.962553
_cell_angle_gamma 90.000000
_cell_volume 1824.251691
_symmetry_space_group_name_H-M "C 2/M"
_symmetry_group_IT_number 12
_symmetry_cell_setting 'monoclinic'
loop_
_space_group_symop_operation_xyz
x,y,z
-x,y,-z
-x,-y,-z
x,-y,z
1/2+x,1/2+y,z
1/2-x,1/2+y,-z
1/2-x,1/2-y,-z
1/2+x,1/2-y,z
loop_
_atom_site_type_symbol
_atom_site_label
_atom_site_fract_x
_atom_site_fract_y
_atom_site_fract_z
Si Si1 0.778341 0.215468 0.754859
Si Si2 0.393816 0.417053 0.419345
Si Si3 0.724815 0.082796 0.668124
Si Si4 0.808852 0.423066 0.047536
Si Si5 0.466271 0.774746 0.085825
O O1 0.473023 0.244140 0.718923
O O2 0.786669 0.130870 0.740821
O O3 0.865849 0.231901 0.840842
O O4 0.500000 0.381657 0.500000
O O5 0.449425 0.500000 0.428223
O O6 0.571318 0.389851 0.371810
O O7 0.078793 0.400899 0.383178
O O8 0.766360 0.000000 0.691439
O O9 0.832754 0.500000 0.088133
O O10 0.910978 0.356686 0.102610
O O11 0.500000 0.408804 0.000000
O O12 0.000000 0.425466 0.000000
O O13 0.187964 0.730820 0.044190
#
# Coordination Sequence:
#
# PCOD8090320 Si02
#       5
#     8   8   8   8   8
#     4  10  21  38  55  76 109 148 186 226 273 322
#     4   9  17  30  52  83 112 138 176 227 278 327
#     4  10  19  33  56  81 106 141 184 228 272 323
#     4  10  21  37  58  85 115 145 181 227 274 323
#     4  10  21  37  56  82 111 146 187 224 271 324
#
# _framework density 21.926798000000002
#
# number of rings (size 3 to 8) (size 9 to 14) (size 15 to 20)
#    0.000    2.200    0.000    3.000    0.000    4.800 
#    0.000    8.000    0.000   12.000    0.000    0.000 
#    0.000    0.000    0.000    0.000    0.000    0.000 
#
# Total GULP energy -247809.483335 kJ/mol
# GULP energy per Si atom -12390.474167 kJ/mol
# Density = 2.187689 g / cm^3
# Si number density = 21.926798 Si / 1000 Ang^3
#
#
#
# Elastic Constant Matrix: (Units=GPa)
#
#
# Indices 1 2 3 4 5 6 
#
# 1 178.7910 40.5270 16.1208 0.0000 -9.0058 0.0000
# 2 40.5270 145.1340 39.2167 0.0000 -2.2933 0.0000
# 3 16.1208 39.2167 54.4771 0.0000 -3.9755 0.0000
# 4 0.0000 0.0000 0.0000 27.5350 0.0000 -2.9160
# 5 -9.0058 -2.2933 -3.9755 0.0000 16.1411 0.0000
# 6 0.0000 0.0000 0.0000 -2.9160 0.0000 27.1111
#
#
#
# Elastic Compliance Matrix: (Units=1/GPa)
#
#
# Indices 1 2 3 4 5 6 
#
# 1 0.006140 -0.001534 -0.000487 0.000000 0.003088 0.000000
# 2 -0.001534 0.008939 -0.006060 0.000000 -0.001078 0.000000
# 3 -0.000487 -0.006060 0.023197 0.000000 0.004581 0.000000
# 4 0.000000 0.000000 0.000000 0.036736 0.000000 0.003951
# 5 0.003088 -0.001078 0.004581 0.000000 0.064651 0.000000
# 6 0.000000 0.000000 0.000000 0.003951 0.000000 0.037310
#
#
# Mechanical properties :
#
#
# Convention : Reuss Voigt Hill
#
# Bulk Modulus (GPa) = 45.22003 63.34790 54.28396
# Shear Modulus (GPa) = 24.93676 32.99328 28.96502
#
# Velocity S-wave (km/s) = 3.37601 3.88326 3.63848
# Velocity P-wave (km/s) = 5.98870 7.00425 6.51629
#
# Compressibility (1/GPa) = 0.02211410
#
# Stress axis : x y z
#
# Youngs Moduli (GPa) = 162.85697 111.87056 43.10914
#
# Poissons Ratio (x) = 0.17163 0.02101
# Poissons Ratio (y) = 0.24985 0.26122
# Poissons Ratio (z) = 0.07936 0.67789
#
# Static dielectric constant tensor:
#      x y z
#    x 4.961020 0.000000 -0.205700 
#    y 0.000000 4.167320 0.000000 
#    z -0.205700 0.000000 3.618590 
# 
# 
# High freq. dielectric constant tensor:
#      x y z
#    x 1.914030 0.000000 -0.003890 
#    y 0.000000 1.849360 0.000000 
#    z -0.003890 0.000000 1.824070 
# 
# From -- ./inp_files/252556.got.cif
#   From: 2010.06.25/outbox.cif.g09.slc.cpg/sg12_127_cif.got.tgz:252556.got - 2010.06.28 00:19:55.
