data_PCOD8090700
_publ_section_title
;
Structure prediction by ZEFSAII (Michael W. Deem and Ramdas Pophale) SiO2 
 PCOD8090700
Probable space group: C 2/M
;
_chemical_formula_sum "Si O2"
_cell_formula_units_Z 44
_cell_length_a 13.212695
_cell_length_b 20.045632
_cell_length_c 12.024050
_cell_angle_alpha 90.000000
_cell_angle_beta 45.348123
_cell_angle_gamma 90.000000
_cell_volume 2265.529374
_symmetry_space_group_name_H-M "C 2/M"
_symmetry_group_IT_number 12
_symmetry_cell_setting 'monoclinic'
loop_
_space_group_symop_operation_xyz
x,y,z
-x,y,-z
-x,-y,-z
x,-y,z
1/2+x,1/2+y,z
1/2-x,1/2+y,-z
1/2-x,1/2-y,-z
1/2+x,1/2-y,z
loop_
_atom_site_type_symbol
_atom_site_label
_atom_site_fract_x
_atom_site_fract_y
_atom_site_fract_z
Si Si1 0.951161 0.792550 0.413460
Si Si2 0.402055 0.076584 0.826130
Si Si3 0.000000 0.128609 0.000000
Si Si4 0.838360 0.654436 0.424968
Si Si5 0.773422 0.426057 0.689062
Si Si6 0.326562 0.320429 0.935138
O O1 0.917107 0.725048 0.373344
O O2 0.811057 0.839181 0.524396
O O3 0.000000 0.777321 0.500000
O O4 0.077854 0.828476 0.248773
O O5 0.561031 0.104882 0.723803
O O6 0.377379 0.084276 0.713161
O O7 0.391263 0.000000 0.873941
O O8 0.286479 0.119168 0.983252
O O9 0.889296 0.080568 0.147019
O O10 0.077493 0.175981 0.028595
O O11 0.809934 0.629061 0.570977
O O12 0.794450 0.500000 0.622129
O O13 0.250000 0.250000 0.000000
#
# Coordination Sequence:
#
# PCOD8090700 Si02
#       6
#     8   8   4   8   8   8
#     4  11  24  39  59  87 121 162 202 240 290 353
#     4  10  21  37  61  91 120 151 195 252 308 354
#     4  10  21  36  58  92 117 150 194 244 306 354
#     4  11  21  37  59  88 120 155 194 248 299 355
#     4  10  19  33  58  89 122 151 186 243 310 364
#     4  11  22  40  61  88 120 157 195 248 295 352
#
# _framework density 19.421509
#
# number of rings (size 3 to 8) (size 9 to 14) (size 15 to 20)
#    0.000    1.455    3.636    2.455    2.545    2.182 
#    0.000    0.000    0.000    6.000    0.000    0.000 
#    0.000    0.000    0.000    0.000    0.000    0.000 
#
# Total GULP energy -272880.572340 kJ/mol
# GULP energy per Si atom -12403.662379 kJ/mol
# Density = 1.937730 g / cm^3
# Si number density = 19.421509 Si / 1000 Ang^3
#
#
#
# Elastic Constant Matrix: (Units=GPa)
#
#
# Indices 1 2 3 4 5 6 
#
# 1 75.4583 30.7970 33.5996 -0.0003 -20.1670 0.0002
# 2 30.7970 107.3425 35.1907 -0.0001 -16.7168 0.0001
# 3 33.5996 35.1907 102.6030 -0.0003 -21.4449 0.0004
# 4 -0.0003 -0.0001 -0.0003 35.4607 0.0003 -1.8184
# 5 -20.1670 -16.7168 -21.4449 0.0003 31.3367 -0.0003
# 6 0.0002 0.0001 0.0004 -1.8184 -0.0003 22.3666
#
#
#
# Elastic Compliance Matrix: (Units=1/GPa)
#
#
# Indices 1 2 3 4 5 6 
#
# 1 0.017961 -0.002868 -0.003270 0.000000 0.007792 0.000000
# 2 -0.002868 0.011326 -0.002414 0.000000 0.002545 0.000000
# 3 -0.003270 -0.002414 0.012761 0.000000 0.005341 0.000000
# 4 0.000000 0.000000 0.000000 0.028318 0.000000 0.002302
# 5 0.007792 0.002545 0.005341 0.000000 0.041939 0.000000
# 6 0.000000 0.000000 0.000000 0.002302 0.000000 0.044897
#
#
# Mechanical properties :
#
#
# Convention : Reuss Voigt Hill
#
# Bulk Modulus (GPa) = 40.08598 53.84203 46.96401
# Shear Modulus (GPa) = 27.37927 30.22056 28.79992
#
# Velocity S-wave (km/s) = 3.75872 3.94894 3.85501
# Velocity P-wave (km/s) = 6.28666 6.96960 6.63692
#
# Compressibility (1/GPa) = 0.02494638
#
# Stress axis : x y z
#
# Youngs Moduli (GPa) = 55.67607 88.28964 78.36241
#
# Poissons Ratio (x) = 0.25320 0.25622
# Poissons Ratio (y) = 0.15967 0.18914
# Poissons Ratio (z) = 0.18204 0.21311
#
# Static dielectric constant tensor:
#      x y z
#    x 3.536380 0.000000 -0.359160 
#    y 0.000000 3.506410 0.000000 
#    z -0.359160 0.000000 3.619010 
# 
# 
# High freq. dielectric constant tensor:
#      x y z
#    x 1.738480 0.000000 -0.031530 
#    y 0.000000 1.753540 0.000000 
#    z -0.031530 0.000000 1.763070 
# 
# From -- ./inp_files/147495.got.cif
#   From: 2010.06.25/outbox.cif.g09.slc.cpg/sg12_74_cif.got.tgz:147495.got - 2010.06.28 00:19:55.
