data_PCOD8090945
_publ_section_title
;
Structure prediction by ZEFSAII (Michael W. Deem and Ramdas Pophale) SiO2 
 PCOD8090945
Probable space group: C 2/M
;
_chemical_formula_sum "Si O2"
_cell_formula_units_Z 56
_cell_length_a 19.629694
_cell_length_b 9.031253
_cell_length_c 17.201928
_cell_angle_alpha 90.000000
_cell_angle_beta 84.207259
_cell_angle_gamma 90.000000
_cell_volume 3033.997783
_symmetry_space_group_name_H-M "C 2/M"
_symmetry_group_IT_number 12
_symmetry_cell_setting 'monoclinic'
loop_
_space_group_symop_operation_xyz
x,y,z
-x,y,-z
-x,-y,-z
x,-y,z
1/2+x,1/2+y,z
1/2-x,1/2+y,-z
1/2-x,1/2-y,-z
1/2+x,1/2-y,z
loop_
_atom_site_type_symbol
_atom_site_label
_atom_site_fract_x
_atom_site_fract_y
_atom_site_fract_z
Si Si1 0.469011 0.823097 0.316195
Si Si2 0.077319 0.661771 0.518755
Si Si3 0.197566 0.670190 0.061256
Si Si4 0.385158 0.324958 0.193431
Si Si5 0.230723 0.324646 0.226322
Si Si6 0.074818 0.670599 0.967136
Si Si7 0.883052 0.322835 0.646075
O O1 0.424761 0.760645 0.395820
O O2 0.441101 0.750275 0.241549
O O3 0.548180 0.774591 0.316232
O O4 0.462804 0.000000 0.311534
O O5 0.110472 0.500000 0.526844
O O6 0.117668 0.743386 0.442928
O O7 0.000000 0.642078 0.500000
O O8 0.219923 0.500000 0.060585
O O9 0.202738 0.737640 0.147321
O O10 0.250000 0.750000 0.000000
O O11 0.120958 0.690828 0.038449
O O12 0.394213 0.500000 0.195295
O O13 0.309262 0.276512 0.230111
O O14 0.395745 0.271505 0.104526
O O15 0.223299 0.500000 0.227669
O O16 0.182956 0.259284 0.300631
O O17 0.073717 0.500000 0.939184
O O18 0.000000 0.725937 0.000000
O O19 0.882246 0.500000 0.639871
#
# Coordination Sequence:
#
# PCOD8090945 Si02
#       7
#     8   8   8   8   8   8   8
#     4   9  17  30  53  78 101 127 164 211 251 287
#     4   7  11  23  45  76 101 121 157 207 253 286
#     4  10  19  34  54  74  98 129 166 200 242 295
#     4  11  22  35  49  70 105 138 165 196 245 304
#     4   9  18  31  48  71  99 133 167 199 239 293
#     4  10  22  37  56  78  98 124 166 213 250 288
#     4   8  14  27  52  78  98 124 166 213 247 284
#
# _framework density 18.457495000000002
#
# number of rings (size 3 to 8) (size 9 to 14) (size 15 to 20)
#    0.000    2.857    1.429    2.143    2.000    0.286 
#    0.000    0.714    0.000    5.571    0.000    0.000 
#    0.000    0.000    0.000    0.000    0.000    0.000 
#
# Total GULP energy -346941.221146 kJ/mol
# GULP energy per Si atom -12390.757898 kJ/mol
# Density = 1.841548 g / cm^3
# Si number density = 18.457495 Si / 1000 Ang^3
#
#
#
# Elastic Constant Matrix: (Units=GPa)
#
#
# Indices 1 2 3 4 5 6 
#
# 1 80.5939 17.2380 18.3535 0.0000 -19.7511 0.0000
# 2 17.2380 27.1926 12.3108 0.0000 -2.6408 0.0000
# 3 18.3535 12.3108 71.3735 0.0000 -22.6648 0.0000
# 4 0.0000 0.0000 0.0000 16.3178 0.0000 -1.2118
# 5 -19.7511 -2.6408 -22.6648 0.0000 36.6092 0.0000
# 6 0.0000 0.0000 0.0000 -1.2118 0.0000 16.6163
#
#
#
# Elastic Compliance Matrix: (Units=1/GPa)
#
#
# Indices 1 2 3 4 5 6 
#
# 1 0.016481 -0.009667 0.000039 0.000000 0.008218 0.000000
# 2 -0.009667 0.045647 -0.007466 0.000000 -0.006545 0.000000
# 3 0.000039 -0.007466 0.018825 0.000000 0.011137 0.000000
# 4 0.000000 0.000000 0.000000 0.061616 0.000000 0.004493
# 5 0.008218 -0.006545 0.011137 0.000000 0.038172 0.000000
# 6 0.000000 0.000000 0.000000 0.004493 0.000000 0.060509
#
#
# Mechanical properties :
#
#
# Convention : Reuss Voigt Hill
#
# Bulk Modulus (GPa) = 21.38326 30.55164 25.96745
# Shear Modulus (GPa) = 17.18050 22.65918 19.91984
#
# Velocity S-wave (km/s) = 3.05424 3.50757 3.28872
# Velocity P-wave (km/s) = 4.90389 5.74391 5.34044
#
# Compressibility (1/GPa) = 0.04676556
#
# Stress axis : x y z
#
# Youngs Moduli (GPa) = 60.67699 21.90712 53.12050
#
# Poissons Ratio (x) = 0.21178 -0.00208
# Poissons Ratio (y) = 0.58657 0.39659
# Poissons Ratio (z) = -0.00238 0.16356
#
# Static dielectric constant tensor:
#      x y z
#    x 3.455410 0.000000 -0.094470 
#    y 0.000000 2.924470 0.000000 
#    z -0.094470 0.000000 3.889510 
# 
# 
# High freq. dielectric constant tensor:
#      x y z
#    x 1.705800 0.000000 -0.004760 
#    y 0.000000 1.661420 0.000000 
#    z -0.004760 0.000000 1.733080 
# 
# From -- ./inp_files/280238.got.cif
#   From: 2010.06.25/outbox.cif.g09.slc.cpg/sg12_141_cif.got.tgz:280238.got - 2010.06.28 00:19:55.
