data_PCOD8090145
_publ_section_title
;
Structure prediction by ZEFSAII (Michael W. Deem and Ramdas Pophale) SiO2 
 PCOD8090145
Probable space group: C 2/M
;
_chemical_formula_sum "Si O2"
_cell_formula_units_Z 48
_cell_length_a 17.679256
_cell_length_b 8.898824
_cell_length_c 15.317155
_cell_angle_alpha 90.000000
_cell_angle_beta 86.980706
_cell_angle_gamma 90.000000
_cell_volume 2406.419989
_symmetry_space_group_name_H-M "C 2/M"
_symmetry_group_IT_number 12
_symmetry_cell_setting 'monoclinic'
loop_
_space_group_symop_operation_xyz
x,y,z
-x,y,-z
-x,-y,-z
x,-y,z
1/2+x,1/2+y,z
1/2-x,1/2+y,-z
1/2-x,1/2-y,-z
1/2+x,1/2-y,z
loop_
_atom_site_type_symbol
_atom_site_label
_atom_site_fract_x
_atom_site_fract_y
_atom_site_fract_z
Si Si1 0.356713 0.176871 0.669193
Si Si2 0.328721 0.827416 0.485402
Si Si3 0.671557 0.825816 0.027681
Si Si4 0.572730 0.677231 0.176997
Si Si5 0.805592 0.324285 0.299354
Si Si6 0.081723 0.326712 0.858197
O O1 0.380070 0.218408 0.566380
O O2 0.416945 0.264056 0.725005
O O3 0.271188 0.228979 0.695407
O O4 0.363390 0.000000 0.687398
O O5 0.250000 0.750000 0.500000
O O6 0.356961 0.794367 0.384529
O O7 0.310689 0.000000 0.498080
O O8 0.639355 0.748235 0.115632
O O9 0.685537 0.000000 0.046399
O O10 0.750000 0.750000 0.000000
O O11 0.612531 0.803200 0.953151
O O12 0.580513 0.500000 0.173420
O O13 0.491509 0.724271 0.145892
O O14 0.783891 0.500000 0.292858
O O15 0.855333 0.271876 0.214522
O O16 0.059628 0.500000 0.842283
#
# Coordination Sequence:
#
# PCOD8090145 Si02
#       6
#     8   8   8   8   8   8
#     4  10  19  33  55  82 112 146 186 230 276 327
#     4   8  15  28  50  80 110 142 179 223 274 326
#     4  11  23  40  63  89 115 143 179 222 270 327
#     4  12  25  39  56  79 110 149 189 230 276 323
#     4   9  17  33  57  84 113 143 181 227 276 333
#     4  10  22  39  58  81 111 146 180 221 275 331
#
# _framework density 19.946643000000002
#
# number of rings (size 3 to 8) (size 9 to 14) (size 15 to 20)
#    0.000    2.000    0.000    4.000    0.000    6.000 
#    0.000    0.833    0.000    5.000    0.000    0.000 
#    0.000    0.000    0.000    0.000    0.000    0.000 
#
# Total GULP energy -297464.447724 kJ/mol
# GULP energy per Si atom -12394.351988 kJ/mol
# Density = 1.990124 g / cm^3
# Si number density = 19.946643 Si / 1000 Ang^3
#
#
#
# Elastic Constant Matrix: (Units=GPa)
#
#
# Indices 1 2 3 4 5 6 
#
# 1 52.6257 30.1627 -1.0592 0.0000 16.3941 0.0000
# 2 30.1627 100.9915 31.4897 0.0000 16.6896 0.0000
# 3 -1.0592 31.4897 79.4950 0.0000 19.1331 0.0000
# 4 0.0000 0.0000 0.0000 25.2465 0.0000 2.7546
# 5 16.3941 16.6896 19.1331 0.0000 26.0266 0.0000
# 6 0.0000 0.0000 0.0000 2.7546 0.0000 33.9602
#
#
#
# Elastic Compliance Matrix: (Units=1/GPa)
#
#
# Indices 1 2 3 4 5 6 
#
# 1 0.030169 -0.008377 0.008506 0.000000 -0.019885 0.000000
# 2 -0.008377 0.014140 -0.005832 0.000000 0.000497 0.000000
# 3 0.008506 -0.005832 0.018701 0.000000 -0.015366 0.000000
# 4 0.000000 0.000000 0.000000 0.039963 0.000000 -0.003242
# 5 -0.019885 0.000497 -0.015366 0.000000 0.061926 0.000000
# 6 0.000000 0.000000 0.000000 -0.003242 0.000000 0.029709
#
#
# Mechanical properties :
#
#
# Convention : Reuss Voigt Hill
#
# Bulk Modulus (GPa) = 19.37796 39.36650 29.37223
# Shear Modulus (GPa) = 22.39986 28.54791 25.47388
#
# Velocity S-wave (km/s) = 3.35474 3.78724 3.57753
# Velocity P-wave (km/s) = 4.97410 6.23723 5.64113
#
# Compressibility (1/GPa) = 0.05160501
#
# Stress axis : x y z
#
# Youngs Moduli (GPa) = 33.14652 70.72077 53.47194
#
# Poissons Ratio (x) = 0.59240 -0.45484
# Poissons Ratio (y) = 0.27765 0.31187
# Poissons Ratio (z) = -0.28195 0.41247
#
# Static dielectric constant tensor:
#      x y z
#    x 3.269950 0.000000 0.170950 
#    y 0.000000 3.632550 0.000000 
#    z 0.170950 0.000000 4.437150 
# 
# 
# High freq. dielectric constant tensor:
#      x y z
#    x 1.747320 0.000000 0.012430 
#    y 0.000000 1.778720 0.000000 
#    z 0.012430 0.000000 1.807370 
# 
# From -- ./inp_files/221625.got.cif
#   From: 2010.06.25/outbox.cif.g09.slc.cpg/sg12_111_cif.got.tgz:221625.got - 2010.06.28 00:19:55.
