data_PCOD8090156
_publ_section_title
;
Structure prediction by ZEFSAII (Michael W. Deem and Ramdas Pophale) SiO2 
 PCOD8090156
Probable space group: C 2/M
;
_chemical_formula_sum "Si O2"
_cell_formula_units_Z 64
_cell_length_a 15.590441
_cell_length_b 8.694745
_cell_length_c 26.551177
_cell_angle_alpha 90.000000
_cell_angle_beta 116.201213
_cell_angle_gamma 90.000000
_cell_volume 3229.326982
_symmetry_space_group_name_H-M "C 2/M"
_symmetry_group_IT_number 12
_symmetry_cell_setting 'monoclinic'
loop_
_space_group_symop_operation_xyz
x,y,z
-x,y,-z
-x,-y,-z
x,-y,z
1/2+x,1/2+y,z
1/2-x,1/2+y,-z
1/2-x,1/2-y,-z
1/2+x,1/2-y,z
loop_
_atom_site_type_symbol
_atom_site_label
_atom_site_fract_x
_atom_site_fract_y
_atom_site_fract_z
Si Si1 0.453728 0.182968 0.059738
Si Si2 0.634818 0.316962 0.061971
Si Si3 0.445897 0.816594 0.259818
Si Si4 0.181700 0.822208 0.441217
Si Si5 0.159733 0.318352 0.329729
Si Si6 0.980365 0.177686 0.438615
Si Si7 0.334219 0.180734 0.328374
Si Si8 0.149954 0.682381 0.866330
O O1 0.562888 0.241074 0.083752
O O2 0.411289 0.239558 0.101835
O O3 0.449969 0.000000 0.052503
O O4 0.389804 0.260524 0.000229
O O5 0.625307 0.500000 0.062063
O O6 0.741208 0.258729 0.102334
O O7 0.553811 0.752760 0.291630
O O8 0.385916 0.754501 0.291847
O O9 0.398198 0.750561 0.196651
O O10 0.446530 0.000000 0.259908
O O11 0.250000 0.750000 0.500000
O O12 0.199849 0.739060 0.393335
O O13 0.072813 0.795994 0.428641
O O14 0.207204 0.000000 0.441963
O O15 0.159098 0.500000 0.329423
O O16 0.229799 0.257408 0.304284
O O17 0.895023 0.276795 0.393464
O O18 0.000000 0.237872 0.500000
O O19 0.948498 0.000000 0.431641
O O20 0.321011 0.000000 0.322012
O O21 0.149349 0.500000 0.864812
#
# Coordination Sequence:
#
# PCOD8090156 Si02
#       8
#     8   8   8   8   8   8   8   8
#     4  10  19  33  55  82 115 151 190 235 284 340
#     4  10  19  33  55  82 115 151 189 235 288 338
#     4   9  20  39  59  81 113 152 192 235 288 347
#     4  11  22  36  58  87 120 150 185 231 281 343
#     4  11  22  39  61  83 113 152 190 232 287 342
#     4  10  21  37  57  83 115 147 180 227 282 339
#     4  11  22  38  61  86 111 146 190 236 284 341
#     4   9  19  35  56  81 111 151 194 235 284 341
#
# _framework density 19.818370999999999
#
# number of rings (size 3 to 8) (size 9 to 14) (size 15 to 20)
#    0.000    1.875    1.250    3.750    0.000    2.750 
#    0.000    1.875    0.000   10.500    0.000    0.000 
#    0.000    0.000    0.000    0.000    0.000    0.000 
#
# Total GULP energy -396903.897767 kJ/mol
# GULP energy per Si atom -12403.246805 kJ/mol
# Density = 1.977326 g / cm^3
# Si number density = 19.818371 Si / 1000 Ang^3
#
#
#
# Elastic Constant Matrix: (Units=GPa)
#
#
# Indices 1 2 3 4 5 6 
#
# 1 169.1532 32.3944 83.3643 0.0000 0.9647 0.0000
# 2 32.3944 50.5268 15.1504 0.0000 2.7119 0.0000
# 3 83.3643 15.1504 130.9214 0.0000 2.4751 0.0000
# 4 0.0000 0.0000 0.0000 19.2366 0.0000 0.3040
# 5 0.9647 2.7119 2.4751 0.0000 27.1466 0.0000
# 6 0.0000 0.0000 0.0000 0.3040 0.0000 28.2448
#
#
#
# Elastic Compliance Matrix: (Units=1/GPa)
#
#
# Indices 1 2 3 4 5 6 
#
# 1 0.009492 -0.004458 -0.005540 0.000000 0.000613 0.000000
# 2 -0.004458 0.022688 0.000253 0.000000 -0.002131 0.000000
# 3 -0.005540 0.000253 0.011152 0.000000 -0.000845 0.000000
# 4 0.000000 0.000000 0.000000 0.051993 0.000000 -0.000560
# 5 0.000613 -0.002131 -0.000845 0.000000 0.037105 0.000000
# 6 0.000000 0.000000 0.000000 -0.000560 0.000000 0.035411
#
#
# Mechanical properties :
#
#
# Convention : Reuss Voigt Hill
#
# Bulk Modulus (GPa) = 41.93953 68.04662 54.99308
# Shear Modulus (GPa) = 25.60449 29.57174 27.58812
#
# Velocity S-wave (km/s) = 3.59828 3.86701 3.73506
# Velocity P-wave (km/s) = 6.20253 7.37211 6.81247
#
# Compressibility (1/GPa) = 0.02384385
#
# Stress axis : x y z
#
# Youngs Moduli (GPa) = 105.34927 44.07648 89.66664
#
# Poissons Ratio (x) = 0.19647 0.49675
# Poissons Ratio (y) = 0.46960 -0.02270
# Poissons Ratio (z) = 0.58363 -0.01116
#
# Static dielectric constant tensor:
#      x y z
#    x 4.009560 0.000000 0.002440 
#    y 0.000000 3.393920 0.000000 
#    z 0.002440 0.000000 3.676130 
# 
# 
# High freq. dielectric constant tensor:
#      x y z
#    x 1.792030 0.000000 -0.001550 
#    y 0.000000 1.754580 0.000000 
#    z -0.001550 0.000000 1.768040 
# 
# From -- ./inp_files/360006.got.cif
#   From: 2010.06.25/outbox.cif.g09.slc.cpg/sg12_181_cif.got.tgz:360006.got - 2010.06.28 00:19:55.
