data_PCOD8090385
_publ_section_title
;
Structure prediction by ZEFSAII (Michael W. Deem and Ramdas Pophale) SiO2 
 PCOD8090385
Probable space group: C 2/M
;
_chemical_formula_sum "Si O2"
_cell_formula_units_Z 64
_cell_length_a 25.586226
_cell_length_b 12.639522
_cell_length_c 20.716176
_cell_angle_alpha 90.000000
_cell_angle_beta 29.459512
_cell_angle_gamma 90.000000
_cell_volume 3294.901356
_symmetry_space_group_name_H-M "C 2/M"
_symmetry_group_IT_number 12
_symmetry_cell_setting 'monoclinic'
loop_
_space_group_symop_operation_xyz
x,y,z
-x,y,-z
-x,-y,-z
x,-y,z
1/2+x,1/2+y,z
1/2-x,1/2+y,-z
1/2-x,1/2-y,-z
1/2+x,1/2-y,z
loop_
_atom_site_type_symbol
_atom_site_label
_atom_site_fract_x
_atom_site_fract_y
_atom_site_fract_z
Si Si1 0.835025 0.747591 0.072112
Si Si2 0.763472 0.264651 0.288228
Si Si3 0.259640 0.125064 0.569684
Si Si4 0.959677 0.122922 0.471751
Si Si5 0.399380 0.618870 0.890836
Si Si6 0.051121 0.376688 0.845259
Si Si7 0.164991 0.119489 0.178244
Si Si8 0.402429 0.241041 0.329228
O O1 0.773803 0.776127 0.203704
O O2 0.765534 0.671430 0.102927
O O3 0.848231 0.854352 0.015388
O O4 0.946566 0.693303 0.970102
O O5 0.775679 0.162658 0.321259
O O6 0.649699 0.316625 0.423505
O O7 0.858241 0.347864 0.200061
O O8 0.368960 0.183339 0.431551
O O9 0.174503 0.162044 0.607769
O O10 0.271986 0.000000 0.556327
O O11 0.000000 0.145976 0.500000
O O12 0.050558 0.165553 0.324632
O O13 0.935271 0.000000 0.486426
O O14 0.446587 0.500000 0.844533
O O15 0.318842 0.626129 0.916746
O O16 0.484315 0.707646 0.782182
O O17 0.022859 0.500000 0.881837
O O18 0.097265 0.350441 0.725209
O O19 0.166747 0.000000 0.201449
#
# Coordination Sequence:
#
# PCOD8090385 Si02
#       8
#     8   8   8   8   8   8   8   8
#     4  11  22  36  53  78 114 150 184 226 271 325
#     4  11  22  35  54  82 114 150 186 222 272 332
#     4  10  20  35  57  82 112 147 183 226 277 332
#     4  10  19  33  56  83 110 142 180 229 281 325
#     4  10  21  37  57  80 106 142 187 232 274 323
#     4  10  21  35  55  83 114 146 181 225 278 330
#     4  10  20  35  57  82 106 140 187 233 282 325
#     4   9  19  36  57  83 109 141 183 231 278 324
#
# _framework density 19.423950000000001
#
# number of rings (size 3 to 8) (size 9 to 14) (size 15 to 20)
#    0.000    1.875    1.250    3.000    0.000    2.500 
#    0.000    3.750    0.000    9.375    0.000    0.000 
#    0.000    0.000    0.000    0.000    0.000    0.000 
#
# Total GULP energy -396723.436000 kJ/mol
# GULP energy per Si atom -12397.607375 kJ/mol
# Density = 1.937974 g / cm^3
# Si number density = 19.423950 Si / 1000 Ang^3
#
#
#
# Elastic Constant Matrix: (Units=GPa)
#
#
# Indices 1 2 3 4 5 6 
#
# 1 79.0066 36.9529 23.3781 0.0000 2.6291 0.0000
# 2 36.9529 91.7637 27.4048 0.0000 7.6472 0.0000
# 3 23.3781 27.4048 66.6010 0.0000 1.2825 0.0000
# 4 0.0000 0.0000 0.0000 21.7290 0.0000 0.4577
# 5 2.6291 7.6472 1.2825 0.0000 42.0491 0.0000
# 6 0.0000 0.0000 0.0000 0.4577 0.0000 21.1014
#
#
#
# Elastic Compliance Matrix: (Units=1/GPa)
#
#
# Indices 1 2 3 4 5 6 
#
# 1 0.016256 -0.005529 -0.003433 0.000000 0.000094 0.000000
# 2 -0.005529 0.014494 -0.003981 0.000000 -0.002169 0.000000
# 3 -0.003433 -0.003981 0.017850 0.000000 0.000394 0.000000
# 4 0.000000 0.000000 0.000000 0.046043 0.000000 -0.000999
# 5 0.000094 -0.002169 0.000394 0.000000 0.024158 0.000000
# 6 0.000000 0.000000 0.000000 -0.000999 0.000000 0.047412
#
#
# Mechanical properties :
#
#
# Convention : Reuss Voigt Hill
#
# Bulk Modulus (GPa) = 44.02595 45.87141 44.94868
# Shear Modulus (GPa) = 25.04131 26.95157 25.99644
#
# Velocity S-wave (km/s) = 3.59444 3.72902 3.66234
# Velocity P-wave (km/s) = 6.31994 6.49676 6.40896
#
# Compressibility (1/GPa) = 0.02271387
#
# Stress axis : x y z
#
# Youngs Moduli (GPa) = 61.51676 68.99541 56.02092
#
# Poissons Ratio (x) = 0.38146 0.19231
# Poissons Ratio (y) = 0.34011 0.22304
# Poissons Ratio (z) = 0.21118 0.27470
#
# Static dielectric constant tensor:
#      x y z
#    x 3.557810 0.000000 0.186100 
#    y 0.000000 3.324140 0.000000 
#    z 0.186100 0.000000 3.760230 
# 
# 
# High freq. dielectric constant tensor:
#      x y z
#    x 1.760210 0.000000 0.007520 
#    y 0.000000 1.733910 0.000000 
#    z 0.007520 0.000000 1.762530 
# 
# From -- ./inp_files/327790.got.cif
#   From: 2010.06.25/outbox.cif.g09.slc.cpg/sg12_164_cif.got.tgz:327790.got - 2010.06.28 00:19:55.
