data_PCOD8090517
_publ_section_title
;
Structure prediction by ZEFSAII (Michael W. Deem and Ramdas Pophale) SiO2 
 PCOD8090517
Probable space group: C 2/M
;
_chemical_formula_sum "Si O2"
_cell_formula_units_Z 48
_cell_length_a 18.843999
_cell_length_b 10.391596
_cell_length_c 12.190697
_cell_angle_alpha 90.000000
_cell_angle_beta 90.101190
_cell_angle_gamma 90.000000
_cell_volume 2387.169111
_symmetry_space_group_name_H-M "C 2/M"
_symmetry_group_IT_number 12
_symmetry_cell_setting 'monoclinic'
loop_
_space_group_symop_operation_xyz
x,y,z
-x,y,-z
-x,-y,-z
x,-y,z
1/2+x,1/2+y,z
1/2-x,1/2+y,-z
1/2-x,1/2-y,-z
1/2+x,1/2-y,z
loop_
_atom_site_type_symbol
_atom_site_label
_atom_site_fract_x
_atom_site_fract_y
_atom_site_fract_z
Si Si1 0.614508 0.000000 0.499065
Si Si2 0.191933 0.142863 0.633270
Si Si3 0.054906 0.257613 0.223046
Si Si4 0.584335 0.854140 0.001575
Si Si5 0.667302 0.256775 0.409332
Si Si6 0.586881 0.354301 0.824117
Si Si7 0.508598 0.000000 0.676133
O O1 0.661111 0.875989 0.476371
O O2 0.587377 0.000000 0.624827
O O3 0.548088 0.000000 0.419413
O O4 0.256564 0.244576 0.651396
O O5 0.166125 0.137798 0.505684
O O6 0.126292 0.181145 0.710823
O O7 0.218396 0.000000 0.664919
O O8 0.105909 0.300042 0.122312
O O9 0.104526 0.214251 0.323815
O O10 0.002152 0.375843 0.249089
O O11 0.998875 0.145874 0.193260
O O12 0.614349 0.000000 0.982249
O O13 0.500000 0.856320 0.000000
O O14 0.613178 0.751497 0.913054
O O15 0.605843 0.500000 0.863286
#
# Coordination Sequence:
#
# PCOD8090517 Si02
#       7
#     4   8   8   8   8   8   4
#     4   9  16  28  48  76 108 133 171 218 265 323
#     4  10  21  38  54  76 116 154 187 223 280 342
#     4  10  19  33  57  82 110 140 185 236 283 327
#     4   9  18  34  56  81 110 145 185 237 286 329
#     4  10  20  35  55  81 105 148 188 227 277 335
#     4  10  22  37  55  81 115 153 187 229 280 341
#     4   9  16  26  47  82 108 128 167 227 276 310
#
# _framework density 20.107499000000001
#
# number of rings (size 3 to 8) (size 9 to 14) (size 15 to 20)
#    0.000    2.333    1.667    1.000    1.167    5.667 
#    1.500    2.500    0.000    0.000    0.000    0.000 
#    0.000    0.000    0.000    0.000    0.000    0.000 
#
# Total GULP energy -297436.675292 kJ/mol
# GULP energy per Si atom -12393.194804 kJ/mol
# Density = 2.006173 g / cm^3
# Si number density = 20.107499 Si / 1000 Ang^3
#
#
#
# Elastic Constant Matrix: (Units=GPa)
#
#
# Indices 1 2 3 4 5 6 
#
# 1 55.9469 19.0420 33.3313 0.0000 -9.1452 0.0000
# 2 19.0420 83.6627 39.2286 0.0000 -18.0478 0.0000
# 3 33.3313 39.2286 116.1290 0.0000 -15.7142 0.0000
# 4 0.0000 0.0000 0.0000 54.6500 0.0000 -10.5274
# 5 -9.1452 -18.0478 -15.7142 0.0000 20.3714 0.0000
# 6 0.0000 0.0000 0.0000 -10.5274 0.0000 21.0951
#
#
#
# Elastic Compliance Matrix: (Units=1/GPa)
#
#
# Indices 1 2 3 4 5 6 
#
# 1 0.022288 -0.001647 -0.005230 0.000000 0.004512 0.000000
# 2 -0.001647 0.016378 -0.003569 0.000000 0.011017 0.000000
# 3 -0.005230 -0.003569 0.011804 0.000000 0.003596 0.000000
# 4 0.000000 0.000000 0.000000 0.020244 0.000000 0.010103
# 5 0.004512 0.011017 0.003596 0.000000 0.063648 0.000000
# 6 0.000000 0.000000 0.000000 0.010103 0.000000 0.052446
#
#
# Mechanical properties :
#
#
# Convention : Reuss Voigt Hill
#
# Bulk Modulus (GPa) = 33.80899 48.77140 41.29019
# Shear Modulus (GPa) = 22.98202 30.16574 26.57388
#
# Velocity S-wave (km/s) = 3.38443 3.87747 3.63931
# Velocity P-wave (km/s) = 5.66773 6.65991 6.18375
#
# Compressibility (1/GPa) = 0.02957793
#
# Stress axis : x y z
#
# Youngs Moduli (GPa) = 44.86664 61.05863 84.71385
#
# Poissons Ratio (x) = 0.10058 0.44307
# Poissons Ratio (y) = 0.07390 0.30233
# Poissons Ratio (z) = 0.23466 0.21791
#
# Static dielectric constant tensor:
#      x y z
#    x 3.303440 0.000000 -0.224530 
#    y 0.000000 3.715630 0.000000 
#    z -0.224530 0.000000 3.894150 
# 
# 
# High freq. dielectric constant tensor:
#      x y z
#    x 1.750130 0.000000 -0.013310 
#    y 0.000000 1.778660 0.000000 
#    z -0.013310 0.000000 1.786220 
# 
# From -- ./inp_files/164211.got.cif
#   From: 2010.06.25/outbox.cif.g09.slc.cpg/sg12_83_cif.got.tgz:164211.got - 2010.06.28 00:19:55.
