data_PCOD8090696
_publ_section_title
;
Structure prediction by ZEFSAII (Michael W. Deem and Ramdas Pophale) SiO2 
 PCOD8090696
Probable space group: C 2/M
;
_chemical_formula_sum "Si O2"
_cell_formula_units_Z 64
_cell_length_a 14.952859
_cell_length_b 9.186781
_cell_length_c 28.170899
_cell_angle_alpha 90.000000
_cell_angle_beta 57.255928
_cell_angle_gamma 90.000000
_cell_volume 3254.867762
_symmetry_space_group_name_H-M "C 2/M"
_symmetry_group_IT_number 12
_symmetry_cell_setting 'monoclinic'
loop_
_space_group_symop_operation_xyz
x,y,z
-x,y,-z
-x,-y,-z
x,-y,z
1/2+x,1/2+y,z
1/2-x,1/2+y,-z
1/2-x,1/2-y,-z
1/2+x,1/2-y,z
loop_
_atom_site_type_symbol
_atom_site_label
_atom_site_fract_x
_atom_site_fract_y
_atom_site_fract_z
Si Si1 0.299991 0.172924 0.189242
Si Si2 0.524298 0.831433 0.606844
Si Si3 0.717692 0.170996 0.305308
Si Si4 0.713390 0.832808 0.127268
Si Si5 0.539730 0.166722 0.104786
Si Si6 0.213938 0.665989 0.623323
Si Si7 0.394750 0.670413 0.003276
Si Si8 0.655797 0.667093 0.501983
O O1 0.268522 0.243087 0.247624
O O2 0.222024 0.231704 0.170807
O O3 0.419548 0.224529 0.142757
O O4 0.290585 0.000000 0.195772
O O5 0.407150 0.791504 0.658186
O O6 0.608837 0.789922 0.623615
O O7 0.547004 0.741498 0.551621
O O8 0.534921 0.000000 0.590503
O O9 0.776174 0.224133 0.336008
O O10 0.737715 0.000000 0.293562
O O11 0.594941 0.814889 0.140367
O O12 0.795209 0.780302 0.063365
O O13 0.736748 0.000000 0.135164
O O14 0.541243 0.000000 0.088181
O O15 0.608843 0.253371 0.046604
O O16 0.202404 0.500000 0.645000
O O17 0.321935 0.680090 0.560721
O O18 0.393795 0.500000 0.993973
O O19 0.500000 0.722209 0.000000
O O20 0.655264 0.500000 0.518162
O O21 0.750000 0.750000 0.500000
#
# Coordination Sequence:
#
# PCOD8090696 Si02
#       8
#     8   8   8   8   8   8   8   8
#     4  11  24  41  58  80 110 146 190 237 281 329
#     4   9  20  38  58  82 114 150 186 228 282 339
#     4  11  24  40  59  82 109 147 192 237 284 334
#     4  10  21  39  60  84 115 150 186 226 279 336
#     4  10  22  38  59  85 114 150 187 226 277 336
#     4   9  19  37  58  82 114 148 182 225 277 334
#     4  10  19  33  58  89 119 149 181 226 278 328
#     4   9  17  31  55  85 117 151 185 226 279 335
#
# _framework density 19.662858
#
# number of rings (size 3 to 8) (size 9 to 14) (size 15 to 20)
#    0.000    2.125    1.250    2.250    0.000    6.750 
#    0.000    7.500    0.000    0.000    0.000    0.000 
#    0.000    0.000    0.000    0.000    0.000    0.000 
#
# Total GULP energy -396814.698115 kJ/mol
# GULP energy per Si atom -12400.459316 kJ/mol
# Density = 1.961810 g / cm^3
# Si number density = 19.662858 Si / 1000 Ang^3
#
#
#
# Elastic Constant Matrix: (Units=GPa)
#
#
# Indices 1 2 3 4 5 6 
#
# 1 60.5433 12.2854 12.2019 0.0000 7.3716 0.0000
# 2 12.2854 61.7579 35.6754 0.0000 5.7990 0.0000
# 3 12.2019 35.6754 84.1705 0.0000 12.5523 0.0000
# 4 0.0000 0.0000 0.0000 39.6125 0.0000 5.2575
# 5 7.3716 5.7990 12.5523 0.0000 22.6165 0.0000
# 6 0.0000 0.0000 0.0000 5.2575 0.0000 29.8141
#
#
#
# Elastic Compliance Matrix: (Units=1/GPa)
#
#
# Indices 1 2 3 4 5 6 
#
# 1 0.017780 -0.002664 -0.000748 0.000000 -0.004697 0.000000
# 2 -0.002664 0.021846 -0.008904 0.000000 0.000209 0.000000
# 3 -0.000748 -0.008904 0.016775 0.000000 -0.006783 0.000000
# 4 0.000000 0.000000 0.000000 0.025850 0.000000 -0.004558
# 5 -0.004697 0.000209 -0.006783 0.000000 0.049458 0.000000
# 6 0.000000 0.000000 0.000000 -0.004558 0.000000 0.034345
#
#
# Mechanical properties :
#
#
# Convention : Reuss Voigt Hill
#
# Bulk Modulus (GPa) = 31.47745 36.31079 33.89412
# Shear Modulus (GPa) = 24.84152 28.16254 26.50203
#
# Velocity S-wave (km/s) = 3.55825 3.78864 3.67525
# Velocity P-wave (km/s) = 5.73802 6.13557 5.94012
#
# Compressibility (1/GPa) = 0.03176878
#
# Stress axis : x y z
#
# Youngs Moduli (GPa) = 56.24201 45.77415 59.61330
#
# Poissons Ratio (x) = 0.12194 0.04459
# Poissons Ratio (y) = 0.14982 0.53083
# Poissons Ratio (z) = 0.04207 0.40760
#
# Static dielectric constant tensor:
#      x y z
#    x 3.564790 0.000000 -0.081440 
#    y 0.000000 3.595070 0.000000 
#    z -0.081440 0.000000 3.463050 
# 
# 
# High freq. dielectric constant tensor:
#      x y z
#    x 1.764110 0.000000 -0.002160 
#    y 0.000000 1.765520 0.000000 
#    z -0.002160 0.000000 1.763970 
# 
# From -- ./inp_files/374991.got.cif
#   From: 2010.06.25/outbox.cif.g09.slc.cpg/sg12_188_cif.got.tgz:374991.got - 2010.06.28 00:19:55.
