data_PCOD8090778
_publ_section_title
;
Structure prediction by ZEFSAII (Michael W. Deem and Ramdas Pophale) SiO2 
 PCOD8090778
Probable space group: C 2/M
;
_chemical_formula_sum "Si O2"
_cell_formula_units_Z 64
_cell_length_a 8.736937
_cell_length_b 29.061493
_cell_length_c 15.619780
_cell_angle_alpha 90.000000
_cell_angle_beta 78.375755
_cell_angle_gamma 90.000000
_cell_volume 3884.651633
_symmetry_space_group_name_H-M "C 2/M"
_symmetry_group_IT_number 12
_symmetry_cell_setting 'monoclinic'
loop_
_space_group_symop_operation_xyz
x,y,z
-x,y,-z
-x,-y,-z
x,-y,z
1/2+x,1/2+y,z
1/2-x,1/2+y,-z
1/2-x,1/2-y,-z
1/2+x,1/2-y,z
loop_
_atom_site_type_symbol
_atom_site_label
_atom_site_fract_x
_atom_site_fract_y
_atom_site_fract_z
Si Si1 0.300047 0.280578 0.835298
Si Si2 0.090460 0.635124 0.905302
Si Si3 0.792599 0.947679 0.943741
Si Si4 0.902276 0.768443 0.437716
Si Si5 0.856343 0.051940 0.134503
Si Si6 0.173785 0.285540 0.325145
Si Si7 0.679160 0.865404 0.195756
Si Si8 0.094595 0.796075 0.906328
O O1 0.220612 0.330031 0.854471
O O2 0.289333 0.257503 0.742363
O O3 0.209950 0.246581 0.910481
O O4 0.481396 0.283813 0.839849
O O5 0.166475 0.586289 0.918032
O O6 0.977264 0.626538 0.839033
O O7 0.000000 0.654426 0.000000
O O8 0.959792 0.937236 0.881980
O O9 0.742043 0.000000 0.928766
O O10 0.797144 0.940257 0.044704
O O11 0.750000 0.750000 0.500000
O O12 0.831784 0.795238 0.363752
O O13 0.000000 0.797546 0.500000
O O14 0.019042 0.727097 0.396269
O O15 0.758222 0.085357 0.209302
O O16 0.823819 0.000000 0.168361
O O17 0.141059 0.333735 0.281774
O O18 0.806707 0.841185 0.121944
O O19 0.000000 0.808760 0.000000
#
# Coordination Sequence:
#
# PCOD8090778 Si02
#       8
#     8   8   8   8   8   8   8   8
#     4  11  21  32  45  63  91 131 158 202 246 276
#     4  12  21  30  43  65  92 126 176 210 240 284
#     4   9  19  33  48  62  84 121 173 230 257 277
#     4   9  18  33  55  73  92 122 151 181 219 277
#     4   9  18  34  50  65  86 122 170 213 257 290
#     4  10  19  34  47  71 101 123 155 188 235 289
#     4  11  21  30  47  69  95 129 157 207 254 280
#     4  11  21  32  43  58  88 128 176 207 238 278
#
# _framework density 16.475095
#
# number of rings (size 3 to 8) (size 9 to 14) (size 15 to 20)
#    0.000    1.750    1.250    6.750    1.750    0.750 
#    0.000    0.000    0.000    0.000    0.000    0.000 
#    0.000    5.000    0.000    6.500    0.000    8.875 
#
# Total GULP energy -396538.673837 kJ/mol
# GULP energy per Si atom -12391.833557 kJ/mol
# Density = 1.643760 g / cm^3
# Si number density = 16.475095 Si / 1000 Ang^3
#
#
#
# Elastic Constant Matrix: (Units=GPa)
#
#
# Indices 1 2 3 4 5 6 
#
# 1 100.2773 42.5698 32.7854 0.0000 15.2632 0.0000
# 2 42.5698 92.2575 24.1545 0.0000 -0.2338 0.0000
# 3 32.7854 24.1545 65.7389 0.0000 5.7687 0.0000
# 4 0.0000 0.0000 0.0000 13.0683 0.0000 3.9140
# 5 15.2632 -0.2338 5.7687 0.0000 32.4543 0.0000
# 6 0.0000 0.0000 0.0000 3.9140 0.0000 30.0452
#
#
#
# Elastic Compliance Matrix: (Units=1/GPa)
#
#
# Indices 1 2 3 4 5 6 
#
# 1 0.014870 -0.005618 -0.004810 0.000000 -0.006179 0.000000
# 2 -0.005618 0.014140 -0.002676 0.000000 0.003220 0.000000
# 3 -0.004810 -0.002676 0.018688 0.000000 -0.001079 0.000000
# 4 0.000000 0.000000 0.000000 0.079628 0.000000 -0.010373
# 5 -0.006179 0.003220 -0.001079 0.000000 0.033934 0.000000
# 6 0.000000 0.000000 0.000000 -0.010373 0.000000 0.034634
#
#
# Mechanical properties :
#
#
# Convention : Reuss Voigt Hill
#
# Bulk Modulus (GPa) = 46.53081 50.81035 48.67058
# Shear Modulus (GPa) = 21.80863 25.69781 23.75322
#
# Velocity S-wave (km/s) = 3.64226 3.95371 3.80118
# Velocity P-wave (km/s) = 6.78178 7.19375 6.99080
#
# Compressibility (1/GPa) = 0.02149114
#
# Stress axis : x y z
#
# Youngs Moduli (GPa) = 67.24808 70.71965 53.50885
#
# Poissons Ratio (x) = 0.39730 0.25736
# Poissons Ratio (y) = 0.37779 0.14321
# Poissons Ratio (z) = 0.32344 0.18927
#
# Static dielectric constant tensor:
#      x y z
#    x 3.554070 0.000000 0.196930 
#    y 0.000000 3.064080 0.000000 
#    z 0.196930 0.000000 3.150770 
# 
# 
# High freq. dielectric constant tensor:
#      x y z
#    x 1.661440 0.000000 0.000040 
#    y 0.000000 1.613740 0.000000 
#    z 0.000040 0.000000 1.599130 
# 
# From -- ./inp_files/200567.got.cif
#   From: 2010.06.25/outbox.cif.g09.slc.cpg/sg12_101_cif.got.tgz:200567.got - 2010.06.28 00:19:55.
