data_PCOD8090764
_publ_section_title
;
Structure prediction by ZEFSAII (Michael W. Deem and Ramdas Pophale) SiO2 
 PCOD8090764
Probable space group: C 2/M
;
_chemical_formula_sum "Si O2"
_cell_formula_units_Z 52
_cell_length_a 28.683474
_cell_length_b 15.273016
_cell_length_c 9.023188
_cell_angle_alpha 90.000000
_cell_angle_beta 143.160332
_cell_angle_gamma 90.000000
_cell_volume 2370.075218
_symmetry_space_group_name_H-M "C 2/M"
_symmetry_group_IT_number 12
_symmetry_cell_setting 'monoclinic'
loop_
_space_group_symop_operation_xyz
x,y,z
-x,y,-z
-x,-y,-z
x,-y,z
1/2+x,1/2+y,z
1/2-x,1/2+y,-z
1/2-x,1/2-y,-z
1/2+x,1/2-y,z
loop_
_atom_site_type_symbol
_atom_site_label
_atom_site_fract_x
_atom_site_fract_y
_atom_site_fract_z
Si Si1 0.633976 0.264188 0.025440
Si Si2 0.454599 0.900743 0.237397
Si Si3 0.099529 0.401158 0.396445
Si Si4 0.246118 0.165490 0.088439
Si Si5 0.616884 0.594869 0.565503
Si Si6 0.410780 0.722314 0.768360
Si Si7 0.000000 0.849247 0.500000
O O1 0.621541 0.158599 0.992154
O O2 0.566016 0.291109 0.741360
O O3 0.715889 0.300310 0.172626
O O4 0.628108 0.304923 0.175247
O O5 0.500000 0.871852 0.500000
O O6 0.517194 0.890004 0.266192
O O7 0.423990 0.000000 0.173108
O O8 0.106845 0.500000 0.348918
O O9 0.171462 0.383435 0.690307
O O10 0.101626 0.326992 0.276069
O O11 0.250000 0.250000 0.000000
O O12 0.187250 0.098739 0.861380
O O13 0.619350 0.500000 0.492116
O O14 0.625881 0.671078 0.464986
O O15 0.537638 0.596713 0.460398
O O16 0.500000 0.694930 0.000000
#
# Coordination Sequence:
#
# PCOD8090764 Si02
#       7
#     8   8   8   8   8   8   4
#     4  11  22  38  66  90 128 169 215 260 322 389
#     4  10  19  33  60  96 127 159 211 269 316 371
#     4  11  23  41  66  95 132 171 215 264 321 389
#     4  11  23  43  69  91 125 172 216 266 325 381
#     4  11  23  41  65  94 126 165 216 265 317 383
#     4  12  23  41  64  98 131 170 209 266 332 380
#     4  10  19  38  63  92 120 162 211 266 304 374
#
# _framework density 21.940232999999999
#
# number of rings (size 3 to 8) (size 9 to 14) (size 15 to 20)
#    0.000    1.077    5.385    1.615    0.000    1.846 
#    0.000    2.308    0.000    0.000    0.000    0.000 
#    0.000    0.000    0.000    0.000    0.000    0.000 
#
# Total GULP energy -322274.897466 kJ/mol
# GULP energy per Si atom -12395.188364 kJ/mol
# Density = 2.189030 g / cm^3
# Si number density = 21.940233 Si / 1000 Ang^3
#
#
#
# Elastic Constant Matrix: (Units=GPa)
#
#
# Indices 1 2 3 4 5 6 
#
# 1 82.4800 32.1667 10.3129 0.0000 -29.0430 0.0000
# 2 32.1667 119.2182 11.8881 0.0000 -6.8057 0.0000
# 3 10.3129 11.8881 47.6345 0.0000 -6.8051 0.0000
# 4 0.0000 0.0000 0.0000 17.1438 0.0000 1.6347
# 5 -29.0430 -6.8057 -6.8051 0.0000 34.7136 0.0000
# 6 0.0000 0.0000 0.0000 1.6347 0.0000 12.9257
#
#
#
# Elastic Compliance Matrix: (Units=1/GPa)
#
#
# Indices 1 2 3 4 5 6 
#
# 1 0.019185 -0.004223 -0.000951 0.000000 0.015036 0.000000
# 2 -0.004223 0.009589 -0.001764 0.000000 -0.001999 0.000000
# 3 -0.000951 -0.001764 0.022095 0.000000 0.003190 0.000000
# 4 0.000000 0.000000 0.000000 0.059042 0.000000 -0.007467
# 5 0.015036 -0.001999 0.003190 0.000000 0.041621 0.000000
# 6 0.000000 0.000000 0.000000 -0.007467 0.000000 0.078310
#
#
# Mechanical properties :
#
#
# Convention : Reuss Voigt Hill
#
# Bulk Modulus (GPa) = 27.03342 39.78531 33.40937
# Shear Modulus (GPa) = 19.52744 25.95429 22.74086
#
# Velocity S-wave (km/s) = 2.98657 3.44314 3.22295
# Velocity P-wave (km/s) = 4.92351 5.82922 5.39540
#
# Compressibility (1/GPa) = 0.03699125
#
# Stress axis : x y z
#
# Youngs Moduli (GPa) = 52.12478 104.28345 45.25872
#
# Poissons Ratio (x) = 0.44040 0.04306
# Poissons Ratio (y) = 0.22013 0.07986
# Poissons Ratio (z) = 0.04959 0.18401
#
# Static dielectric constant tensor:
#      x y z
#    x 2.019020 0.000000 -1.670970 
#    y 0.000000 3.971220 0.000000 
#    z -1.670970 0.000000 2.632740 
# 
# 
# High freq. dielectric constant tensor:
#      x y z
#    x 1.855060 0.000000 -0.004840 
#    y 0.000000 1.859030 0.000000 
#    z -0.004840 0.000000 1.855540 
# 
# From -- ./inp_files/112083.got.cif
#   From: 2010.06.25/outbox.cif.g09.slc.cpg/sg12_57_cif.got.tgz:112083.got - 2010.06.28 00:19:55.
