data_PCOD8090192
_publ_section_title
;
Structure prediction by ZEFSAII (Michael W. Deem and Ramdas Pophale) SiO2 
 PCOD8090192
Probable space group: C 2/M
;
_chemical_formula_sum "Si O2"
_cell_formula_units_Z 56
_cell_length_a 20.587080
_cell_length_b 8.690399
_cell_length_c 32.553215
_cell_angle_alpha 90.000000
_cell_angle_beta 29.355872
_cell_angle_gamma 90.000000
_cell_volume 2855.160712
_symmetry_space_group_name_H-M "C 2/M"
_symmetry_group_IT_number 12
_symmetry_cell_setting 'monoclinic'
loop_
_space_group_symop_operation_xyz
x,y,z
-x,y,-z
-x,-y,-z
x,-y,z
1/2+x,1/2+y,z
1/2-x,1/2+y,-z
1/2-x,1/2-y,-z
1/2+x,1/2-y,z
loop_
_atom_site_type_symbol
_atom_site_label
_atom_site_fract_x
_atom_site_fract_y
_atom_site_fract_z
Si Si1 0.639325 0.182718 0.758450
Si Si2 0.619192 0.818527 0.052589
Si Si3 0.169515 0.178897 0.507425
Si Si4 0.377831 0.179742 0.325336
Si Si5 0.361041 0.680362 0.783703
Si Si6 0.880333 0.820209 0.036266
Si Si7 0.621836 0.682529 0.319342
O O1 0.505454 0.245949 0.853030
O O2 0.644882 0.237455 0.708420
O O3 0.765568 0.252784 0.713010
O O4 0.643021 0.000000 0.759286
O O5 0.628201 0.000000 0.051001
O O6 0.750000 0.750000 0.000000
O O7 0.600751 0.772688 0.015789
O O8 0.250000 0.250000 0.500000
O O9 0.241344 0.211502 0.424670
O O10 0.021081 0.249119 0.587899
O O11 0.160088 0.000000 0.522228
O O12 0.491701 0.281431 0.282802
O O13 0.417748 0.000000 0.305110
O O14 0.333193 0.500000 0.804783
O O15 0.258585 0.777203 0.866868
O O16 0.345837 0.732432 0.744951
O O17 0.881033 0.000000 0.025776
O O18 0.000000 0.772212 0.000000
O O19 0.620887 0.500000 0.323407
#
# Coordination Sequence:
#
# PCOD8090192 Si02
#       7
#     8   8   8   8   8   8   8
#     4   9  19  35  54  80 112 144 185 234 281 332
#     4  11  22  38  61  85 116 157 198 244 293 350
#     4  10  19  33  55  83 114 146 184 229 278 335
#     4  10  20  34  56  84 113 146 183 230 283 335
#     4  11  21  35  58  83 110 147 190 235 283 344
#     4  11  24  40  58  83 116 150 192 247 299 351
#     4   9  18  33  54  81 112 146 185 231 279 332
#
# _framework density 19.613607999999999
#
# number of rings (size 3 to 8) (size 9 to 14) (size 15 to 20)
#    0.000    1.857    1.429    3.000    0.000    4.000 
#    0.000    3.571    0.000    3.429    0.000    2.000 
#    0.000    0.000    0.000    0.000    0.000    0.000 
#
# Total GULP energy -347277.048286 kJ/mol
# GULP energy per Si atom -12402.751725 kJ/mol
# Density = 1.956897 g / cm^3
# Si number density = 19.613608 Si / 1000 Ang^3
#
#
#
# Elastic Constant Matrix: (Units=GPa)
#
#
# Indices 1 2 3 4 5 6 
#
# 1 154.9100 26.0263 64.2981 -0.0210 -0.4339 0.0031
# 2 26.0263 31.0013 25.2799 -0.0070 -2.4665 -0.0572
# 3 64.2981 25.2799 145.3623 -0.0054 0.2182 0.0239
# 4 -0.0210 -0.0070 -0.0054 16.3553 -0.0140 -3.1749
# 5 -0.4339 -2.4665 0.2182 -0.0140 38.9678 -0.0050
# 6 0.0031 -0.0572 0.0239 -3.1749 -0.0050 27.5230
#
#
#
# Elastic Compliance Matrix: (Units=1/GPa)
#
#
# Indices 1 2 3 4 5 6 
#
# 1 0.008463 -0.004740 -0.002919 0.000006 -0.000189 -0.000008
# 2 -0.004740 0.040471 -0.004946 0.000030 0.002537 0.000093
# 3 -0.002919 -0.004946 0.009031 -0.000007 -0.000396 -0.000019
# 4 0.000006 0.000030 -0.000007 0.062543 0.000025 0.007215
# 5 -0.000189 0.002537 -0.000396 0.000025 0.025823 0.000013
# 6 -0.000008 0.000093 -0.000019 0.007215 0.000013 0.037166
#
#
# Mechanical properties :
#
#
# Convention : Reuss Voigt Hill
#
# Bulk Modulus (GPa) = 30.52830 62.49801 46.51316
# Shear Modulus (GPa) = 22.76640 30.94720 26.85680
#
# Velocity S-wave (km/s) = 3.41067 3.97652 3.70441
# Velocity P-wave (km/s) = 5.57753 7.28130 6.48561
#
# Compressibility (1/GPa) = 0.03275649
#
# Stress axis : x y z
#
# Youngs Moduli (GPa) = 118.16720 24.70932 110.72873
#
# Poissons Ratio (x) = 0.11711 0.32319
# Poissons Ratio (y) = 0.56006 0.54762
# Poissons Ratio (z) = 0.34490 0.12220
#
# Static dielectric constant tensor:
#      x y z
#    x 3.915950 -0.000120 0.200940 
#    y -0.000120 3.309250 -0.000110 
#    z 0.200940 -0.000110 4.334640 
# 
# 
# High freq. dielectric constant tensor:
#      x y z
#    x 1.774500 -0.000010 -0.000460 
#    y -0.000010 1.735130 0.000000 
#    z -0.000460 0.000000 1.783110 
# 
# From -- ./inp_files/281762.got.cif
#   From: 2010.06.25/outbox.cif.g09.slc.cpg/sg12_141_cif.got.tgz:281762.got - 2010.06.28 00:19:55.
