data_PCOD8090955
_publ_section_title
;
Structure prediction by ZEFSAII (Michael W. Deem and Ramdas Pophale) SiO2 
 PCOD8090955
Probable space group: C 2/M
;
_chemical_formula_sum "Si O2"
_cell_formula_units_Z 48
_cell_length_a 32.945067
_cell_length_b 8.714260
_cell_length_c 9.690532
_cell_angle_alpha 90.000000
_cell_angle_beta 69.121994
_cell_angle_gamma 90.000000
_cell_volume 2599.405873
_symmetry_space_group_name_H-M "C 2/M"
_symmetry_group_IT_number 12
_symmetry_cell_setting 'monoclinic'
loop_
_space_group_symop_operation_xyz
x,y,z
-x,y,-z
-x,-y,-z
x,-y,z
1/2+x,1/2+y,z
1/2-x,1/2+y,-z
1/2-x,1/2-y,-z
1/2+x,1/2-y,z
loop_
_atom_site_type_symbol
_atom_site_label
_atom_site_fract_x
_atom_site_fract_y
_atom_site_fract_z
Si Si1 0.316170 0.181871 0.192094
Si Si2 0.263135 0.820043 0.839103
Si Si3 0.380408 0.819238 0.344291
Si Si4 0.862116 0.681505 0.668386
Si Si5 0.113562 0.180589 0.086281
Si Si6 0.950576 0.319079 0.043012
O O1 0.268474 0.255215 0.241863
O O2 0.339504 0.240825 0.303612
O O3 0.344645 0.233921 0.026667
O O4 0.312341 0.000000 0.191006
O O5 0.311705 0.773357 0.740434
O O6 0.257285 0.000000 0.855712
O O7 0.250000 0.750000 0.000000
O O8 0.379165 0.753403 0.500550
O O9 0.425049 0.772316 0.213759
O O10 0.376078 0.000000 0.359297
O O11 0.869341 0.500000 0.675436
O O12 0.890067 0.769072 0.750013
O O13 0.069542 0.231210 0.062951
O O14 0.119995 0.000000 0.065103
O O15 0.946454 0.500000 0.019958
O O16 0.000000 0.265984 0.000000
#
# Coordination Sequence:
#
# PCOD8090955 Si02
#       6
#     8   8   8   8   8   8
#     4  10  19  34  54  75 103 140 181 224 263 308
#     4  11  21  31  49  75 105 141 185 225 259 303
#     4   8  17  34  55  78 104 135 174 217 263 312
#     4  10  20  35  53  74 105 143 178 217 262 308
#     4  11  21  33  53  79 107 139 176 215 259 313
#     4   9  18  36  62  85 104 132 171 213 260 317
#
# _framework density 18.465758000000001
#
# number of rings (size 3 to 8) (size 9 to 14) (size 15 to 20)
#    0.000    2.167    1.667    3.500    0.000    1.667 
#    0.000    5.000    0.000    5.000    0.000    0.000 
#    0.000    0.000    0.000    0.000    0.000    0.000 
#
# Total GULP energy -297606.778404 kJ/mol
# GULP energy per Si atom -12400.282434 kJ/mol
# Density = 1.842373 g / cm^3
# Si number density = 18.465758 Si / 1000 Ang^3
#
#
#
# Elastic Constant Matrix: (Units=GPa)
#
#
# Indices 1 2 3 4 5 6 
#
# 1 122.1524 36.9417 59.7533 0.0000 4.3676 0.0000
# 2 36.9417 55.8147 29.9319 0.0000 1.0832 0.0000
# 3 59.7533 29.9319 144.5153 0.0000 10.2510 0.0000
# 4 0.0000 0.0000 0.0000 14.7830 0.0000 7.6315
# 5 4.3676 1.0832 10.2510 0.0000 20.9862 0.0000
# 6 0.0000 0.0000 0.0000 7.6315 0.0000 27.3329
#
#
#
# Elastic Compliance Matrix: (Units=1/GPa)
#
#
# Indices 1 2 3 4 5 6 
#
# 1 0.011728 -0.005815 -0.003619 0.000000 -0.000373 0.000000
# 2 -0.005815 0.023060 -0.002458 0.000000 0.001221 0.000000
# 3 -0.003619 -0.002458 0.009181 0.000000 -0.003604 0.000000
# 4 0.000000 0.000000 0.000000 0.079037 0.000000 -0.022068
# 5 -0.000373 0.001221 -0.003604 0.000000 0.049426 0.000000
# 6 0.000000 0.000000 0.000000 -0.022068 0.000000 0.042747
#
#
# Mechanical properties :
#
#
# Convention : Reuss Voigt Hill
#
# Bulk Modulus (GPa) = 49.54113 63.97071 56.75592
# Shear Modulus (GPa) = 20.35072 25.67745 23.01408
#
# Velocity S-wave (km/s) = 3.32336 3.73305 3.53414
# Velocity P-wave (km/s) = 6.45083 7.30061 6.88884
#
# Compressibility (1/GPa) = 0.02018525
#
# Stress axis : x y z
#
# Youngs Moduli (GPa) = 85.26247 43.36555 108.92369
#
# Poissons Ratio (x) = 0.25216 0.39415
# Poissons Ratio (y) = 0.49579 0.26778
# Poissons Ratio (z) = 0.30853 0.10661
#
# Static dielectric constant tensor:
#      x y z
#    x 3.477950 0.000000 0.122310 
#    y 0.000000 3.221440 0.000000 
#    z 0.122310 0.000000 3.596700 
# 
# 
# High freq. dielectric constant tensor:
#      x y z
#    x 1.709990 0.000000 0.014310 
#    y 0.000000 1.701710 0.000000 
#    z 0.014310 0.000000 1.712520 
# 
# From -- ./inp_files/108768.got.cif
#   From: 2010.06.25/outbox.cif.g09.slc.cpg/sg12_55_cif.got.tgz:108768.got - 2010.06.28 00:19:55.
