data_PCOD8090359
_publ_section_title
;
Structure prediction by ZEFSAII (Michael W. Deem and Ramdas Pophale) SiO2 
 PCOD8090359
Probable space group: C 2/M
;
_chemical_formula_sum "Si O2"
_cell_formula_units_Z 64
_cell_length_a 18.686952
_cell_length_b 8.922935
_cell_length_c 23.825213
_cell_angle_alpha 90.000000
_cell_angle_beta 58.639753
_cell_angle_gamma 90.000000
_cell_volume 3392.314809
_symmetry_space_group_name_H-M "C 2/M"
_symmetry_group_IT_number 12
_symmetry_cell_setting 'monoclinic'
loop_
_space_group_symop_operation_xyz
x,y,z
-x,y,-z
-x,-y,-z
x,-y,z
1/2+x,1/2+y,z
1/2-x,1/2+y,-z
1/2-x,1/2-y,-z
1/2+x,1/2-y,z
loop_
_atom_site_type_symbol
_atom_site_label
_atom_site_fract_x
_atom_site_fract_y
_atom_site_fract_z
Si Si1 0.834848 0.826212 0.728450
Si Si2 0.101474 0.326779 0.104744
Si Si3 0.515301 0.332021 0.663593
Si Si4 0.288203 0.828303 0.320189
Si Si5 0.949696 0.830923 0.221755
Si Si6 0.696362 0.320855 0.570839
Si Si7 0.093166 0.673617 0.978033
Si Si8 0.744371 0.177089 0.132167
O O1 0.792007 0.811023 0.686062
O O2 0.787677 0.733545 0.795035
O O3 0.928119 0.755847 0.680564
O O4 0.839993 0.000000 0.745914
O O5 0.083436 0.500000 0.125770
O O6 0.181432 0.269390 0.108054
O O7 0.018981 0.233307 0.152130
O O8 0.117506 0.299917 0.032747
O O9 0.515690 0.500000 0.640349
O O10 0.514193 0.326514 0.730855
O O11 0.600522 0.257816 0.604525
O O12 0.366615 0.769082 0.252273
O O13 0.268897 0.730842 0.383213
O O14 0.304407 0.000000 0.330981
O O15 0.927327 0.000000 0.212619
O O16 0.699931 0.500000 0.566938
O O17 0.750000 0.250000 0.500000
O O18 0.098642 0.500000 0.959271
O O19 0.162309 0.760382 0.913919
O O20 0.000000 0.733571 0.000000
O O21 0.749891 0.000000 0.130922
#
# Coordination Sequence:
#
# PCOD8090359 Si02
#       8
#     8   8   8   8   8   8   8   8
#     4  10  20  37  59  82 112 150 189 230 281 340
#     4  10  21  37  56  80 109 143 188 234 284 341
#     4   8  16  33  56  82 108 142 189 226 260 321
#     4  10  21  35  56  84 116 149 185 231 280 329
#     4  10  19  33  56  82 110 146 185 229 278 334
#     4  10  20  37  61  87 117 152 193 232 274 330
#     4  10  23  41  58  76 105 147 193 236 284 350
#     4  11  23  37  56  83 112 143 184 239 292 337
#
# _framework density 18.866173
#
# number of rings (size 3 to 8) (size 9 to 14) (size 15 to 20)
#    0.000    2.125    1.250    2.625    1.750    2.250 
#    0.000    1.250    0.000    3.750    0.000    0.000 
#    0.000    0.000    0.000    0.000    0.000    0.000 
#
# Total GULP energy -396736.183856 kJ/mol
# GULP energy per Si atom -12398.005746 kJ/mol
# Density = 1.882323 g / cm^3
# Si number density = 18.866173 Si / 1000 Ang^3
#
#
#
# Elastic Constant Matrix: (Units=GPa)
#
#
# Indices 1 2 3 4 5 6 
#
# 1 105.5408 35.1905 52.0819 0.0001 -14.0692 0.0005
# 2 35.1905 70.1384 42.8857 0.0004 -5.7526 0.0009
# 3 52.0819 42.8857 119.1890 0.0000 -20.4821 0.0000
# 4 0.0001 0.0004 0.0000 32.5891 0.0000 -1.2764
# 5 -14.0692 -5.7526 -20.4821 0.0000 22.5464 0.0002
# 6 0.0005 0.0009 0.0000 -1.2764 0.0002 24.7159
#
#
#
# Elastic Compliance Matrix: (Units=1/GPa)
#
#
# Indices 1 2 3 4 5 6 
#
# 1 0.013127 -0.004062 -0.003608 0.000000 0.003877 0.000000
# 2 -0.004062 0.019582 -0.005745 0.000000 -0.002757 -0.000001
# 3 -0.003608 -0.005745 0.013503 0.000000 0.008549 0.000000
# 4 0.000000 0.000000 0.000000 0.030747 0.000000 0.001588
# 5 0.003877 -0.002757 0.008549 0.000000 0.053835 0.000000
# 6 0.000000 -0.000001 0.000000 0.001588 0.000000 0.040542
#
#
# Mechanical properties :
#
#
# Convention : Reuss Voigt Hill
#
# Bulk Modulus (GPa) = 51.59441 61.68716 56.64079
# Shear Modulus (GPa) = 24.43480 26.95096 25.69288
#
# Velocity S-wave (km/s) = 3.60274 3.78370 3.69433
# Velocity P-wave (km/s) = 6.68680 7.20116 6.94874
#
# Compressibility (1/GPa) = 0.01938194
#
# Stress axis : x y z
#
# Youngs Moduli (GPa) = 76.18027 51.06752 74.05823
#
# Poissons Ratio (x) = 0.20743 0.26722
# Poissons Ratio (y) = 0.30943 0.42544
# Poissons Ratio (z) = 0.27488 0.29337
#
# Static dielectric constant tensor:
#      x y z
#    x 3.664340 0.000000 -0.180410 
#    y 0.000000 3.447870 0.000000 
#    z -0.180410 0.000000 3.332580 
# 
# 
# High freq. dielectric constant tensor:
#      x y z
#    x 1.740350 0.000000 -0.011520 
#    y 0.000000 1.724130 0.000000 
#    z -0.011520 0.000000 1.724610 
# 
# From -- ./inp_files/346065.got.cif
#   From: 2010.06.25/outbox.cif.g09.slc.cpg/sg12_174_cif.got.tgz:346065.got - 2010.06.28 00:19:55.
