data_PCOD8090253
_publ_section_title
;
Structure prediction by ZEFSAII (Michael W. Deem and Ramdas Pophale) SiO2 
 PCOD8090253
Probable space group: C 2/M
;
_chemical_formula_sum "Si O2"
_cell_formula_units_Z 64
_cell_length_a 22.609162
_cell_length_b 13.628261
_cell_length_c 9.771513
_cell_angle_alpha 90.000000
_cell_angle_beta 96.855885
_cell_angle_gamma 90.000000
_cell_volume 2989.304557
_symmetry_space_group_name_H-M "C 2/M"
_symmetry_group_IT_number 12
_symmetry_cell_setting 'monoclinic'
loop_
_space_group_symop_operation_xyz
x,y,z
-x,y,-z
-x,-y,-z
x,-y,z
1/2+x,1/2+y,z
1/2-x,1/2+y,-z
1/2-x,1/2-y,-z
1/2+x,1/2-y,z
loop_
_atom_site_type_symbol
_atom_site_label
_atom_site_fract_x
_atom_site_fract_y
_atom_site_fract_z
Si Si1 0.840523 0.390930 0.958785
Si Si2 0.770365 0.616589 0.436008
Si Si3 0.852782 0.114919 0.492198
Si Si4 0.431579 0.613851 0.269095
Si Si5 0.872140 0.388860 0.661468
Si Si6 0.734820 0.387011 0.127982
Si Si7 0.055976 0.795596 0.282982
Si Si8 0.109537 0.195584 0.018383
O O1 0.862624 0.500000 0.008421
O O2 0.834744 0.383538 0.792567
O O3 0.888602 0.310846 0.025669
O O4 0.776227 0.369574 0.007531
O O5 0.768919 0.500000 0.451674
O O6 0.712230 0.662597 0.497102
O O7 0.830432 0.653236 0.527746
O O8 0.769397 0.646613 0.275677
O O9 0.881053 0.153706 0.358275
O O10 0.896698 0.135814 0.629250
O O11 0.844045 0.000000 0.478745
O O12 0.447302 0.500000 0.299558
O O13 0.489694 0.679423 0.313384
O O14 0.406937 0.625124 0.109789
O O15 0.893967 0.500000 0.639419
O O16 0.930059 0.319068 0.684002
O O17 0.715624 0.500000 0.136044
O O18 0.675223 0.324713 0.095176
O O19 0.060548 0.819438 0.122803
#
# Coordination Sequence:
#
# PCOD8090253 Si02
#       8
#     8   8   8   8   8   8   8   8
#     4   9  20  37  56  80 117 158 191 236 291 343
#     4   9  18  34  57  86 117 150 187 232 289 347
#     4  10  21  38  58  84 118 153 191 234 287 350
#     4  11  25  40  60  86 117 155 195 241 288 344
#     4   9  20  38  60  86 117 151 193 242 290 344
#     4  10  19  33  55  85 122 155 188 235 290 348
#     4  11  22  39  59  83 115 157 196 241 288 340
#     4  11  22  37  56  86 116 153 198 241 285 343
#
# _framework density 21.409661
#
# number of rings (size 3 to 8) (size 9 to 14) (size 15 to 20)
#    0.000    2.000    1.250    1.875    1.750    4.500 
#    0.000    0.625    0.000    4.500    0.000    0.000 
#    0.000    0.000    0.000    0.000    0.000    0.000 
#
# Total GULP energy -396792.868198 kJ/mol
# GULP energy per Si atom -12399.777131 kJ/mol
# Density = 2.136093 g / cm^3
# Si number density = 21.409661 Si / 1000 Ang^3
#
#
#
# Elastic Constant Matrix: (Units=GPa)
#
#
# Indices 1 2 3 4 5 6 
#
# 1 68.7239 32.6379 33.3117 0.0000 3.1213 0.0000
# 2 32.6379 58.8475 30.6891 0.0000 -7.2699 0.0000
# 3 33.3117 30.6891 90.2427 0.0000 5.2745 0.0000
# 4 0.0000 0.0000 0.0000 25.9066 0.0000 1.0185
# 5 3.1213 -7.2699 5.2745 0.0000 24.5579 0.0000
# 6 0.0000 0.0000 0.0000 1.0185 0.0000 29.4963
#
#
#
# Elastic Compliance Matrix: (Units=1/GPa)
#
#
# Indices 1 2 3 4 5 6 
#
# 1 0.021803 -0.010532 -0.004175 0.000000 -0.004992 0.000000
# 2 -0.010532 0.027298 -0.006022 0.000000 0.010713 0.000000
# 3 -0.004175 -0.006022 0.014931 0.000000 -0.004459 0.000000
# 4 0.000000 0.000000 0.000000 0.038653 0.000000 -0.001335
# 5 -0.004992 0.010713 -0.004459 0.000000 0.045484 0.000000
# 6 0.000000 0.000000 0.000000 -0.001335 0.000000 0.033949
#
#
# Mechanical properties :
#
#
# Convention : Reuss Voigt Hill
#
# Bulk Modulus (GPa) = 44.29719 45.67684 44.98701
# Shear Modulus (GPa) = 21.63575 24.07052 22.85314
#
# Velocity S-wave (km/s) = 3.18238 3.35667 3.27069
# Velocity P-wave (km/s) = 5.85137 6.03357 5.94317
#
# Compressibility (1/GPa) = 0.02257480
#
# Stress axis : x y z
#
# Youngs Moduli (GPa) = 45.86512 36.63256 66.97573
#
# Poissons Ratio (x) = 0.38581 0.27961
# Poissons Ratio (y) = 0.48305 0.40332
# Poissons Ratio (z) = 0.19148 0.22059
#
# Static dielectric constant tensor:
#      x y z
#    x 3.685150 0.000000 -0.176240 
#    y 0.000000 4.038620 0.000000 
#    z -0.176240 0.000000 3.948060 
# 
# 
# High freq. dielectric constant tensor:
#      x y z
#    x 1.812340 0.000000 -0.011260 
#    y 0.000000 1.850000 0.000000 
#    z -0.011260 0.000000 1.843800 
# 
# From -- ./inp_files/96862.got.cif
#   From: 2010.06.25/outbox.cif.g09.slc.cpg/sg12_49_cif.got.tgz:96862.got - 2010.06.28 00:19:55.
