data_PCOD8090204
_publ_section_title
;
Structure prediction by ZEFSAII (Michael W. Deem and Ramdas Pophale) SiO2 
 PCOD8090204
Probable space group: C 2/M
;
_chemical_formula_sum "Si O2"
_cell_formula_units_Z 64
_cell_length_a 19.948196
_cell_length_b 9.102868
_cell_length_c 24.994382
_cell_angle_alpha 90.000000
_cell_angle_beta 128.659771
_cell_angle_gamma 90.000000
_cell_volume 3544.072330
_symmetry_space_group_name_H-M "C 2/M"
_symmetry_group_IT_number 12
_symmetry_cell_setting 'monoclinic'
loop_
_space_group_symop_operation_xyz
x,y,z
-x,y,-z
-x,-y,-z
x,-y,z
1/2+x,1/2+y,z
1/2-x,1/2+y,-z
1/2-x,1/2-y,-z
1/2+x,1/2-y,z
loop_
_atom_site_type_symbol
_atom_site_label
_atom_site_fract_x
_atom_site_fract_y
_atom_site_fract_z
Si Si1 0.755455 0.172766 0.144764
Si Si2 0.549016 0.326955 0.179969
Si Si3 0.494922 0.171630 0.331681
Si Si4 0.797477 0.670523 0.686216
Si Si5 0.587994 0.826907 0.822615
Si Si6 0.584116 0.670331 0.075453
Si Si7 0.312072 0.171152 0.571579
Si Si8 0.841796 0.830674 0.298678
O O1 0.818191 0.254033 0.134406
O O2 0.660001 0.232693 0.088395
O O3 0.783459 0.213510 0.219014
O O4 0.758070 0.000000 0.134943
O O5 0.537064 0.500000 0.182110
O O6 0.626074 0.271608 0.255317
O O7 0.461210 0.245218 0.152113
O O8 0.568386 0.284834 0.128746
O O9 0.466039 0.211687 0.257392
O O10 0.591164 0.231502 0.387971
O O11 0.431581 0.244314 0.343335
O O12 0.490714 0.000000 0.339212
O O13 0.823762 0.500000 0.708435
O O14 0.780187 0.703814 0.615662
O O15 0.710124 0.710128 0.673780
O O16 0.597759 0.000000 0.836465
O O17 0.609676 0.500000 0.083341
O O18 0.500000 0.707737 0.000000
O O19 0.250000 0.250000 0.500000
O O20 0.309295 0.000000 0.557656
O O21 0.866204 0.000000 0.308667
#
# Coordination Sequence:
#
# PCOD8090204 Si02
#       8
#     8   8   8   8   8   8   8   8
#     4  10  19  33  55  84 112 139 181 229 271 324
#     4  11  21  33  55  85 110 138 185 233 267 316
#     4   9  18  33  53  76 106 141 175 214 267 322
#     4  10  19  36  56  78 109 143 179 222 274 324
#     4  10  19  34  56  80 111 145 177 223 279 327
#     4  10  22  39  56  78 113 152 184 220 274 333
#     4  10  21  37  55  77 107 145 182 219 267 325
#     4   9  18  31  53  81 107 135 173 222 268 315
#
# _framework density 18.058323000000001
#
# number of rings (size 3 to 8) (size 9 to 14) (size 15 to 20)
#    0.000    2.125    2.500    1.125    0.000    3.250 
#    0.000    1.250    0.000    3.750    0.000    0.000 
#    0.000    0.000    0.000    0.000    0.000    0.000 
#
# Total GULP energy -396898.270516 kJ/mol
# GULP energy per Si atom -12403.070954 kJ/mol
# Density = 1.801722 g / cm^3
# Si number density = 18.058323 Si / 1000 Ang^3
#
#
#
# Elastic Constant Matrix: (Units=GPa)
#
#
# Indices 1 2 3 4 5 6 
#
# 1 130.3611 50.2226 27.9594 0.0000 19.5117 0.0000
# 2 50.2226 65.8852 24.7761 0.0000 9.8310 0.0000
# 3 27.9594 24.7761 53.1018 0.0000 12.5973 0.0000
# 4 0.0000 0.0000 0.0000 24.7448 0.0000 5.4086
# 5 19.5117 9.8310 12.5973 0.0000 23.4520 0.0000
# 6 0.0000 0.0000 0.0000 5.4086 0.0000 38.2615
#
#
#
# Elastic Compliance Matrix: (Units=1/GPa)
#
#
# Indices 1 2 3 4 5 6 
#
# 1 0.011755 -0.007613 -0.001231 0.000000 -0.005927 0.000000
# 2 -0.007613 0.023601 -0.007058 0.000000 0.000232 0.000000
# 3 -0.001231 -0.007058 0.025016 0.000000 -0.009454 0.000000
# 4 0.000000 0.000000 0.000000 0.041701 0.000000 -0.005895
# 5 -0.005927 0.000232 -0.009454 0.000000 0.052553 0.000000
# 6 0.000000 0.000000 0.000000 -0.005895 0.000000 0.026969
#
#
# Mechanical properties :
#
#
# Convention : Reuss Voigt Hill
#
# Bulk Modulus (GPa) = 35.00522 50.58492 42.79507
# Shear Modulus (GPa) = 22.42927 27.05100 24.74013
#
# Velocity S-wave (km/s) = 3.52809 3.87457 3.70538
# Velocity P-wave (km/s) = 6.00193 6.93464 6.48507
#
# Compressibility (1/GPa) = 0.02856717
#
# Stress axis : x y z
#
# Youngs Moduli (GPa) = 85.06774 42.37116 39.97450
#
# Poissons Ratio (x) = 0.32259 0.04921
# Poissons Ratio (y) = 0.64765 0.28214
# Poissons Ratio (z) = 0.10472 0.29906
#
# Static dielectric constant tensor:
#      x y z
#    x 3.624980 0.000000 0.018900 
#    y 0.000000 3.302420 0.000000 
#    z 0.018900 0.000000 3.076040 
# 
# 
# High freq. dielectric constant tensor:
#      x y z
#    x 1.716420 0.000000 0.005600 
#    y 0.000000 1.700700 0.000000 
#    z 0.005600 0.000000 1.667940 
# 
# From -- ./inp_files/346253.got.cif
#   From: 2010.06.25/outbox.cif.g09.slc.cpg/sg12_174_cif.got.tgz:346253.got - 2010.06.28 00:19:55.
