data_PCOD8090045
_publ_section_title
;
Structure prediction by ZEFSAII (Michael W. Deem and Ramdas Pophale) SiO2 
 PCOD8090045
Probable space group: C 2/M
;
_chemical_formula_sum "Si O2"
_cell_formula_units_Z 56
_cell_length_a 15.342441
_cell_length_b 9.347522
_cell_length_c 27.680100
_cell_angle_alpha 90.000000
_cell_angle_beta 134.800221
_cell_angle_gamma 90.000000
_cell_volume 2816.778165
_symmetry_space_group_name_H-M "C 2/M"
_symmetry_group_IT_number 12
_symmetry_cell_setting 'monoclinic'
loop_
_space_group_symop_operation_xyz
x,y,z
-x,y,-z
-x,-y,-z
x,-y,z
1/2+x,1/2+y,z
1/2-x,1/2+y,-z
1/2-x,1/2-y,-z
1/2+x,1/2-y,z
loop_
_atom_site_type_symbol
_atom_site_label
_atom_site_fract_x
_atom_site_fract_y
_atom_site_fract_z
Si Si1 0.064589 0.164243 0.169720
Si Si2 0.353491 0.160024 0.567002
Si Si3 0.107912 0.168433 0.077174
Si Si4 0.775090 0.163880 0.300396
Si Si5 0.646460 0.664004 0.842638
Si Si6 0.565375 0.840565 0.572678
Si Si7 0.012139 0.163173 0.694389
O O1 0.070733 0.214851 0.116718
O O2 0.150360 0.261860 0.235794
O O3 0.925444 0.181851 0.134771
O O4 0.108433 0.000000 0.191911
O O5 0.250000 0.250000 0.500000
O O6 0.469846 0.150234 0.578343
O O7 0.397113 0.239112 0.633062
O O8 0.305080 0.000000 0.560284
O O9 0.232764 0.241013 0.108637
O O10 0.127730 0.000000 0.080846
O O11 0.000000 0.221607 0.000000
O O12 0.822612 0.239061 0.368032
O O13 0.872765 0.180948 0.295974
O O14 0.747787 0.000000 0.301976
O O15 0.685811 0.500000 0.848989
O O16 0.555954 0.714070 0.764222
O O17 0.500000 0.773622 0.500000
O O18 0.615814 0.000000 0.580308
O O19 0.965262 0.000000 0.676656
#
# Coordination Sequence:
#
# PCOD8090045 Si02
#       7
#     8   8   8   8   8   8   8
#     4  10  21  37  59  85 116 153 193 234 284 347
#     4  10  20  33  51  74 103 141 183 227 279 336
#     4  10  22  40  61  87 121 156 189 236 293 343
#     4  10  19  33  55  80 108 143 187 239 289 336
#     4  10  21  38  60  87 115 151 196 236 281 343
#     4   9  19  35  53  73 102 144 189 229 279 341
#     4   9  18  34  54  75 104 141 184 234 282 333
#
# _framework density 19.880870999999999
#
# number of rings (size 3 to 8) (size 9 to 14) (size 15 to 20)
#    0.000    2.286    1.429    0.857    0.000    4.571 
#    0.000    5.714    0.000    0.000    0.000    0.000 
#    0.000    0.000    0.000    0.000    0.000    0.000 
#
# Total GULP energy -347240.617362 kJ/mol
# GULP energy per Si atom -12401.450620 kJ/mol
# Density = 1.983562 g / cm^3
# Si number density = 19.880871 Si / 1000 Ang^3
#
#
#
# Elastic Constant Matrix: (Units=GPa)
#
#
# Indices 1 2 3 4 5 6 
#
# 1 61.2677 36.2749 47.2591 0.0000 1.3808 0.0000
# 2 36.2749 101.9552 69.0017 0.0000 11.5347 0.0000
# 3 47.2591 69.0017 150.1958 0.0000 5.2361 0.0000
# 4 0.0000 0.0000 0.0000 27.1526 0.0000 9.3402
# 5 1.3808 11.5347 5.2361 0.0000 23.7328 0.0000
# 6 0.0000 0.0000 0.0000 9.3402 0.0000 23.9369
#
#
#
# Elastic Compliance Matrix: (Units=1/GPa)
#
#
# Indices 1 2 3 4 5 6 
#
# 1 0.023164 -0.005092 -0.005027 0.000000 0.002236 0.000000
# 2 -0.005092 0.016108 -0.005578 0.000000 -0.006302 0.000000
# 3 -0.005027 -0.005578 0.010781 0.000000 0.000625 0.000000
# 4 0.000000 0.000000 0.000000 0.042539 0.000000 -0.016599
# 5 0.002236 -0.006302 0.000625 0.000000 0.044931 0.000000
# 6 0.000000 0.000000 0.000000 -0.016599 0.000000 0.048253
#
#
# Mechanical properties :
#
#
# Convention : Reuss Voigt Hill
#
# Bulk Modulus (GPa) = 53.59747 68.72111 61.15929
# Shear Modulus (GPa) = 22.38231 25.69000 24.03616
#
# Velocity S-wave (km/s) = 3.35897 3.59861 3.48085
# Velocity P-wave (km/s) = 6.48547 7.20473 6.85454
#
# Compressibility (1/GPa) = 0.01865760
#
# Stress axis : x y z
#
# Youngs Moduli (GPa) = 43.17020 62.07948 92.75830
#
# Poissons Ratio (x) = 0.31613 0.46630
# Poissons Ratio (y) = 0.21984 0.51744
# Poissons Ratio (z) = 0.21702 0.34630
#
# Static dielectric constant tensor:
#      x y z
#    x 3.503440 0.000000 -0.120630 
#    y 0.000000 3.758420 0.000000 
#    z -0.120630 0.000000 3.666370 
# 
# 
# High freq. dielectric constant tensor:
#      x y z
#    x 1.766470 0.000000 -0.006290 
#    y 0.000000 1.772820 0.000000 
#    z -0.006290 0.000000 1.774420 
# 
# From -- ./inp_files/377740.got.cif
#   From: 2010.06.25/outbox.cif.g09.slc.cpg/sg12_189_cif.got.tgz:377740.got - 2010.06.28 00:19:55.
