data_PCOD8090281
_publ_section_title
;
Structure prediction by ZEFSAII (Michael W. Deem and Ramdas Pophale) SiO2 
 PCOD8090281
Probable space group: C 2/M
;
_chemical_formula_sum "Si O2"
_cell_formula_units_Z 56
_cell_length_a 18.742394
_cell_length_b 8.884706
_cell_length_c 22.787247
_cell_angle_alpha 90.000000
_cell_angle_beta 51.971705
_cell_angle_gamma 90.000000
_cell_volume 2988.990118
_symmetry_space_group_name_H-M "C 2/M"
_symmetry_group_IT_number 12
_symmetry_cell_setting 'monoclinic'
loop_
_space_group_symop_operation_xyz
x,y,z
-x,y,-z
-x,-y,-z
x,-y,z
1/2+x,1/2+y,z
1/2-x,1/2+y,-z
1/2-x,1/2-y,-z
1/2+x,1/2-y,z
loop_
_atom_site_type_symbol
_atom_site_label
_atom_site_fract_x
_atom_site_fract_y
_atom_site_fract_z
Si Si1 0.403022 0.178612 0.568814
Si Si2 0.755944 0.822419 0.433680
Si Si3 0.268689 0.322575 0.862338
Si Si4 0.106335 0.321781 0.293336
Si Si5 0.912462 0.823866 0.006006
Si Si6 0.575199 0.323311 0.130751
Si Si7 0.045228 0.177556 0.703741
O O1 0.500000 0.245366 0.500000
O O2 0.324758 0.242372 0.565820
O O3 0.382177 0.229649 0.645395
O O4 0.404735 0.000000 0.563420
O O5 0.750000 0.750000 0.500000
O O6 0.850063 0.777996 0.354635
O O7 0.748145 0.000000 0.445289
O O8 0.268675 0.500000 0.852949
O O9 0.308804 0.246985 0.783906
O O10 0.168418 0.263856 0.922437
O O11 0.330196 0.276260 0.886995
O O12 0.106913 0.500000 0.286079
O O13 0.010501 0.260123 0.318946
O O14 0.888254 0.000000 0.016093
O O15 0.929200 0.754742 0.932407
O O16 0.000000 0.791380 0.000000
O O17 0.567545 0.500000 0.127910
O O18 0.491809 0.267157 0.213819
O O19 0.028557 0.000000 0.704777
#
# Coordination Sequence:
#
# PCOD8090281 Si02
#       7
#     8   8   8   8   8   8   8
#     4   9  18  32  51  76 104 134 169 211 256 299
#     4  10  20  34  53  76 104 138 173 209 252 302
#     4  10  20  35  54  74 103 139 170 205 252 307
#     4  10  19  33  56  80 101 129 169 214 254 299
#     4  10  20  33  52  78 104 131 170 217 256 297
#     4   8  16  32  52  73  98 131 169 209 255 305
#     4   9  18  33  52  74 102 134 166 206 259 310
#
# _framework density 18.735426
#
# number of rings (size 3 to 8) (size 9 to 14) (size 15 to 20)
#    0.000    2.571    0.000    3.000    0.000    3.143 
#    0.000    8.571    0.000    7.286    0.000    0.000 
#    0.000    0.000    0.000    0.000    0.000    0.000 
#
# Total GULP energy -347185.300220 kJ/mol
# GULP energy per Si atom -12399.475008 kJ/mol
# Density = 1.869278 g / cm^3
# Si number density = 18.735426 Si / 1000 Ang^3
#
#
#
# Elastic Constant Matrix: (Units=GPa)
#
#
# Indices 1 2 3 4 5 6 
#
# 1 140.3485 38.0687 98.3518 0.0000 1.6499 -0.0001
# 2 38.0687 42.0416 44.7067 0.0001 -1.3291 -0.0001
# 3 98.3518 44.7067 152.5134 0.0000 2.3114 -0.0001
# 4 0.0000 0.0001 0.0000 25.4105 0.0000 -0.8342
# 5 1.6499 -1.3291 2.3114 0.0000 38.5380 0.0000
# 6 -0.0001 -0.0001 -0.0001 -0.8342 0.0000 21.0536
#
#
#
# Elastic Compliance Matrix: (Units=1/GPa)
#
#
# Indices 1 2 3 4 5 6 
#
# 1 0.013521 -0.004336 -0.007444 0.000000 -0.000282 0.000000
# 2 -0.004336 0.036074 -0.007807 0.000000 0.001898 0.000000
# 3 -0.007444 -0.007807 0.013657 0.000000 -0.000770 0.000000
# 4 0.000000 0.000000 0.000000 0.039405 0.000000 0.001561
# 5 -0.000282 0.001898 -0.000770 0.000000 0.026072 0.000000
# 6 0.000000 0.000000 0.000000 0.001561 0.000000 0.047560
#
#
# Mechanical properties :
#
#
# Convention : Reuss Voigt Hill
#
# Bulk Modulus (GPa) = 41.53128 77.46201 59.49665
# Shear Modulus (GPa) = 22.37229 27.25218 24.81223
#
# Velocity S-wave (km/s) = 3.45935 3.81803 3.64311
# Velocity P-wave (km/s) = 6.17831 7.80202 7.03715
#
# Compressibility (1/GPa) = 0.02407824
#
# Stress axis : x y z
#
# Youngs Moduli (GPa) = 73.95780 27.72047 73.22038
#
# Poissons Ratio (x) = 0.12021 0.54506
# Poissons Ratio (y) = 0.32071 0.57163
# Poissons Ratio (z) = 0.55055 0.21641
#
# Static dielectric constant tensor:
#      x y z
#    x 3.546330 0.000000 0.029700 
#    y 0.000000 3.155240 0.000000 
#    z 0.029700 0.000000 3.799710 
# 
# 
# High freq. dielectric constant tensor:
#      x y z
#    x 1.727730 0.000000 -0.001260 
#    y 0.000000 1.698000 0.000000 
#    z -0.001260 0.000000 1.744350 
# 
# From -- ./inp_files/319676.got.cif
#   From: 2010.06.25/outbox.cif.g09.slc.cpg/sg12_160_cif.got.tgz:319676.got - 2010.06.28 00:19:55.
