data_PCOD8090023
_publ_section_title
;
Structure prediction by ZEFSAII (Michael W. Deem and Ramdas Pophale) SiO2 
 PCOD8090023
Probable space group: C 2/M
;
_chemical_formula_sum "Si O2"
_cell_formula_units_Z 64
_cell_length_a 25.396941
_cell_length_b 9.130718
_cell_length_c 14.818659
_cell_angle_alpha 90.000000
_cell_angle_beta 81.362121
_cell_angle_gamma 90.000000
_cell_volume 3397.355736
_symmetry_space_group_name_H-M "C 2/M"
_symmetry_group_IT_number 12
_symmetry_cell_setting 'monoclinic'
loop_
_space_group_symop_operation_xyz
x,y,z
-x,y,-z
-x,-y,-z
x,-y,z
1/2+x,1/2+y,z
1/2-x,1/2+y,-z
1/2-x,1/2-y,-z
1/2+x,1/2-y,z
loop_
_atom_site_type_symbol
_atom_site_label
_atom_site_fract_x
_atom_site_fract_y
_atom_site_fract_z
Si Si1 0.961610 0.828466 0.778006
Si Si2 0.228643 0.332970 0.591176
Si Si3 0.929893 0.828665 0.159654
Si Si4 0.848384 0.673982 0.066978
Si Si5 0.749408 0.173023 0.783862
Si Si6 0.496244 0.167055 0.401281
Si Si7 0.611077 0.837308 0.667996
Si Si8 0.153057 0.827177 0.118114
O O1 0.967615 0.752598 0.679598
O O2 0.905529 0.780482 0.834045
O O3 0.008818 0.782206 0.835484
O O4 0.964453 0.000000 0.759116
O O5 0.247605 0.500000 0.578994
O O6 0.250000 0.250000 0.500000
O O7 0.248764 0.264441 0.681621
O O8 0.165406 0.316815 0.600987
O O9 0.905928 0.740681 0.080791
O O10 0.894252 0.786417 0.254887
O O11 0.925352 0.000000 0.140116
O O12 0.852712 0.500000 0.059634
O O13 0.802451 0.727805 0.147819
O O14 0.832364 0.737984 0.974598
O O15 0.804053 0.221324 0.817728
O O16 0.744967 0.000000 0.779088
O O17 0.500000 0.237023 0.500000
O O18 0.434525 0.179465 0.393584
O O19 0.516601 0.000000 0.396514
O O20 0.609101 0.000000 0.714530
O O21 0.156399 0.000000 0.097344
#
# Coordination Sequence:
#
# PCOD8090023 Si02
#       8
#     8   8   8   8   8   8   8   8
#     4   9  20  36  53  77 110 143 178 222 273 321
#     4  10  20  35  53  78 108 140 177 220 271 320
#     4  10  19  33  55  80 105 137 179 223 263 316
#     4  11  21  36  58  83 108 141 183 224 271 325
#     4   9  19  37  58  77 107 145 181 222 270 323
#     4   9  18  32  53  79 105 140 183 222 267 323
#     4   9  17  33  53  72 104 142 174 220 272 315
#     4  10  21  38  57  79 109 146 181 221 273 324
#
# _framework density 18.838180999999999
#
# number of rings (size 3 to 8) (size 9 to 14) (size 15 to 20)
#    0.000    2.375    1.250    1.125    0.000    3.250 
#    0.000    3.750    0.000    0.000    0.000    0.000 
#    0.000    0.000    0.000    0.000    0.000    0.000 
#
# Total GULP energy -396747.062310 kJ/mol
# GULP energy per Si atom -12398.345697 kJ/mol
# Density = 1.879530 g / cm^3
# Si number density = 18.838181 Si / 1000 Ang^3
#
#
#
# Elastic Constant Matrix: (Units=GPa)
#
#
# Indices 1 2 3 4 5 6 
#
# 1 115.3672 36.3665 65.9771 0.0000 3.5442 0.0000
# 2 36.3665 51.0072 43.8913 0.0000 0.6473 0.0000
# 3 65.9771 43.8913 148.3608 0.0000 6.2463 0.0000
# 4 0.0000 0.0000 0.0000 35.2012 0.0000 -1.1553
# 5 3.5442 0.6473 6.2463 0.0000 26.0944 0.0000
# 6 0.0000 0.0000 0.0000 -1.1553 0.0000 20.9382
#
#
#
# Elastic Compliance Matrix: (Units=1/GPa)
#
#
# Indices 1 2 3 4 5 6 
#
# 1 0.012739 -0.005665 -0.003962 0.000000 -0.000641 0.000000
# 2 -0.005665 0.028858 -0.006082 0.000000 0.001509 0.000000
# 3 -0.003962 -0.006082 0.010377 0.000000 -0.001795 0.000000
# 4 0.000000 0.000000 0.000000 0.028460 0.000000 0.001570
# 5 -0.000641 0.001509 -0.001795 0.000000 0.038802 0.000000
# 6 0.000000 0.000000 0.000000 0.001570 0.000000 0.047846
#
#
# Mechanical properties :
#
#
# Convention : Reuss Voigt Hill
#
# Bulk Modulus (GPa) = 48.64625 67.46722 58.05673
# Shear Modulus (GPa) = 24.34832 27.68013 26.01422
#
# Velocity S-wave (km/s) = 3.59903 3.83739 3.72012
# Velocity P-wave (km/s) = 6.56887 7.45157 7.02410
#
# Compressibility (1/GPa) = 0.02055657
#
# Stress axis : x y z
#
# Youngs Moduli (GPa) = 78.49613 34.65216 96.36513
#
# Poissons Ratio (x) = 0.19631 0.38183
# Poissons Ratio (y) = 0.44469 0.58606
# Poissons Ratio (z) = 0.31103 0.21074
#
# Static dielectric constant tensor:
#      x y z
#    x 3.669120 0.000000 0.201360 
#    y 0.000000 3.312330 0.000000 
#    z 0.201360 0.000000 3.470280 
# 
# 
# High freq. dielectric constant tensor:
#      x y z
#    x 1.738720 0.000000 0.011730 
#    y 0.000000 1.712990 0.000000 
#    z 0.011730 0.000000 1.730430 
# 
# From -- ./inp_files/238814.got.cif
#   From: 2010.06.25/outbox.cif.g09.slc.cpg/sg12_120_cif.got.tgz:238814.got - 2010.06.28 00:19:55.
