data_PCOD8090246
_publ_section_title
;
Structure prediction by ZEFSAII (Michael W. Deem and Ramdas Pophale) SiO2 
 PCOD8090246
Probable space group: C 2/M
;
_chemical_formula_sum "Si O2"
_cell_formula_units_Z 64
_cell_length_a 15.310637
_cell_length_b 8.751223
_cell_length_c 32.804385
_cell_angle_alpha 90.000000
_cell_angle_beta 134.059621
_cell_angle_gamma 90.000000
_cell_volume 3158.574558
_symmetry_space_group_name_H-M "C 2/M"
_symmetry_group_IT_number 12
_symmetry_cell_setting 'monoclinic'
loop_
_space_group_symop_operation_xyz
x,y,z
-x,y,-z
-x,-y,-z
x,-y,z
1/2+x,1/2+y,z
1/2-x,1/2+y,-z
1/2-x,1/2-y,-z
1/2+x,1/2-y,z
loop_
_atom_site_type_symbol
_atom_site_label
_atom_site_fract_x
_atom_site_fract_y
_atom_site_fract_z
Si Si1 0.484686 0.678185 0.889395
Si Si2 0.654440 0.177175 0.499524
Si Si3 0.720327 0.676861 0.374009
Si Si4 0.343950 0.677674 0.125574
Si Si5 0.286618 0.180150 0.190223
Si Si6 0.395945 0.180339 0.996607
Si Si7 0.076900 0.180774 0.610368
Si Si8 0.473722 0.819887 0.319224
O O1 0.482329 0.500000 0.898107
O O2 0.532065 0.709458 0.858947
O O3 0.349696 0.749382 0.850259
O O4 0.580468 0.751738 0.951341
O O5 0.750000 0.250000 0.500000
O O6 0.699284 0.199324 0.559790
O O7 0.526406 0.262441 0.454222
O O8 0.637416 0.000000 0.482720
O O9 0.687716 0.500000 0.356075
O O10 0.795862 0.740357 0.360115
O O11 0.598109 0.774396 0.337440
O O12 0.323983 0.500000 0.128008
O O13 0.353670 0.761388 0.171701
O O14 0.231370 0.741238 0.062404
O O15 0.363062 0.230728 0.254327
O O16 0.279951 0.000000 0.185709
O O17 0.395951 0.000000 0.000936
O O18 0.500000 0.238924 0.000000
O O19 0.038790 0.226817 0.643348
O O20 0.089744 0.000000 0.611454
O O21 0.473339 0.000000 0.328234
#
# Coordination Sequence:
#
# PCOD8090246 Si02
#       8
#     8   8   8   8   8   8   8   8
#     4  10  21  37  58  85 116 151 194 238 293 355
#     4  11  22  38  64  95 129 164 205 252 305 366
#     4  11  24  42  65  94 125 161 205 252 306 367
#     4  10  21  37  58  85 117 155 194 240 294 356
#     4  10  23  41  60  85 115 151 197 248 297 351
#     4  10  19  33  55  85 119 151 191 238 294 352
#     4  12  25  41  64  95 128 165 206 249 307 370
#     4  11  24  43  64  87 121 161 207 261 310 361
#
# _framework density 20.262305999999999
#
# number of rings (size 3 to 8) (size 9 to 14) (size 15 to 20)
#    0.000    1.375    2.500    3.000    0.000    6.250 
#    0.000    1.250    0.000    0.000    0.000    0.000 
#    0.000    0.000    0.000    0.000    0.000    0.000 
#
# Total GULP energy -396956.769317 kJ/mol
# GULP energy per Si atom -12404.899041 kJ/mol
# Density = 2.021619 g / cm^3
# Si number density = 20.262306 Si / 1000 Ang^3
#
#
#
# Elastic Constant Matrix: (Units=GPa)
#
#
# Indices 1 2 3 4 5 6 
#
# 1 98.4705 16.9223 14.9505 0.0000 3.5698 0.0000
# 2 16.9223 55.3105 32.3434 0.0000 -1.6478 0.0000
# 3 14.9505 32.3434 80.4306 0.0000 5.9588 0.0000
# 4 0.0000 0.0000 0.0000 28.8823 0.0000 -3.9680
# 5 3.5698 -1.6478 5.9588 0.0000 15.6577 0.0000
# 6 0.0000 0.0000 0.0000 -3.9680 0.0000 32.8351
#
#
#
# Elastic Compliance Matrix: (Units=1/GPa)
#
#
# Indices 1 2 3 4 5 6 
#
# 1 0.010864 -0.003047 -0.000604 0.000000 -0.002568 0.000000
# 2 -0.003047 0.025109 -0.010062 0.000000 0.007166 0.000000
# 3 -0.000604 -0.010062 0.017143 0.000000 -0.007445 0.000000
# 4 0.000000 0.000000 0.000000 0.035208 0.000000 0.004255
# 5 -0.002568 0.007166 -0.007445 0.000000 0.068039 0.000000
# 6 0.000000 0.000000 0.000000 0.004255 0.000000 0.030969
#
#
# Mechanical properties :
#
#
# Convention : Reuss Voigt Hill
#
# Bulk Modulus (GPa) = 38.92455 40.29375 39.60915
# Shear Modulus (GPa) = 22.38927 26.80804 24.59865
#
# Velocity S-wave (km/s) = 3.32772 3.64132 3.48805
# Velocity P-wave (km/s) = 5.83241 6.13255 5.98436
#
# Compressibility (1/GPa) = 0.02569073
#
# Stress axis : x y z
#
# Youngs Moduli (GPa) = 92.04925 39.82610 58.33299
#
# Poissons Ratio (x) = 0.12136 0.03522
# Poissons Ratio (y) = 0.28049 0.58692
# Poissons Ratio (z) = 0.05557 0.40071
#
# Static dielectric constant tensor:
#      x y z
#    x 3.801400 0.000000 0.131030 
#    y 0.000000 3.599640 0.000000 
#    z 0.131030 0.000000 3.757510 
# 
# 
# High freq. dielectric constant tensor:
#      x y z
#    x 1.806340 0.000000 0.001720 
#    y 0.000000 1.787080 0.000000 
#    z 0.001720 0.000000 1.787570 
# 
# From -- ./inp_files/375386.got.cif
#   From: 2010.06.25/outbox.cif.g09.slc.cpg/sg12_188_cif.got.tgz:375386.got - 2010.06.28 00:19:55.
