data_PCOD8090279
_publ_section_title
;
Structure prediction by ZEFSAII (Michael W. Deem and Ramdas Pophale) SiO2 
 PCOD8090279
Probable space group: C 2/M
;
_chemical_formula_sum "Si O2"
_cell_formula_units_Z 56
_cell_length_a 13.927398
_cell_length_b 13.500996
_cell_length_c 30.140086
_cell_angle_alpha 90.000000
_cell_angle_beta 145.388429
_cell_angle_gamma 90.000000
_cell_volume 3219.113128
_symmetry_space_group_name_H-M "C 2/M"
_symmetry_group_IT_number 12
_symmetry_cell_setting 'monoclinic'
loop_
_space_group_symop_operation_xyz
x,y,z
-x,y,-z
-x,-y,-z
x,-y,z
1/2+x,1/2+y,z
1/2-x,1/2+y,-z
1/2-x,1/2-y,-z
1/2+x,1/2-y,z
loop_
_atom_site_type_symbol
_atom_site_label
_atom_site_fract_x
_atom_site_fract_y
_atom_site_fract_z
Si Si1 0.019567 0.616658 0.075519
Si Si2 0.641098 0.113751 0.519419
Si Si3 0.017845 0.212237 0.325204
Si Si4 0.813687 0.614515 0.772625
Si Si5 0.571541 0.112698 0.647158
Si Si6 0.770968 0.117114 0.096160
Si Si7 0.405835 0.713471 0.748045
O O1 0.040321 0.500000 0.081257
O O2 0.058929 0.652828 0.140247
O O3 0.159473 0.658471 0.094714
O O4 0.829987 0.645390 0.987618
O O5 0.500000 0.153149 0.500000
O O6 0.805693 0.180670 0.586450
O O7 0.577257 0.125576 0.445050
O O8 0.685502 0.000000 0.547707
O O9 0.028319 0.220744 0.276614
O O10 0.878630 0.130209 0.284699
O O11 0.963834 0.318725 0.323931
O O12 0.841261 0.500000 0.771378
O O13 0.852820 0.677024 0.743576
O O14 0.747217 0.139837 0.690099
O O15 0.580799 0.000000 0.667677
O O16 0.949745 0.171950 0.164461
O O17 0.802491 0.000000 0.111373
#
# Coordination Sequence:
#
# PCOD8090279 Si02
#       7
#     8   8   8   8   8   8   8
#     4   8  15  29  49  73 100 131 165 207 253 293
#     4  10  19  33  56  80 100 128 168 211 251 292
#     4  11  21  35  55  76 103 135 167 206 252 300
#     4  10  21  35  51  75 104 134 171 208 248 298
#     4  10  22  37  53  76 104 134 168 206 251 300
#     4   9  16  28  50  77 102 128 164 210 254 294
#     4  11  21  32  53  80 101 132 171 208 250 298
#
# _framework density 17.396096
#
# number of rings (size 3 to 8) (size 9 to 14) (size 15 to 20)
#    0.000    2.143    2.857    2.143    0.000    2.286 
#    0.000    0.000    0.000    0.429    0.000    2.000 
#    0.000    0.000    0.000    0.000    0.000    0.000 
#
# Total GULP energy -347184.816060 kJ/mol
# GULP energy per Si atom -12399.457716 kJ/mol
# Density = 1.735650 g / cm^3
# Si number density = 17.396096 Si / 1000 Ang^3
#
#
#
# Elastic Constant Matrix: (Units=GPa)
#
#
# Indices 1 2 3 4 5 6 
#
# 1 59.5617 25.9698 21.0217 0.0000 11.0633 0.0000
# 2 25.9698 74.0185 32.4228 0.0000 5.7561 0.0000
# 3 21.0217 32.4228 93.9382 0.0000 10.8656 0.0000
# 4 0.0000 0.0000 0.0000 24.3693 0.0000 -1.6228
# 5 11.0633 5.7561 10.8656 0.0000 15.5848 0.0000
# 6 0.0000 0.0000 0.0000 -1.6228 0.0000 12.7022
#
#
#
# Elastic Compliance Matrix: (Units=1/GPa)
#
#
# Indices 1 2 3 4 5 6 
#
# 1 0.022343 -0.006253 -0.001386 0.000000 -0.012585 0.000000
# 2 -0.006253 0.017738 -0.004871 0.000000 0.001284 0.000000
# 3 -0.001386 -0.004871 0.013395 0.000000 -0.006556 0.000000
# 4 0.000000 0.000000 0.000000 0.041387 0.000000 0.005287
# 5 -0.012585 0.001284 -0.006556 0.000000 0.077195 0.000000
# 6 0.000000 0.000000 0.000000 0.005287 0.000000 0.079402
#
#
# Mechanical properties :
#
#
# Convention : Reuss Voigt Hill
#
# Bulk Modulus (GPa) = 35.14382 42.92748 39.03565
# Shear Modulus (GPa) = 17.48458 20.40487 18.94472
#
# Velocity S-wave (km/s) = 3.17375 3.42856 3.30361
# Velocity P-wave (km/s) = 5.80312 6.35637 6.08604
#
# Compressibility (1/GPa) = 0.02845451
#
# Stress axis : x y z
#
# Youngs Moduli (GPa) = 44.75770 56.37562 74.65401
#
# Poissons Ratio (x) = 0.35253 0.10346
# Poissons Ratio (y) = 0.27988 0.36368
# Poissons Ratio (z) = 0.06203 0.27463
#
# Static dielectric constant tensor:
#      x y z
#    x 3.070880 0.000000 -0.030780 
#    y 0.000000 2.985300 0.000000 
#    z -0.030780 0.000000 3.518800 
# 
# 
# High freq. dielectric constant tensor:
#      x y z
#    x 1.656530 0.000000 0.002510 
#    y 0.000000 1.651100 0.000000 
#    z 0.002510 0.000000 1.689970 
# 
# From -- ./inp_files/214248.got.cif
#   From: 2010.06.25/outbox.cif.g09.slc.cpg/sg12_108_cif.got.tgz:214248.got - 2010.06.28 00:19:55.
