data_PCOD8090300
_publ_section_title
;
Structure prediction by ZEFSAII (Michael W. Deem and Ramdas Pophale) SiO2 
 PCOD8090300
Probable space group: C 2/M
;
_chemical_formula_sum "Si O2"
_cell_formula_units_Z 56
_cell_length_a 29.768718
_cell_length_b 9.130831
_cell_length_c 20.177666
_cell_angle_alpha 90.000000
_cell_angle_beta 148.006970
_cell_angle_gamma 90.000000
_cell_volume 2905.805313
_symmetry_space_group_name_H-M "C 2/M"
_symmetry_group_IT_number 12
_symmetry_cell_setting 'monoclinic'
loop_
_space_group_symop_operation_xyz
x,y,z
-x,y,-z
-x,-y,-z
x,-y,z
1/2+x,1/2+y,z
1/2-x,1/2+y,-z
1/2-x,1/2-y,-z
1/2+x,1/2-y,z
loop_
_atom_site_type_symbol
_atom_site_label
_atom_site_fract_x
_atom_site_fract_y
_atom_site_fract_z
Si Si1 0.312963 0.172620 0.727301
Si Si2 0.844886 0.330927 0.429582
Si Si3 0.550169 0.172805 0.206794
Si Si4 0.166706 0.324974 0.865735
Si Si5 0.906579 0.671591 0.366284
Si Si6 0.428942 0.337402 0.966218
Si Si7 0.505917 0.170731 0.292865
O O1 0.217423 0.230629 0.604555
O O2 0.364720 0.221160 0.726090
O O3 0.349964 0.247853 0.839318
O O4 0.315281 0.000000 0.739469
O O5 0.821360 0.500000 0.413710
O O6 0.844501 0.295366 0.350840
O O7 0.938831 0.293376 0.573371
O O8 0.553941 0.229796 0.287172
O O9 0.538284 0.000000 0.183998
O O10 0.465939 0.249268 0.074032
O O11 0.179381 0.500000 0.882265
O O12 0.141383 0.268742 0.759639
O O13 0.089194 0.269903 0.815467
O O14 0.250000 0.250000 0.000000
O O15 0.920876 0.500000 0.373345
O O16 0.000000 0.740353 0.500000
O O17 0.399126 0.500000 0.950759
O O18 0.500000 0.349443 0.000000
O O19 0.496896 0.000000 0.271519
#
# Coordination Sequence:
#
# PCOD8090300 Si02
#       7
#     8   8   8   8   8   8   8
#     4  10  20  33  49  74 109 143 176 216 266 321
#     4  10  19  33  56  81 103 135 185 229 261 312
#     4   9  18  33  52  74 105 145 178 211 264 324
#     4  10  20  36  58  84 112 139 175 224 277 329
#     4   9  16  32  59  83 102 135 182 226 268 318
#     4   9  17  31  51  73  97 131 178 225 264 306
#     4   9  18  34  56  78 102 140 183 219 262 323
#
# _framework density 19.271767000000001
#
# number of rings (size 3 to 8) (size 9 to 14) (size 15 to 20)
#    0.000    2.571    1.429    0.857    0.000    4.000 
#    0.000    5.714    0.000    0.857    0.000    0.000 
#    0.000    0.000    0.000    0.000    0.000    0.000 
#
# Total GULP energy -346971.518812 kJ/mol
# GULP energy per Si atom -12391.839958 kJ/mol
# Density = 1.922790 g / cm^3
# Si number density = 19.271767 Si / 1000 Ang^3
#
#
#
# Elastic Constant Matrix: (Units=GPa)
#
#
# Indices 1 2 3 4 5 6 
#
# 1 123.6686 31.2943 65.9810 0.0000 -3.5710 0.0000
# 2 31.2943 46.0815 24.2049 0.0000 2.8737 0.0000
# 3 65.9810 24.2049 110.1057 0.0000 0.1534 0.0000
# 4 0.0000 0.0000 0.0000 28.1645 0.0000 5.7749
# 5 -3.5710 2.8737 0.1534 0.0000 34.0059 0.0000
# 6 0.0000 0.0000 0.0000 5.7749 0.0000 17.6464
#
#
#
# Elastic Compliance Matrix: (Units=1/GPa)
#
#
# Indices 1 2 3 4 5 6 
#
# 1 0.013068 -0.005513 -0.006622 0.000000 0.001868 0.000000
# 2 -0.005513 0.027003 -0.002629 0.000000 -0.002849 0.000000
# 3 -0.006622 -0.002629 0.013629 0.000000 -0.000535 0.000000
# 4 0.000000 0.000000 0.000000 0.038060 0.000000 -0.012455
# 5 0.001868 -0.002849 -0.000535 0.000000 0.029846 0.000000
# 6 0.000000 0.000000 0.000000 -0.012455 0.000000 0.060745
#
#
# Mechanical properties :
#
#
# Convention : Reuss Voigt Hill
#
# Bulk Modulus (GPa) = 41.36778 58.09070 49.72924
# Shear Modulus (GPa) = 22.73404 26.52171 24.62788
#
# Velocity S-wave (km/s) = 3.43834 3.71373 3.57869
# Velocity P-wave (km/s) = 6.10532 6.97119 6.55257
#
# Compressibility (1/GPa) = 0.02417340
#
# Stress axis : x y z
#
# Youngs Moduli (GPa) = 76.52284 37.03302 73.37392
#
# Poissons Ratio (x) = 0.20416 0.48586
# Poissons Ratio (y) = 0.42187 0.19287
# Poissons Ratio (z) = 0.50671 0.09734
#
# Static dielectric constant tensor:
#      x y z
#    x 3.751980 0.000000 -0.138650 
#    y 0.000000 3.230670 0.000000 
#    z -0.138650 0.000000 3.563600 
# 
# 
# High freq. dielectric constant tensor:
#      x y z
#    x 1.752730 0.000000 -0.001190 
#    y 0.000000 1.710690 0.000000 
#    z -0.001190 0.000000 1.748790 
# 
# From -- ./inp_files/281735.got.cif
#   From: 2010.06.25/outbox.cif.g09.slc.cpg/sg12_141_cif.got.tgz:281735.got - 2010.06.28 00:19:55.
