data_PCOD8090224
_publ_section_title
;
Structure prediction by ZEFSAII (Michael W. Deem and Ramdas Pophale) SiO2 
 PCOD8090224
Probable space group: C 2/M
;
_chemical_formula_sum "Si O2"
_cell_formula_units_Z 48
_cell_length_a 18.762170
_cell_length_b 13.161180
_cell_length_c 11.848039
_cell_angle_alpha 90.000000
_cell_angle_beta 61.821216
_cell_angle_gamma 90.000000
_cell_volume 2578.909081
_symmetry_space_group_name_H-M "C 2/M"
_symmetry_group_IT_number 12
_symmetry_cell_setting 'monoclinic'
loop_
_space_group_symop_operation_xyz
x,y,z
-x,y,-z
-x,-y,-z
x,-y,z
1/2+x,1/2+y,z
1/2-x,1/2+y,-z
1/2-x,1/2-y,-z
1/2+x,1/2-y,z
loop_
_atom_site_type_symbol
_atom_site_label
_atom_site_fract_x
_atom_site_fract_y
_atom_site_fract_z
Si Si1 0.911894 0.615903 0.091403
Si Si2 0.298531 0.812040 0.799574
Si Si3 0.630305 0.200806 0.645728
Si Si4 0.759901 0.613849 0.064803
Si Si5 0.264786 0.383745 0.392684
Si Si6 0.979762 0.383911 0.645310
O O1 0.924333 0.500000 0.120183
O O2 0.866239 0.673484 0.225615
O O3 0.855042 0.626002 0.024342
O O4 0.000000 0.664526 0.000000
O O5 0.293901 0.690063 0.819179
O O6 0.256736 0.846781 0.716212
O O7 0.390300 0.846173 0.733722
O O8 0.250076 0.863598 0.939364
O O9 0.662311 0.316455 0.610070
O O10 0.686549 0.125626 0.530959
O O11 0.539013 0.189973 0.670102
O O12 0.729447 0.500000 0.114437
O O13 0.293460 0.500000 0.368592
O O14 0.988877 0.500000 0.681331
O O15 0.000000 0.375591 0.500000
#
# Coordination Sequence:
#
# PCOD8090224 Si02
#       6
#     8   8   8   8   8   8
#     4  10  19  33  55  84 117 149 185 234 289 337
#     4  11  21  38  60  87 118 151 196 242 284 342
#     4  11  22  37  57  88 117 149 189 240 287 344
#     4  10  21  36  57  85 117 155 194 236 288 343
#     4  11  22  38  61  86 115 155 194 236 289 343
#     4  11  21  35  59  87 115 146 188 243 292 335
#
# _framework density 18.612521000000001
#
# number of rings (size 3 to 8) (size 9 to 14) (size 15 to 20)
#    0.000    1.333    3.333    4.000    0.000    1.333 
#    0.000    0.833    0.000    1.500    0.000    0.000 
#    0.000    0.000    0.000    0.000    0.000    0.000 
#
# Total GULP energy -297645.718272 kJ/mol
# GULP energy per Si atom -12401.904928 kJ/mol
# Density = 1.857016 g / cm^3
# Si number density = 18.612521 Si / 1000 Ang^3
#
#
#
# Elastic Constant Matrix: (Units=GPa)
#
#
# Indices 1 2 3 4 5 6 
#
# 1 76.2563 37.2288 12.7724 0.0000 6.6995 0.0000
# 2 37.2288 130.1595 38.7582 0.0000 2.1554 0.0000
# 3 12.7724 38.7582 86.4535 0.0000 5.3057 0.0000
# 4 0.0000 0.0000 0.0000 53.6279 0.0000 -2.0162
# 5 6.6995 2.1554 5.3057 0.0000 20.9787 0.0000
# 6 0.0000 0.0000 0.0000 -2.0162 0.0000 26.2356
#
#
#
# Elastic Compliance Matrix: (Units=1/GPa)
#
#
# Indices 1 2 3 4 5 6 
#
# 1 0.015664 -0.004384 -0.000070 0.000000 -0.004534 0.000000
# 2 -0.004384 0.010094 -0.003961 0.000000 0.001365 0.000000
# 3 -0.000070 -0.003961 0.013537 0.000000 -0.002994 0.000000
# 4 0.000000 0.000000 0.000000 0.018701 0.000000 0.001437
# 5 -0.004534 0.001365 -0.002994 0.000000 0.049732 0.000000
# 6 0.000000 0.000000 0.000000 0.001437 0.000000 0.038227
#
#
# Mechanical properties :
#
#
# Convention : Reuss Voigt Hill
#
# Bulk Modulus (GPa) = 44.51733 52.26533 48.39133
# Shear Modulus (GPa) = 29.36435 33.77578 31.57007
#
# Velocity S-wave (km/s) = 3.97629 4.26453 4.12293
# Velocity P-wave (km/s) = 6.71201 7.23809 6.98001
#
# Compressibility (1/GPa) = 0.02246316
#
# Stress axis : x y z
#
# Youngs Moduli (GPa) = 63.83963 99.07016 73.87195
#
# Poissons Ratio (x) = 0.43435 0.00520
# Poissons Ratio (y) = 0.27989 0.29262
# Poissons Ratio (z) = 0.00449 0.39244
#
# Static dielectric constant tensor:
#      x y z
#    x 3.383570 0.000000 0.091720 
#    y 0.000000 3.454800 0.000000 
#    z 0.091720 0.000000 3.357960 
# 
# 
# High freq. dielectric constant tensor:
#      x y z
#    x 1.714720 0.000000 0.014160 
#    y 0.000000 1.711660 0.000000 
#    z 0.014160 0.000000 1.732760 
# 
# From -- ./inp_files/164689.got.cif
#   From: 2010.06.25/outbox.cif.g09.slc.cpg/sg12_83_cif.got.tgz:164689.got - 2010.06.28 00:19:55.
