data_PCOD8090998
_publ_section_title
;
Structure prediction by ZEFSAII (Michael W. Deem and Ramdas Pophale) SiO2 
 PCOD8090998
Probable space group: C 2/M
;
_chemical_formula_sum "Si O2"
_cell_formula_units_Z 56
_cell_length_a 30.592608
_cell_length_b 9.006608
_cell_length_c 11.764576
_cell_angle_alpha 90.000000
_cell_angle_beta 64.229672
_cell_angle_gamma 90.000000
_cell_volume 2919.167408
_symmetry_space_group_name_H-M "C 2/M"
_symmetry_group_IT_number 12
_symmetry_cell_setting 'monoclinic'
loop_
_space_group_symop_operation_xyz
x,y,z
-x,y,-z
-x,-y,-z
x,-y,z
1/2+x,1/2+y,z
1/2-x,1/2+y,-z
1/2-x,1/2-y,-z
1/2+x,1/2-y,z
loop_
_atom_site_type_symbol
_atom_site_label
_atom_site_fract_x
_atom_site_fract_y
_atom_site_fract_z
Si Si1 0.197995 0.676000 0.557372
Si Si2 0.979440 0.175730 0.204868
Si Si3 0.957326 0.676205 0.466689
Si Si4 0.761957 0.675271 0.868509
Si Si5 0.150325 0.675630 0.379511
Si Si6 0.568939 0.327663 0.968580
Si Si7 0.174242 0.827063 0.807133
O O1 0.203933 0.500000 0.550055
O O2 0.250000 0.750000 0.500000
O O3 0.169008 0.734168 0.480014
O O4 0.169062 0.729408 0.700324
O O5 0.963310 0.259048 0.335449
O O6 0.944843 0.232453 0.141365
O O7 0.976076 0.000000 0.231470
O O8 0.034082 0.230952 0.108880
O O9 0.959271 0.500000 0.454875
O O10 0.905178 0.728441 0.577193
O O11 0.000000 0.736700 0.500000
O O12 0.761624 0.500000 0.886929
O O13 0.813821 0.733319 0.761304
O O14 0.720495 0.723881 0.826761
O O15 0.750000 0.750000 0.000000
O O16 0.153527 0.500000 0.376730
O O17 0.557429 0.500000 0.973459
O O18 0.625117 0.294586 0.934481
O O19 0.178132 0.000000 0.769129
#
# Coordination Sequence:
#
# PCOD8090998 Si02
#       7
#     8   8   8   8   8   8   8
#     4  11  20  33  55  81 108 138 172 215 265 318
#     4   9  17  33  54  78 106 136 170 215 265 308
#     4  10  21  36  54  75 102 141 182 216 256 308
#     4  10  21  37  53  71 101 139 173 211 258 309
#     4   9  19  37  55  74 106 141 170 213 270 311
#     4   8  16  31  54  79 106 137 168 209 266 318
#     4  10  19  34  54  78 106 139 175 212 260 315
#
# _framework density 19.183551999999999
#
# number of rings (size 3 to 8) (size 9 to 14) (size 15 to 20)
#    0.000    2.429    1.429    2.143    0.000    2.000 
#    0.000    3.571    0.000    0.000    0.000    0.000 
#    0.000    0.000    0.000    0.000    0.000    0.000 
#
# Total GULP energy -347061.590157 kJ/mol
# GULP energy per Si atom -12395.056791 kJ/mol
# Density = 1.913989 g / cm^3
# Si number density = 19.183552 Si / 1000 Ang^3
#
#
#
# Elastic Constant Matrix: (Units=GPa)
#
#
# Indices 1 2 3 4 5 6 
#
# 1 133.1513 23.2140 71.7343 0.0000 -24.7588 0.0000
# 2 23.2140 27.1169 25.1580 0.0000 -0.6947 0.0000
# 3 71.7343 25.1580 151.4442 0.0000 -13.3195 0.0000
# 4 0.0000 0.0000 0.0000 33.2531 0.0000 5.0703
# 5 -24.7588 -0.6947 -13.3195 0.0000 35.3225 0.0000
# 6 0.0000 0.0000 0.0000 5.0703 0.0000 14.7552
#
#
#
# Elastic Compliance Matrix: (Units=1/GPa)
#
#
# Indices 1 2 3 4 5 6 
#
# 1 0.012079 -0.006400 -0.004059 0.000000 0.006810 0.000000
# 2 -0.006400 0.047116 -0.005284 0.000000 -0.005552 0.000000
# 3 -0.004059 -0.005284 0.009458 0.000000 0.000617 0.000000
# 4 0.000000 0.000000 0.000000 0.031735 0.000000 -0.010905
# 5 0.006810 -0.005552 0.000617 0.000000 0.033208 0.000000
# 6 0.000000 0.000000 0.000000 -0.010905 0.000000 0.071520
#
#
# Mechanical properties :
#
#
# Convention : Reuss Voigt Hill
#
# Bulk Modulus (GPa) = 26.90566 61.32501 44.11533
# Shear Modulus (GPa) = 20.08096 29.43989 24.76042
#
# Velocity S-wave (km/s) = 3.23891 3.92170 3.59654
# Velocity P-wave (km/s) = 5.29558 7.24867 6.34769
#
# Compressibility (1/GPa) = 0.03716690
#
# Stress axis : x y z
#
# Youngs Moduli (GPa) = 82.78540 21.22411 105.73122
#
# Poissons Ratio (x) = 0.13584 0.42921
# Poissons Ratio (y) = 0.52984 0.55865
# Poissons Ratio (z) = 0.33607 0.11214
#
# Static dielectric constant tensor:
#      x y z
#    x 3.761520 0.000000 -0.284700 
#    y 0.000000 3.257340 0.000000 
#    z -0.284700 0.000000 3.791830 
# 
# 
# High freq. dielectric constant tensor:
#      x y z
#    x 1.751520 0.000000 -0.017490 
#    y 0.000000 1.708720 0.000000 
#    z -0.017490 0.000000 1.754400 
# 
# From -- ./inp_files/187206.got.cif
#   From: 2010.06.25/outbox.cif.g09.slc.cpg/sg12_94_cif.got.tgz:187206.got - 2010.06.28 00:19:55.
