data_PCOD8090610
_publ_section_title
;
Structure prediction by ZEFSAII (Michael W. Deem and Ramdas Pophale) SiO2 
 PCOD8090610
Probable space group: C 2/M
;
_chemical_formula_sum "Si O2"
_cell_formula_units_Z 64
_cell_length_a 15.044603
_cell_length_b 9.205894
_cell_length_c 23.823588
_cell_angle_alpha 90.000000
_cell_angle_beta 90.074243
_cell_angle_gamma 90.000000
_cell_volume 3299.540832
_symmetry_space_group_name_H-M "C 2/M"
_symmetry_group_IT_number 12
_symmetry_cell_setting 'monoclinic'
loop_
_space_group_symop_operation_xyz
x,y,z
-x,y,-z
-x,-y,-z
x,-y,z
1/2+x,1/2+y,z
1/2-x,1/2+y,-z
1/2-x,1/2-y,-z
1/2+x,1/2-y,z
loop_
_atom_site_type_symbol
_atom_site_label
_atom_site_fract_x
_atom_site_fract_y
_atom_site_fract_z
Si Si1 0.603152 0.665029 0.139205
Si Si2 0.505577 0.331368 0.564196
Si Si3 0.906391 0.165087 0.125514
Si Si4 0.145546 0.666319 0.246735
Si Si5 0.142637 0.329075 0.641084
Si Si6 0.738858 0.172062 0.941280
Si Si7 0.646604 0.334783 0.751644
Si Si8 0.846140 0.167640 0.643720
O O1 0.623321 0.500000 0.157851
O O2 0.509063 0.675596 0.106888
O O3 0.596457 0.762302 0.194363
O O4 0.678937 0.721224 0.097358
O O5 0.500000 0.281673 0.500000
O O6 0.531057 0.500000 0.569793
O O7 0.583274 0.239653 0.592639
O O8 0.409217 0.299350 0.591030
O O9 0.851905 0.275796 0.087417
O O10 0.901630 0.209930 0.190955
O O11 0.870212 0.000000 0.117718
O O12 0.116715 0.500000 0.250313
O O13 0.249710 0.687689 0.237616
O O14 0.115151 0.742303 0.304104
O O15 0.127942 0.500000 0.641312
O O16 0.112380 0.267616 0.701573
O O17 0.245260 0.285983 0.628669
O O18 0.735960 0.000000 0.950254
O O19 0.750000 0.250000 0.000000
O O20 0.624386 0.500000 0.734453
O O21 0.848373 0.000000 0.661401
#
# Coordination Sequence:
#
# PCOD8090610 Si02
#       8
#     8   8   8   8   8   8   8   8
#     4  10  22  38  59  87 117 153 192 234 288 344
#     4  10  22  40  60  81 110 153 200 238 281 345
#     4  10  21  39  61  86 116 153 194 236 287 343
#     4  10  19  33  57  88 118 148 188 237 285 338
#     4  10  21  36  56  84 116 149 187 238 291 340
#     4  11  24  42  63  86 117 156 197 241 287 338
#     4   9  18  34  57  84 116 152 187 229 284 346
#     4   9  20  38  57  80 114 153 189 231 288 347
#
# _framework density 19.396639
#
# number of rings (size 3 to 8) (size 9 to 14) (size 15 to 20)
#    0.000    2.125    1.250    1.125    1.750    4.250 
#    0.000    2.500    0.000    0.000    0.000    0.000 
#    0.000    0.000    0.000    0.000    0.000    0.000 
#
# Total GULP energy -396923.140104 kJ/mol
# GULP energy per Si atom -12403.848128 kJ/mol
# Density = 1.935249 g / cm^3
# Si number density = 19.396639 Si / 1000 Ang^3
#
#
#
# Elastic Constant Matrix: (Units=GPa)
#
#
# Indices 1 2 3 4 5 6 
#
# 1 81.5779 42.0553 52.5425 0.0000 13.7943 0.0000
# 2 42.0553 89.4371 64.2573 0.0000 12.7166 0.0000
# 3 52.5425 64.2573 130.0514 0.0000 14.4885 0.0000
# 4 0.0000 0.0000 0.0000 34.1971 0.0000 8.0039
# 5 13.7943 12.7166 14.4885 0.0000 18.9847 0.0000
# 6 0.0000 0.0000 0.0000 8.0039 0.0000 30.1264
#
#
#
# Elastic Compliance Matrix: (Units=1/GPa)
#
#
# Indices 1 2 3 4 5 6 
#
# 1 0.018715 -0.004537 -0.004528 0.000000 -0.007103 0.000000
# 2 -0.004537 0.018986 -0.007102 0.000000 -0.004001 0.000000
# 3 -0.004528 -0.007102 0.013258 0.000000 -0.002071 0.000000
# 4 0.000000 0.000000 0.000000 0.031181 0.000000 -0.008284
# 5 -0.007103 -0.004001 -0.002071 0.000000 0.062096 0.000000
# 6 0.000000 0.000000 0.000000 -0.008284 0.000000 0.035394
#
#
# Mechanical properties :
#
#
# Convention : Reuss Voigt Hill
#
# Bulk Modulus (GPa) = 53.69103 68.75297 61.22200
# Shear Modulus (GPa) = 22.91769 26.14241 24.53005
#
# Velocity S-wave (km/s) = 3.44107 3.67520 3.56006
# Velocity P-wave (km/s) = 6.59762 7.31657 6.96638
#
# Compressibility (1/GPa) = 0.01862509
#
# Stress axis : x y z
#
# Youngs Moduli (GPa) = 53.43436 52.67090 75.42370
#
# Poissons Ratio (x) = 0.23896 0.34152
# Poissons Ratio (y) = 0.24242 0.53566
# Poissons Ratio (z) = 0.24195 0.37407
#
# Static dielectric constant tensor:
#      x y z
#    x 4.148510 0.000000 0.087220 
#    y 0.000000 3.537070 0.000000 
#    z 0.087220 0.000000 3.523320 
# 
# 
# High freq. dielectric constant tensor:
#      x y z
#    x 1.760390 0.000000 -0.003300 
#    y 0.000000 1.754060 0.000000 
#    z -0.003300 0.000000 1.748190 
# 
# From -- ./inp_files/338747.got.cif
#   From: 2010.06.25/outbox.cif.g09.slc.cpg/sg12_170_cif.got.tgz:338747.got - 2010.06.28 00:19:55.
