data_PCOD8090110
_publ_section_title
;
Structure prediction by ZEFSAII (Michael W. Deem and Ramdas Pophale) SiO2 
 PCOD8090110
Probable space group: C 2/M
;
_chemical_formula_sum "Si O2"
_cell_formula_units_Z 48
_cell_length_a 22.998573
_cell_length_b 9.225398
_cell_length_c 12.260423
_cell_angle_alpha 90.000000
_cell_angle_beta 69.648406
_cell_angle_gamma 90.000000
_cell_volume 2438.922522
_symmetry_space_group_name_H-M "C 2/M"
_symmetry_group_IT_number 12
_symmetry_cell_setting 'monoclinic'
loop_
_space_group_symop_operation_xyz
x,y,z
-x,y,-z
-x,-y,-z
x,-y,z
1/2+x,1/2+y,z
1/2-x,1/2+y,-z
1/2-x,1/2-y,-z
1/2+x,1/2-y,z
loop_
_atom_site_type_symbol
_atom_site_label
_atom_site_fract_x
_atom_site_fract_y
_atom_site_fract_z
Si Si1 0.692903 0.832790 0.782560
Si Si2 0.485856 0.336364 0.883084
Si Si3 0.172154 0.832031 0.231839
Si Si4 0.862088 0.671655 0.951545
Si Si5 0.430307 0.672180 0.532530
Si Si6 0.108329 0.170763 0.677838
O O1 0.766623 0.808500 0.735593
O O2 0.666811 0.746031 0.696478
O O3 0.675455 0.000000 0.778238
O O4 0.663354 0.775129 0.915053
O O5 0.467398 0.500000 0.859339
O O6 0.431539 0.227278 0.887810
O O7 0.546034 0.282538 0.780248
O O8 0.500000 0.329559 0.000000
O O9 0.179740 0.740239 0.116510
O O10 0.112602 0.776701 0.339166
O O11 0.165300 0.000000 0.203929
O O12 0.859294 0.500000 0.943375
O O13 0.500000 0.736146 0.500000
O O14 0.434030 0.500000 0.526578
O O15 0.398616 0.726783 0.441441
O O16 0.119341 0.000000 0.677510
#
# Coordination Sequence:
#
# PCOD8090110 Si02
#       6
#     8   8   8   8   8   8
#     4  10  22  37  53  79 114 148 179 222 278 326
#     4  10  19  33  55  82 108 140 181 221 267 323
#     4  10  21  38  58  78 107 148 188 223 268 325
#     4  11  22  35  54  81 113 146 182 227 277 320
#     4   9  18  35  59  83 106 136 180 231 273 316
#     4  10  20  35  58  85 110 141 183 227 269 321
#
# _framework density 19.680821999999999
#
# number of rings (size 3 to 8) (size 9 to 14) (size 15 to 20)
#    0.000    2.000    1.667    2.000    0.000    5.667 
#    0.000    0.833    0.000    2.000    0.000    0.000 
#    0.000    0.000    0.000    0.000    0.000    0.000 
#
# Total GULP energy -297657.691617 kJ/mol
# GULP energy per Si atom -12402.403817 kJ/mol
# Density = 1.963603 g / cm^3
# Si number density = 19.680822 Si / 1000 Ang^3
#
#
#
# Elastic Constant Matrix: (Units=GPa)
#
#
# Indices 1 2 3 4 5 6 
#
# 1 115.8689 36.2534 42.0591 0.0000 10.7673 0.0000
# 2 36.2534 45.8847 26.2126 0.0000 6.8132 0.0000
# 3 42.0591 26.2126 88.4780 0.0000 14.3585 0.0000
# 4 0.0000 0.0000 0.0000 -14.5917 0.0000 17.7015
# 5 10.7673 6.8132 14.3585 0.0000 34.5291 0.0000
# 6 0.0000 0.0000 0.0000 17.7015 0.0000 31.6223
#
#
#
# Elastic Compliance Matrix: (Units=1/GPa)
#
#
# Indices 1 2 3 4 5 6 
#
# 1 0.012368 -0.007659 -0.003463 0.000000 -0.000905 0.000000
# 2 -0.007659 0.031117 -0.005329 0.000000 -0.001536 0.000000
# 3 -0.003463 -0.005329 0.015208 0.000000 -0.004192 0.000000
# 4 0.000000 0.000000 0.000000 -0.040815 0.000000 0.022847
# 5 -0.000905 -0.001536 -0.004192 0.000000 0.031290 0.000000
# 6 0.000000 0.000000 0.000000 0.022847 0.000000 0.018834
#
#
# Mechanical properties :
#
#
# Convention : Reuss Voigt Hill
#
# Bulk Modulus (GPa) = 38.77361 51.03133 44.90247
# Shear Modulus (GPa) = 45.66173 20.02571 32.84372
#
# Velocity S-wave (km/s) = 4.82198 3.19333 4.08955
# Velocity P-wave (km/s) = 7.12362 6.29144 6.72042
#
# Compressibility (1/GPa) = 0.02579074
#
# Stress axis : x y z
#
# Youngs Moduli (GPa) = 80.85295 32.13627 65.75631
#
# Poissons Ratio (x) = 0.24614 0.22774
# Poissons Ratio (y) = 0.61926 0.35040
# Poissons Ratio (z) = 0.28002 0.17125
#
# Static dielectric constant tensor:
#      x y z
#    x 3.655110 0.000000 -0.013050 
#    y 0.000000 3.285060 0.000000 
#    z -0.013050 0.000000 3.731620 
# 
# 
# High freq. dielectric constant tensor:
#      x y z
#    x 1.777840 0.000000 0.003800 
#    y 0.000000 1.733700 0.000000 
#    z 0.003800 0.000000 1.772200 
# 
# From -- ./inp_files/172857.got.cif
#   From: 2010.06.25/outbox.cif.g09.slc.cpg/sg12_87_cif.got.tgz:172857.got - 2010.06.28 00:19:55.
