data_PCOD8090395
_publ_section_title
;
Structure prediction by ZEFSAII (Michael W. Deem and Ramdas Pophale) SiO2 
 PCOD8090395
Probable space group: C 2/M
;
_chemical_formula_sum "Si O2"
_cell_formula_units_Z 40
_cell_length_a 20.905429
_cell_length_b 9.242734
_cell_length_c 10.121474
_cell_angle_alpha 90.000000
_cell_angle_beta 88.307307
_cell_angle_gamma 90.000000
_cell_volume 1954.851403
_symmetry_space_group_name_H-M "C 2/M"
_symmetry_group_IT_number 12
_symmetry_cell_setting 'monoclinic'
loop_
_space_group_symop_operation_xyz
x,y,z
-x,y,-z
-x,-y,-z
x,-y,z
1/2+x,1/2+y,z
1/2-x,1/2+y,-z
1/2-x,1/2-y,-z
1/2+x,1/2-y,z
loop_
_atom_site_type_symbol
_atom_site_label
_atom_site_fract_x
_atom_site_fract_y
_atom_site_fract_z
Si Si1 0.050674 0.669420 0.108076
Si Si2 0.453219 0.669028 0.621996
Si Si3 0.241695 0.342577 0.685771
Si Si4 0.801868 0.328757 0.905113
Si Si5 0.838182 0.156492 0.462462
O O1 0.043777 0.500000 0.133598
O O2 0.030710 0.746155 0.245483
O O3 0.124183 0.706014 0.060016
O O4 0.000000 0.721663 0.000000
O O5 0.500000 0.707966 0.500000
O O6 0.453113 0.500000 0.658094
O O7 0.385534 0.722373 0.568616
O O8 0.229693 0.500000 0.756307
O O9 0.289412 0.239650 0.763115
O O10 0.173524 0.261963 0.662876
O O11 0.271356 0.371237 0.540413
O O12 0.789081 0.500000 0.904617
O O13 0.750000 0.250000 0.000000
O O14 0.864524 0.000000 0.408983
#
# Coordination Sequence:
#
# PCOD8090395 Si02
#       5
#     8   8   8   8   8
#     4  10  23  43  64  88 122 163 208 254 305 367
#     4  10  21  38  61  90 122 157 202 251 301 361
#     4  10  19  33  56  83 112 147 188 235 290 348
#     4  11  23  39  61  87 119 157 201 251 303 362
#     4   9  18  33  54  82 115 147 185 233 287 348
#
# _framework density 20.461911000000001
#
# number of rings (size 3 to 8) (size 9 to 14) (size 15 to 20)
#    0.000    2.000    2.000    1.200    0.000    4.800 
#    0.000    4.000    0.000    0.000    0.000    0.000 
#    0.000    0.000    0.000    0.000    0.000    0.000 
#
# Total GULP energy -247767.311160 kJ/mol
# GULP energy per Si atom -12388.365558 kJ/mol
# Density = 2.041534 g / cm^3
# Si number density = 20.461911 Si / 1000 Ang^3
#
#
#
# Elastic Constant Matrix: (Units=GPa)
#
#
# Indices 1 2 3 4 5 6 
#
# 1 102.8600 59.2861 80.2486 0.0000 19.6227 0.0000
# 2 59.2861 114.3318 63.3750 0.0000 20.6012 0.0000
# 3 80.2486 63.3750 105.0401 0.0000 31.6023 0.0000
# 4 0.0000 0.0000 0.0000 33.4640 0.0000 1.6186
# 5 19.6227 20.6012 31.6023 0.0000 41.5538 0.0000
# 6 0.0000 0.0000 0.0000 1.6186 0.0000 21.6311
#
#
#
# Elastic Compliance Matrix: (Units=1/GPa)
#
#
# Indices 1 2 3 4 5 6 
#
# 1 0.025447 -0.003711 -0.018336 0.000000 0.003768 0.000000
# 2 -0.003711 0.013695 -0.005073 0.000000 -0.001179 0.000000
# 3 -0.018336 -0.005073 0.030119 0.000000 -0.011732 0.000000
# 4 0.000000 0.000000 0.000000 0.029991 0.000000 -0.002244
# 5 0.003768 -0.001179 -0.011732 0.000000 0.031793 0.000000
# 6 0.000000 0.000000 0.000000 -0.002244 0.000000 0.046398
#
#
# Mechanical properties :
#
#
# Convention : Reuss Voigt Hill
#
# Bulk Modulus (GPa) = 66.56949 80.89461 73.73205
# Shear Modulus (GPa) = 21.12468 27.28458 24.20463
#
# Velocity S-wave (km/s) = 3.21657 3.65558 3.44308
# Velocity P-wave (km/s) = 6.81169 7.57877 7.20544
#
# Compressibility (1/GPa) = 0.01502190
#
# Stress axis : x y z
#
# Youngs Moduli (GPa) = 39.29745 73.01813 33.20167
#
# Poissons Ratio (x) = 0.27094 0.60878
# Poissons Ratio (y) = 0.14582 0.16844
# Poissons Ratio (z) = 0.72055 0.37044
#
# Static dielectric constant tensor:
#      x y z
#    x 8.020450 0.000000 -3.208570 
#    y 0.000000 4.143360 0.000000 
#    z -3.208570 0.000000 6.397960 
# 
# 
# High freq. dielectric constant tensor:
#      x y z
#    x 1.792690 0.000000 0.018020 
#    y 0.000000 1.804360 0.000000 
#    z 0.018020 0.000000 1.788490 
# 
# From -- ./inp_files/162662.got.cif
#   From: 2010.06.25/outbox.cif.g09.slc.cpg/sg12_82_cif.got.tgz:162662.got - 2010.06.28 00:19:55.
