data_PCOD8090049
_publ_section_title
;
Structure prediction by ZEFSAII (Michael W. Deem and Ramdas Pophale) SiO2 
 PCOD8090049
Probable space group: C 2/M
;
_chemical_formula_sum "Si O2"
_cell_formula_units_Z 56
_cell_length_a 15.148208
_cell_length_b 9.076390
_cell_length_c 24.068526
_cell_angle_alpha 90.000000
_cell_angle_beta 116.956945
_cell_angle_gamma 90.000000
_cell_volume 2949.652921
_symmetry_space_group_name_H-M "C 2/M"
_symmetry_group_IT_number 12
_symmetry_cell_setting 'monoclinic'
loop_
_space_group_symop_operation_xyz
x,y,z
-x,y,-z
-x,-y,-z
x,-y,z
1/2+x,1/2+y,z
1/2-x,1/2+y,-z
1/2-x,1/2-y,-z
1/2+x,1/2-y,z
loop_
_atom_site_type_symbol
_atom_site_label
_atom_site_fract_x
_atom_site_fract_y
_atom_site_fract_z
Si Si1 0.233797 0.669871 0.119363
Si Si2 0.400759 0.327183 0.002169
Si Si3 0.514758 0.327836 0.569079
Si Si4 0.356074 0.175251 0.791312
Si Si5 0.735735 0.325702 0.652012
Si Si6 0.327602 0.175226 0.562849
Si Si7 0.556643 0.669475 0.861810
O O1 0.205015 0.500000 0.104854
O O2 0.188500 0.735139 0.163332
O O3 0.352445 0.690196 0.154852
O O4 0.192116 0.751277 0.053545
O O5 0.384063 0.500000 0.992612
O O6 0.408001 0.274913 0.067715
O O7 0.500000 0.275020 0.000000
O O8 0.500000 0.298594 0.500000
O O9 0.500138 0.500000 0.578793
O O10 0.623151 0.267852 0.616717
O O11 0.437398 0.233324 0.582373
O O12 0.287846 0.237356 0.722147
O O13 0.466455 0.234110 0.813765
O O14 0.358392 0.000000 0.791002
O O15 0.731764 0.500000 0.652575
O O16 0.798842 0.275186 0.616773
O O17 0.250000 0.250000 0.500000
O O18 0.322596 0.000000 0.553657
O O19 0.522200 0.500000 0.855668
#
# Coordination Sequence:
#
# PCOD8090049 Si02
#       7
#     8   8   8   8   8   8   8
#     4  10  21  35  55  81 108 139 184 231 270 319
#     4  10  19  33  55  80 109 144 178 221 283 331
#     4  10  19  36  60  85 112 147 181 221 280 333
#     4  10  21  38  57  78 106 148 188 222 269 329
#     4   9  20  38  57  78 113 149 180 221 278 336
#     4  11  21  36  58  85 113 144 183 228 275 329
#     4  10  21  37  55  80 112 143 179 230 279 322
#
# _framework density 18.985284
#
# number of rings (size 3 to 8) (size 9 to 14) (size 15 to 20)
#    0.000    2.000    2.857    0.857    0.000    2.857 
#    0.000    3.571    0.000    0.000    0.000    0.000 
#    0.000    0.000    0.000    0.000    0.000    0.000 
#
# Total GULP energy -347266.315883 kJ/mol
# GULP energy per Si atom -12402.368424 kJ/mol
# Density = 1.894207 g / cm^3
# Si number density = 18.985284 Si / 1000 Ang^3
#
#
#
# Elastic Constant Matrix: (Units=GPa)
#
#
# Indices 1 2 3 4 5 6 
#
# 1 126.7403 34.3879 53.5051 0.0000 14.4036 0.0000
# 2 34.3879 39.6793 32.5576 0.0000 4.9342 0.0000
# 3 53.5051 32.5576 135.5894 0.0000 17.9933 0.0000
# 4 0.0000 0.0000 0.0000 19.1315 0.0000 5.9475
# 5 14.4036 4.9342 17.9933 0.0000 26.7647 0.0000
# 6 0.0000 0.0000 0.0000 5.9475 0.0000 33.2229
#
#
#
# Elastic Compliance Matrix: (Units=1/GPa)
#
#
# Indices 1 2 3 4 5 6 
#
# 1 0.011221 -0.007525 -0.002200 0.000000 -0.003172 0.000000
# 2 -0.007525 0.036447 -0.005960 0.000000 0.001337 0.000000
# 3 -0.002200 -0.005960 0.010289 0.000000 -0.004635 0.000000
# 4 0.000000 0.000000 0.000000 0.055350 0.000000 -0.009909
# 5 -0.003172 0.001337 -0.004635 0.000000 0.041939 0.000000
# 6 0.000000 0.000000 0.000000 -0.009909 0.000000 0.031873
#
#
# Mechanical properties :
#
#
# Convention : Reuss Voigt Hill
#
# Bulk Modulus (GPa) = 37.61043 60.32338 48.96690
# Shear Modulus (GPa) = 21.99218 27.92772 24.95995
#
# Velocity S-wave (km/s) = 3.40719 3.83955 3.62981
# Velocity P-wave (km/s) = 5.94407 7.17627 6.58904
#
# Compressibility (1/GPa) = 0.02658837
#
# Stress axis : x y z
#
# Youngs Moduli (GPa) = 89.11659 27.43676 97.18679
#
# Poissons Ratio (x) = 0.20647 0.21382
# Poissons Ratio (y) = 0.67061 0.57920
# Poissons Ratio (z) = 0.19607 0.16351
#
# Static dielectric constant tensor:
#      x y z
#    x 3.743040 0.000000 -0.035010 
#    y 0.000000 3.228540 0.000000 
#    z -0.035010 0.000000 3.602480 
# 
# 
# High freq. dielectric constant tensor:
#      x y z
#    x 1.752710 0.000000 0.001340 
#    y 0.000000 1.714130 0.000000 
#    z 0.001340 0.000000 1.736320 
# 
# From -- ./inp_files/337849.got.cif
#   From: 2010.06.25/outbox.cif.g09.slc.cpg/sg12_169_cif.got.tgz:337849.got - 2010.06.28 00:19:55.
