data_PCOD8090867
_publ_section_title
;
Structure prediction by ZEFSAII (Michael W. Deem and Ramdas Pophale) SiO2 
 PCOD8090867
Probable space group: C 2/M
;
_chemical_formula_sum "Si O2"
_cell_formula_units_Z 64
_cell_length_a 29.821726
_cell_length_b 13.144314
_cell_length_c 10.164948
_cell_angle_alpha 90.000000
_cell_angle_beta 99.702675
_cell_angle_gamma 90.000000
_cell_volume 3927.522492
_symmetry_space_group_name_H-M "C 2/M"
_symmetry_group_IT_number 12
_symmetry_cell_setting 'monoclinic'
loop_
_space_group_symop_operation_xyz
x,y,z
-x,y,-z
-x,-y,-z
x,-y,z
1/2+x,1/2+y,z
1/2-x,1/2+y,-z
1/2-x,1/2-y,-z
1/2+x,1/2-y,z
loop_
_atom_site_type_symbol
_atom_site_label
_atom_site_fract_x
_atom_site_fract_y
_atom_site_fract_z
Si Si1 0.673114 0.309668 0.189405
Si Si2 0.482014 0.620981 0.127137
Si Si3 0.033231 0.879180 0.405134
Si Si4 0.313337 0.688241 0.273129
Si Si5 0.770462 0.613938 0.181160
Si Si6 0.879163 0.880514 0.083731
Si Si7 0.779996 0.614800 0.879711
Si Si8 0.136403 0.880068 0.443518
O O1 0.718298 0.377132 0.198991
O O2 0.683518 0.191080 0.165930
O O3 0.653377 0.318697 0.325498
O O4 0.635848 0.352273 0.070491
O O5 0.483518 0.500000 0.121057
O O6 0.515031 0.662597 0.257110
O O7 0.430704 0.656549 0.128438
O O8 0.500000 0.668395 0.000000
O O9 0.085149 0.844295 0.452704
O O10 0.000000 0.833084 0.500000
O O11 0.030342 0.000000 0.407388
O O12 0.301372 0.808058 0.279290
O O13 0.350326 0.677848 0.177820
O O14 0.268530 0.624764 0.214965
O O15 0.331361 0.647138 0.419606
O O16 0.787737 0.500000 0.218448
O O17 0.773584 0.642431 0.029290
O O18 0.873604 0.000000 0.105197
O O19 0.798025 0.500000 0.870251
O O20 0.138190 0.000000 0.414797
#
# Coordination Sequence:
#
# PCOD8090867 Si02
#       8
#     8   8   8   8   8   8   8   8
#     4  11  20  33  48  74  99 131 167 199 241 288
#     4   9  17  27  41  64  92 122 155 194 237 282
#     4   9  17  31  45  62  94 134 162 185 234 290
#     4  11  20  33  48  74  95 127 172 200 230 289
#     4  10  19  34  53  71  97 128 162 209 251 281
#     4  11  18  28  49  70  94 127 167 202 230 281
#     4  10  19  34  53  71  97 128 163 208 250 281
#     4  11  22  32  47  72 106 135 160 199 239 284
#
# _framework density 16.295259000000001
#
# number of rings (size 3 to 8) (size 9 to 14) (size 15 to 20)
#    0.000    1.750    2.500    4.500    0.000    6.000 
#    0.000    1.875    0.000    0.000    0.000    0.000 
#    0.000   20.000    0.000    0.000    0.000    0.000 
#
# Total GULP energy -396836.288245 kJ/mol
# GULP energy per Si atom -12401.134008 kJ/mol
# Density = 1.625817 g / cm^3
# Si number density = 16.295259 Si / 1000 Ang^3
#
#
#
# Elastic Constant Matrix: (Units=GPa)
#
#
# Indices 1 2 3 4 5 6 
#
# 1 76.3999 25.6560 26.5296 0.0000 -1.8708 0.0000
# 2 25.6560 61.9437 -0.0067 0.0000 -5.8873 0.0000
# 3 26.5296 -0.0067 76.7608 0.0000 -9.9383 0.0000
# 4 0.0000 0.0000 0.0000 16.5176 0.0000 -0.9590
# 5 -1.8708 -5.8873 -9.9383 0.0000 27.3635 0.0000
# 6 0.0000 0.0000 0.0000 -0.9590 0.0000 16.4796
#
#
#
# Elastic Compliance Matrix: (Units=1/GPa)
#
#
# Indices 1 2 3 4 5 6 
#
# 1 0.017865 -0.007667 -0.006538 0.000000 -0.002803 0.000000
# 2 -0.007667 0.019788 0.003289 0.000000 0.004928 0.000000
# 3 -0.006538 0.003289 0.016077 0.000000 0.006100 0.000000
# 4 0.000000 0.000000 0.000000 0.060747 0.000000 0.003535
# 5 -0.002803 0.004928 0.006100 0.000000 0.039629 0.000000
# 6 0.000000 0.000000 0.000000 0.003535 0.000000 0.060887
#
#
# Mechanical properties :
#
#
# Convention : Reuss Voigt Hill
#
# Bulk Modulus (GPa) = 31.34807 35.49580 33.42193
# Shear Modulus (GPa) = 20.20559 22.93383 21.56971
#
# Velocity S-wave (km/s) = 3.52514 3.75559 3.64219
# Velocity P-wave (km/s) = 5.98733 6.37465 6.18402
#
# Compressibility (1/GPa) = 0.03189989
#
# Stress axis : x y z
#
# Youngs Moduli (GPa) = 55.97466 50.53628 62.19999
#
# Poissons Ratio (x) = 0.38744 0.40666
# Poissons Ratio (y) = 0.42913 -0.20460
# Poissons Ratio (z) = 0.36596 -0.16624
#
# Static dielectric constant tensor:
#      x y z
#    x 3.153640 0.000000 0.046470 
#    y 0.000000 2.828200 0.000000 
#    z 0.046470 0.000000 3.185900 
# 
# 
# High freq. dielectric constant tensor:
#      x y z
#    x 1.627720 0.000000 -0.001430 
#    y 0.000000 1.586750 0.000000 
#    z -0.001430 0.000000 1.634570 
# 
# From -- ./inp_files/111256.got.cif
#   From: 2010.06.25/outbox.cif.g09.slc.cpg/sg12_56_cif.got.tgz:111256.got - 2010.06.28 00:19:55.
