data_PCOD8090910
_publ_section_title
;
Structure prediction by ZEFSAII (Michael W. Deem and Ramdas Pophale) SiO2 
 PCOD8090910
Probable space group: C 2/M
;
_chemical_formula_sum "Si O2"
_cell_formula_units_Z 56
_cell_length_a 13.258435
_cell_length_b 14.363579
_cell_length_c 28.635812
_cell_angle_alpha 90.000000
_cell_angle_beta 148.448393
_cell_angle_gamma 90.000000
_cell_volume 2853.561450
_symmetry_space_group_name_H-M "C 2/M"
_symmetry_group_IT_number 12
_symmetry_cell_setting 'monoclinic'
loop_
_space_group_symop_operation_xyz
x,y,z
-x,y,-z
-x,-y,-z
x,-y,z
1/2+x,1/2+y,z
1/2-x,1/2+y,-z
1/2-x,1/2-y,-z
1/2+x,1/2-y,z
loop_
_atom_site_type_symbol
_atom_site_label
_atom_site_fract_x
_atom_site_fract_y
_atom_site_fract_z
Si Si1 0.480559 0.101286 0.342676
Si Si2 0.632692 0.401549 0.139777
Si Si3 0.720649 0.896810 0.022513
Si Si4 0.848057 0.296001 0.846224
Si Si5 0.245818 0.257654 0.701637
Si Si6 0.196401 0.107692 0.603973
Si Si7 0.423500 0.392351 0.196479
O O1 0.264069 0.089273 0.237588
O O2 0.455869 0.183683 0.371100
O O3 0.626167 0.133605 0.359724
O O4 0.547131 0.000000 0.389570
O O5 0.662330 0.500000 0.122281
O O6 0.412061 0.393622 0.067382
O O7 0.686269 0.302009 0.137763
O O8 0.771832 0.869920 0.095673
O O9 0.629883 0.000000 0.985483
O O10 0.566296 0.826637 0.940706
O O11 0.827331 0.279313 0.782938
O O12 0.690766 0.370391 0.800789
O O13 0.204339 0.168579 0.653603
O O14 0.392554 0.326204 0.733503
O O15 0.000000 0.130213 0.500000
O O16 0.208165 0.000000 0.623921
O O17 0.490116 0.500000 0.222330
#
# Coordination Sequence:
#
# PCOD8090910 Si02
#       7
#     8   8   8   8   8   8   8
#     4   9  17  35  60  83 108 146 188 222 272 340
#     4   9  17  31  53  76 105 150 194 227 266 326
#     4  10  19  34  53  77 113 156 196 232 273 327
#     4  11  21  32  54  84 115 150 195 242 279 315
#     4  11  21  36  62  85 111 146 189 236 279 326
#     4  10  23  42  62  85 114 146 181 224 282 351
#     4  11  22  37  56  83 115 153 192 228 277 333
#
# _framework density 19.624600000000001
#
# number of rings (size 3 to 8) (size 9 to 14) (size 15 to 20)
#    0.000    1.857    2.857    3.429    0.000    2.857 
#    0.000    0.000    0.000    3.429    0.000    0.000 
#    0.000    0.000    0.000    0.000    0.000    0.000 
#
# Total GULP energy -346886.185636 kJ/mol
# GULP energy per Si atom -12388.792344 kJ/mol
# Density = 1.957993 g / cm^3
# Si number density = 19.624600 Si / 1000 Ang^3
#
#
#
# Elastic Constant Matrix: (Units=GPa)
#
#
# Indices 1 2 3 4 5 6 
#
# 1 79.5980 45.8208 30.2762 0.0000 3.2370 -0.0001
# 2 45.8208 132.2745 53.2790 0.0000 -5.8109 0.0000
# 3 30.2762 53.2790 61.9600 -0.0002 1.5735 0.0000
# 4 0.0000 0.0000 -0.0002 31.5001 0.0000 -2.7918
# 5 3.2370 -5.8109 1.5735 0.0000 10.8500 -0.0001
# 6 -0.0001 0.0000 0.0000 -2.7918 -0.0001 40.8834
#
#
#
# Elastic Compliance Matrix: (Units=1/GPa)
#
#
# Indices 1 2 3 4 5 6 
#
# 1 0.017058 -0.004472 -0.004316 0.000000 -0.006858 0.000000
# 2 -0.004472 0.013410 -0.009598 0.000000 0.009908 0.000000
# 3 -0.004316 -0.009598 0.026698 0.000000 -0.007725 0.000000
# 4 0.000000 0.000000 0.000000 0.031939 0.000000 0.002181
# 5 -0.006858 0.009908 -0.007725 0.000000 0.100639 0.000000
# 6 0.000000 0.000000 0.000000 0.002181 0.000000 0.024609
#
#
# Mechanical properties :
#
#
# Convention : Reuss Voigt Hill
#
# Bulk Modulus (GPa) = 49.03202 59.17605 54.10403
# Shear Modulus (GPa) = 19.38572 26.27713 22.83143
#
# Velocity S-wave (km/s) = 3.14638 3.66319 3.41458
# Velocity P-wave (km/s) = 6.18376 6.93624 6.57078
#
# Compressibility (1/GPa) = 0.02039484
#
# Stress axis : x y z
#
# Youngs Moduli (GPa) = 58.62418 74.56905 37.45661
#
# Poissons Ratio (x) = 0.33347 0.16165
# Poissons Ratio (y) = 0.26216 0.35951
# Poissons Ratio (z) = 0.25300 0.71571
#
# Static dielectric constant tensor:
#      x y z
#    x 3.425770 0.000000 0.227620 
#    y 0.000000 4.291240 0.000000 
#    z 0.227620 0.000000 3.226780 
# 
# 
# High freq. dielectric constant tensor:
#      x y z
#    x 1.747940 0.000000 0.030490 
#    y 0.000000 1.793030 0.000000 
#    z 0.030490 0.000000 1.726470 
# 
# From -- ./inp_files/263413.got.cif
#   From: 2010.06.25/outbox.cif.g09.slc.cpg/sg12_132_cif.got.tgz:263413.got - 2010.06.28 00:19:55.
