data_PCOD8090422
_publ_section_title
;
Structure prediction by ZEFSAII (Michael W. Deem and Ramdas Pophale) SiO2 
 PCOD8090422
Probable space group: C 2/M
;
_chemical_formula_sum "Si O2"
_cell_formula_units_Z 52
_cell_length_a 9.241002
_cell_length_b 14.858673
_cell_length_c 32.231130
_cell_angle_alpha 90.000000
_cell_angle_beta 37.854110
_cell_angle_gamma 90.000000
_cell_volume 2715.798121
_symmetry_space_group_name_H-M "C 2/M"
_symmetry_group_IT_number 12
_symmetry_cell_setting 'monoclinic'
loop_
_space_group_symop_operation_xyz
x,y,z
-x,y,-z
-x,-y,-z
x,-y,z
1/2+x,1/2+y,z
1/2-x,1/2+y,-z
1/2-x,1/2-y,-z
1/2+x,1/2-y,z
loop_
_atom_site_type_symbol
_atom_site_label
_atom_site_fract_x
_atom_site_fract_y
_atom_site_fract_z
Si Si1 0.097573 0.000000 0.412010
Si Si2 0.001537 0.722945 0.907979
Si Si3 0.159362 0.345606 0.340862
Si Si4 0.094584 0.901290 0.195013
Si Si5 0.627339 0.836765 0.677975
Si Si6 0.134476 0.500000 0.561915
Si Si7 0.321918 0.605755 0.172888
Si Si8 0.000000 0.751574 0.000000
O O1 0.174080 0.086639 0.368591
O O2 0.230093 0.000000 0.425505
O O3 0.815476 0.000000 0.482500
O O4 0.198543 0.666859 0.839181
O O5 0.064419 0.829776 0.888347
O O6 0.747446 0.693899 0.946399
O O7 0.003635 0.694763 0.956258
O O8 0.395027 0.398426 0.274987
O O9 0.228403 0.253121 0.346489
O O10 0.004128 0.325540 0.335699
O O11 0.022442 0.409295 0.404511
O O12 0.984498 0.876741 0.175747
O O13 0.206831 0.000000 0.168607
O O14 0.443984 0.862484 0.756146
O O15 0.323654 0.500000 0.159147
#
# Coordination Sequence:
#
# PCOD8090422 Si02
#       8
#     4   8   8   8   8   4   8   4
#     4   9  18  34  55  81 117 154 185 223 273 329
#     4  11  20  40  58  82 109 150 174 234 271 338
#     4  10  19  33  56  84 112 142 189 234 271 322
#     4  10  19  34  59  85 106 143 190 230 271 321
#     4  10  19  33  56  84 112 142 189 234 271 322
#     4   9  18  34  55  81 117 154 185 223 273 329
#     4  10  19  34  59  85 106 143 190 230 271 321
#     4  10  24  38  58  80 118 144 178 212 296 338
#
# _framework density 19.147224999999999
#
# number of rings (size 3 to 8) (size 9 to 14) (size 15 to 20)
#    0.000    2.000    4.615    0.000    0.000    0.615 
#    0.000    6.154    0.000    0.923    0.000    0.000 
#    0.000    0.000    0.000    0.000    0.000    0.000 
#
# Total GULP energy -322227.291120 kJ/mol
# GULP energy per Si atom -12393.357351 kJ/mol
# Density = 1.910365 g / cm^3
# Si number density = 19.147225 Si / 1000 Ang^3
#
#
#
# Elastic Constant Matrix: (Units=GPa)
#
#
# Indices 1 2 3 4 5 6 
#
# 1 65.4135 36.9461 42.0822 0.0011 -18.0998 0.0000
# 2 36.9461 140.4982 57.7877 0.0029 -19.9318 -0.0041
# 3 42.0822 57.7877 119.4665 0.0038 -26.8613 -0.0001
# 4 0.0011 0.0029 0.0038 7.7236 -0.0011 3.3891
# 5 -18.0998 -19.9318 -26.8613 -0.0011 27.4534 -0.0021
# 6 0.0000 -0.0041 -0.0001 3.3891 -0.0021 22.5418
#
#
#
# Elastic Compliance Matrix: (Units=1/GPa)
#
#
# Indices 1 2 3 4 5 6 
#
# 1 0.022036 -0.002755 -0.004631 0.000001 0.007996 0.000000
# 2 -0.002755 0.009411 -0.003146 -0.000002 0.001938 0.000002
# 3 -0.004631 -0.003146 0.013235 -0.000004 0.007612 0.000001
# 4 0.000001 -0.000002 -0.000004 0.138618 -0.000001 -0.020841
# 5 0.007996 0.001938 0.007612 -0.000001 0.050552 0.000005
# 6 0.000000 0.000002 0.000001 -0.020841 0.000005 0.047495
#
#
# Mechanical properties :
#
#
# Convention : Reuss Voigt Hill
#
# Bulk Modulus (GPa) = 42.34338 66.55671 54.45004
# Shear Modulus (GPa) = 16.11425 24.11458 20.11441
#
# Velocity S-wave (km/s) = 2.90418 3.55269 3.24468
# Velocity P-wave (km/s) = 5.77999 7.18782 6.52200
#
# Compressibility (1/GPa) = 0.02361645
#
# Stress axis : x y z
#
# Youngs Moduli (GPa) = 45.38126 106.25935 75.55546
#
# Poissons Ratio (x) = 0.29278 0.34993
# Poissons Ratio (y) = 0.12504 0.23769
# Poissons Ratio (z) = 0.21018 0.33428
#
# Static dielectric constant tensor:
#      x y z
#    x 3.276000 0.000000 -0.228020 
#    y 0.000000 3.389910 0.000000 
#    z -0.228020 0.000000 3.728360 
# 
# 
# High freq. dielectric constant tensor:
#      x y z
#    x 1.717250 0.000000 -0.019540 
#    y 0.000000 1.735030 0.000000 
#    z -0.019540 0.000000 1.752080 
# 
# From -- ./inp_files/372522.got.cif
#   From: 2010.06.25/outbox.cif.g09.slc.cpg/sg12_187_cif.got.tgz:372522.got - 2010.06.28 00:19:55.
