data_PCOD8090042
_publ_section_title
;
Structure prediction by ZEFSAII (Michael W. Deem and Ramdas Pophale) SiO2 
 PCOD8090042
Probable space group: C 2/M
;
_chemical_formula_sum "Si O2"
_cell_formula_units_Z 56
_cell_length_a 29.226020
_cell_length_b 9.188765
_cell_length_c 11.680673
_cell_angle_alpha 90.000000
_cell_angle_beta 109.582676
_cell_angle_gamma 90.000000
_cell_volume 2955.417319
_symmetry_space_group_name_H-M "C 2/M"
_symmetry_group_IT_number 12
_symmetry_cell_setting 'monoclinic'
loop_
_space_group_symop_operation_xyz
x,y,z
-x,y,-z
-x,-y,-z
x,-y,z
1/2+x,1/2+y,z
1/2-x,1/2+y,-z
1/2-x,1/2-y,-z
1/2+x,1/2-y,z
loop_
_atom_site_type_symbol
_atom_site_label
_atom_site_fract_x
_atom_site_fract_y
_atom_site_fract_z
Si Si1 0.547192 0.327959 0.978463
Si Si2 0.402795 0.829898 0.369065
Si Si3 0.309451 0.831877 0.145864
Si Si4 0.020712 0.830371 0.705399
Si Si5 0.091549 0.169113 0.401305
Si Si6 0.362799 0.328848 0.801862
Si Si7 0.284083 0.829947 0.868894
O O1 0.545434 0.500000 0.994784
O O2 0.547004 0.285608 0.845346
O O3 0.500000 0.258783 0.000000
O O4 0.595437 0.266946 0.078890
O O5 0.361827 0.793385 0.241122
O O6 0.453718 0.758241 0.374472
O O7 0.386727 0.762969 0.476846
O O8 0.410960 0.000000 0.390527
O O9 0.270049 0.733800 0.177362
O O10 0.295703 0.000000 0.154612
O O11 0.310197 0.794985 0.011678
O O12 0.964387 0.788514 0.667842
O O13 0.027237 0.000000 0.683773
O O14 0.122759 0.207796 0.315796
O O15 0.096144 0.000000 0.436015
O O16 0.354856 0.500000 0.812969
O O17 0.313507 0.245573 0.791141
O O18 0.280959 0.000000 0.841300
#
# Coordination Sequence:
#
# PCOD8090042 Si02
#       7
#     8   8   8   8   8   8   8
#     4   9  15  28  52  80 106 135 176 218 255 304
#     4  11  23  37  54  76 106 143 181 222 267 314
#     4   9  20  39  58  79 108 138 173 218 267 318
#     4  10  19  33  55  80 107 141 182 225 263 307
#     4  10  21  36  53  76 108 146 186 222 255 305
#     4  10  19  33  55  81 111 144 176 216 267 316
#     4  10  20  35  59  86 109 133 168 217 271 326
#
# _framework density 18.948253999999999
#
# number of rings (size 3 to 8) (size 9 to 14) (size 15 to 20)
#    0.000    2.143    1.429    2.143    0.000    4.571 
#    0.000    0.714    0.000    0.857    0.000    0.000 
#    0.000    0.000    0.000    0.000    0.000    0.000 
#
# Total GULP energy -347289.287417 kJ/mol
# GULP energy per Si atom -12403.188836 kJ/mol
# Density = 1.890513 g / cm^3
# Si number density = 18.948254 Si / 1000 Ang^3
#
#
#
# Elastic Constant Matrix: (Units=GPa)
#
#
# Indices 1 2 3 4 5 6 
#
# 1 116.1426 56.8491 28.8802 0.0000 -23.4304 0.0000
# 2 56.8491 69.9371 38.5765 0.0000 -10.5738 0.0000
# 3 28.8802 38.5765 64.9246 0.0000 -12.8716 0.0000
# 4 0.0000 0.0000 0.0000 26.4986 0.0000 -1.3797
# 5 -23.4304 -10.5738 -12.8716 0.0000 25.6166 0.0000
# 6 0.0000 0.0000 0.0000 -1.3797 0.0000 24.2433
#
#
#
# Elastic Compliance Matrix: (Units=1/GPa)
#
#
# Indices 1 2 3 4 5 6 
#
# 1 0.016765 -0.013458 0.002752 0.000000 0.011162 0.000000
# 2 -0.013458 0.032241 -0.014408 0.000000 -0.006240 0.000000
# 3 0.002752 -0.014408 0.024500 0.000000 0.008880 0.000000
# 4 0.000000 0.000000 0.000000 0.037850 0.000000 0.002154
# 5 0.011162 -0.006240 0.008880 0.000000 0.051132 0.000000
# 6 0.000000 0.000000 0.000000 0.002154 0.000000 0.041371
#
#
# Mechanical properties :
#
#
# Convention : Reuss Voigt Hill
#
# Bulk Modulus (GPa) = 42.95863 55.51287 49.23575
# Shear Modulus (GPa) = 19.09514 23.71829 21.40671
#
# Velocity S-wave (km/s) = 3.17796 3.54183 3.36482
# Velocity P-wave (km/s) = 6.01553 6.78873 6.41379
#
# Compressibility (1/GPa) = 0.02327821
#
# Stress axis : x y z
#
# Youngs Moduli (GPa) = 59.64869 31.01595 40.81671
#
# Poissons Ratio (x) = 0.41740 -0.11231
# Poissons Ratio (y) = 0.80273 0.58808
# Poissons Ratio (z) = -0.16413 0.44687
#
# Static dielectric constant tensor:
#      x y z
#    x 3.382940 0.000000 -0.029420 
#    y 0.000000 3.217470 0.000000 
#    z -0.029420 0.000000 3.499960 
# 
# 
# High freq. dielectric constant tensor:
#      x y z
#    x 1.736320 0.000000 -0.006670 
#    y 0.000000 1.716000 0.000000 
#    z -0.006670 0.000000 1.733990 
# 
# From -- ./inp_files/186375.got.cif
#   From: 2010.06.25/outbox.cif.g09.slc.cpg/sg12_94_cif.got.tgz:186375.got - 2010.06.28 00:19:55.
