data_PCOD8090062
_publ_section_title
;
Structure prediction by ZEFSAII (Michael W. Deem and Ramdas Pophale) SiO2 
 PCOD8090062
Probable space group: C 2/M
;
_chemical_formula_sum "Si O2"
_cell_formula_units_Z 56
_cell_length_a 28.392942
_cell_length_b 8.829936
_cell_length_c 17.624075
_cell_angle_alpha 90.000000
_cell_angle_beta 43.602444
_cell_angle_gamma 90.000000
_cell_volume 3047.216398
_symmetry_space_group_name_H-M "C 2/M"
_symmetry_group_IT_number 12
_symmetry_cell_setting 'monoclinic'
loop_
_space_group_symop_operation_xyz
x,y,z
-x,y,-z
-x,-y,-z
x,-y,z
1/2+x,1/2+y,z
1/2-x,1/2+y,-z
1/2-x,1/2-y,-z
1/2+x,1/2-y,z
loop_
_atom_site_type_symbol
_atom_site_label
_atom_site_fract_x
_atom_site_fract_y
_atom_site_fract_z
Si Si1 0.915545 0.179664 0.831374
Si Si2 0.362129 0.320850 0.582828
Si Si3 0.319751 0.179666 0.063597
Si Si4 0.180254 0.678285 0.608286
Si Si5 0.789233 0.322113 0.263603
Si Si6 0.439608 0.179287 0.361057
Si Si7 0.333282 0.321306 0.783704
O O1 0.875397 0.246919 0.805035
O O2 0.990225 0.248666 0.747169
O O3 0.920577 0.000000 0.822029
O O4 0.877026 0.230089 0.951885
O O5 0.371491 0.500000 0.560448
O O6 0.288397 0.260354 0.639969
O O7 0.420442 0.235364 0.467570
O O8 0.369605 0.273889 0.662491
O O9 0.327210 0.232937 0.142940
O O10 0.245218 0.233635 0.121375
O O11 0.330323 0.000000 0.041182
O O12 0.187866 0.500000 0.590710
O O13 0.250000 0.750000 0.500000
O O14 0.168399 0.723763 0.710720
O O15 0.117099 0.738469 0.632655
O O16 0.780492 0.500000 0.265016
O O17 0.446276 0.000000 0.352477
O O18 0.332432 0.500000 0.789826
#
# Coordination Sequence:
#
# PCOD8090062 Si02
#       7
#     8   8   8   8   8   8   8
#     4  11  22  36  52  73 105 143 179 212 255 308
#     4   9  16  32  56  78 102 133 172 213 256 309
#     4   9  17  34  58  80 102 129 170 219 261 304
#     4  10  19  33  55  81 105 132 170 211 255 309
#     4   8  15  30  55  81 102 129 165 208 260 311
#     4  11  23  35  49  76 111 140 171 212 258 307
#     4   8  17  33  56  81 101 132 176 217 256 306
#
# _framework density 18.377427999999998
#
# number of rings (size 3 to 8) (size 9 to 14) (size 15 to 20)
#    0.000    2.571    1.429    3.000    0.000    1.143 
#    0.000    9.286    0.000    4.286    0.000    0.000 
#    0.000    0.000    0.000    0.000    0.000    0.000 
#
# Total GULP energy -347103.267653 kJ/mol
# GULP energy per Si atom -12396.545273 kJ/mol
# Density = 1.833560 g / cm^3
# Si number density = 18.377428 Si / 1000 Ang^3
#
#
#
# Elastic Constant Matrix: (Units=GPa)
#
#
# Indices 1 2 3 4 5 6 
#
# 1 99.5974 29.5616 85.8270 -0.0103 5.9491 0.0005
# 2 29.5616 42.6450 38.8388 -0.0071 -0.9061 0.0054
# 3 85.8270 38.8388 154.7194 -0.0029 0.7722 0.0039
# 4 -0.0103 -0.0071 -0.0029 33.6693 0.0028 0.1744
# 5 5.9491 -0.9061 0.7722 0.0028 27.4773 0.0011
# 6 0.0005 0.0054 0.0039 0.1744 0.0011 20.1572
#
#
#
# Elastic Compliance Matrix: (Units=1/GPa)
#
#
# Indices 1 2 3 4 5 6 
#
# 1 0.020487 -0.005137 -0.010053 0.000005 -0.004322 0.000003
# 2 -0.005137 0.031728 -0.005126 0.000004 0.002303 -0.000008
# 3 -0.010053 -0.005126 0.013319 -0.000003 0.001633 -0.000001
# 4 0.000005 0.000004 -0.000003 0.029702 -0.000004 -0.000257
# 5 -0.004322 0.002303 0.001633 -0.000004 0.037360 -0.000003
# 6 0.000003 -0.000008 -0.000001 -0.000257 -0.000003 0.049612
#
#
# Mechanical properties :
#
#
# Convention : Reuss Voigt Hill
#
# Bulk Modulus (GPa) = 40.16072 67.26854 53.71463
# Shear Modulus (GPa) = 21.63170 25.77637 23.70403
#
# Velocity S-wave (km/s) = 3.43458 3.74921 3.59534
# Velocity P-wave (km/s) = 6.13426 7.44483 6.82109
#
# Compressibility (1/GPa) = 0.02489995
#
# Stress axis : x y z
#
# Youngs Moduli (GPa) = 48.81175 31.51754 75.08093
#
# Poissons Ratio (x) = 0.16191 0.75482
# Poissons Ratio (y) = 0.25076 0.38490
# Poissons Ratio (z) = 0.49073 0.16157
#
# Static dielectric constant tensor:
#      x y z
#    x 2.953490 -0.000100 -0.265710 
#    y -0.000100 3.054860 -0.000030 
#    z -0.265710 -0.000030 3.052470 
# 
# 
# High freq. dielectric constant tensor:
#      x y z
#    x 1.711690 0.000000 0.015850 
#    y 0.000000 1.683260 0.000000 
#    z 0.015850 0.000000 1.714480 
# 
# From -- ./inp_files/287324.got.cif
#   From: 2010.06.25/outbox.cif.g09.slc.cpg/sg12_144_cif.got.tgz:287324.got - 2010.06.28 00:19:55.
