data_PCOD8090073
_publ_section_title
;
Structure prediction by ZEFSAII (Michael W. Deem and Ramdas Pophale) SiO2 
 PCOD8090073
Probable space group: C 2/M
;
_chemical_formula_sum "Si O2"
_cell_formula_units_Z 56
_cell_length_a 15.171148
_cell_length_b 9.487339
_cell_length_c 22.342329
_cell_angle_alpha 90.000000
_cell_angle_beta 70.443323
_cell_angle_gamma 90.000000
_cell_volume 3030.299041
_symmetry_space_group_name_H-M "C 2/M"
_symmetry_group_IT_number 12
_symmetry_cell_setting 'monoclinic'
loop_
_space_group_symop_operation_xyz
x,y,z
-x,y,-z
-x,-y,-z
x,-y,z
1/2+x,1/2+y,z
1/2-x,1/2+y,-z
1/2-x,1/2-y,-z
1/2+x,1/2-y,z
loop_
_atom_site_type_symbol
_atom_site_label
_atom_site_fract_x
_atom_site_fract_y
_atom_site_fract_z
Si Si1 0.637984 0.833589 0.936790
Si Si2 0.101995 0.336297 0.500632
Si Si3 0.589309 0.838181 0.639908
Si Si4 0.087513 0.163236 0.294230
Si Si5 0.050330 0.333071 0.079865
Si Si6 0.161039 0.835596 0.148150
Si Si7 0.204708 0.162776 0.381396
O O1 0.554847 0.782076 0.911968
O O2 0.737396 0.772687 0.892702
O O3 0.639139 0.000000 0.932739
O O4 0.617953 0.788178 0.009621
O O5 0.126009 0.500000 0.487288
O O6 0.107586 0.288233 0.567967
O O7 0.177470 0.249237 0.446274
O O8 0.000000 0.298414 0.500000
O O9 0.509175 0.746736 0.688906
O O10 0.684677 0.817222 0.655694
O O11 0.555965 0.000000 0.647926
O O12 0.148217 0.189785 0.221353
O O13 0.148780 0.218487 0.336212
O O14 0.062545 0.000000 0.307633
O O15 0.054870 0.500000 0.090796
O O16 0.081492 0.250172 0.131550
O O17 0.152316 0.000000 0.133335
O O18 0.181807 0.000000 0.399384
#
# Coordination Sequence:
#
# PCOD8090073 Si02
#       7
#     8   8   8   8   8   8   8
#     4   8  16  32  54  78 106 136 168 209 257 306
#     4  10  19  33  55  81 108 133 161 210 271 313
#     4  10  21  37  56  78 103 133 172 215 260 308
#     4  10  22  37  51  72 103 139 176 212 253 302
#     4   9  17  32  55  81 103 132 174 212 251 305
#     4  10  20  34  51  73 105 140 170 209 261 304
#     4  10  21  36  55  78 102 134 176 214 251 306
#
# _framework density 18.480025000000001
#
# number of rings (size 3 to 8) (size 9 to 14) (size 15 to 20)
#    0.000    2.429    1.429    1.714    0.000    3.143 
#    0.000    5.000    0.000    0.000    0.000    0.000 
#    0.000    0.000    0.000    0.000    0.000    0.000 
#
# Total GULP energy -347238.089090 kJ/mol
# GULP energy per Si atom -12401.360325 kJ/mol
# Density = 1.843796 g / cm^3
# Si number density = 18.480025 Si / 1000 Ang^3
#
#
#
# Elastic Constant Matrix: (Units=GPa)
#
#
# Indices 1 2 3 4 5 6 
#
# 1 86.0351 28.5523 30.4987 0.0000 -4.3875 0.0000
# 2 28.5523 42.2908 31.0957 0.0000 -3.4300 0.0000
# 3 30.4987 31.0957 71.4391 0.0000 -3.1980 0.0000
# 4 0.0000 0.0000 0.0000 26.7425 0.0000 -1.0653
# 5 -4.3875 -3.4300 -3.1980 0.0000 21.9001 0.0000
# 6 0.0000 0.0000 0.0000 -1.0653 0.0000 28.4421
#
#
#
# Elastic Compliance Matrix: (Units=1/GPa)
#
#
# Indices 1 2 3 4 5 6 
#
# 1 0.015450 -0.008110 -0.003004 0.000000 0.001387 0.000000
# 2 -0.008110 0.039265 -0.013515 0.000000 0.002551 0.000000
# 3 -0.003004 -0.013515 0.021180 0.000000 0.000374 0.000000
# 4 0.000000 0.000000 0.000000 0.037450 0.000000 0.001403
# 5 0.001387 0.002551 0.000374 0.000000 0.046394 0.000000
# 6 0.000000 0.000000 0.000000 0.001403 0.000000 0.035212
#
#
# Mechanical properties :
#
#
# Convention : Reuss Voigt Hill
#
# Bulk Modulus (GPa) = 37.54016 42.22872 39.88444
# Shear Modulus (GPa) = 19.75611 22.72484 21.24047
#
# Velocity S-wave (km/s) = 3.27318 3.51051 3.39392
# Velocity P-wave (km/s) = 5.88583 6.27154 6.08174
#
# Compressibility (1/GPa) = 0.02663814
#
# Stress axis : x y z
#
# Youngs Moduli (GPa) = 64.72438 25.46785 47.21508
#
# Poissons Ratio (x) = 0.20654 0.14183
# Poissons Ratio (y) = 0.52491 0.63810
# Poissons Ratio (z) = 0.19442 0.34419
#
# Static dielectric constant tensor:
#      x y z
#    x 3.609300 0.000000 -0.086970 
#    y 0.000000 3.151680 0.000000 
#    z -0.086970 0.000000 3.380330 
# 
# 
# High freq. dielectric constant tensor:
#      x y z
#    x 1.728270 0.000000 -0.000300 
#    y 0.000000 1.693910 0.000000 
#    z -0.000300 0.000000 1.710850 
# 
# From -- ./inp_files/338509.got.cif
#   From: 2010.06.25/outbox.cif.g09.slc.cpg/sg12_170_cif.got.tgz:338509.got - 2010.06.28 00:19:55.
