data_PCOD8090163
_publ_section_title
;
Structure prediction by ZEFSAII (Michael W. Deem and Ramdas Pophale) SiO2 
 PCOD8090163
Probable space group: C 2/M
;
_chemical_formula_sum "Si O2"
_cell_formula_units_Z 64
_cell_length_a 9.363982
_cell_length_b 27.255038
_cell_length_c 20.151776
_cell_angle_alpha 90.000000
_cell_angle_beta 140.177968
_cell_angle_gamma 90.000000
_cell_volume 3293.634916
_symmetry_space_group_name_H-M "C 2/M"
_symmetry_group_IT_number 12
_symmetry_cell_setting 'monoclinic'
loop_
_space_group_symop_operation_xyz
x,y,z
-x,y,-z
-x,-y,-z
x,-y,z
1/2+x,1/2+y,z
1/2-x,1/2+y,-z
1/2-x,1/2-y,-z
1/2+x,1/2-y,z
loop_
_atom_site_type_symbol
_atom_site_label
_atom_site_fract_x
_atom_site_fract_y
_atom_site_fract_z
Si Si1 0.450605 0.752601 0.828320
Si Si2 0.280970 0.110260 0.386793
Si Si3 0.902502 0.813862 0.235403
Si Si4 0.392787 0.942314 0.758952
Si Si5 0.662188 0.681687 0.005155
Si Si6 0.984091 0.442057 0.339905
Si Si7 0.092104 0.944277 0.432172
Si Si8 0.498548 0.115082 0.070509
O O1 0.200830 0.775544 0.747517
O O2 0.459960 0.715391 0.771004
O O3 0.519386 0.724619 0.920115
O O4 0.626385 0.796313 0.879337
O O5 0.500000 0.132980 0.500000
O O6 0.316148 0.092050 0.323238
O O7 0.211990 0.062151 0.403927
O O8 0.086968 0.149621 0.329920
O O9 0.693208 0.844512 0.133236
O O10 0.550102 0.931172 0.750888
O O11 0.483153 0.919391 0.859095
O O12 0.150798 0.918490 0.655570
O O13 0.379895 0.000000 0.767548
O O14 0.500000 0.655331 0.000000
O O15 0.757519 0.641654 0.988182
O O16 0.945689 0.500000 0.341669
O O17 0.238473 0.426331 0.449806
O O18 0.038119 0.000000 0.426962
O O19 0.500000 0.086034 0.000000
#
# Coordination Sequence:
#
# PCOD8090163 Si02
#       8
#     8   8   8   8   8   8   8   8
#     4  10  20  33  56  79 108 137 178 236 292 341
#     4  10  20  35  57  86 120 149 187 231 279 338
#     4  11  21  38  56  83 111 143 186 234 293 340
#     4  10  20  35  54  82 120 156 188 225 279 338
#     4  10  19  33  55  83 105 131 181 243 295 328
#     4   9  18  33  56  85 118 151 190 235 279 321
#     4   9  16  31  57  87 115 149 190 235 276 322
#     4  11  22  36  57  84 114 147 192 236 280 341
#
# _framework density 19.431419999999999
#
# number of rings (size 3 to 8) (size 9 to 14) (size 15 to 20)
#    0.000    2.000    3.750    0.750    0.000    4.250 
#    0.000    0.625    0.000    0.375    0.000    0.000 
#    0.000    0.000    0.000    0.000    0.000    0.000 
#
# Total GULP energy -396429.751928 kJ/mol
# GULP energy per Si atom -12388.429748 kJ/mol
# Density = 1.938719 g / cm^3
# Si number density = 19.431420 Si / 1000 Ang^3
#
#
#
# Elastic Constant Matrix: (Units=GPa)
#
#
# Indices 1 2 3 4 5 6 
#
# 1 134.0612 46.4897 57.2577 0.0000 -9.6987 0.0000
# 2 46.4897 56.3333 29.3526 0.0000 -3.8912 0.0000
# 3 57.2577 29.3526 59.4575 0.0001 -7.8177 -0.0001
# 4 0.0000 0.0000 0.0001 22.8357 0.0000 3.8633
# 5 -9.6987 -3.8912 -7.8177 0.0000 37.2289 0.0000
# 6 0.0000 0.0000 -0.0001 3.8633 0.0000 26.2945
#
#
#
# Elastic Compliance Matrix: (Units=1/GPa)
#
#
# Indices 1 2 3 4 5 6 
#
# 1 0.014113 -0.006146 -0.010446 0.000000 0.000841 0.000000
# 2 -0.006146 0.026575 -0.007247 0.000000 -0.000345 0.000000
# 3 -0.010446 -0.007247 0.030850 0.000000 0.002999 0.000000
# 4 0.000000 0.000000 0.000000 0.044907 0.000000 -0.006598
# 5 0.000841 -0.000345 0.002999 0.000000 0.027674 0.000000
# 6 0.000000 0.000000 0.000000 -0.006598 0.000000 0.039000
#
#
# Mechanical properties :
#
#
# Convention : Reuss Voigt Hill
#
# Bulk Modulus (GPa) = 41.90852 57.33908 49.62380
# Shear Modulus (GPa) = 20.94236 25.05529 22.99882
#
# Velocity S-wave (km/s) = 3.28648 3.59475 3.44407
# Velocity P-wave (km/s) = 6.00129 6.84121 6.43497
#
# Compressibility (1/GPa) = 0.02386150
#
# Stress axis : x y z
#
# Youngs Moduli (GPa) = 70.85705 37.62889 32.41459
#
# Poissons Ratio (x) = 0.23126 0.33861
# Poissons Ratio (y) = 0.43547 0.23489
# Poissons Ratio (z) = 0.74019 0.27268
#
# Static dielectric constant tensor:
#      x y z
#    x 3.807400 0.000000 0.066550 
#    y 0.000000 3.273510 0.000000 
#    z 0.066550 0.000000 3.299010 
# 
# 
# High freq. dielectric constant tensor:
#      x y z
#    x 1.777670 0.000000 -0.000360 
#    y 0.000000 1.722210 0.000000 
#    z -0.000360 0.000000 1.725110 
# 
# From -- ./inp_files/260389.got.cif
#   From: 2010.06.25/outbox.cif.g09.slc.cpg/sg12_131_cif.got.tgz:260389.got - 2010.06.28 00:19:55.
