data_PCOD8090027
_publ_section_title
;
Structure prediction by ZEFSAII (Michael W. Deem and Ramdas Pophale) SiO2 
 PCOD8090027
Probable space group: C 2/M
;
_chemical_formula_sum "Si O2"
_cell_formula_units_Z 56
_cell_length_a 14.950754
_cell_length_b 9.346690
_cell_length_c 26.249226
_cell_angle_alpha 90.000000
_cell_angle_beta 126.167812
_cell_angle_gamma 90.000000
_cell_volume 2961.202273
_symmetry_space_group_name_H-M "C 2/M"
_symmetry_group_IT_number 12
_symmetry_cell_setting 'monoclinic'
loop_
_space_group_symop_operation_xyz
x,y,z
-x,y,-z
-x,-y,-z
x,-y,z
1/2+x,1/2+y,z
1/2-x,1/2+y,-z
1/2-x,1/2-y,-z
1/2+x,1/2-y,z
loop_
_atom_site_type_symbol
_atom_site_label
_atom_site_fract_x
_atom_site_fract_y
_atom_site_fract_z
Si Si1 0.476735 0.164194 0.617044
Si Si2 0.830615 0.833412 0.850225
Si Si3 0.227824 0.668696 0.708757
Si Si4 0.392574 0.334462 0.496878
Si Si5 0.722207 0.833001 0.068898
Si Si6 0.695960 0.835951 0.359064
Si Si7 0.413576 0.664262 0.055923
O O1 0.601645 0.223754 0.660951
O O2 0.400548 0.249497 0.552100
O O3 0.424404 0.180628 0.655681
O O4 0.475800 0.000000 0.599265
O O5 0.772963 0.785331 0.778753
O O6 0.773035 0.741252 0.874786
O O7 0.960463 0.798774 0.888514
O O8 0.810330 0.000000 0.855180
O O9 0.236830 0.500000 0.704205
O O10 0.303437 0.743078 0.691730
O O11 0.500000 0.301959 0.500000
O O12 0.379869 0.500000 0.506661
O O13 0.287739 0.279059 0.429688
O O14 0.839822 0.805083 0.081068
O O15 0.697114 0.000000 0.066953
O O16 0.623206 0.764080 0.002937
O O17 0.721880 0.000000 0.353336
O O18 0.399669 0.500000 0.033569
#
# Coordination Sequence:
#
# PCOD8090027 Si02
#       7
#     8   8   8   8   8   8   8
#     4  10  21  36  55  79 106 136 173 218 267 312
#     4  10  21  37  55  75 106 145 179 210 256 314
#     4  10  22  38  54  76 105 140 180 218 255 307
#     4  10  19  33  55  80 106 135 171 216 265 316
#     4  10  20  34  55  84 110 133 172 221 261 302
#     4  10  21  37  55  77 106 138 173 217 267 315
#     4   9  19  36  56  78 108 143 173 208 260 315
#
# _framework density 18.911238999999998
#
# number of rings (size 3 to 8) (size 9 to 14) (size 15 to 20)
#    0.000    2.143    1.429    1.286    0.000    6.000 
#    0.000    0.000    0.000    0.000    0.000    0.000 
#    0.000    0.000    0.000    0.000    0.000    0.000 
#
# Total GULP energy -347322.225597 kJ/mol
# GULP energy per Si atom -12404.365200 kJ/mol
# Density = 1.886820 g / cm^3
# Si number density = 18.911239 Si / 1000 Ang^3
#
#
#
# Elastic Constant Matrix: (Units=GPa)
#
#
# Indices 1 2 3 4 5 6 
#
# 1 67.6308 34.4725 37.8594 0.0000 -16.7077 0.0000
# 2 34.4725 65.2509 52.9633 0.0000 -18.5322 0.0000
# 3 37.8594 52.9633 117.7377 0.0000 -24.8915 0.0000
# 4 0.0000 0.0000 0.0000 31.5476 0.0000 -10.6982
# 5 -16.7077 -18.5322 -24.8915 0.0000 26.3506 0.0000
# 6 0.0000 0.0000 0.0000 -10.6982 0.0000 29.0431
#
#
#
# Elastic Compliance Matrix: (Units=1/GPa)
#
#
# Indices 1 2 3 4 5 6 
#
# 1 0.021496 -0.007971 -0.002037 0.000000 0.006100 0.000000
# 2 -0.007971 0.028679 -0.008925 0.000000 0.006686 0.000000
# 3 -0.002037 -0.008925 0.014449 0.000000 0.006080 0.000000
# 4 0.000000 0.000000 0.000000 0.036223 0.000000 0.013343
# 5 0.006100 0.006686 0.006080 0.000000 0.052263 0.000000
# 6 0.000000 0.000000 0.000000 0.013343 0.000000 0.039347
#
#
# Mechanical properties :
#
#
# Convention : Reuss Voigt Hill
#
# Bulk Modulus (GPa) = 37.37039 55.68996 46.53017
# Shear Modulus (GPa) = 20.89942 25.74322 23.32132
#
# Velocity S-wave (km/s) = 3.32796 3.69354 3.51550
# Velocity P-wave (km/s) = 5.87970 6.90664 6.41376
#
# Compressibility (1/GPa) = 0.02675916
#
# Stress axis : x y z
#
# Youngs Moduli (GPa) = 46.51977 34.86844 69.21057
#
# Poissons Ratio (x) = 0.27793 0.14099
# Poissons Ratio (y) = 0.37079 0.61768
# Poissons Ratio (z) = 0.09477 0.31119
#
# Static dielectric constant tensor:
#      x y z
#    x 3.545780 0.000000 0.032630 
#    y 0.000000 3.390750 0.000000 
#    z 0.032630 0.000000 3.369930 
# 
# 
# High freq. dielectric constant tensor:
#      x y z
#    x 1.745730 0.000000 -0.002240 
#    y 0.000000 1.728050 0.000000 
#    z -0.002240 0.000000 1.726680 
# 
# From -- ./inp_files/308905.got.cif
#   From: 2010.06.25/outbox.cif.g09.slc.cpg/sg12_155_cif.got.tgz:308905.got - 2010.06.28 00:19:55.
