data_PCOD8090774
_publ_section_title
;
Structure prediction by ZEFSAII (Michael W. Deem and Ramdas Pophale) SiO2 
 PCOD8090774
Probable space group: C 2/M
;
_chemical_formula_sum "Si O2"
_cell_formula_units_Z 48
_cell_length_a 30.792886
_cell_length_b 8.174254
_cell_length_c 8.956639
_cell_angle_alpha 90.000000
_cell_angle_beta 86.722311
_cell_angle_gamma 90.000000
_cell_volume 2250.777543
_symmetry_space_group_name_H-M "C 2/M"
_symmetry_group_IT_number 12
_symmetry_cell_setting 'monoclinic'
loop_
_space_group_symop_operation_xyz
x,y,z
-x,y,-z
-x,-y,-z
x,-y,z
1/2+x,1/2+y,z
1/2-x,1/2+y,-z
1/2-x,1/2-y,-z
1/2+x,1/2-y,z
loop_
_atom_site_type_symbol
_atom_site_label
_atom_site_fract_x
_atom_site_fract_y
_atom_site_fract_z
Si Si1 0.677965 0.000000 0.672581
Si Si2 0.197732 0.176136 0.115987
Si Si3 0.989714 0.177423 0.831067
Si Si4 0.896111 0.500000 0.543512
Si Si5 0.891987 0.500000 0.056835
Si Si6 0.534039 0.000000 0.728646
Si Si7 0.105033 0.752115 0.200014
Si Si8 0.720148 0.686199 0.781870
O O1 0.645714 0.000000 0.816766
O O2 0.705732 0.170171 0.669415
O O3 0.650720 0.000000 0.525782
O O4 0.150395 0.151243 0.200108
O O5 0.227677 0.304166 0.200432
O O6 0.221596 0.000000 0.121344
O O7 0.195018 0.223936 0.941660
O O8 0.938521 0.144475 0.814415
O O9 0.005319 0.333090 0.729842
O O10 0.011686 0.000000 0.783856
O O11 0.000000 0.218671 0.000000
O O12 0.935800 0.500000 0.421109
O O13 0.900500 0.657394 0.645063
O O14 0.938869 0.500000 0.124961
O O15 0.888250 0.653417 0.952193
O O16 0.709845 0.500000 0.725324
#
# Coordination Sequence:
#
# PCOD8090774 Si02
#       8
#     4   8   8   4   4   4   8   8
#     4  11  20  44  60  93 124 169 217 265 303 387
#     4  10  20  35  61  96 127 159 208 267 320 373
#     4  11  23  39  68 102 128 161 214 267 322 377
#     4  10  27  40  66  90 132 172 222 251 327 374
#     4  10  19  33  67  85 119 166 206 265 317 346
#     4  11  21  46  63  94 126 172 210 266 309 390
#     4  11  21  39  60  94 126 169 205 267 309 381
#     4  10  21  35  63  97 123 160 210 266 319 373
#
# _framework density 21.325965
#
# number of rings (size 3 to 8) (size 9 to 14) (size 15 to 20)
#    0.000    1.500    4.167    1.750    3.500    1.333 
#    0.000    8.333    0.000    0.000    0.000    0.000 
#    0.000    0.000    0.000    0.000    0.000    0.000 
#
# Total GULP energy -297318.997760 kJ/mol
# GULP energy per Si atom -12388.291573 kJ/mol
# Density = 2.127743 g / cm^3
# Si number density = 21.325965 Si / 1000 Ang^3
#
#
#
# Elastic Constant Matrix: (Units=GPa)
#
#
# Indices 1 2 3 4 5 6 
#
# 1 121.2864 40.8122 30.6449 0.0000 4.2951 0.0000
# 2 40.8122 139.6466 25.8184 0.0000 7.2344 0.0000
# 3 30.6449 25.8184 73.7399 0.0000 11.6649 0.0000
# 4 0.0000 0.0000 0.0000 13.3764 0.0000 0.6361
# 5 4.2951 7.2344 11.6649 0.0000 24.4619 0.0000
# 6 0.0000 0.0000 0.0000 0.6361 0.0000 25.5833
#
#
#
# Elastic Compliance Matrix: (Units=1/GPa)
#
#
# Indices 1 2 3 4 5 6 
#
# 1 0.009847 -0.002282 -0.003382 0.000000 0.000558 0.000000
# 2 -0.002282 0.008211 -0.001737 0.000000 -0.001199 0.000000
# 3 -0.003382 -0.001737 0.016656 0.000000 -0.006835 0.000000
# 4 0.000000 0.000000 0.000000 0.074847 0.000000 -0.001861
# 5 0.000558 -0.001199 -0.006835 0.000000 0.044396 0.000000
# 6 0.000000 0.000000 0.000000 -0.001861 0.000000 0.039134
#
#
# Mechanical properties :
#
#
# Convention : Reuss Voigt Hill
#
# Bulk Modulus (GPa) = 50.21714 58.80267 54.50990
# Shear Modulus (GPa) = 23.30671 28.51080 25.90875
#
# Velocity S-wave (km/s) = 3.30946 3.66034 3.48931
# Velocity P-wave (km/s) = 6.18077 6.74516 6.46912
#
# Compressibility (1/GPa) = 0.01991352
#
# Stress axis : x y z
#
# Youngs Moduli (GPa) = 101.54962 121.78750 60.03835
#
# Poissons Ratio (x) = 0.27787 0.20304
# Poissons Ratio (y) = 0.23170 0.10429
# Poissons Ratio (z) = 0.34343 0.21154
#
# Static dielectric constant tensor:
#      x y z
#    x 3.928210 0.000000 0.122020 
#    y 0.000000 3.840510 0.000000 
#    z 0.122020 0.000000 3.522360 
# 
# 
# High freq. dielectric constant tensor:
#      x y z
#    x 1.842080 0.000000 0.007860 
#    y 0.000000 1.845010 0.000000 
#    z 0.007860 0.000000 1.803210 
# 
# From -- ./inp_files/108883.got.cif
#   From: 2010.06.25/outbox.cif.g09.slc.cpg/sg12_55_cif.got.tgz:108883.got - 2010.06.28 00:19:55.
