data_PCOD8090607
_publ_section_title
;
Structure prediction by ZEFSAII (Michael W. Deem and Ramdas Pophale) SiO2 
 PCOD8090607
Probable space group: C 2/M
;
_chemical_formula_sum "Si O2"
_cell_formula_units_Z 56
_cell_length_a 12.852746
_cell_length_b 15.404129
_cell_length_c 17.655085
_cell_angle_alpha 90.000000
_cell_angle_beta 117.410204
_cell_angle_gamma 90.000000
_cell_volume 3103.026260
_symmetry_space_group_name_H-M "C 2/M"
_symmetry_group_IT_number 12
_symmetry_cell_setting 'monoclinic'
loop_
_space_group_symop_operation_xyz
x,y,z
-x,y,-z
-x,-y,-z
x,-y,z
1/2+x,1/2+y,z
1/2-x,1/2+y,-z
1/2-x,1/2-y,-z
1/2+x,1/2-y,z
loop_
_atom_site_type_symbol
_atom_site_label
_atom_site_fract_x
_atom_site_fract_y
_atom_site_fract_z
Si Si1 0.101228 0.000000 0.635016
Si Si2 0.310984 0.674011 0.567358
Si Si3 0.071050 0.824580 0.685939
Si Si4 0.027259 0.236757 0.832962
Si Si5 0.829213 0.000000 0.503529
Si Si6 0.677372 0.900808 0.842130
Si Si7 0.269163 0.693451 0.728557
Si Si8 0.395410 0.403022 0.023039
O O1 0.131059 0.082943 0.694505
O O2 0.186353 0.000000 0.591512
O O3 0.965123 0.000000 0.569127
O O4 0.250000 0.750000 0.500000
O O5 0.449526 0.687941 0.600000
O O6 0.266023 0.584736 0.515531
O O7 0.286815 0.661494 0.648653
O O8 0.051081 0.819060 0.767458
O O9 0.161950 0.757427 0.683442
O O10 0.075432 0.334539 0.835661
O O11 0.093587 0.180087 0.918489
O O12 0.886972 0.240135 0.800062
O O13 0.730902 0.880024 0.776615
O O14 0.628875 0.000000 0.823119
O O15 0.775351 0.891570 0.938348
O O16 0.398284 0.500000 0.063217
O O17 0.500000 0.397770 0.000000
#
# Coordination Sequence:
#
# PCOD8090607 Si02
#       8
#     4   8   8   8   4   8   8   8
#     4   9  16  32  50  72 104 126 172 231 264 322
#     4  10  20  34  56  79 107 138 180 232 274 329
#     4   9  20  34  53  82 103 143 179 225 280 319
#     4  10  20  35  56  82 114 145 188 227 277 333
#     4   9  18  30  50  79  95 132 175 211 282 315
#     4  10  21  37  57  83 115 152 186 231 283 332
#     4  10  20  35  55  78 110 146 188 224 277 335
#     4  10  19  33  57  88 110 145 189 234 277 323
#
# _framework density 18.046899
#
# number of rings (size 3 to 8) (size 9 to 14) (size 15 to 20)
#    0.000    2.286    1.429    1.286    2.000    1.714 
#    1.286    0.000   12.571    1.286    0.000    0.000 
#    0.000    0.000    0.000    0.000    0.000    0.000 
#
# Total GULP energy -346916.649008 kJ/mol
# GULP energy per Si atom -12389.880322 kJ/mol
# Density = 1.800582 g / cm^3
# Si number density = 18.046899 Si / 1000 Ang^3
#
#
#
# Elastic Constant Matrix: (Units=GPa)
#
#
# Indices 1 2 3 4 5 6 
#
# 1 71.0634 53.8851 25.3969 0.0000 -0.1935 0.0000
# 2 53.8851 158.1802 66.8846 0.0000 -7.8722 0.0000
# 3 25.3969 66.8846 69.2246 0.0000 -1.0710 0.0000
# 4 0.0000 0.0000 0.0000 30.8683 0.0000 -9.0247
# 5 -0.1935 -7.8722 -1.0710 0.0000 18.1839 0.0000
# 6 0.0000 0.0000 0.0000 -9.0247 0.0000 -112.5400
#
#
#
# Elastic Compliance Matrix: (Units=1/GPa)
#
#
# Indices 1 2 3 4 5 6 
#
# 1 0.019146 -0.006191 -0.001081 0.000000 -0.002540 0.000000
# 2 -0.006191 0.012993 -0.010206 0.000000 0.004958 0.000000
# 3 -0.001081 -0.010206 0.024657 0.000000 -0.002978 0.000000
# 4 0.000000 0.000000 0.000000 0.031654 0.000000 -0.002538
# 5 -0.002540 0.004958 -0.002978 0.000000 0.056938 0.000000
# 6 0.000000 0.000000 0.000000 -0.002538 0.000000 -0.008682
#
#
# Mechanical properties :
#
#
# Convention : Reuss Voigt Hill
#
# Bulk Modulus (GPa) = 45.78894 65.64458 55.71676
# Shear Modulus (GPa) = 27.94180 -2.54413 12.69883
#
# Velocity S-wave (km/s) = 3.93910 -1.18861 2.65553
# Velocity P-wave (km/s) = 6.79087 5.87960 6.35160
#
# Compressibility (1/GPa) = 0.02183933
#
# Stress axis : x y z
#
# Youngs Moduli (GPa) = 52.22942 76.96315 40.55595
#
# Poissons Ratio (x) = 0.47651 0.04386
# Poissons Ratio (y) = 0.32338 0.41391
# Poissons Ratio (z) = 0.05648 0.78547
#
# Static dielectric constant tensor:
#      x y z
#    x 4.416100 0.000000 0.792210 
#    y 0.000000 4.384110 0.000000 
#    z 0.792210 0.000000 4.083000 
# 
# 
# High freq. dielectric constant tensor:
#      x y z
#    x 1.691840 0.000000 -0.008260 
#    y 0.000000 1.703130 0.000000 
#    z -0.008260 0.000000 1.696190 
# 
# From -- ./inp_files/263276.got.cif
#   From: 2010.06.25/outbox.cif.g09.slc.cpg/sg12_132_cif.got.tgz:263276.got - 2010.06.28 00:19:55.
