data_PCOD8090146
_publ_section_title
;
Structure prediction by ZEFSAII (Michael W. Deem and Ramdas Pophale) SiO2 
 PCOD8090146
Probable space group: C 2/M
;
_chemical_formula_sum "Si O2"
_cell_formula_units_Z 56
_cell_length_a 19.118753
_cell_length_b 13.664808
_cell_length_c 12.101093
_cell_angle_alpha 90.000000
_cell_angle_beta 97.630019
_cell_angle_gamma 90.000000
_cell_volume 3133.468811
_symmetry_space_group_name_H-M "C 2/M"
_symmetry_group_IT_number 12
_symmetry_cell_setting 'monoclinic'
loop_
_space_group_symop_operation_xyz
x,y,z
-x,y,-z
-x,-y,-z
x,-y,z
1/2+x,1/2+y,z
1/2-x,1/2+y,-z
1/2-x,1/2-y,-z
1/2+x,1/2-y,z
loop_
_atom_site_type_symbol
_atom_site_label
_atom_site_fract_x
_atom_site_fract_y
_atom_site_fract_z
Si Si1 0.679856 0.387542 0.153346
Si Si2 0.918965 0.725095 0.952610
Si Si3 0.165674 0.388086 0.881908
Si Si4 0.069470 0.611801 0.657761
Si Si5 0.576725 0.885022 0.269504
Si Si6 0.292251 0.612152 0.585128
Si Si7 0.647632 0.800349 0.487111
O O1 0.662672 0.500000 0.126296
O O2 0.615031 0.327493 0.089912
O O3 0.752336 0.357668 0.106688
O O4 0.685976 0.368114 0.284689
O O5 0.911701 0.647632 0.852985
O O6 0.876383 0.683141 0.046891
O O7 0.000000 0.743886 0.000000
O O8 0.156359 0.500000 0.920544
O O9 0.135791 0.377265 0.752406
O O10 0.060160 0.500000 0.615811
O O11 0.080450 0.679106 0.551574
O O12 0.000306 0.649107 0.706611
O O13 0.635202 0.836768 0.359987
O O14 0.585586 0.000000 0.275820
O O15 0.307274 0.500000 0.553851
O O16 0.336494 0.684193 0.513845
O O17 0.210335 0.636378 0.552943
#
# Coordination Sequence:
#
# PCOD8090146 Si02
#       7
#     8   8   8   8   8   8   8
#     4  10  21  40  60  80 110 152 199 234 272 336
#     4  12  23  37  57  85 117 150 189 237 287 336
#     4  10  20  36  59  83 112 150 188 228 283 341
#     4  10  19  33  55  82 112 149 183 223 281 347
#     4  11  22  34  53  86 118 145 180 228 290 343
#     4  10  20  35  57  82 110 145 186 229 279 336
#     4  11  20  34  57  83 112 142 185 229 278 335
#
# _framework density 17.871568
#
# number of rings (size 3 to 8) (size 9 to 14) (size 15 to 20)
#    0.000    1.429    4.286    2.571    0.000    2.000 
#    0.000    0.000    0.000    3.429    0.000    0.000 
#    0.000    0.000    0.000    0.000    0.000    0.000 
#
# Total GULP energy -347261.668490 kJ/mol
# GULP energy per Si atom -12402.202446 kJ/mol
# Density = 1.783089 g / cm^3
# Si number density = 17.871568 Si / 1000 Ang^3
#
#
#
# Elastic Constant Matrix: (Units=GPa)
#
#
# Indices 1 2 3 4 5 6 
#
# 1 61.1491 50.2448 25.0002 0.0000 -5.9407 0.0000
# 2 50.2448 100.3330 40.3993 0.0000 -1.0883 0.0000
# 3 25.0002 40.3993 76.1428 0.0000 2.9201 0.0000
# 4 0.0000 0.0000 0.0000 30.5664 0.0000 -0.8129
# 5 -5.9407 -1.0883 2.9201 0.0000 31.1939 0.0000
# 6 0.0000 0.0000 0.0000 -0.8129 0.0000 26.8816
#
#
#
# Elastic Compliance Matrix: (Units=1/GPa)
#
#
# Indices 1 2 3 4 5 6 
#
# 1 0.028924 -0.013380 -0.002600 0.000000 0.005285 0.000000
# 2 -0.013380 0.018900 -0.005582 0.000000 -0.001366 0.000000
# 3 -0.002600 -0.005582 0.017036 0.000000 -0.002285 0.000000
# 4 0.000000 0.000000 0.000000 0.032742 0.000000 0.000990
# 5 0.005285 -0.001366 -0.002285 0.000000 0.033230 0.000000
# 6 0.000000 0.000000 0.000000 0.000990 0.000000 0.037230
#
#
# Mechanical properties :
#
#
# Convention : Reuss Voigt Hill
#
# Bulk Modulus (GPa) = 46.00852 52.10151 49.05502
# Shear Modulus (GPa) = 22.89012 25.86042 24.37527
#
# Velocity S-wave (km/s) = 3.58273 3.80809 3.69713
# Velocity P-wave (km/s) = 6.55091 6.96793 6.76263
#
# Compressibility (1/GPa) = 0.02173510
#
# Stress axis : x y z
#
# Youngs Moduli (GPa) = 34.57287 52.90881 58.69775
#
# Poissons Ratio (x) = 0.70795 0.15263
# Poissons Ratio (y) = 0.46260 0.32767
# Poissons Ratio (z) = 0.08990 0.29536
#
# Static dielectric constant tensor:
#      x y z
#    x 3.299800 0.000000 0.055590 
#    y 0.000000 3.203390 0.000000 
#    z 0.055590 0.000000 3.318240 
# 
# 
# High freq. dielectric constant tensor:
#      x y z
#    x 1.689880 0.000000 0.004150 
#    y 0.000000 1.680260 0.000000 
#    z 0.004150 0.000000 1.698940 
# 
# From -- ./inp_files/164971.got.cif
#   From: 2010.06.25/outbox.cif.g09.slc.cpg/sg12_83_cif.got.tgz:164971.got - 2010.06.28 00:19:55.
