data_PCOD8090960
_publ_section_title
;
Structure prediction by ZEFSAII (Michael W. Deem and Ramdas Pophale) SiO2 
 PCOD8090960
Probable space group: C 2/M
;
_chemical_formula_sum "Si O2"
_cell_formula_units_Z 64
_cell_length_a 28.244043
_cell_length_b 9.118162
_cell_length_c 20.399403
_cell_angle_alpha 90.000000
_cell_angle_beta 43.449801
_cell_angle_gamma 90.000000
_cell_volume 3612.954665
_symmetry_space_group_name_H-M "C 2/M"
_symmetry_group_IT_number 12
_symmetry_cell_setting 'monoclinic'
loop_
_space_group_symop_operation_xyz
x,y,z
-x,y,-z
-x,-y,-z
x,-y,z
1/2+x,1/2+y,z
1/2-x,1/2+y,-z
1/2-x,1/2-y,-z
1/2+x,1/2-y,z
loop_
_atom_site_type_symbol
_atom_site_label
_atom_site_fract_x
_atom_site_fract_y
_atom_site_fract_z
Si Si1 0.318900 0.171235 0.812455
Si Si2 0.948574 0.166641 0.873360
Si Si3 0.819078 0.328731 0.051319
Si Si4 0.536182 0.829612 0.530241
Si Si5 0.546033 0.328413 0.892819
Si Si6 0.685885 0.167099 0.334381
Si Si7 0.678973 0.829401 0.798344
Si Si8 0.451636 0.668121 0.722349
O O1 0.247716 0.243222 0.907445
O O2 0.332283 0.202117 0.722546
O O3 0.380042 0.246191 0.790525
O O4 0.317101 0.000000 0.830988
O O5 0.978374 0.179924 0.770120
O O6 0.008426 0.213436 0.863156
O O7 0.924711 0.000000 0.912849
O O8 0.884052 0.273903 0.945286
O O9 0.807711 0.500000 0.050533
O O10 0.831880 0.292348 0.114509
O O11 0.500000 0.774240 0.500000
O O12 0.617825 0.802582 0.445047
O O13 0.509421 0.738019 0.618372
O O14 0.517815 0.000000 0.559652
O O15 0.560816 0.500000 0.884748
O O16 0.618647 0.246292 0.818143
O O17 0.500000 0.272515 0.000000
O O18 0.747131 0.268750 0.299523
O O19 0.710620 0.000000 0.316256
O O20 0.677155 0.000000 0.785202
O O21 0.439816 0.500000 0.713370
#
# Coordination Sequence:
#
# PCOD8090960 Si02
#       8
#     8   8   8   8   8   8   8   8
#     4  10  19  34  54  75 105 145 183 216 256 313
#     4  10  22  38  53  75 107 144 183 219 261 319
#     4  10  20  33  51  78 109 141 178 219 265 314
#     4  10  19  36  58  81 106 138 181 221 259 313
#     4  10  19  34  58  79 100 140 185 219 258 315
#     4   9  18  33  55  79 105 138 176 216 256 311
#     4  10  20  32  51  82 114 135 165 221 275 315
#     4  11  23  36  52  78 111 142 176 222 271 314
#
# _framework density 17.714032
#
# number of rings (size 3 to 8) (size 9 to 14) (size 15 to 20)
#    0.000    2.000    2.500    1.500    0.000    4.500 
#    0.000    0.000    0.000    0.750    0.000    0.000 
#    0.000    0.000    0.000    0.000    0.000    0.000 
#
# Total GULP energy -396941.259653 kJ/mol
# GULP energy per Si atom -12404.414364 kJ/mol
# Density = 1.767371 g / cm^3
# Si number density = 17.714032 Si / 1000 Ang^3
#
#
#
# Elastic Constant Matrix: (Units=GPa)
#
#
# Indices 1 2 3 4 5 6 
#
# 1 107.6367 51.8438 53.1130 0.0099 -6.6419 -0.0102
# 2 51.8438 90.0244 48.4011 -0.0174 -4.9701 0.0174
# 3 53.1130 48.4011 87.7517 -0.0035 -3.7348 -0.0026
# 4 0.0099 -0.0174 -0.0035 28.3702 0.0003 -4.8353
# 5 -6.6419 -4.9701 -3.7348 0.0003 22.6364 0.0015
# 6 -0.0102 0.0174 -0.0026 -4.8353 0.0015 25.3935
#
#
#
# Elastic Compliance Matrix: (Units=1/GPa)
#
#
# Indices 1 2 3 4 5 6 
#
# 1 0.014934 -0.005215 -0.006068 -0.000008 0.002236 0.000007
# 2 -0.005215 0.017706 -0.006556 0.000010 0.001276 -0.000013
# 3 -0.006068 -0.006556 0.018678 0.000001 -0.000138 0.000004
# 4 -0.000008 0.000010 0.000001 0.036431 -0.000001 0.006937
# 5 0.002236 0.001276 -0.000138 -0.000001 0.045090 -0.000003
# 6 0.000007 -0.000013 0.000004 0.006937 -0.000003 0.040701
#
#
# Mechanical properties :
#
#
# Convention : Reuss Voigt Hill
#
# Bulk Modulus (GPa) = 63.92751 65.79208 64.85979
# Shear Modulus (GPa) = 23.31753 24.08369 23.70061
#
# Velocity S-wave (km/s) = 3.63206 3.69125 3.66178
# Velocity P-wave (km/s) = 7.33186 7.44238 7.38732
#
# Compressibility (1/GPa) = 0.01564272
#
# Stress axis : x y z
#
# Youngs Moduli (GPa) = 66.95994 56.47734 53.53779
#
# Poissons Ratio (x) = 0.29451 0.32485
# Poissons Ratio (y) = 0.34918 0.35097
# Poissons Ratio (z) = 0.40630 0.37024
#
# Static dielectric constant tensor:
#      x y z
#    x 3.206850 -0.000070 -0.084550 
#    y -0.000070 3.294230 0.000050 
#    z -0.084550 0.000050 3.138620 
# 
# 
# High freq. dielectric constant tensor:
#      x y z
#    x 1.675350 0.000000 -0.012820 
#    y 0.000000 1.691310 0.000000 
#    z -0.012820 0.000000 1.669650 
# 
# From -- ./inp_files/295551.got.cif
#   From: 2010.06.25/outbox.cif.g09.slc.cpg/sg12_148_cif.got.tgz:295551.got - 2010.06.28 00:19:55.
