data_PCOD8090238
_publ_section_title
;
Structure prediction by ZEFSAII (Michael W. Deem and Ramdas Pophale) SiO2 
 PCOD8090238
Probable space group: C 2/M
;
_chemical_formula_sum "Si O2"
_cell_formula_units_Z 56
_cell_length_a 23.880611
_cell_length_b 9.018845
_cell_length_c 14.137499
_cell_angle_alpha 90.000000
_cell_angle_beta 96.287130
_cell_angle_gamma 90.000000
_cell_volume 3026.558190
_symmetry_space_group_name_H-M "C 2/M"
_symmetry_group_IT_number 12
_symmetry_cell_setting 'monoclinic'
loop_
_space_group_symop_operation_xyz
x,y,z
-x,y,-z
-x,-y,-z
x,-y,z
1/2+x,1/2+y,z
1/2-x,1/2+y,-z
1/2-x,1/2-y,-z
1/2+x,1/2-y,z
loop_
_atom_site_type_symbol
_atom_site_label
_atom_site_fract_x
_atom_site_fract_y
_atom_site_fract_z
Si Si1 0.324445 0.328582 0.261690
Si Si2 0.915248 0.674691 0.152205
Si Si3 0.301834 0.170434 0.809786
Si Si4 0.887546 0.828344 0.951557
Si Si5 0.971477 0.830957 0.796232
Si Si6 0.865666 0.830558 0.662897
Si Si7 0.196365 0.829578 0.532261
O O1 0.343905 0.500000 0.263563
O O2 0.369400 0.227099 0.218542
O O3 0.265138 0.309571 0.197254
O O4 0.320627 0.267216 0.368401
O O5 0.912148 0.500000 0.140722
O O6 0.976522 0.720354 0.201326
O O7 0.904467 0.747239 0.049548
O O8 0.329473 0.262751 0.900011
O O9 0.322917 0.226189 0.711744
O O10 0.319577 0.000000 0.824184
O O11 0.937708 0.803704 0.886792
O O12 0.877545 0.000000 0.972298
O O13 0.930411 0.793937 0.700339
O O14 0.993476 0.000000 0.795997
O O15 0.856190 0.808044 0.549234
O O16 0.852813 0.000000 0.691887
O O17 0.250000 0.750000 0.500000
O O18 0.213416 0.000000 0.547356
#
# Coordination Sequence:
#
# PCOD8090238 Si02
#       7
#     8   8   8   8   8   8   8
#     4  10  22  38  55  79 115 154 186 222 274 333
#     4  12  25  38  55  80 109 147 189 234 280 324
#     4  10  19  33  55  85 115 144 182 228 275 323
#     4  10  21  38  61  84 109 145 184 226 277 333
#     4   9  19  37  59  82 109 145 184 224 273 331
#     4   9  18  33  57  86 114 144 182 226 275 328
#     4  10  19  34  58  87 114 145 185 226 272 326
#
# _framework density 18.502866000000001
#
# number of rings (size 3 to 8) (size 9 to 14) (size 15 to 20)
#    0.000    2.000    1.429    3.429    0.000    6.857 
#    0.000    0.714    0.000    4.286    0.000    0.000 
#    0.000    0.000    0.000    0.000    0.000    0.000 
#
# Total GULP energy -347268.232764 kJ/mol
# GULP energy per Si atom -12402.436884 kJ/mol
# Density = 1.846075 g / cm^3
# Si number density = 18.502866 Si / 1000 Ang^3
#
#
#
# Elastic Constant Matrix: (Units=GPa)
#
#
# Indices 1 2 3 4 5 6 
#
# 1 108.6398 63.6135 56.6447 0.0000 9.1592 0.0000
# 2 63.6135 104.8992 -5.5631 0.0000 12.7369 0.0000
# 3 56.6447 -5.5631 -150.0129 0.0000 61.7531 0.0000
# 4 0.0000 0.0000 0.0000 27.0295 0.0000 0.0791
# 5 9.1592 12.7369 61.7531 0.0000 13.3143 0.0000
# 6 0.0000 0.0000 0.0000 0.0791 0.0000 32.7240
#
#
#
# Elastic Compliance Matrix: (Units=1/GPa)
#
#
# Indices 1 2 3 4 5 6 
#
# 1 0.013229 -0.006823 0.001440 0.000000 -0.009252 0.000000
# 2 -0.006823 0.013295 -0.002191 0.000000 0.002135 0.000000
# 3 0.001440 -0.002191 -0.001920 0.000000 0.010011 0.000000
# 4 0.000000 0.000000 0.000000 0.036997 0.000000 -0.000089
# 5 -0.009252 0.002135 0.010011 0.000000 0.032998 0.000000
# 6 0.000000 0.000000 0.000000 -0.000089 0.000000 0.030559
#
#
# Mechanical properties :
#
#
# Convention : Reuss Voigt Hill
#
# Bulk Modulus (GPa) = 105.74074 32.54626 69.14350
# Shear Modulus (GPa) = 34.85380 11.20229 23.02805
#
# Velocity S-wave (km/s) = 4.34487 2.46323 3.53167
# Velocity P-wave (km/s) = 9.07981 5.07129 7.35394
#
# Compressibility (1/GPa) = 0.00945709
#
# Stress axis : x y z
#
# Youngs Moduli (GPa) = 75.59147 75.21593 -520.78758
#
# Poissons Ratio (x) = 0.51318 0.74984
# Poissons Ratio (y) = 0.51574 -1.14079
# Poissons Ratio (z) = -0.10884 0.16476
#
# Static dielectric constant tensor:
#      x y z
#    x 3.343980 0.000000 0.239570 
#    y 0.000000 3.452060 0.000000 
#    z 0.239570 0.000000 3.568720 
# 
# 
# High freq. dielectric constant tensor:
#      x y z
#    x 1.710400 0.000000 0.019650 
#    y 0.000000 1.719270 0.000000 
#    z 0.019650 0.000000 1.719360 
# 
# From -- ./inp_files/230872.got.cif
#   From: 2010.06.25/outbox.cif.g09.slc.cpg/sg12_116_cif.got.tgz:230872.got - 2010.06.28 00:19:55.
