data_PCOD8090159
_publ_section_title
;
Structure prediction by ZEFSAII (Michael W. Deem and Ramdas Pophale) SiO2 
 PCOD8090159
Probable space group: C 2/M
;
_chemical_formula_sum "Si O2"
_cell_formula_units_Z 64
_cell_length_a 30.532555
_cell_length_b 9.107163
_cell_length_c 16.338137
_cell_angle_alpha 90.000000
_cell_angle_beta 135.623281
_cell_angle_gamma 90.000000
_cell_volume 3177.295701
_symmetry_space_group_name_H-M "C 2/M"
_symmetry_group_IT_number 12
_symmetry_cell_setting 'monoclinic'
loop_
_space_group_symop_operation_xyz
x,y,z
-x,y,-z
-x,-y,-z
x,-y,z
1/2+x,1/2+y,z
1/2-x,1/2+y,-z
1/2-x,1/2-y,-z
1/2+x,1/2-y,z
loop_
_atom_site_type_symbol
_atom_site_label
_atom_site_fract_x
_atom_site_fract_y
_atom_site_fract_z
Si Si1 0.219565 0.671584 0.617145
Si Si2 0.497133 0.826168 0.257938
Si Si3 0.121429 0.173720 0.380001
Si Si4 0.093899 0.671421 0.007321
Si Si5 0.323697 0.831735 0.259880
Si Si6 0.188311 0.165430 0.027340
Si Si7 0.136744 0.170705 0.213916
Si Si8 0.099471 0.831704 0.760440
O O1 0.210897 0.500000 0.584789
O O2 0.186203 0.769570 0.504197
O O3 0.190214 0.712135 0.665521
O O4 0.292305 0.714793 0.713289
O O5 0.565202 0.754620 0.351335
O O6 0.458425 0.760670 0.281974
O O7 0.502067 0.000000 0.276194
O O8 0.464387 0.783444 0.128114
O O9 0.120537 0.219204 0.283992
O O10 0.115848 0.000000 0.384459
O O11 0.096584 0.500000 0.024895
O O12 0.157770 0.721976 0.049702
O O13 0.088582 0.746842 0.088953
O O14 0.262097 0.803851 0.122445
O O15 0.379966 0.732125 0.300117
O O16 0.345198 0.000000 0.282284
O O17 0.176128 0.000000 0.044663
O O18 0.159470 0.185055 0.899287
O O19 0.125580 0.000000 0.186507
O O20 0.078488 0.000000 0.722439
#
# Coordination Sequence:
#
# PCOD8090159 Si02
#       8
#     8   8   8   8   8   8   8   8
#     4  10  21  39  61  84 116 155 190 230 284 344
#     4  10  22  41  60  81 116 156 194 235 284 343
#     4  11  24  40  61  86 111 148 196 244 288 334
#     4  10  20  33  56  88 117 149 189 238 284 332
#     4  10  19  33  55  82 115 154 190 225 279 346
#     4   9  17  32  52  78 117 157 186 224 281 346
#     4  10  21  39  61  86 118 152 186 229 291 353
#     4  10  20  33  55  85 116 150 190 236 282 330
#
# _framework density 20.142917000000001
#
# number of rings (size 3 to 8) (size 9 to 14) (size 15 to 20)
#    0.000    2.000    1.250    2.250    0.000    5.000 
#    0.000    3.125    0.000    3.750    0.000    0.000 
#    0.000    0.000    0.000    0.000    0.000    0.000 
#
# Total GULP energy -396891.821928 kJ/mol
# GULP energy per Si atom -12402.869435 kJ/mol
# Density = 2.009707 g / cm^3
# Si number density = 20.142917 Si / 1000 Ang^3
#
#
#
# Elastic Constant Matrix: (Units=GPa)
#
#
# Indices 1 2 3 4 5 6 
#
# 1 72.3647 26.7942 4.8753 0.0000 -6.2181 0.0000
# 2 26.7942 65.4219 14.4803 0.0000 0.7621 0.0000
# 3 4.8753 14.4803 21.4956 0.0000 6.1518 0.0000
# 4 0.0000 0.0000 0.0000 29.9980 0.0000 -4.8530
# 5 -6.2181 0.7621 6.1518 0.0000 17.7276 0.0000
# 6 0.0000 0.0000 0.0000 -4.8530 0.0000 31.5500
#
#
#
# Elastic Compliance Matrix: (Units=1/GPa)
#
#
# Indices 1 2 3 4 5 6 
#
# 1 0.016977 -0.006765 -0.001200 0.000000 0.006662 0.000000
# 2 -0.006765 0.020894 -0.012884 0.000000 0.001200 0.000000
# 3 -0.001200 -0.012884 0.061547 0.000000 -0.021225 0.000000
# 4 0.000000 0.000000 0.000000 0.034186 0.000000 0.005259
# 5 0.006662 0.001200 -0.021225 0.000000 0.066060 0.000000
# 6 0.000000 0.000000 0.000000 0.005259 0.000000 0.032505
#
#
# Mechanical properties :
#
#
# Convention : Reuss Voigt Hill
#
# Bulk Modulus (GPa) = 17.32504 27.95353 22.63928
# Shear Modulus (GPa) = 17.05867 23.39727 20.22797
#
# Velocity S-wave (km/s) = 2.91328 3.41187 3.17238
# Velocity P-wave (km/s) = 4.46498 5.42484 4.96814
#
# Compressibility (1/GPa) = 0.05771992
#
# Stress axis : x y z
#
# Youngs Moduli (GPa) = 58.90286 47.86084 16.24782
#
# Poissons Ratio (x) = 0.32379 0.01949
# Poissons Ratio (y) = 0.39849 0.20934
# Poissons Ratio (z) = 0.07067 0.61664
#
# Static dielectric constant tensor:
#      x y z
#    x 3.516580 0.000000 -0.065510 
#    y 0.000000 3.598660 0.000000 
#    z -0.065510 0.000000 3.574590 
# 
# 
# High freq. dielectric constant tensor:
#      x y z
#    x 1.783580 0.000000 -0.006580 
#    y 0.000000 1.785650 0.000000 
#    z -0.006580 0.000000 1.776010 
# 
# From -- ./inp_files/250050.got.cif
#   From: 2010.06.25/outbox.cif.g09.slc.cpg/sg12_126_cif.got.tgz:250050.got - 2010.06.28 00:19:55.
