data_PCOD8090913
_publ_section_title
;
Structure prediction by ZEFSAII (Michael W. Deem and Ramdas Pophale) SiO2 
 PCOD8090913
Probable space group: C 2/M
;
_chemical_formula_sum "Si O2"
_cell_formula_units_Z 48
_cell_length_a 17.138718
_cell_length_b 14.593679
_cell_length_c 19.052373
_cell_angle_alpha 90.000000
_cell_angle_beta 31.256968
_cell_angle_gamma 90.000000
_cell_volume 2472.616742
_symmetry_space_group_name_H-M "C 2/M"
_symmetry_group_IT_number 12
_symmetry_cell_setting 'monoclinic'
loop_
_space_group_symop_operation_xyz
x,y,z
-x,y,-z
-x,-y,-z
x,-y,z
1/2+x,1/2+y,z
1/2-x,1/2+y,-z
1/2-x,1/2-y,-z
1/2+x,1/2-y,z
loop_
_atom_site_type_symbol
_atom_site_label
_atom_site_fract_x
_atom_site_fract_y
_atom_site_fract_z
Si Si1 0.631755 0.699224 0.750171
Si Si2 0.609298 0.396473 0.982279
Si Si3 0.593765 0.101850 0.530525
Si Si4 0.178231 0.725098 0.262767
Si Si5 0.503036 0.603472 0.415523
Si Si6 0.803418 0.667316 0.411269
O O1 0.478448 0.643848 0.882828
O O2 0.746041 0.630442 0.624145
O O3 0.699554 0.736187 0.770594
O O4 0.598648 0.788607 0.727451
O O5 0.666802 0.500000 0.954435
O O6 0.500000 0.400635 0.000000
O O7 0.749236 0.328746 0.858940
O O8 0.464555 0.167423 0.599604
O O9 0.598332 0.103603 0.612747
O O10 0.554821 0.000000 0.535561
O O11 0.117283 0.826301 0.288569
O O12 0.500000 0.628942 0.500000
O O13 0.561401 0.500000 0.358761
O O14 0.336477 0.611798 0.512523
O O15 0.750000 0.750000 0.500000
#
# Coordination Sequence:
#
# PCOD8090913 Si02
#       6
#     8   8   8   8   8   8
#     4  10  19  34  55  79 113 142 181 217 271 322
#     4   9  19  33  53  81 114 147 175 216 275 331
#     4  11  21  32  55  83 111 141 175 223 272 325
#     4  11  19  35  55  82 110 138 181 228 271 316
#     4  11  20  34  57  81 106 141 186 229 270 314
#     4  10  19  34  53  78 111 141 175 223 272 318
#
# _framework density 19.412633
#
# number of rings (size 3 to 8) (size 9 to 14) (size 15 to 20)
#    0.000    1.667    5.000    2.000    0.000    2.667 
#    0.000    0.833    0.000    6.500    0.000    0.000 
#    0.000    0.000    0.000    0.000    0.000    0.000 
#
# Total GULP energy -297502.559474 kJ/mol
# GULP energy per Si atom -12395.939978 kJ/mol
# Density = 1.936845 g / cm^3
# Si number density = 19.412633 Si / 1000 Ang^3
#
#
#
# Elastic Constant Matrix: (Units=GPa)
#
#
# Indices 1 2 3 4 5 6 
#
# 1 37.4140 -5.8266 2.6545 -0.0004 4.3151 0.0001
# 2 -5.8266 134.1187 57.7724 0.0017 -4.6771 -0.0007
# 3 2.6545 57.7724 113.4079 0.0021 6.9270 -0.0003
# 4 -0.0004 0.0017 0.0021 30.4052 -0.0008 -0.6720
# 5 4.3151 -4.6771 6.9270 -0.0008 16.5443 0.0001
# 6 0.0001 -0.0007 -0.0003 -0.6720 0.0001 17.3378
#
#
#
# Elastic Compliance Matrix: (Units=1/GPa)
#
#
# Indices 1 2 3 4 5 6 
#
# 1 0.027757 0.001399 -0.000969 0.000000 -0.006439 0.000000
# 2 0.001399 0.010020 -0.005426 0.000000 0.004740 0.000000
# 3 -0.000969 -0.005426 0.011990 -0.000001 -0.006301 0.000000
# 4 0.000000 0.000000 -0.000001 0.032917 0.000002 0.001276
# 5 -0.006439 0.004740 -0.006301 0.000002 0.066101 0.000000
# 6 0.000000 0.000000 0.000000 0.001276 0.000000 0.057727
#
#
# Mechanical properties :
#
#
# Convention : Reuss Voigt Hill
#
# Bulk Modulus (GPa) = 25.14271 43.79348 34.46809
# Shear Modulus (GPa) = 21.76153 28.21346 24.98749
#
# Velocity S-wave (km/s) = 3.35176 3.81643 3.59162
# Velocity P-wave (km/s) = 5.28762 6.48293 5.91554
#
# Compressibility (1/GPa) = 0.03977295
#
# Stress axis : x y z
#
# Youngs Moduli (GPa) = 36.02683 99.80432 83.40533
#
# Poissons Ratio (x) = -0.13960 0.08082
# Poissons Ratio (y) = -0.05039 0.45259
# Poissons Ratio (z) = 0.03491 0.54158
#
# Static dielectric constant tensor:
#      x y z
#    x 4.393110 -0.001420 0.262510 
#    y -0.001420 0.222760 -0.000220 
#    z 0.262510 -0.000220 3.496590 
# 
# 
# High freq. dielectric constant tensor:
#      x y z
#    x 1.744280 0.000000 0.005250 
#    y 0.000000 1.757850 0.000000 
#    z 0.005250 0.000000 1.725000 
# 
# From -- ./inp_files/278019.got.cif
#   From: 2010.06.25/outbox.cif.g09.slc.cpg/sg12_140_cif.got.tgz:278019.got - 2010.06.28 00:19:55.
