data_PCOD8090119
_publ_section_title
;
Structure prediction by ZEFSAII (Michael W. Deem and Ramdas Pophale) SiO2 
 PCOD8090119
Probable space group: C 2/M
;
_chemical_formula_sum "Si O2"
_cell_formula_units_Z 56
_cell_length_a 26.791648
_cell_length_b 8.623608
_cell_length_c 13.403847
_cell_angle_alpha 90.000000
_cell_angle_beta 114.874484
_cell_angle_gamma 90.000000
_cell_volume 2809.544942
_symmetry_space_group_name_H-M "C 2/M"
_symmetry_group_IT_number 12
_symmetry_cell_setting 'monoclinic'
loop_
_space_group_symop_operation_xyz
x,y,z
-x,y,-z
-x,-y,-z
x,-y,z
1/2+x,1/2+y,z
1/2-x,1/2+y,-z
1/2-x,1/2-y,-z
1/2+x,1/2-y,z
loop_
_atom_site_type_symbol
_atom_site_label
_atom_site_fract_x
_atom_site_fract_y
_atom_site_fract_z
Si Si1 0.626405 0.681485 0.946480
Si Si2 0.697179 0.177917 0.831362
Si Si3 0.700747 0.183936 0.393563
Si Si4 0.303425 0.818906 0.836191
Si Si5 0.969940 0.316339 0.242769
Si Si6 0.910892 0.316150 0.603284
Si Si7 0.407061 0.178010 0.380552
O O1 0.632230 0.500000 0.934538
O O2 0.667110 0.771134 0.906499
O O3 0.563357 0.734037 0.874596
O O4 0.644094 0.729415 0.073140
O O5 0.749808 0.284282 0.857171
O O6 0.656404 0.198023 0.703576
O O7 0.716136 0.000000 0.858730
O O8 0.750000 0.250000 0.500000
O O9 0.706193 0.241507 0.284301
O O10 0.642717 0.249855 0.386136
O O11 0.702895 0.000000 0.401865
O O12 0.316587 0.000000 0.848371
O O13 0.959594 0.500000 0.226483
O O14 0.946782 0.250169 0.329090
O O15 0.034253 0.272355 0.288507
O O16 0.905495 0.500000 0.589278
O O17 0.915003 0.242394 0.495334
O O18 0.424167 0.000000 0.404559
#
# Coordination Sequence:
#
# PCOD8090119 Si02
#       7
#     8   8   8   8   8   8   8
#     4  11  22  36  54  77 107 140 175 218 270 325
#     4  10  19  33  55  82 110 140 175 217 268 321
#     4  10  22  38  57  81 109 142 179 221 264 312
#     4  11  22  36  53  76 107 142 182 223 265 313
#     4   9  17  31  53  80 108 138 175 219 263 312
#     4   9  16  30  53  79 106 139 180 219 258 309
#     4   8  14  25  48  81 109 133 166 210 258 311
#
# _framework density 19.932054000000001
#
# number of rings (size 3 to 8) (size 9 to 14) (size 15 to 20)
#    0.000    2.286    0.000    4.714    0.000    4.000 
#    0.000    1.429    0.000   12.000    0.000    0.000 
#    0.000    0.000    0.000    0.000    0.000    0.000 
#
# Total GULP energy -347168.149849 kJ/mol
# GULP energy per Si atom -12398.862495 kJ/mol
# Density = 1.988669 g / cm^3
# Si number density = 19.932054 Si / 1000 Ang^3
#
#
#
# Elastic Constant Matrix: (Units=GPa)
#
#
# Indices 1 2 3 4 5 6 
#
# 1 98.7116 17.0282 54.1175 0.0000 24.1400 0.0000
# 2 17.0282 45.3299 32.0299 0.0000 4.9246 0.0000
# 3 54.1175 32.0299 150.6110 0.0000 15.6563 0.0000
# 4 0.0000 0.0000 0.0000 25.1556 0.0000 5.7855
# 5 24.1400 4.9246 15.6563 0.0000 26.5290 0.0000
# 6 0.0000 0.0000 0.0000 5.7855 0.0000 19.3465
#
#
#
# Elastic Compliance Matrix: (Units=1/GPa)
#
#
# Indices 1 2 3 4 5 6 
#
# 1 0.015382 -0.001735 -0.003981 0.000000 -0.011325 0.000000
# 2 -0.001735 0.026226 -0.004914 0.000000 -0.000390 0.000000
# 3 -0.003981 -0.004914 0.009208 0.000000 -0.000900 0.000000
# 4 0.000000 0.000000 0.000000 0.042688 0.000000 -0.012766
# 5 -0.011325 -0.000390 -0.000900 0.000000 0.048604 0.000000
# 6 0.000000 0.000000 0.000000 -0.012766 0.000000 0.055506
#
#
# Mechanical properties :
#
#
# Convention : Reuss Voigt Hill
#
# Bulk Modulus (GPa) = 33.83155 55.66707 44.74931
# Shear Modulus (GPa) = 21.86015 26.97137 24.41576
#
# Velocity S-wave (km/s) = 3.31529 3.68253 3.50372
# Velocity P-wave (km/s) = 5.62718 6.78752 6.23440
#
# Compressibility (1/GPa) = 0.02955821
#
# Stress axis : x y z
#
# Youngs Moduli (GPa) = 65.01179 38.12939 108.59556
#
# Poissons Ratio (x) = 0.06616 0.43229
# Poissons Ratio (y) = 0.11280 0.53359
# Poissons Ratio (z) = 0.25879 0.18735
#
# Static dielectric constant tensor:
#      x y z
#    x 3.597940 0.000000 0.074690 
#    y 0.000000 3.238050 0.000000 
#    z 0.074690 0.000000 3.949350 
# 
# 
# High freq. dielectric constant tensor:
#      x y z
#    x 1.761950 0.000000 0.014660 
#    y 0.000000 1.740950 0.000000 
#    z 0.014660 0.000000 1.790810 
# 
# From -- ./inp_files/244328.got.cif
#   From: 2010.06.25/outbox.cif.g09.slc.cpg/sg12_123_cif.got.tgz:244328.got - 2010.06.28 00:19:55.
