data_PCOD8090021
_publ_section_title
;
Structure prediction by ZEFSAII (Michael W. Deem and Ramdas Pophale) SiO2 
 PCOD8090021
Probable space group: C 2/M
;
_chemical_formula_sum "Si O2"
_cell_formula_units_Z 48
_cell_length_a 20.478899
_cell_length_b 9.465420
_cell_length_c 14.706995
_cell_angle_alpha 90.000000
_cell_angle_beta 71.259366
_cell_angle_gamma 90.000000
_cell_volume 2699.681098
_symmetry_space_group_name_H-M "C 2/M"
_symmetry_group_IT_number 12
_symmetry_cell_setting 'monoclinic'
loop_
_space_group_symop_operation_xyz
x,y,z
-x,y,-z
-x,-y,-z
x,-y,z
1/2+x,1/2+y,z
1/2-x,1/2+y,-z
1/2-x,1/2-y,-z
1/2+x,1/2-y,z
loop_
_atom_site_type_symbol
_atom_site_label
_atom_site_fract_x
_atom_site_fract_y
_atom_site_fract_z
Si Si1 0.428016 0.834650 0.799365
Si Si2 0.315111 0.835082 0.505781
Si Si3 0.184599 0.332976 0.289793
Si Si4 0.583537 0.162276 0.697747
Si Si5 0.162356 0.162946 0.811411
Si Si6 0.568755 0.662442 0.020289
O O1 0.372612 0.771157 0.753010
O O2 0.502880 0.804685 0.723275
O O3 0.417347 0.756512 0.898753
O O4 0.416563 0.000000 0.822509
O O5 0.250000 0.750000 0.500000
O O6 0.333159 0.785119 0.599712
O O7 0.380953 0.800590 0.413985
O O8 0.295701 0.000000 0.512374
O O9 0.182884 0.500000 0.282709
O O10 0.260144 0.275757 0.227862
O O11 0.613516 0.255412 0.764613
O O12 0.596588 0.000000 0.718401
O O13 0.160895 0.000000 0.781795
O O14 0.134529 0.181906 0.925698
O O15 0.559165 0.500000 0.054560
O O16 0.500000 0.715663 0.000000
#
# Coordination Sequence:
#
# PCOD8090021 Si02
#       6
#     8   8   8   8   8   8
#     4  10  21  36  53  77 110 140 171 215 266 312
#     4  10  19  33  55  80 105 136 175 214 256 308
#     4   9  19  35  54  77 106 141 173 211 264 315
#     4  10  20  32  52  82 107 132 173 220 258 302
#     4  10  19  34  56  77 102 139 179 214 256 313
#     4  10  20  34  54  79 104 137 180 218 257 310
#
# _framework density 17.779876999999999
#
# number of rings (size 3 to 8) (size 9 to 14) (size 15 to 20)
#    0.000    2.167    3.333    0.000    0.000    2.333 
#    0.000    5.000    0.000    0.000    0.000    3.500 
#    0.000    0.000    0.000    0.000    0.000    0.000 
#
# Total GULP energy -297634.393101 kJ/mol
# GULP energy per Si atom -12401.433046 kJ/mol
# Density = 1.773941 g / cm^3
# Si number density = 17.779877 Si / 1000 Ang^3
#
#
#
# Elastic Constant Matrix: (Units=GPa)
#
#
# Indices 1 2 3 4 5 6 
#
# 1 117.9161 36.8681 53.4884 0.0000 12.0965 0.0000
# 2 36.8681 41.2514 38.3974 0.0000 5.8035 0.0000
# 3 53.4884 38.3974 120.3770 0.0000 5.1109 0.0000
# 4 0.0000 0.0000 0.0000 19.0068 0.0000 1.3417
# 5 12.0965 5.8035 5.1109 0.0000 36.7721 0.0000
# 6 0.0000 0.0000 0.0000 1.3417 0.0000 21.9295
#
#
#
# Elastic Compliance Matrix: (Units=1/GPa)
#
#
# Indices 1 2 3 4 5 6 
#
# 1 0.012615 -0.008263 -0.002866 0.000000 -0.002447 0.000000
# 2 -0.008263 0.040466 -0.009134 0.000000 -0.002399 0.000000
# 3 -0.002866 -0.009134 0.012467 0.000000 0.000652 0.000000
# 4 0.000000 0.000000 0.000000 0.052841 0.000000 -0.003233
# 5 -0.002447 -0.002399 0.000652 0.000000 0.028288 0.000000
# 6 0.000000 0.000000 0.000000 -0.003233 0.000000 0.045798
#
#
# Mechanical properties :
#
#
# Convention : Reuss Voigt Hill
#
# Bulk Modulus (GPa) = 39.96493 59.67248 49.81870
# Shear Modulus (GPa) = 20.71748 25.59438 23.15593
#
# Velocity S-wave (km/s) = 3.41724 3.79821 3.61275
# Velocity P-wave (km/s) = 6.17223 7.27117 6.74412
#
# Compressibility (1/GPa) = 0.02502194
#
# Stress axis : x y z
#
# Youngs Moduli (GPa) = 79.26960 24.71188 80.21387
#
# Poissons Ratio (x) = 0.20419 0.22988
# Poissons Ratio (y) = 0.65499 0.73271
# Poissons Ratio (z) = 0.22718 0.22573
#
# Static dielectric constant tensor:
#      x y z
#    x 3.503410 0.000000 -0.126830 
#    y 0.000000 3.130950 0.000000 
#    z -0.126830 0.000000 3.512090 
# 
# 
# High freq. dielectric constant tensor:
#      x y z
#    x 1.688890 0.000000 -0.009990 
#    y 0.000000 1.665650 0.000000 
#    z -0.009990 0.000000 1.700500 
# 
# From -- ./inp_files/229832.got.cif
#   From: 2010.06.25/outbox.cif.g09.slc.cpg/sg12_115_cif.got.tgz:229832.got - 2010.06.28 00:19:55.
