data_PCOD8090969
_publ_section_title
;
Structure prediction by ZEFSAII (Michael W. Deem and Ramdas Pophale) SiO2 
 PCOD8090969
Probable space group: C 2/M
;
_chemical_formula_sum "Si O2"
_cell_formula_units_Z 56
_cell_length_a 17.213141
_cell_length_b 28.600842
_cell_length_c 8.500118
_cell_angle_alpha 90.000000
_cell_angle_beta 46.810386
_cell_angle_gamma 90.000000
_cell_volume 3051.031220
_symmetry_space_group_name_H-M "C 2/M"
_symmetry_group_IT_number 12
_symmetry_cell_setting 'monoclinic'
loop_
_space_group_symop_operation_xyz
x,y,z
-x,y,-z
-x,-y,-z
x,-y,z
1/2+x,1/2+y,z
1/2-x,1/2+y,-z
1/2-x,1/2-y,-z
1/2+x,1/2-y,z
loop_
_atom_site_type_symbol
_atom_site_label
_atom_site_fract_x
_atom_site_fract_y
_atom_site_fract_z
Si Si1 0.880434 0.624489 0.721308
Si Si2 0.772153 0.690303 0.633962
Si Si3 0.711204 0.552903 0.852264
Si Si4 0.884090 0.628173 0.084586
Si Si5 0.297141 0.599058 0.451522
Si Si6 0.504662 0.446190 0.679662
Si Si7 0.620787 0.771662 0.807894
O O1 0.827594 0.671067 0.716549
O O2 0.816129 0.579950 0.755211
O O3 0.000000 0.620619 0.500000
O O4 0.882108 0.619429 0.904409
O O5 0.711552 0.648910 0.624378
O O6 0.685579 0.729289 0.795830
O O7 0.858812 0.717220 0.405225
O O8 0.730315 0.500000 0.874599
O O9 0.701581 0.557671 0.677856
O O10 0.605373 0.571229 0.088303
O O11 0.801591 0.594275 0.289969
O O12 0.846662 0.681605 0.146547
O O13 0.000000 0.620482 0.000000
O O14 0.406929 0.591702 0.392229
O O15 0.500000 0.443305 0.500000
O O16 0.529961 0.500000 0.696624
O O17 0.500000 0.757520 0.000000
#
# Coordination Sequence:
#
# PCOD8090969 Si02
#       7
#     8   8   8   8   8   8   8
#     4  11  21  36  57  79 104 136 177 219 266 319
#     4   9  20  33  52  80 104 135 176 215 257 312
#     4  10  21  36  55  79 105 136 175 218 264 317
#     4  10  20  36  56  77 105 141 177 218 264 313
#     4  10  19  34  54  76 106 141 177 214 262 314
#     4  10  20  34  53  78 108 140 174 216 264 314
#     4   9  17  34  54  75 107 138 168 210 261 309
#
# _framework density 18.354451000000001
#
# number of rings (size 3 to 8) (size 9 to 14) (size 15 to 20)
#    0.000    2.143    0.000    5.143    0.000    4.286 
#    0.000    0.714    0.000   12.429    0.000    0.000 
#    0.000    0.000    0.000    0.000    0.000    0.000 
#
# Total GULP energy -347033.299519 kJ/mol
# GULP energy per Si atom -12394.046411 kJ/mol
# Density = 1.831268 g / cm^3
# Si number density = 18.354451 Si / 1000 Ang^3
#
#
#
# Elastic Constant Matrix: (Units=GPa)
#
#
# Indices 1 2 3 4 5 6 
#
# 1 94.6114 34.6865 30.7106 0.0000 -1.4931 0.0000
# 2 34.6865 56.5415 34.1647 0.0000 -15.5196 0.0000
# 3 30.7106 34.1647 100.5430 0.0000 -3.9789 0.0000
# 4 0.0000 0.0000 0.0000 29.8934 0.0000 -2.8193
# 5 -1.4931 -15.5196 -3.9789 0.0000 37.3050 0.0000
# 6 0.0000 0.0000 0.0000 -2.8193 0.0000 19.4420
#
#
#
# Elastic Compliance Matrix: (Units=1/GPa)
#
#
# Indices 1 2 3 4 5 6 
#
# 1 0.014188 -0.008667 -0.001515 0.000000 -0.003199 0.000000
# 2 -0.008667 0.030592 -0.007289 0.000000 0.011602 0.000000
# 3 -0.001515 -0.007289 0.012817 0.000000 -0.001726 0.000000
# 4 0.000000 0.000000 0.000000 0.033916 0.000000 0.004918
# 5 -0.003199 0.011602 -0.001726 0.000000 0.031321 0.000000
# 6 0.000000 0.000000 0.000000 0.004918 0.000000 0.052148
#
#
# Mechanical properties :
#
#
# Convention : Reuss Voigt Hill
#
# Bulk Modulus (GPa) = 44.13899 50.09107 47.11503
# Shear Modulus (GPa) = 22.99106 27.47035 25.23071
#
# Velocity S-wave (km/s) = 3.54307 3.87286 3.71163
# Velocity P-wave (km/s) = 6.39047 6.88106 6.64030
#
# Compressibility (1/GPa) = 0.02265571
#
# Stress axis : x y z
#
# Youngs Moduli (GPa) = 70.48056 32.68871 78.01931
#
# Poissons Ratio (x) = 0.28330 0.11824
# Poissons Ratio (y) = 0.61082 0.56866
# Poissons Ratio (z) = 0.10681 0.23826
#
# Static dielectric constant tensor:
#      x y z
#    x 3.288980 0.000000 0.046740 
#    y 0.000000 3.337730 0.000000 
#    z 0.046740 0.000000 3.674820 
# 
# 
# High freq. dielectric constant tensor:
#      x y z
#    x 1.707650 0.000000 0.000130 
#    y 0.000000 1.700610 0.000000 
#    z 0.000130 0.000000 1.728360 
# 
# From -- ./inp_files/79175.got.cif
#   From: 2010.06.25/outbox.cif.g09.slc.cpg/sg12_40_cif.got.tgz:79175.got - 2010.06.28 00:19:55.
