data_PCOD8090315
_publ_section_title
;
Structure prediction by ZEFSAII (Michael W. Deem and Ramdas Pophale) SiO2 
 PCOD8090315
Probable space group: C 2/M
;
_chemical_formula_sum "Si O2"
_cell_formula_units_Z 64
_cell_length_a 14.520644
_cell_length_b 8.782269
_cell_length_c 27.110694
_cell_angle_alpha 90.000000
_cell_angle_beta 72.758360
_cell_angle_gamma 90.000000
_cell_volume 3301.910985
_symmetry_space_group_name_H-M "C 2/M"
_symmetry_group_IT_number 12
_symmetry_cell_setting 'monoclinic'
loop_
_space_group_symop_operation_xyz
x,y,z
-x,y,-z
-x,-y,-z
x,-y,z
1/2+x,1/2+y,z
1/2-x,1/2+y,-z
1/2-x,1/2-y,-z
1/2+x,1/2-y,z
loop_
_atom_site_type_symbol
_atom_site_label
_atom_site_fract_x
_atom_site_fract_y
_atom_site_fract_z
Si Si1 0.863321 0.319579 0.286504
Si Si2 0.182692 0.681906 0.364567
Si Si3 0.525877 0.178831 0.635671
Si Si4 0.721601 0.825689 0.881019
Si Si5 0.777583 0.319211 0.443736
Si Si6 0.591259 0.327343 0.095569
Si Si7 0.108046 0.321444 0.993127
Si Si8 0.600118 0.320502 0.822666
O O1 0.846571 0.500000 0.291203
O O2 0.761037 0.238518 0.312491
O O3 0.942421 0.267452 0.314580
O O4 0.903642 0.268340 0.227804
O O5 0.184420 0.500000 0.367097
O O6 0.205968 0.750185 0.414377
O O7 0.077551 0.746667 0.364370
O O8 0.611496 0.227782 0.584815
O O9 0.514323 0.000000 0.637222
O O10 0.836166 0.814511 0.869815
O O11 0.695683 0.723692 0.837836
O O12 0.688380 0.000000 0.877074
O O13 0.672434 0.757532 0.938278
O O14 0.765010 0.500000 0.445680
O O15 0.750000 0.250000 0.500000
O O16 0.577059 0.500000 0.081028
O O17 0.638058 0.242673 0.041498
O O18 0.489581 0.260367 0.130190
O O19 0.121137 0.500000 0.993968
O O20 0.000000 0.268625 0.000000
O O21 0.595592 0.500000 0.813254
#
# Coordination Sequence:
#
# PCOD8090315 Si02
#       8
#     8   8   8   8   8   8   8   8
#     4  10  21  39  59  80 108 144 180 224 277 330
#     4  10  19  36  60  85 111 145 189 234 274 323
#     4   8  18  36  58  81 110 148 188 224 272 330
#     4  10  21  38  56  78 108 141 175 216 267 325
#     4  10  20  36  55  83 120 157 193 230 274 322
#     4  10  22  37  55  79 108 139 176 221 268 316
#     4  10  19  33  56  81 106 139 177 213 261 326
#     4  11  23  38  55  80 108 138 178 225 272 321
#
# _framework density 19.382715000000001
#
# number of rings (size 3 to 8) (size 9 to 14) (size 15 to 20)
#    0.000    2.125    1.250    2.625    0.000    3.250 
#    0.000   12.500    0.000    0.000    0.000    0.000 
#    0.000    0.000    0.000    0.000    0.000    0.000 
#
# Total GULP energy -396779.905820 kJ/mol
# GULP energy per Si atom -12399.372057 kJ/mol
# Density = 1.933860 g / cm^3
# Si number density = 19.382715 Si / 1000 Ang^3
#
#
#
# Elastic Constant Matrix: (Units=GPa)
#
#
# Indices 1 2 3 4 5 6 
#
# 1 119.0888 36.6918 43.6748 0.0000 9.2830 0.0000
# 2 36.6918 58.7148 26.5465 0.0000 5.0909 0.0000
# 3 43.6748 26.5465 102.5190 0.0000 14.3000 0.0000
# 4 0.0000 0.0000 0.0000 34.6522 0.0000 3.0980
# 5 9.2830 5.0909 14.3000 0.0000 19.5199 0.0000
# 6 0.0000 0.0000 0.0000 3.0980 0.0000 26.7680
#
#
#
# Elastic Compliance Matrix: (Units=1/GPa)
#
#
# Indices 1 2 3 4 5 6 
#
# 1 0.011403 -0.005540 -0.003195 0.000000 -0.001638 0.000000
# 2 -0.005540 0.022022 -0.003240 0.000000 -0.000736 0.000000
# 3 -0.003195 -0.003240 0.012948 0.000000 -0.007121 0.000000
# 4 0.000000 0.000000 0.000000 0.029160 0.000000 -0.003375
# 5 -0.001638 -0.000736 -0.007121 0.000000 0.057417 0.000000
# 6 0.000000 0.000000 0.000000 -0.003375 0.000000 0.037749
#
#
# Mechanical properties :
#
#
# Convention : Reuss Voigt Hill
#
# Bulk Modulus (GPa) = 44.59559 54.90543 49.75051
# Shear Modulus (GPa) = 24.73756 27.74867 26.24312
#
# Velocity S-wave (km/s) = 3.57637 3.78778 3.68359
# Velocity P-wave (km/s) = 6.33338 6.89334 6.61929
#
# Compressibility (1/GPa) = 0.02242374
#
# Stress axis : x y z
#
# Youngs Moduli (GPa) = 87.69399 45.40953 77.23391
#
# Poissons Ratio (x) = 0.25155 0.24678
# Poissons Ratio (y) = 0.48578 0.25023
# Poissons Ratio (z) = 0.28020 0.14712
#
# Static dielectric constant tensor:
#      x y z
#    x 3.756760 0.000000 -0.014000 
#    y 0.000000 3.386560 0.000000 
#    z -0.014000 0.000000 3.510220 
# 
# 
# High freq. dielectric constant tensor:
#      x y z
#    x 1.762310 0.000000 0.003430 
#    y 0.000000 1.743480 0.000000 
#    z 0.003430 0.000000 1.751710 
# 
# From -- ./inp_files/359764.got.cif
#   From: 2010.06.25/outbox.cif.g09.slc.cpg/sg12_180_cif.got.tgz:359764.got - 2010.06.28 00:19:55.
