data_PCOD8090164
_publ_section_title
;
Structure prediction by ZEFSAII (Michael W. Deem and Ramdas Pophale) SiO2 
 PCOD8090164
Probable space group: C 2/M
;
_chemical_formula_sum "Si O2"
_cell_formula_units_Z 40
_cell_length_a 19.498697
_cell_length_b 18.739671
_cell_length_c 9.436163
_cell_angle_alpha 90.000000
_cell_angle_beta 39.705498
_cell_angle_gamma 90.000000
_cell_volume 2202.704333
_symmetry_space_group_name_H-M "C 2/M"
_symmetry_group_IT_number 12
_symmetry_cell_setting 'monoclinic'
loop_
_space_group_symop_operation_xyz
x,y,z
-x,y,-z
-x,-y,-z
x,-y,z
1/2+x,1/2+y,z
1/2-x,1/2+y,-z
1/2-x,1/2-y,-z
1/2+x,1/2-y,z
loop_
_atom_site_type_symbol
_atom_site_label
_atom_site_fract_x
_atom_site_fract_y
_atom_site_fract_z
Si Si1 0.486384 0.215896 0.688416
Si Si2 0.282968 0.770264 0.603976
Si Si3 0.271051 0.854452 0.103284
Si Si4 0.549334 0.500000 0.214141
Si Si5 0.137486 0.851278 0.031983
Si Si6 0.327586 0.500000 0.686068
O O1 0.500000 0.206881 0.500000
O O2 0.597920 0.196343 0.587767
O O3 0.457201 0.297172 0.775282
O O4 0.397759 0.160957 0.889395
O O5 0.250000 0.750000 0.500000
O O6 0.285428 0.702996 0.706066
O O7 0.197900 0.828325 0.793385
O O8 0.222385 0.850039 0.024398
O O9 0.250140 0.931958 0.203461
O O10 0.588523 0.428479 0.073766
O O11 0.419482 0.500000 0.419615
O O12 0.603514 0.500000 0.281121
#
# Coordination Sequence:
#
# PCOD8090164 Si02
#       6
#     8   8   8   4   8   4
#     4  11  18  33  58  76 106 143 180 225 271 312
#     4  11  22  35  54  81 112 141 180 228 274 318
#     4  10  19  34  55  81 106 140 186 222 265 333
#     4   9  18  30  54  81 114 139 177 229 277 311
#     4  10  19  33  55  83 106 141 184 223 267 332
#     4   9  18  32  53  83 109 141 180 229 270 319
#
# _framework density 18.159495
#
# number of rings (size 3 to 8) (size 9 to 14) (size 15 to 20)
#    0.000    1.800    4.000    2.400    2.800    3.200 
#    0.000    2.500    0.000    3.600    0.000    0.000 
#    0.000    0.000    0.000    0.000    0.000    0.000 
#
# Total GULP energy -248000.889049 kJ/mol
# GULP energy per Si atom -12400.044452 kJ/mol
# Density = 1.811816 g / cm^3
# Si number density = 18.159495 Si / 1000 Ang^3
#
#
#
# Elastic Constant Matrix: (Units=GPa)
#
#
# Indices 1 2 3 4 5 6 
#
# 1 77.4492 18.9345 55.6611 0.0000 -4.9126 0.0000
# 2 18.9345 143.2760 66.9515 0.0000 -12.9772 0.0000
# 3 55.6611 66.9515 125.9271 0.0000 -19.3339 0.0000
# 4 0.0000 0.0000 0.0000 22.9577 0.0000 -4.3174
# 5 -4.9126 -12.9772 -19.3339 0.0000 29.3033 0.0000
# 6 0.0000 0.0000 0.0000 -4.3174 0.0000 12.4751
#
#
#
# Elastic Compliance Matrix: (Units=1/GPa)
#
#
# Indices 1 2 3 4 5 6 
#
# 1 0.019470 0.001865 -0.009981 0.000000 -0.002495 0.000000
# 2 0.001865 0.009489 -0.005760 0.000000 0.000715 0.000000
# 3 -0.009981 -0.005760 0.016431 0.000000 0.006617 0.000000
# 4 0.000000 0.000000 0.000000 0.046591 0.000000 0.016124
# 5 -0.002495 0.000715 0.006617 0.000000 0.038390 0.000000
# 6 0.000000 0.000000 0.000000 0.016124 0.000000 0.085740
#
#
# Mechanical properties :
#
#
# Convention : Reuss Voigt Hill
#
# Bulk Modulus (GPa) = 56.69116 69.97183 63.33150
# Shear Modulus (GPa) = 20.02064 26.62088 23.32076
#
# Velocity S-wave (km/s) = 3.32398 3.83292 3.58749
# Velocity P-wave (km/s) = 6.78366 7.62915 7.21879
#
# Compressibility (1/GPa) = 0.01763943
#
# Stress axis : x y z
#
# Youngs Moduli (GPa) = 51.35991 105.38214 60.86129
#
# Poissons Ratio (x) = -0.19651 0.60744
# Poissons Ratio (y) = -0.09577 0.35054
# Poissons Ratio (z) = 0.51261 0.60696
#
# Static dielectric constant tensor:
#      x y z
#    x 3.123690 0.000000 -0.294200 
#    y 0.000000 3.395570 0.000000 
#    z -0.294200 0.000000 3.618210 
# 
# 
# High freq. dielectric constant tensor:
#      x y z
#    x 1.675550 0.000000 -0.017430 
#    y 0.000000 1.693140 0.000000 
#    z -0.017430 0.000000 1.714480 
# 
# From -- ./inp_files/48547.got.cif
#   From: 2010.06.25/outbox.cif.g09.slc.cpg/sg12_25_cif.got.tgz:48547.got - 2010.06.28 00:19:55.
