data_PCOD8090902
_publ_section_title
;
Structure prediction by ZEFSAII (Michael W. Deem and Ramdas Pophale) SiO2 
 PCOD8090902
Probable space group: C 2/M
;
_chemical_formula_sum "Si O2"
_cell_formula_units_Z 56
_cell_length_a 22.374925
_cell_length_b 9.148234
_cell_length_c 14.708846
_cell_angle_alpha 90.000000
_cell_angle_beta 110.228591
_cell_angle_gamma 90.000000
_cell_volume 2825.066692
_symmetry_space_group_name_H-M "C 2/M"
_symmetry_group_IT_number 12
_symmetry_cell_setting 'monoclinic'
loop_
_space_group_symop_operation_xyz
x,y,z
-x,y,-z
-x,-y,-z
x,-y,z
1/2+x,1/2+y,z
1/2-x,1/2+y,-z
1/2-x,1/2-y,-z
1/2+x,1/2-y,z
loop_
_atom_site_type_symbol
_atom_site_label
_atom_site_fract_x
_atom_site_fract_y
_atom_site_fract_z
Si Si1 0.458332 0.169739 0.755134
Si Si2 0.744482 0.829142 0.759494
Si Si3 0.947953 0.670890 0.545038
Si Si4 0.299971 0.824414 0.457037
Si Si5 0.113919 0.172033 0.144934
Si Si6 0.804780 0.670979 0.080727
Si Si7 0.930548 0.670863 0.049712
O O1 0.475237 0.207043 0.659786
O O2 0.400683 0.269535 0.760991
O O3 0.514723 0.214334 0.852060
O O4 0.439543 0.000000 0.753245
O O5 0.722162 0.762106 0.652580
O O6 0.813457 0.777077 0.832149
O O7 0.694390 0.787224 0.811908
O O8 0.748167 0.000000 0.744429
O O9 0.944512 0.500000 0.522913
O O10 0.874314 0.728740 0.503971
O O11 0.000000 0.738689 0.500000
O O12 0.250000 0.750000 0.500000
O O13 0.295759 0.000000 0.466409
O O14 0.103783 0.000000 0.133695
O O15 0.067182 0.246835 0.045840
O O16 0.794038 0.500000 0.063180
O O17 0.869442 0.725400 0.071566
O O18 0.750000 0.750000 0.000000
O O19 0.931048 0.500000 0.027142
#
# Coordination Sequence:
#
# PCOD8090902 Si02
#       7
#     8   8   8   8   8   8   8
#     4  10  21  36  54  79 109 139 175 221 268 315
#     4   9  19  33  53  79 107 138 173 215 267 319
#     4   9  19  35  58  86 111 140 184 234 276 320
#     4  10  20  36  59  84 111 143 182 228 275 327
#     4  11  21  35  54  78 108 143 179 216 259 319
#     4  10  19  34  53  76 105 139 176 217 264 315
#     4  10  21  34  53  78 107 141 176 218 266 315
#
# _framework density 19.82254
#
# number of rings (size 3 to 8) (size 9 to 14) (size 15 to 20)
#    0.000    2.143    1.429    1.714    2.000    2.286 
#    0.000    1.429    0.000    1.714    0.000    0.000 
#    0.000    0.000    0.000    0.000    0.000    0.000 
#
# Total GULP energy -346947.305565 kJ/mol
# GULP energy per Si atom -12390.975199 kJ/mol
# Density = 1.977742 g / cm^3
# Si number density = 19.822540 Si / 1000 Ang^3
#
#
#
# Elastic Constant Matrix: (Units=GPa)
#
#
# Indices 1 2 3 4 5 6 
#
# 1 116.7454 21.3363 51.5770 0.0000 -16.0566 0.0000
# 2 21.3363 28.9763 24.8451 0.0000 -2.6047 0.0000
# 3 51.5770 24.8451 138.7749 0.0000 -10.0546 0.0000
# 4 0.0000 0.0000 0.0000 19.3927 0.0000 -3.5820
# 5 -16.0566 -2.6047 -10.0546 0.0000 34.1597 0.0000
# 6 0.0000 0.0000 0.0000 -3.5820 0.0000 25.3786
#
#
#
# Elastic Compliance Matrix: (Units=1/GPa)
#
#
# Indices 1 2 3 4 5 6 
#
# 1 0.011448 -0.005515 -0.002972 0.000000 0.004086 0.000000
# 2 -0.005515 0.043458 -0.005802 0.000000 -0.000986 0.000000
# 3 -0.002972 -0.005802 0.009417 0.000000 0.000933 0.000000
# 4 0.000000 0.000000 0.000000 0.052946 0.000000 0.007473
# 5 0.004086 -0.000986 0.000933 0.000000 0.031394 0.000000
# 6 0.000000 0.000000 0.000000 0.007473 0.000000 0.040458
#
#
# Mechanical properties :
#
#
# Convention : Reuss Voigt Hill
#
# Bulk Modulus (GPa) = 27.97510 53.33483 40.65496
# Shear Modulus (GPa) = 21.77574 28.23541 25.00557
#
# Velocity S-wave (km/s) = 3.31801 3.77823 3.55557
# Velocity P-wave (km/s) = 5.36864 6.78218 6.11638
#
# Compressibility (1/GPa) = 0.03574607
#
# Stress axis : x y z
#
# Youngs Moduli (GPa) = 87.34946 23.01078 106.19481
#
# Poissons Ratio (x) = 0.12690 0.31556
# Poissons Ratio (y) = 0.48170 0.61617
# Poissons Ratio (z) = 0.25956 0.13351
#
# Static dielectric constant tensor:
#      x y z
#    x 3.698410 0.000000 0.010700 
#    y 0.000000 3.148970 0.000000 
#    z 0.010700 0.000000 3.757260 
# 
# 
# High freq. dielectric constant tensor:
#      x y z
#    x 1.789140 0.000000 -0.008730 
#    y 0.000000 1.727200 0.000000 
#    z -0.008730 0.000000 1.786760 
# 
# From -- ./inp_files/237803.got.cif
#   From: 2010.06.25/outbox.cif.g09.slc.cpg/sg12_119_cif.got.tgz:237803.got - 2010.06.28 00:19:55.
