data_PCOD8090868
_publ_section_title
;
Structure prediction by ZEFSAII (Michael W. Deem and Ramdas Pophale) SiO2 
 PCOD8090868
Probable space group: C 2/M
;
_chemical_formula_sum "Si O2"
_cell_formula_units_Z 60
_cell_length_a 28.635621
_cell_length_b 14.347515
_cell_length_c 11.339096
_cell_angle_alpha 90.000000
_cell_angle_beta 134.092534
_cell_angle_gamma 90.000000
_cell_volume 3345.934153
_symmetry_space_group_name_H-M "C 2/M"
_symmetry_group_IT_number 12
_symmetry_cell_setting 'monoclinic'
loop_
_space_group_symop_operation_xyz
x,y,z
-x,y,-z
-x,-y,-z
x,-y,z
1/2+x,1/2+y,z
1/2-x,1/2+y,-z
1/2-x,1/2-y,-z
1/2+x,1/2-y,z
loop_
_atom_site_type_symbol
_atom_site_label
_atom_site_fract_x
_atom_site_fract_y
_atom_site_fract_z
Si Si1 0.145397 0.294446 0.655337
Si Si2 0.102966 0.898289 0.072572
Si Si3 0.474329 0.788643 0.701301
Si Si4 0.981132 0.100013 0.306422
Si Si5 0.360064 0.606195 0.241156
Si Si6 0.779784 0.108753 0.867534
Si Si7 0.562069 0.895058 0.692269
Si Si8 0.500000 0.268678 0.000000
O O1 0.094785 0.328374 0.464286
O O2 0.153232 0.182299 0.680569
O O3 0.214377 0.333539 0.739408
O O4 0.121219 0.337983 0.737629
O O5 0.175798 0.863658 0.168299
O O6 0.104765 0.000000 0.137727
O O7 0.069756 0.907886 0.888255
O O8 0.064243 0.829745 0.090004
O O9 0.471507 0.684968 0.639262
O O10 0.538171 0.844100 0.769223
O O11 0.480844 0.793190 0.853778
O O12 0.937656 0.115415 0.348043
O O13 0.018987 0.000000 0.381591
O O14 0.344610 0.500000 0.255776
O O15 0.315280 0.633862 0.051930
O O16 0.763116 0.000000 0.834522
O O17 0.500000 0.896261 0.500000
O O18 0.585786 0.000000 0.762440
#
# Coordination Sequence:
#
# PCOD8090868 Si02
#       8
#     8   8   8   8   8   8   8   4
#     4  11  19  30  50  76 106 139 168 205 253 304
#     4   8  15  29  51  75  97 126 168 210 249 296
#     4  10  20  32  48  75 101 136 175 213 252 295
#     4   8  14  27  46  70 102 131 159 201 249 302
#     4   9  17  29  46  72 107 138 162 195 249 312
#     4   9  18  32  50  76 102 132 170 207 252 305
#     4   9  18  32  49  71 100 130 168 214 250 289
#     4  10  19  34  53  72 102 132 168 214 256 302
#
# _framework density 17.932212
#
# number of rings (size 3 to 8) (size 9 to 14) (size 15 to 20)
#    0.000    2.800    1.333    2.600    0.000    1.600 
#    0.000    2.333    0.000    0.000    0.000    0.000 
#    0.000    0.000    0.000    0.000    0.000    0.000 
#
# Total GULP energy -371781.173077 kJ/mol
# GULP energy per Si atom -12392.705769 kJ/mol
# Density = 1.789140 g / cm^3
# Si number density = 17.932212 Si / 1000 Ang^3
#
#
#
# Elastic Constant Matrix: (Units=GPa)
#
#
# Indices 1 2 3 4 5 6 
#
# 1 102.9918 39.4424 38.7218 0.0000 5.6375 0.0000
# 2 39.4424 82.4523 20.3286 0.0000 1.4807 0.0000
# 3 38.7218 20.3286 54.8926 0.0000 4.7989 0.0000
# 4 0.0000 0.0000 0.0000 17.5320 0.0000 1.0049
# 5 5.6375 1.4807 4.7989 0.0000 31.6383 0.0000
# 6 0.0000 0.0000 0.0000 1.0049 0.0000 15.7428
#
#
#
# Elastic Compliance Matrix: (Units=1/GPa)
#
#
# Indices 1 2 3 4 5 6 
#
# 1 0.014905 -0.004998 -0.008565 0.000000 -0.001123 0.000000
# 2 -0.004998 0.015023 -0.002082 0.000000 0.000503 0.000000
# 3 -0.008565 -0.002082 0.025223 0.000000 -0.002202 0.000000
# 4 0.000000 0.000000 0.000000 0.057248 0.000000 -0.003654
# 5 -0.001123 0.000503 -0.002202 0.000000 0.032118 0.000000
# 6 0.000000 0.000000 0.000000 -0.003654 0.000000 0.063754
#
#
# Mechanical properties :
#
#
# Convention : Reuss Voigt Hill
#
# Bulk Modulus (GPa) = 41.90936 48.59137 45.25037
# Shear Modulus (GPa) = 20.20066 22.43887 21.31977
#
# Velocity S-wave (km/s) = 3.35998 3.54123 3.45180
# Velocity P-wave (km/s) = 6.20277 6.62394 6.41681
#
# Compressibility (1/GPa) = 0.02386102
#
# Stress axis : x y z
#
# Youngs Moduli (GPa) = 67.08957 66.56240 39.64646
#
# Poissons Ratio (x) = 0.33270 0.33958
# Poissons Ratio (y) = 0.33534 0.08254
# Poissons Ratio (z) = 0.57464 0.13857
#
# Static dielectric constant tensor:
#      x y z
#    x 3.269800 0.000000 0.110170 
#    y 0.000000 3.597090 0.000000 
#    z 0.110170 0.000000 3.047230 
# 
# 
# High freq. dielectric constant tensor:
#      x y z
#    x 1.671270 0.000000 0.012410 
#    y 0.000000 1.691760 0.000000 
#    z 0.012410 0.000000 1.667460 
# 
# From -- ./inp_files/183253.got.cif
#   From: 2010.06.25/outbox.cif.g09.slc.cpg/sg12_92_cif.got.tgz:183253.got - 2010.06.28 00:19:55.
