data_PCOD8090643
_publ_section_title
;
Structure prediction by ZEFSAII (Michael W. Deem and Ramdas Pophale) SiO2 
 PCOD8090643
Probable space group: C 2/M
;
_chemical_formula_sum "Si O2"
_cell_formula_units_Z 60
_cell_length_a 11.850630
_cell_length_b 30.823540
_cell_length_c 10.626400
_cell_angle_alpha 90.000000
_cell_angle_beta 54.406709
_cell_angle_gamma 90.000000
_cell_volume 3156.391635
_symmetry_space_group_name_H-M "C 2/M"
_symmetry_group_IT_number 12
_symmetry_cell_setting 'monoclinic'
loop_
_space_group_symop_operation_xyz
x,y,z
-x,y,-z
-x,-y,-z
x,-y,z
1/2+x,1/2+y,z
1/2-x,1/2+y,-z
1/2-x,1/2-y,-z
1/2+x,1/2-y,z
loop_
_atom_site_type_symbol
_atom_site_label
_atom_site_fract_x
_atom_site_fract_y
_atom_site_fract_z
Si Si1 0.946284 0.950522 0.674772
Si Si2 0.151897 0.590444 0.872338
Si Si3 0.338352 0.854003 0.373000
Si Si4 0.712476 0.669227 0.089960
Si Si5 0.277604 0.313901 0.208704
Si Si6 0.869974 0.721540 0.167773
Si Si7 0.500000 0.164919 0.500000
Si Si8 0.079146 0.129614 0.696887
O O1 0.779912 0.943228 0.795832
O O2 0.000000 0.939577 0.500000
O O3 0.036017 0.921125 0.713862
O O4 0.977921 0.000000 0.690187
O O5 0.139214 0.607982 0.739697
O O6 0.180360 0.630116 0.949948
O O7 0.000000 0.569171 0.000000
O O8 0.369902 0.806102 0.296604
O O9 0.440361 0.864204 0.424309
O O10 0.178822 0.855537 0.519574
O O11 0.739491 0.709935 0.163730
O O12 0.559154 0.656747 0.227828
O O13 0.728803 0.683021 0.936023
O O14 0.368842 0.272931 0.196190
O O15 0.347661 0.358237 0.217197
O O16 0.124852 0.305925 0.364785
O O17 0.000000 0.707711 0.000000
#
# Coordination Sequence:
#
# PCOD8090643 Si02
#       8
#     8   8   8   8   8   8   4   8
#     4  10  20  37  61  88 112 139 183 232 284 342
#     4  10  19  33  58  84 114 146 178 229 277 333
#     4  10  20  36  52  79 110 143 192 225 280 324
#     4  10  20  34  55  77 108 150 190 228 272 325
#     4  11  22  36  52  77 109 148 193 227 279 327
#     4  11  22  34  53  74 109 146 191 240 271 317
#     4  10  22  34  52  70 103 140 180 232 271 328
#     4  10  21  35  57  81 110 148 181 232 276 341
#
# _framework density 19.009048
#
# number of rings (size 3 to 8) (size 9 to 14) (size 15 to 20)
#    0.000    1.733    1.333    4.800    0.000    4.533 
#    0.000    0.000    1.467    6.400    0.000   13.533 
#    0.000    0.000    0.000    0.000    0.000    0.000 
#
# Total GULP energy -371855.187783 kJ/mol
# GULP energy per Si atom -12395.172926 kJ/mol
# Density = 1.896578 g / cm^3
# Si number density = 19.009048 Si / 1000 Ang^3
#
#
#
# Elastic Constant Matrix: (Units=GPa)
#
#
# Indices 1 2 3 4 5 6 
#
# 1 104.1659 42.1215 43.3974 0.0000 2.7449 0.0000
# 2 42.1215 89.9005 27.6665 0.0000 5.3928 0.0000
# 3 43.3974 27.6665 97.7924 0.0000 -14.3096 0.0000
# 4 0.0000 0.0000 0.0000 20.7390 0.0000 -1.8184
# 5 2.7449 5.3928 -14.3096 0.0000 40.9221 0.0000
# 6 0.0000 0.0000 0.0000 -1.8184 0.0000 19.2255
#
#
#
# Elastic Compliance Matrix: (Units=1/GPa)
#
#
# Indices 1 2 3 4 5 6 
#
# 1 0.013660 -0.004731 -0.005023 0.000000 -0.002049 0.000000
# 2 -0.004731 0.014174 -0.002252 0.000000 -0.002338 0.000000
# 3 -0.005023 -0.002252 0.013896 0.000000 0.005493 0.000000
# 4 0.000000 0.000000 0.000000 0.048622 0.000000 0.004599
# 5 -0.002049 -0.002338 0.005493 0.000000 0.026803 0.000000
# 6 0.000000 0.000000 0.000000 0.004599 0.000000 0.052449
#
#
# Mechanical properties :
#
#
# Convention : Reuss Voigt Hill
#
# Bulk Modulus (GPa) = 56.44733 57.58105 57.01419
# Shear Modulus (GPa) = 25.05982 28.08888 26.57435
#
# Velocity S-wave (km/s) = 3.63479 3.84820 3.74302
# Velocity P-wave (km/s) = 6.88296 7.07828 6.98130
#
# Compressibility (1/GPa) = 0.01771563
#
# Stress axis : x y z
#
# Youngs Moduli (GPa) = 73.20598 70.55355 71.96386
#
# Poissons Ratio (x) = 0.33382 0.36149
# Poissons Ratio (y) = 0.34637 0.16209
# Poissons Ratio (z) = 0.36773 0.15891
#
# Static dielectric constant tensor:
#      x y z
#    x 3.707240 0.000000 -0.107820 
#    y 0.000000 3.200480 0.000000 
#    z -0.107820 0.000000 3.689230 
# 
# 
# High freq. dielectric constant tensor:
#      x y z
#    x 1.743880 0.000000 -0.012500 
#    y 0.000000 1.698490 0.000000 
#    z -0.012500 0.000000 1.756930 
# 
# From -- ./inp_files/137597.got.cif
#   From: 2010.06.25/outbox.cif.g09.slc.cpg/sg12_69_cif.got.tgz:137597.got - 2010.06.28 00:19:55.
