data_PCOD8090123
_publ_section_title
;
Structure prediction by ZEFSAII (Michael W. Deem and Ramdas Pophale) SiO2 
 PCOD8090123
Probable space group: C 2/M
;
_chemical_formula_sum "Si O2"
_cell_formula_units_Z 48
_cell_length_a 23.112423
_cell_length_b 9.092926
_cell_length_c 12.404413
_cell_angle_alpha 90.000000
_cell_angle_beta 110.793527
_cell_angle_gamma 90.000000
_cell_volume 2437.107121
_symmetry_space_group_name_H-M "C 2/M"
_symmetry_group_IT_number 12
_symmetry_cell_setting 'monoclinic'
loop_
_space_group_symop_operation_xyz
x,y,z
-x,y,-z
-x,-y,-z
x,-y,z
1/2+x,1/2+y,z
1/2-x,1/2+y,-z
1/2-x,1/2-y,-z
1/2+x,1/2-y,z
loop_
_atom_site_type_symbol
_atom_site_label
_atom_site_fract_x
_atom_site_fract_y
_atom_site_fract_z
Si Si1 0.593658 0.326367 0.818149
Si Si2 0.647034 0.165464 0.465584
Si Si3 0.429792 0.825192 0.976658
Si Si4 0.190226 0.827036 0.704951
Si Si5 0.504840 0.165448 0.381390
Si Si6 0.325043 0.174186 0.747392
O O1 0.592532 0.500000 0.835442
O O2 0.652619 0.275438 0.785480
O O3 0.531254 0.277826 0.717779
O O4 0.597830 0.246172 0.934548
O O5 0.660380 0.262060 0.577911
O O6 0.574894 0.164799 0.389233
O O7 0.678312 0.233444 0.378184
O O8 0.670409 0.000000 0.504688
O O9 0.385007 0.767348 0.851443
O O10 0.427554 0.000000 0.988674
O O11 0.500000 0.772344 0.000000
O O12 0.261681 0.776517 0.764903
O O13 0.185126 0.000000 0.687880
O O14 0.500000 0.222774 0.500000
O O15 0.476620 0.000000 0.353405
O O16 0.330518 0.000000 0.744646
#
# Coordination Sequence:
#
# PCOD8090123 Si02
#       6
#     8   8   8   8   8   8
#     4  11  23  36  54  82 117 149 180 222 276 334
#     4  10  19  34  58  84 109 141 186 233 273 318
#     4  10  21  40  64  83 104 140 188 234 276 322
#     4  10  21  36  53  79 116 150 179 218 275 333
#     4  10  19  33  55  82 110 141 184 231 270 316
#     4   9  19  36  57  80 108 145 186 228 273 323
#
# _framework density 19.695482999999999
#
# number of rings (size 3 to 8) (size 9 to 14) (size 15 to 20)
#    0.000    2.000    1.667    2.000    0.000    5.333 
#    0.000    1.667    0.000    0.000    0.000    0.000 
#    0.000    0.000    0.000    0.000    0.000    0.000 
#
# Total GULP energy -297586.528257 kJ/mol
# GULP energy per Si atom -12399.438677 kJ/mol
# Density = 1.965065 g / cm^3
# Si number density = 19.695483 Si / 1000 Ang^3
#
#
#
# Elastic Constant Matrix: (Units=GPa)
#
#
# Indices 1 2 3 4 5 6 
#
# 1 127.0199 29.5432 56.4211 0.0000 -9.5901 0.0000
# 2 29.5432 28.8047 26.9174 0.0000 -4.5080 0.0000
# 3 56.4211 26.9174 111.6520 0.0000 -17.3507 0.0000
# 4 0.0000 0.0000 0.0000 24.0266 0.0000 -6.8221
# 5 -9.5901 -4.5080 -17.3507 0.0000 35.7970 0.0000
# 6 0.0000 0.0000 0.0000 -6.8221 0.0000 19.2805
#
#
#
# Elastic Compliance Matrix: (Units=1/GPa)
#
#
# Indices 1 2 3 4 5 6 
#
# 1 0.011480 -0.008198 -0.003793 0.000000 0.000205 0.000000
# 2 -0.008198 0.050672 -0.008028 0.000000 0.000294 0.000000
# 3 -0.003793 -0.008028 0.013511 0.000000 0.004522 0.000000
# 4 0.000000 0.000000 0.000000 0.046269 0.000000 0.016372
# 5 0.000205 0.000294 0.004522 0.000000 0.030219 0.000000
# 6 0.000000 0.000000 0.000000 0.016372 0.000000 0.057659
#
#
# Mechanical properties :
#
#
# Convention : Reuss Voigt Hill
#
# Bulk Modulus (GPa) = 28.06932 54.80444 41.43688
# Shear Modulus (GPa) = 19.10422 26.12715 22.61568
#
# Velocity S-wave (km/s) = 3.11783 3.64614 3.39229
# Velocity P-wave (km/s) = 5.21955 6.75367 6.03555
#
# Compressibility (1/GPa) = 0.03562609
#
# Stress axis : x y z
#
# Youngs Moduli (GPa) = 87.11056 19.73462 74.01270
#
# Poissons Ratio (x) = 0.16178 0.28072
# Poissons Ratio (y) = 0.71409 0.59418
# Poissons Ratio (z) = 0.33040 0.15843
#
# Static dielectric constant tensor:
#      x y z
#    x 3.917280 0.000000 -0.087410 
#    y 0.000000 3.343770 0.000000 
#    z -0.087410 0.000000 3.623420 
# 
# 
# High freq. dielectric constant tensor:
#      x y z
#    x 1.783320 0.000000 -0.008460 
#    y 0.000000 1.738170 0.000000 
#    z -0.008460 0.000000 1.768010 
# 
# From -- ./inp_files/172879.got.cif
#   From: 2010.06.25/outbox.cif.g09.slc.cpg/sg12_87_cif.got.tgz:172879.got - 2010.06.28 00:19:55.
