data_PCOD8090173
_publ_section_title
;
Structure prediction by ZEFSAII (Michael W. Deem and Ramdas Pophale) SiO2 
 PCOD8090173
Probable space group: C 2/M
;
_chemical_formula_sum "Si O2"
_cell_formula_units_Z 64
_cell_length_a 13.902093
_cell_length_b 17.721449
_cell_length_c 27.817396
_cell_angle_alpha 90.000000
_cell_angle_beta 147.408008
_cell_angle_gamma 90.000000
_cell_volume 3691.518097
_symmetry_space_group_name_H-M "C 2/M"
_symmetry_group_IT_number 12
_symmetry_cell_setting 'monoclinic'
loop_
_space_group_symop_operation_xyz
x,y,z
-x,y,-z
-x,-y,-z
x,-y,z
1/2+x,1/2+y,z
1/2-x,1/2+y,-z
1/2-x,1/2-y,-z
1/2+x,1/2-y,z
loop_
_atom_site_type_symbol
_atom_site_label
_atom_site_fract_x
_atom_site_fract_y
_atom_site_fract_z
Si Si1 0.763008 0.201192 0.217950
Si Si2 0.844712 0.309804 0.473418
Si Si3 0.962354 0.913711 0.695579
Si Si4 0.171374 0.583793 0.763603
Si Si5 0.396326 0.253496 0.102516
Si Si6 0.695139 0.304861 0.104079
Si Si7 0.471761 0.585126 0.812834
Si Si8 0.063271 0.693687 0.381235
O O1 0.574157 0.207142 0.164602
O O2 0.729078 0.232380 0.150731
O O3 0.848973 0.118709 0.245303
O O4 0.900802 0.247778 0.308395
O O5 0.706283 0.373330 0.399188
O O6 0.923932 0.333593 0.558360
O O7 0.746797 0.229241 0.438769
O O8 0.000000 0.300290 0.500000
O O9 0.940740 0.903464 0.743429
O O10 0.957511 0.000000 0.677744
O O11 0.128531 0.500000 0.761904
O O12 0.276784 0.620464 0.852468
O O13 0.285590 0.588547 0.762781
O O14 0.982429 0.623445 0.672699
O O15 0.337153 0.202610 0.121913
O O16 0.413570 0.343477 0.120283
O O17 0.250000 0.250000 0.000000
O O18 0.500000 0.306009 0.000000
O O19 0.556966 0.500000 0.857619
#
# Coordination Sequence:
#
# PCOD8090173 Si02
#       8
#     8   8   8   8   8   8   8   8
#     4  10  20  35  56  79 110 147 185 223 278 331
#     4  10  20  32  55  82 111 140 186 233 272 325
#     4  10  21  36  55  83 117 149 178 226 288 339
#     4  10  20  35  54  78 110 146 183 228 283 329
#     4  12  21  35  60  83 108 146 191 230 269 333
#     4  11  20  34  55  81 107 141 191 232 270 323
#     4  10  19  33  55  83 111 141 180 233 284 323
#     4   9  19  34  51  80 107 142 184 225 275 328
#
# _framework density 17.337040999999999
#
# number of rings (size 3 to 8) (size 9 to 14) (size 15 to 20)
#    0.000    1.750    5.000    0.750    0.000    1.000 
#    0.000    1.875    0.000    2.625    0.000    0.000 
#    0.000    0.000    0.000    0.000    0.000    0.000 
#
# Total GULP energy -396552.769998 kJ/mol
# GULP energy per Si atom -12392.274062 kJ/mol
# Density = 1.729758 g / cm^3
# Si number density = 17.337041 Si / 1000 Ang^3
#
#
#
# Elastic Constant Matrix: (Units=GPa)
#
#
# Indices 1 2 3 4 5 6 
#
# 1 121.7870 47.7763 49.0783 0.0001 6.8725 0.0000
# 2 47.7763 110.9363 46.5858 -0.0001 -1.7087 0.0000
# 3 49.0783 46.5858 111.3780 0.0001 -5.2354 0.0001
# 4 0.0001 -0.0001 0.0001 20.0337 0.0000 3.8213
# 5 6.8725 -1.7087 -5.2354 0.0000 30.6700 0.0000
# 6 0.0000 0.0000 0.0001 3.8213 0.0000 22.8016
#
#
#
# Elastic Compliance Matrix: (Units=1/GPa)
#
#
# Indices 1 2 3 4 5 6 
#
# 1 0.011191 -0.003317 -0.003700 0.000000 -0.003324 0.000000
# 2 -0.003317 0.011919 -0.003485 0.000000 0.000812 0.000000
# 3 -0.003700 -0.003485 0.012194 0.000000 0.002717 0.000000
# 4 0.000000 0.000000 0.000000 0.051564 0.000000 -0.008642
# 5 -0.003324 0.000812 0.002717 0.000000 0.033859 0.000000
# 6 0.000000 0.000000 0.000000 -0.008642 0.000000 0.045305
#
#
# Mechanical properties :
#
#
# Convention : Reuss Voigt Hill
#
# Bulk Modulus (GPa) = 69.93432 70.10910 70.02171
# Shear Modulus (GPa) = 26.06831 28.07845 27.07338
#
# Velocity S-wave (km/s) = 3.88186 4.02875 3.95599
# Velocity P-wave (km/s) = 7.77930 7.88465 7.83215
#
# Compressibility (1/GPa) = 0.01429913
#
# Stress axis : x y z
#
# Youngs Moduli (GPa) = 89.35799 83.90071 82.00460
#
# Poissons Ratio (x) = 0.27829 0.30343
# Poissons Ratio (y) = 0.29639 0.28583
# Poissons Ratio (z) = 0.33064 0.29244
#
# Static dielectric constant tensor:
#      x y z
#    x 3.332450 0.000000 -0.045230 
#    y 0.000000 3.399560 0.000000 
#    z -0.045230 0.000000 3.329290 
# 
# 
# High freq. dielectric constant tensor:
#      x y z
#    x 1.671910 0.000000 -0.010360 
#    y 0.000000 1.661450 0.000000 
#    z -0.010360 0.000000 1.674530 
# 
# From -- ./inp_files/376806.got.cif
#   From: 2010.06.25/outbox.cif.g09.slc.cpg/sg12_189_cif.got.tgz:376806.got - 2010.06.28 00:19:55.
