data_PCOD8090605
_publ_section_title
;
Structure prediction by ZEFSAII (Michael W. Deem and Ramdas Pophale) SiO2 
 PCOD8090605
Probable space group: C 2/M
;
_chemical_formula_sum "Si O2"
_cell_formula_units_Z 56
_cell_length_a 12.891513
_cell_length_b 19.112323
_cell_length_c 12.352949
_cell_angle_alpha 90.000000
_cell_angle_beta 105.388057
_cell_angle_gamma 90.000000
_cell_volume 2934.492158
_symmetry_space_group_name_H-M "C 2/M"
_symmetry_group_IT_number 12
_symmetry_cell_setting 'monoclinic'
loop_
_space_group_symop_operation_xyz
x,y,z
-x,y,-z
-x,-y,-z
x,-y,z
1/2+x,1/2+y,z
1/2-x,1/2+y,-z
1/2-x,1/2-y,-z
1/2+x,1/2-y,z
loop_
_atom_site_type_symbol
_atom_site_label
_atom_site_fract_x
_atom_site_fract_y
_atom_site_fract_z
Si Si1 0.393861 0.851509 0.735067
Si Si2 0.788253 0.079961 0.722112
Si Si3 0.709153 0.079248 0.087364
Si Si4 0.608387 0.921199 0.838408
Si Si5 0.347457 0.304287 0.035808
Si Si6 0.383697 0.080913 0.511945
Si Si7 0.427915 0.297984 0.818290
O O1 0.336333 0.896208 0.811298
O O2 0.520797 0.867506 0.770566
O O3 0.348469 0.872926 0.605536
O O4 0.371352 0.769749 0.750091
O O5 0.723472 0.095357 0.815542
O O6 0.706771 0.094254 0.602014
O O7 0.889610 0.133125 0.740806
O O8 0.831250 0.000000 0.731576
O O9 0.811096 0.122990 0.077314
O O10 0.748669 0.000000 0.109251
O O11 0.616795 0.086788 0.970257
O O12 0.572768 0.000000 0.796171
O O13 0.444001 0.282185 0.144141
O O14 0.250000 0.250000 0.000000
O O15 0.392100 0.313418 0.929385
O O16 0.500000 0.105296 0.500000
O O17 0.389363 0.000000 0.548280
#
# Coordination Sequence:
#
# PCOD8090605 Si02
#       7
#     8   8   8   8   8   8   8
#     4  12  22  34  57  91 125 155 197 250 307 367
#     4  10  21  40  62  85 118 159 209 255 294 351
#     4  11  22  35  57  87 120 157 197 252 302 362
#     4  10  19  33  57  87 120 153 192 247 305 357
#     4  11  22  41  57  85 124 160 199 233 303 372
#     4  10  20  37  62  89 120 162 204 252 303 351
#     4  11  25  36  62  88 118 164 194 248 306 361
#
# _framework density 19.083369000000001
#
# number of rings (size 3 to 8) (size 9 to 14) (size 15 to 20)
#    0.000    1.286    4.286    2.571    2.000    2.286 
#    0.000    1.429    0.000    0.000    0.000    3.000 
#    0.000    0.000    0.000    0.000    0.000    0.000 
#
# Total GULP energy -347151.773577 kJ/mol
# GULP energy per Si atom -12398.277628 kJ/mol
# Density = 1.903993 g / cm^3
# Si number density = 19.083369 Si / 1000 Ang^3
#
#
#
# Elastic Constant Matrix: (Units=GPa)
#
#
# Indices 1 2 3 4 5 6 
#
# 1 72.4229 43.7350 37.5864 0.0000 9.1475 0.0000
# 2 43.7350 122.6527 50.8159 0.0000 2.0428 0.0000
# 3 37.5864 50.8159 106.5061 0.0000 -5.1375 0.0000
# 4 0.0000 0.0000 0.0000 19.9865 0.0000 4.4268
# 5 9.1475 2.0428 -5.1375 0.0000 26.6589 0.0000
# 6 0.0000 0.0000 0.0000 4.4268 0.0000 33.6591
#
#
#
# Elastic Compliance Matrix: (Units=1/GPa)
#
#
# Indices 1 2 3 4 5 6 
#
# 1 0.020516 -0.005030 -0.005210 0.000000 -0.007658 0.000000
# 2 -0.005030 0.011474 -0.003693 0.000000 0.000135 0.000000
# 3 -0.005210 -0.003693 0.013213 0.000000 0.004617 0.000000
# 4 0.000000 0.000000 0.000000 0.051535 0.000000 -0.006778
# 5 -0.007658 0.000135 0.004617 0.000000 0.041018 0.000000
# 6 0.000000 0.000000 0.000000 -0.006778 0.000000 0.030601
#
#
# Mechanical properties :
#
#
# Convention : Reuss Voigt Hill
#
# Bulk Modulus (GPa) = 57.67756 62.87293 60.27524
# Shear Modulus (GPa) = 24.75222 27.35719 26.05471
#
# Velocity S-wave (km/s) = 3.60538 3.79035 3.69902
# Velocity P-wave (km/s) = 6.90081 7.22313 7.06381
#
# Compressibility (1/GPa) = 0.01733777
#
# Stress axis : x y z
#
# Youngs Moduli (GPa) = 48.74186 87.15067 75.68555
#
# Poissons Ratio (x) = 0.43832 0.39432
# Poissons Ratio (y) = 0.24515 0.27952
# Poissons Ratio (z) = 0.25395 0.32186
#
# Static dielectric constant tensor:
#      x y z
#    x 3.113950 0.000000 -0.052980 
#    y 0.000000 3.586630 0.000000 
#    z -0.052980 0.000000 3.479550 
# 
# 
# High freq. dielectric constant tensor:
#      x y z
#    x 1.720320 0.000000 -0.001250 
#    y 0.000000 1.745540 0.000000 
#    z -0.001250 0.000000 1.735820 
# 
# From -- ./inp_files/133847.got.cif
#   From: 2010.06.25/outbox.cif.g09.slc.cpg/sg12_67_cif.got.tgz:133847.got - 2010.06.28 00:19:55.
