data_PCOD8090407
_publ_section_title
;
Structure prediction by ZEFSAII (Michael W. Deem and Ramdas Pophale) SiO2 
 PCOD8090407
Probable space group: C 2/M
;
_chemical_formula_sum "Si O2"
_cell_formula_units_Z 48
_cell_length_a 21.354274
_cell_length_b 8.732915
_cell_length_c 20.341114
_cell_angle_alpha 90.000000
_cell_angle_beta 141.708170
_cell_angle_gamma 90.000000
_cell_volume 2350.591880
_symmetry_space_group_name_H-M "C 2/M"
_symmetry_group_IT_number 12
_symmetry_cell_setting 'monoclinic'
loop_
_space_group_symop_operation_xyz
x,y,z
-x,y,-z
-x,-y,-z
x,-y,z
1/2+x,1/2+y,z
1/2-x,1/2+y,-z
1/2-x,1/2-y,-z
1/2+x,1/2-y,z
loop_
_atom_site_type_symbol
_atom_site_label
_atom_site_fract_x
_atom_site_fract_y
_atom_site_fract_z
Si Si1 0.274141 0.319665 0.200179
Si Si2 0.247548 0.680007 0.425419
Si Si3 0.342246 0.321008 0.116782
Si Si4 0.440386 0.167084 0.014746
Si Si5 0.386254 0.317322 0.420128
Si Si6 0.457212 0.678108 0.787529
O O1 0.263312 0.500000 0.201533
O O2 0.343870 0.279020 0.195229
O O3 0.318954 0.249713 0.304485
O O4 0.164762 0.251955 0.091794
O O5 0.257656 0.500000 0.441757
O O6 0.250000 0.750000 0.500000
O O7 0.337895 0.737958 0.450370
O O8 0.141125 0.721172 0.305723
O O9 0.332051 0.500000 0.096343
O O10 0.451514 0.263267 0.183298
O O11 0.250000 0.250000 0.000000
O O12 0.505265 0.289478 0.108339
O O13 0.423053 0.000000 0.036699
O O14 0.500000 0.126311 0.000000
O O15 0.500000 0.256119 0.500000
O O16 0.386488 0.500000 0.418846
O O17 0.431353 0.500000 0.755761
#
# Coordination Sequence:
#
# PCOD8090407 Si02
#       6
#     8   8   8   8   8   8
#     4   9  17  31  53  82 115 149 191 245 295 345
#     4  11  24  42  65  92 122 157 201 250 305 364
#     4  10  20  34  56  85 119 155 198 244 296 357
#     4  10  19  33  56  83 113 153 199 244 297 361
#     4   9  19  36  62  91 116 149 200 255 300 350
#     4  11  23  37  57  87 122 156 196 245 303 366
#
# _framework density 20.420387999999999
#
# number of rings (size 3 to 8) (size 9 to 14) (size 15 to 20)
#    0.000    2.000    1.667    2.000    2.333    3.667 
#    0.000    0.000    0.000    3.000    0.000    0.000 
#    0.000    0.000    0.000    0.000    0.000    0.000 
#
# Total GULP energy -297399.423016 kJ/mol
# GULP energy per Si atom -12391.642626 kJ/mol
# Density = 2.037391 g / cm^3
# Si number density = 20.420388 Si / 1000 Ang^3
#
#
#
# Elastic Constant Matrix: (Units=GPa)
#
#
# Indices 1 2 3 4 5 6 
#
# 1 162.7241 29.1423 69.9908 0.0000 2.5227 0.0000
# 2 29.1423 31.6819 17.4815 0.0000 -0.4909 0.0000
# 3 69.9908 17.4815 137.8562 0.0000 -1.9399 0.0000
# 4 0.0000 0.0000 0.0000 30.1055 0.0000 -5.6480
# 5 2.5227 -0.4909 -1.9399 0.0000 42.1900 0.0000
# 6 0.0000 0.0000 0.0000 -5.6480 0.0000 26.6529
#
#
#
# Elastic Compliance Matrix: (Units=1/GPa)
#
#
# Indices 1 2 3 4 5 6 
#
# 1 0.008855 -0.006097 -0.003734 0.000000 -0.000772 0.000000
# 2 -0.006097 0.038138 -0.001730 0.000000 0.000729 0.000000
# 3 -0.003734 -0.001730 0.009378 0.000000 0.000634 0.000000
# 4 0.000000 0.000000 0.000000 0.034592 0.000000 0.007330
# 5 -0.000772 0.000729 0.000634 0.000000 0.023786 0.000000
# 6 0.000000 0.000000 0.000000 0.007330 0.000000 0.039073
#
#
# Mechanical properties :
#
#
# Convention : Reuss Voigt Hill
#
# Bulk Modulus (GPa) = 30.07610 62.83239 46.45425
# Shear Modulus (GPa) = 26.59189 34.16619 30.37904
#
# Velocity S-wave (km/s) = 3.61255 4.09484 3.86123
# Velocity P-wave (km/s) = 5.67108 7.29337 6.53278
#
# Compressibility (1/GPa) = 0.03324899
#
# Stress axis : x y z
#
# Youngs Moduli (GPa) = 112.92856 26.22033 106.63438
#
# Poissons Ratio (x) = 0.15987 0.39812
# Poissons Ratio (y) = 0.68855 0.18452
# Poissons Ratio (z) = 0.42162 0.04537
#
# Static dielectric constant tensor:
#      x y z
#    x 4.271960 0.000000 0.065200 
#    y 0.000000 3.493930 0.000000 
#    z 0.065200 0.000000 3.809670 
# 
# 
# High freq. dielectric constant tensor:
#      x y z
#    x 1.817100 0.000000 0.003190 
#    y 0.000000 1.753640 0.000000 
#    z 0.003190 0.000000 1.801320 
# 
# From -- ./inp_files/320307.got.cif
#   From: 2010.06.25/outbox.cif.g09.slc.cpg/sg12_161_cif.got.tgz:320307.got - 2010.06.28 00:19:55.
