data_PCOD8090909
_publ_section_title
;
Structure prediction by ZEFSAII (Michael W. Deem and Ramdas Pophale) SiO2 
 PCOD8090909
Probable space group: C 2/M
;
_chemical_formula_sum "Si O2"
_cell_formula_units_Z 56
_cell_length_a 12.068119
_cell_length_b 19.006720
_cell_length_c 16.356981
_cell_angle_alpha 90.000000
_cell_angle_beta 60.158363
_cell_angle_gamma 90.000000
_cell_volume 3254.403263
_symmetry_space_group_name_H-M "C 2/M"
_symmetry_group_IT_number 12
_symmetry_cell_setting 'monoclinic'
loop_
_space_group_symop_operation_xyz
x,y,z
-x,y,-z
-x,-y,-z
x,-y,z
1/2+x,1/2+y,z
1/2-x,1/2+y,-z
1/2-x,1/2-y,-z
1/2+x,1/2-y,z
loop_
_atom_site_type_symbol
_atom_site_label
_atom_site_fract_x
_atom_site_fract_y
_atom_site_fract_z
Si Si1 0.064306 0.580823 0.102442
Si Si2 0.114325 0.176304 0.273382
Si Si3 0.384532 0.918850 0.599011
Si Si4 0.673234 0.345161 0.588868
Si Si5 0.302057 0.919071 0.112933
Si Si6 0.941902 0.335261 0.736151
Si Si7 0.265303 0.809167 0.383173
O O1 0.062626 0.500000 0.131654
O O2 0.104557 0.629311 0.163118
O O3 0.925062 0.602717 0.120869
O O4 0.168592 0.592145 0.993376
O O5 0.183865 0.130242 0.179171
O O6 0.106715 0.255656 0.244263
O O7 0.190214 0.170995 0.329667
O O8 0.974415 0.144103 0.336625
O O9 0.500000 0.890358 0.500000
O O10 0.252036 0.909372 0.598928
O O11 0.377363 0.875050 0.684661
O O12 0.405344 0.000000 0.613383
O O13 0.730995 0.274439 0.607038
O O14 0.689330 0.344660 0.485476
O O15 0.265955 0.000000 0.143423
O O16 0.093853 0.341524 0.671899
#
# Coordination Sequence:
#
# PCOD8090909 Si02
#       7
#     8   8   8   8   8   8   8
#     4   9  18  35  58  80 103 141 180 224 278 326
#     4  11  21  33  57  83 109 143 179 226 280 315
#     4  11  22  36  53  78 113 148 184 223 259 312
#     4  10  21  34  53  76 110 150 181 210 270 324
#     4   9  19  36  57  79 107 138 178 227 280 328
#     4  11  20  33  58  81 109 141 186 224 269 320
#     4  10  19  34  53  77 109 143 181 226 256 320
#
# _framework density 17.207456000000001
#
# number of rings (size 3 to 8) (size 9 to 14) (size 15 to 20)
#    0.000    1.857    4.286    1.714    0.000    1.143 
#    0.000    0.714    0.000    2.571    0.000    3.000 
#    0.000    0.000    0.000    0.000    0.000    0.000 
#
# Total GULP energy -347306.308492 kJ/mol
# GULP energy per Si atom -12403.796732 kJ/mol
# Density = 1.716829 g / cm^3
# Si number density = 17.207456 Si / 1000 Ang^3
#
#
#
# Elastic Constant Matrix: (Units=GPa)
#
#
# Indices 1 2 3 4 5 6 
#
# 1 80.3285 34.5854 44.1913 0.0000 -7.5529 0.0000
# 2 34.5854 67.9625 53.9693 0.0000 -6.5634 0.0000
# 3 44.1913 53.9693 115.1269 0.0000 -4.2465 0.0000
# 4 0.0000 0.0000 0.0000 28.0279 0.0000 -5.6840
# 5 -7.5529 -6.5634 -4.2465 0.0000 26.4622 0.0000
# 6 0.0000 0.0000 0.0000 -5.6840 0.0000 22.2641
#
#
#
# Elastic Compliance Matrix: (Units=1/GPa)
#
#
# Indices 1 2 3 4 5 6 
#
# 1 0.017213 -0.005279 -0.004024 0.000000 0.002958 0.000000
# 2 -0.005279 0.025504 -0.009810 0.000000 0.003245 0.000000
# 3 -0.004024 -0.009810 0.014784 0.000000 -0.001209 0.000000
# 4 0.000000 0.000000 0.000000 0.037627 0.000000 0.009606
# 5 0.002958 0.003245 -0.001209 0.000000 0.039245 0.000000
# 6 0.000000 0.000000 0.000000 0.009606 0.000000 0.047368
#
#
# Mechanical properties :
#
#
# Convention : Reuss Voigt Hill
#
# Bulk Modulus (GPa) = 51.87459 58.76775 55.32117
# Shear Modulus (GPa) = 22.08572 24.06231 23.07402
#
# Velocity S-wave (km/s) = 3.58648 3.74353 3.66585
# Velocity P-wave (km/s) = 6.88204 7.27406 7.08076
#
# Compressibility (1/GPa) = 0.01927726
#
# Stress axis : x y z
#
# Youngs Moduli (GPa) = 58.09450 39.21016 67.63855
#
# Poissons Ratio (x) = 0.20699 0.27215
# Poissons Ratio (y) = 0.30668 0.66351
# Poissons Ratio (z) = 0.23375 0.38464
#
# Static dielectric constant tensor:
#      x y z
#    x 3.093640 0.000000 0.007530 
#    y 0.000000 3.072560 0.000000 
#    z 0.007530 0.000000 3.184480 
# 
# 
# High freq. dielectric constant tensor:
#      x y z
#    x 1.657810 0.000000 0.005470 
#    y 0.000000 1.656350 0.000000 
#    z 0.005470 0.000000 1.666140 
# 
# From -- ./inp_files/206079.got.cif
#   From: 2010.06.25/outbox.cif.g09.slc.cpg/sg12_104_cif.got.tgz:206079.got - 2010.06.28 00:19:55.
