data_PCOD8090706
_publ_section_title
;
Structure prediction by ZEFSAII (Michael W. Deem and Ramdas Pophale) SiO2 
 PCOD8090706
Probable space group: C 2/M
;
_chemical_formula_sum "Si O2"
_cell_formula_units_Z 56
_cell_length_a 20.091830
_cell_length_b 12.770444
_cell_length_c 24.389548
_cell_angle_alpha 90.000000
_cell_angle_beta 27.857385
_cell_angle_gamma 90.000000
_cell_volume 2924.147938
_symmetry_space_group_name_H-M "C 2/M"
_symmetry_group_IT_number 12
_symmetry_cell_setting 'monoclinic'
loop_
_space_group_symop_operation_xyz
x,y,z
-x,y,-z
-x,-y,-z
x,-y,z
1/2+x,1/2+y,z
1/2-x,1/2+y,-z
1/2-x,1/2-y,-z
1/2+x,1/2-y,z
loop_
_atom_site_type_symbol
_atom_site_label
_atom_site_fract_x
_atom_site_fract_y
_atom_site_fract_z
Si Si1 0.371912 0.622795 0.051152
Si Si2 0.151181 0.619162 0.711363
Si Si3 0.712606 0.219719 0.466982
Si Si4 0.098165 0.779014 0.088489
Si Si5 0.884777 0.117262 0.625960
Si Si6 0.406267 0.242149 0.712857
Si Si7 0.987882 0.114212 0.266508
O O1 0.359700 0.500000 0.046866
O O2 0.220905 0.660036 0.186102
O O3 0.500000 0.645335 0.000000
O O4 0.405025 0.688118 0.972443
O O5 0.122101 0.500000 0.711738
O O6 0.257110 0.677998 0.592248
O O7 0.228720 0.616628 0.713218
O O8 0.002930 0.679339 0.826625
O O9 0.750000 0.250000 0.500000
O O10 0.547031 0.184355 0.585700
O O11 0.819042 0.125035 0.376177
O O12 0.054302 0.877000 0.157815
O O13 0.250000 0.750000 0.000000
O O14 0.861761 0.174387 0.699985
O O15 0.000000 0.169661 0.500000
O O16 0.939391 0.000000 0.599124
O O17 0.446038 0.299269 0.740917
O O18 0.019233 0.000000 0.268324
#
# Coordination Sequence:
#
# PCOD8090706 Si02
#       7
#     8   8   8   8   8   8   8
#     4  11  25  44  65  88 123 169 212 255 303 361
#     4  10  21  37  60  88 120 156 195 246 308 369
#     4   9  20  34  52  84 119 150 192 243 302 359
#     4  11  22  43  61  88 118 159 211 258 302 353
#     4  10  19  33  58  90 121 156 191 234 304 374
#     4  11  20  38  61  89 122 158 200 250 300 362
#     4  10  21  37  59  86 119 155 194 251 311 358
#
# _framework density 19.150877999999999
#
# number of rings (size 3 to 8) (size 9 to 14) (size 15 to 20)
#    0.000    1.714    2.857    1.714    0.000    4.000 
#    0.000    0.000    0.000    3.429    0.000    0.000 
#    0.000    0.000    0.000    0.000    0.000    0.000 
#
# Total GULP energy -346981.640719 kJ/mol
# GULP energy per Si atom -12392.201454 kJ/mol
# Density = 1.910729 g / cm^3
# Si number density = 19.150878 Si / 1000 Ang^3
#
#
#
# Elastic Constant Matrix: (Units=GPa)
#
#
# Indices 1 2 3 4 5 6 
#
# 1 99.5565 31.6267 47.0133 -0.0080 -1.5715 0.0015
# 2 31.6267 80.6845 43.8876 -0.0246 -6.8315 0.0015
# 3 47.0133 43.8876 136.3272 -0.0174 -12.3181 0.0011
# 4 -0.0080 -0.0246 -0.0174 20.8348 0.0047 0.7415
# 5 -1.5715 -6.8315 -12.3181 0.0047 40.7244 0.0003
# 6 0.0015 0.0015 0.0011 0.7415 0.0003 26.8073
#
#
#
# Elastic Compliance Matrix: (Units=1/GPa)
#
#
# Indices 1 2 3 4 5 6 
#
# 1 0.012664 -0.003185 -0.003440 -0.000002 -0.001086 0.000000
# 2 -0.003185 0.015873 -0.003888 0.000014 0.001364 -0.000001
# 3 -0.003440 -0.003888 0.009975 0.000002 0.002232 0.000000
# 4 -0.000002 0.000014 0.000002 0.048044 -0.000003 -0.001329
# 5 -0.001086 0.001364 0.002232 -0.000003 0.025417 0.000000
# 6 0.000000 -0.000001 0.000000 -0.001329 0.000000 0.037340
#
#
# Mechanical properties :
#
#
# Convention : Reuss Voigt Hill
#
# Bulk Modulus (GPa) = 57.19109 62.40261 59.79685
# Shear Modulus (GPa) = 28.38210 30.60933 29.49571
#
# Velocity S-wave (km/s) = 3.85389 4.00224 3.92876
# Velocity P-wave (km/s) = 7.05206 7.34934 7.20223
#
# Compressibility (1/GPa) = 0.01748524
#
# Stress axis : x y z
#
# Youngs Moduli (GPa) = 78.96670 63.00080 100.24968
#
# Poissons Ratio (x) = 0.20064 0.34486
# Poissons Ratio (y) = 0.25148 0.38982
# Poissons Ratio (z) = 0.27165 0.24498
#
# Static dielectric constant tensor:
#      x y z
#    x 4.338520 0.000140 1.199140 
#    y 0.000140 3.366050 0.000320 
#    z 1.199140 0.000320 6.272430 
# 
# 
# High freq. dielectric constant tensor:
#      x y z
#    x 1.753880 0.000000 -0.002110 
#    y 0.000000 1.723630 0.000000 
#    z -0.002110 0.000000 1.757140 
# 
# From -- ./inp_files/346996.got.cif
#   From: 2010.06.25/outbox.cif.g09.slc.cpg/sg12_174_cif.got.tgz:346996.got - 2010.06.28 00:19:55.
