data_PCOD8090292
_publ_section_title
;
Structure prediction by ZEFSAII (Michael W. Deem and Ramdas Pophale) SiO2 
 PCOD8090292
Probable space group: C 2/M
;
_chemical_formula_sum "Si O2"
_cell_formula_units_Z 64
_cell_length_a 17.293093
_cell_length_b 12.531905
_cell_length_c 15.163745
_cell_angle_alpha 90.000000
_cell_angle_beta 94.845134
_cell_angle_gamma 90.000000
_cell_volume 3274.474186
_symmetry_space_group_name_H-M "C 2/M"
_symmetry_group_IT_number 12
_symmetry_cell_setting 'monoclinic'
loop_
_space_group_symop_operation_xyz
x,y,z
-x,y,-z
-x,-y,-z
x,-y,z
1/2+x,1/2+y,z
1/2-x,1/2+y,-z
1/2-x,1/2-y,-z
1/2+x,1/2-y,z
loop_
_atom_site_type_symbol
_atom_site_label
_atom_site_fract_x
_atom_site_fract_y
_atom_site_fract_z
Si Si1 0.288844 0.241740 0.368740
Si Si2 0.946060 0.376398 0.917168
Si Si3 0.822768 0.618234 0.530894
Si Si4 0.491451 0.265438 0.760638
Si Si5 0.988337 0.379533 0.599230
Si Si6 0.146782 0.874854 0.779636
Si Si7 0.168705 0.873814 0.235089
Si Si8 0.281875 0.782951 0.909147
O O1 0.246249 0.322317 0.428847
O O2 0.344000 0.169828 0.436892
O O3 0.339756 0.312113 0.309144
O O4 0.229343 0.163682 0.314016
O O5 0.963156 0.500000 0.907277
O O6 0.969885 0.324529 0.828012
O O7 0.855856 0.358724 0.930572
O O8 0.000000 0.328610 0.000000
O O9 0.793110 0.500000 0.508408
O O10 0.895502 0.617300 0.603767
O O11 0.519332 0.205248 0.673732
O O12 0.562416 0.336381 0.805153
O O13 0.417255 0.341851 0.740038
O O14 0.023064 0.500000 0.616012
O O15 0.000000 0.340408 0.500000
O O16 0.214151 0.848952 0.855220
O O17 0.145516 0.000000 0.760905
O O18 0.191201 0.820285 0.143816
O O19 0.173354 0.000000 0.222500
O O20 0.250000 0.750000 0.000000
#
# Coordination Sequence:
#
# PCOD8090292 Si02
#       8
#     8   8   8   8   8   8   8   8
#     4  10  20  36  55  82 112 148 192 245 285 347
#     4  10  21  38  62  89 117 151 191 236 291 349
#     4  10  19  33  56  80 110 148 191 242 294 343
#     4  11  21  38  57  82 118 155 193 242 285 350
#     4  10  20  34  55  83 113 151 197 246 297 344
#     4  11  23  38  59  83 114 153 192 235 288 347
#     4  10  21  37  58  83 114 155 191 232 290 348
#     4  10  22  40  61  89 118 149 189 242 287 346
#
# _framework density 19.545123
#
# number of rings (size 3 to 8) (size 9 to 14) (size 15 to 20)
#    0.000    1.750    1.250    3.375    0.000    1.000 
#    0.000    6.875    0.000    5.625    0.000    0.000 
#    0.000    0.000    0.000    0.000    0.000    0.000 
#
# Total GULP energy -396775.388007 kJ/mol
# GULP energy per Si atom -12399.230875 kJ/mol
# Density = 1.950064 g / cm^3
# Si number density = 19.545123 Si / 1000 Ang^3
#
#
#
# Elastic Constant Matrix: (Units=GPa)
#
#
# Indices 1 2 3 4 5 6 
#
# 1 86.2354 31.2484 25.8048 0.0000 11.1900 0.0000
# 2 31.2484 115.0747 36.2612 0.0000 5.5368 0.0000
# 3 25.8048 36.2612 92.5774 0.0000 -0.1455 0.0000
# 4 0.0000 0.0000 0.0000 18.6300 0.0000 4.6164
# 5 11.1900 5.5368 -0.1455 0.0000 31.2890 0.0000
# 6 0.0000 0.0000 0.0000 4.6164 0.0000 24.5089
#
#
#
# Elastic Compliance Matrix: (Units=1/GPa)
#
#
# Indices 1 2 3 4 5 6 
#
# 1 0.014016 -0.002685 -0.002862 0.000000 -0.004551 0.000000
# 2 -0.002685 0.010527 -0.003376 0.000000 -0.000918 0.000000
# 3 -0.002862 -0.003376 0.012925 0.000000 0.001681 0.000000
# 4 0.000000 0.000000 0.000000 0.056305 0.000000 -0.010605
# 5 -0.004551 -0.000918 0.001681 0.000000 0.033758 0.000000
# 6 0.000000 0.000000 0.000000 -0.010605 0.000000 0.042799
#
#
# Mechanical properties :
#
#
# Convention : Reuss Voigt Hill
#
# Bulk Modulus (GPa) = 50.96690 53.39069 52.17880
# Shear Modulus (GPa) = 25.67821 28.25713 26.96767
#
# Velocity S-wave (km/s) = 3.62856 3.80641 3.71855
# Velocity P-wave (km/s) = 6.60972 6.83332 6.72245
#
# Compressibility (1/GPa) = 0.01962058
#
# Stress axis : x y z
#
# Youngs Moduli (GPa) = 71.34608 94.99128 77.37128
#
# Poissons Ratio (x) = 0.25507 0.22145
# Poissons Ratio (y) = 0.19158 0.26123
# Poissons Ratio (z) = 0.20421 0.32072
#
# Static dielectric constant tensor:
#      x y z
#    x 3.780520 0.000000 0.203120 
#    y 0.000000 3.527030 0.000000 
#    z 0.203120 0.000000 3.734250 
# 
# 
# High freq. dielectric constant tensor:
#      x y z
#    x 1.772800 0.000000 0.002000 
#    y 0.000000 1.761010 0.000000 
#    z 0.002000 0.000000 1.762030 
# 
# From -- ./inp_files/223846.got.cif
#   From: 2010.06.25/outbox.cif.g09.slc.cpg/sg12_112_cif.got.tgz:223846.got - 2010.06.28 00:19:55.
