data_PCOD8090454
_publ_section_title
;
Structure prediction by ZEFSAII (Michael W. Deem and Ramdas Pophale) SiO2 
 PCOD8090454
Probable space group: C 2/M
;
_chemical_formula_sum "Si O2"
_cell_formula_units_Z 64
_cell_length_a 20.321414
_cell_length_b 8.514659
_cell_length_c 21.950966
_cell_angle_alpha 90.000000
_cell_angle_beta 123.428534
_cell_angle_gamma 90.000000
_cell_volume 3169.855537
_symmetry_space_group_name_H-M "C 2/M"
_symmetry_group_IT_number 12
_symmetry_cell_setting 'monoclinic'
loop_
_space_group_symop_operation_xyz
x,y,z
-x,y,-z
-x,-y,-z
x,-y,z
1/2+x,1/2+y,z
1/2-x,1/2+y,-z
1/2-x,1/2-y,-z
1/2+x,1/2-y,z
loop_
_atom_site_type_symbol
_atom_site_label
_atom_site_fract_x
_atom_site_fract_y
_atom_site_fract_z
Si Si1 0.509384 0.816283 0.188915
Si Si2 0.815827 0.817097 0.420672
Si Si3 0.772639 0.684808 0.946678
Si Si4 0.353870 0.681609 0.669121
Si Si5 0.623251 0.317313 0.796036
Si Si6 0.552749 0.187051 0.972512
Si Si7 0.587393 0.818579 0.423785
Si Si8 0.422322 0.317693 0.362296
O O1 0.588905 0.723828 0.245843
O O2 0.442507 0.786376 0.204902
O O3 0.480185 0.752185 0.108848
O O4 0.528537 0.000000 0.196924
O O5 0.723950 0.785731 0.364002
O O6 0.844571 0.718227 0.493103
O O7 0.863543 0.762588 0.385349
O O8 0.829314 0.000000 0.440832
O O9 0.776699 0.500000 0.954715
O O10 0.709140 0.735987 0.863607
O O11 0.750000 0.750000 0.000000
O O12 0.858503 0.750518 0.971938
O O13 0.330643 0.500000 0.659938
O O14 0.399853 0.716208 0.629994
O O15 0.606635 0.500000 0.801891
O O16 0.621354 0.282384 0.723410
O O17 0.550886 0.000000 0.972384
O O18 0.500000 0.257162 0.000000
O O19 0.502819 0.779167 0.409698
O O20 0.591923 0.000000 0.407745
O O21 0.444173 0.500000 0.379893
#
# Coordination Sequence:
#
# PCOD8090454 Si02
#       8
#     8   8   8   8   8   8   8   8
#     4  11  21  36  61  90 117 154 201 250 301 357
#     4  11  24  42  63  90 124 159 202 251 303 362
#     4  10  19  33  56  85 114 151 195 241 293 342
#     4  12  25  42  63  88 122 161 204 251 307 363
#     4  10  20  35  59  87 118 157 199 246 300 355
#     4   9  19  35  57  87 122 156 197 244 294 352
#     4  12  24  40  64  92 122 160 204 249 302 361
#     4  10  22  40  62  90 122 161 203 249 302 361
#
# _framework density 20.190193000000001
#
# number of rings (size 3 to 8) (size 9 to 14) (size 15 to 20)
#    0.000    1.375    2.500    3.750    0.000    3.500 
#    0.000    3.750    0.000    4.875    0.000    0.000 
#    0.000    0.000    0.000    0.000    0.000    0.000 
#
# Total GULP energy -396977.218253 kJ/mol
# GULP energy per Si atom -12405.538070 kJ/mol
# Density = 2.014424 g / cm^3
# Si number density = 20.190193 Si / 1000 Ang^3
#
#
#
# Elastic Constant Matrix: (Units=GPa)
#
#
# Indices 1 2 3 4 5 6 
#
# 1 113.4365 10.0078 32.9463 0.0000 15.4557 0.0000
# 2 10.0078 46.4957 17.4385 0.0000 0.7372 0.0000
# 3 32.9463 17.4385 112.9091 0.0000 20.5665 0.0000
# 4 0.0000 0.0000 0.0000 27.7895 0.0000 1.6527
# 5 15.4557 0.7372 20.5665 0.0000 37.7268 0.0000
# 6 0.0000 0.0000 0.0000 1.6527 0.0000 28.3157
#
#
#
# Elastic Compliance Matrix: (Units=1/GPa)
#
#
# Indices 1 2 3 4 5 6 
#
# 1 0.009953 -0.001277 -0.002186 0.000000 -0.002861 0.000000
# 2 -0.001277 0.023085 -0.003559 0.000000 0.002012 0.000000
# 3 -0.002186 -0.003559 0.010956 0.000000 -0.005008 0.000000
# 4 0.000000 0.000000 0.000000 0.036110 0.000000 -0.002108
# 5 -0.002861 0.002012 -0.005008 0.000000 0.030369 0.000000
# 6 0.000000 0.000000 0.000000 -0.002108 0.000000 0.035439
#
#
# Mechanical properties :
#
#
# Convention : Reuss Voigt Hill
#
# Bulk Modulus (GPa) = 33.38905 43.73626 38.56266
# Shear Modulus (GPa) = 29.42203 32.92966 31.17584
#
# Velocity S-wave (km/s) = 3.82153 4.04291 3.93378
# Velocity P-wave (km/s) = 6.00377 6.59566 6.30666
#
# Compressibility (1/GPa) = 0.02994994
#
# Stress axis : x y z
#
# Youngs Moduli (GPa) = 100.47405 43.31759 91.27089
#
# Poissons Ratio (x) = 0.05532 0.19950
# Poissons Ratio (y) = 0.12831 0.32487
# Poissons Ratio (z) = 0.21962 0.15418
#
# Static dielectric constant tensor:
#      x y z
#    x 3.769830 0.000000 0.107630 
#    y 0.000000 3.458970 0.000000 
#    z 0.107630 0.000000 3.912560 
# 
# 
# High freq. dielectric constant tensor:
#      x y z
#    x 1.790540 0.000000 0.008660 
#    y 0.000000 1.772590 0.000000 
#    z 0.008660 0.000000 1.802530 
# 
# From -- ./inp_files/320034.got.cif
#   From: 2010.06.25/outbox.cif.g09.slc.cpg/sg12_161_cif.got.tgz:320034.got - 2010.06.28 00:19:55.
