data_PCOD8090832
_publ_section_title
;
Structure prediction by ZEFSAII (Michael W. Deem and Ramdas Pophale) SiO2 
 PCOD8090832
Probable space group: C 2/M
;
_chemical_formula_sum "Si O2"
_cell_formula_units_Z 56
_cell_length_a 14.476293
_cell_length_b 9.170674
_cell_length_c 29.903725
_cell_angle_alpha 90.000000
_cell_angle_beta 127.119256
_cell_angle_gamma 90.000000
_cell_volume 3165.555112
_symmetry_space_group_name_H-M "C 2/M"
_symmetry_group_IT_number 12
_symmetry_cell_setting 'monoclinic'
loop_
_space_group_symop_operation_xyz
x,y,z
-x,y,-z
-x,-y,-z
x,-y,z
1/2+x,1/2+y,z
1/2-x,1/2+y,-z
1/2-x,1/2-y,-z
1/2+x,1/2-y,z
loop_
_atom_site_type_symbol
_atom_site_label
_atom_site_fract_x
_atom_site_fract_y
_atom_site_fract_z
Si Si1 0.041054 0.167428 0.562498
Si Si2 0.414213 0.828307 0.852549
Si Si3 0.322885 0.829874 0.058494
Si Si4 0.304742 0.172038 0.641796
Si Si5 0.149439 0.327518 0.443476
Si Si6 0.281664 0.171679 0.147396
Si Si7 0.459137 0.173613 0.766675
O O1 0.172036 0.218868 0.607329
O O2 0.000000 0.186684 0.500000
O O3 0.973168 0.279662 0.573409
O O4 0.021772 0.000000 0.571996
O O5 0.542250 0.786772 0.907410
O O6 0.318308 0.750107 0.854239
O O7 0.406099 0.774242 0.798612
O O8 0.392816 0.000000 0.849686
O O9 0.273248 0.786328 0.092656
O O10 0.307786 0.000000 0.046559
O O11 0.250000 0.750000 0.000000
O O12 0.350341 0.227404 0.607469
O O13 0.381111 0.241393 0.704050
O O14 0.315963 0.000000 0.647515
O O15 0.168499 0.500000 0.452737
O O16 0.250000 0.250000 0.500000
O O17 0.408082 0.224971 0.201476
O O18 0.266947 0.000000 0.149985
O O19 0.458060 0.000000 0.766314
#
# Coordination Sequence:
#
# PCOD8090832 Si02
#       7
#     8   8   8   8   8   8   8
#     4  10  19  34  52  73 100 131 165 201 247 305
#     4   9  18  33  53  75 100 131 169 209 250 294
#     4   9  19  34  50  73 105 138 170 204 244 295
#     4   9  18  33  53  73  99 134 167 201 252 310
#     4  11  21  34  52  75 100 130 166 204 249 302
#     4   9  18  33  53  75 101 133 169 208 251 295
#     4   8  16  33  53  72  97 133 170 204 248 304
#
# _framework density 17.69042
#
# number of rings (size 3 to 8) (size 9 to 14) (size 15 to 20)
#    0.000    2.714    1.429    2.143    0.000    3.143 
#    0.000    5.000    0.000    3.429    0.000    0.000 
#    0.000    0.000    0.000    0.000    0.000    0.000 
#
# Total GULP energy -347099.276670 kJ/mol
# GULP energy per Si atom -12396.402738 kJ/mol
# Density = 1.765016 g / cm^3
# Si number density = 17.690420 Si / 1000 Ang^3
#
#
#
# Elastic Constant Matrix: (Units=GPa)
#
#
# Indices 1 2 3 4 5 6 
#
# 1 168.6361 50.5130 89.4642 0.0000 -0.8192 0.0000
# 2 50.5130 42.5336 45.2491 0.0000 -2.2206 0.0000
# 3 89.4642 45.2491 177.4379 0.0000 0.6541 0.0000
# 4 0.0000 0.0000 0.0000 15.4775 0.0000 0.2474
# 5 -0.8192 -2.2206 0.6541 0.0000 20.4045 0.0000
# 6 0.0000 0.0000 0.0000 0.2474 0.0000 36.9330
#
#
#
# Elastic Compliance Matrix: (Units=1/GPa)
#
#
# Indices 1 2 3 4 5 6 
#
# 1 0.010129 -0.009090 -0.002787 0.000000 -0.000493 0.000000
# 2 -0.009090 0.040715 -0.005815 0.000000 0.004252 0.000000
# 3 -0.002787 -0.005815 0.008528 0.000000 -0.001018 0.000000
# 4 0.000000 0.000000 0.000000 0.064617 0.000000 -0.000433
# 5 -0.000493 0.004252 -0.001018 0.000000 0.049484 0.000000
# 6 0.000000 0.000000 0.000000 -0.000433 0.000000 0.027079
#
#
# Mechanical properties :
#
#
# Convention : Reuss Voigt Hill
#
# Bulk Modulus (GPa) = 41.68984 84.34000 63.01492
# Shear Modulus (GPa) = 20.49755 28.12176 24.30966
#
# Velocity S-wave (km/s) = 3.40763 3.99138 3.71100
# Velocity P-wave (km/s) = 6.25301 8.30786 7.35257
#
# Compressibility (1/GPa) = 0.02398666
#
# Stress axis : x y z
#
# Youngs Moduli (GPa) = 98.72739 24.56125 117.26329
#
# Poissons Ratio (x) = 0.22326 0.32683
# Poissons Ratio (y) = 0.89741 0.68193
# Poissons Ratio (z) = 0.27517 0.14283
#
# Static dielectric constant tensor:
#      x y z
#    x 3.361820 0.000000 -0.005360 
#    y 0.000000 2.987790 0.000000 
#    z -0.005360 0.000000 3.727360 
# 
# 
# High freq. dielectric constant tensor:
#      x y z
#    x 1.693490 0.000000 0.000900 
#    y 0.000000 1.652930 0.000000 
#    z 0.000900 0.000000 1.691340 
# 
# From -- ./inp_files/360038.got.cif
#   From: 2010.06.25/outbox.cif.g09.slc.cpg/sg12_181_cif.got.tgz:360038.got - 2010.06.28 00:19:55.
