data_PCOD8090351
_publ_section_title
;
Structure prediction by ZEFSAII (Michael W. Deem and Ramdas Pophale) SiO2 
 PCOD8090351
Probable space group: C 2/M
;
_chemical_formula_sum "Si O2"
_cell_formula_units_Z 56
_cell_length_a 31.219262
_cell_length_b 9.127917
_cell_length_c 11.634639
_cell_angle_alpha 90.000000
_cell_angle_beta 116.765001
_cell_angle_gamma 90.000000
_cell_volume 2960.268573
_symmetry_space_group_name_H-M "C 2/M"
_symmetry_group_IT_number 12
_symmetry_cell_setting 'monoclinic'
loop_
_space_group_symop_operation_xyz
x,y,z
-x,y,-z
-x,-y,-z
x,-y,z
1/2+x,1/2+y,z
1/2-x,1/2+y,-z
1/2-x,1/2-y,-z
1/2+x,1/2-y,z
loop_
_atom_site_type_symbol
_atom_site_label
_atom_site_fract_x
_atom_site_fract_y
_atom_site_fract_z
Si Si1 0.915908 0.827649 0.715918
Si Si2 0.984923 0.666430 0.169730
Si Si3 0.549104 0.167209 0.618979
Si Si4 0.894995 0.670209 0.913390
Si Si5 0.193592 0.330021 0.038913
Si Si6 0.871459 0.827249 0.420318
Si Si7 0.211002 0.670859 0.799013
O O1 0.886642 0.759245 0.786456
O O2 0.889113 0.779288 0.567575
O O3 0.970465 0.773867 0.779406
O O4 0.916643 0.000000 0.731052
O O5 0.003996 0.500000 0.180466
O O6 0.955113 0.684404 0.250276
O O7 0.948392 0.705799 0.023397
O O8 0.500000 0.216790 0.500000
O O9 0.590661 0.273855 0.628116
O O10 0.561995 0.000000 0.600269
O O11 0.889664 0.500000 0.878735
O O12 0.855739 0.717581 0.960076
O O13 0.205923 0.500000 0.074414
O O14 0.235503 0.233357 0.144528
O O15 0.188363 0.297906 0.897106
O O16 0.820619 0.751347 0.335258
O O17 0.865480 0.000000 0.402057
O O18 0.212366 0.500000 0.772199
#
# Coordination Sequence:
#
# PCOD8090351 Si02
#       7
#     8   8   8   8   8   8   8
#     4  11  24  38  52  76 112 150 190 233 271 318
#     4  10  20  36  57  82 110 144 186 228 275 328
#     4  10  19  33  56  82 109 142 181 226 272 327
#     4  10  21  37  58  80 107 146 187 227 272 327
#     4   9  19  38  61  87 116 140 174 226 280 329
#     4  11  23  37  54  79 115 152 185 226 278 327
#     4  10  20  36  62  90 114 141 178 222 274 336
#
# _framework density 18.917204000000002
#
# number of rings (size 3 to 8) (size 9 to 14) (size 15 to 20)
#    0.000    1.857    1.429    2.571    0.000    8.286 
#    0.000    2.143    0.000    0.000    0.000    0.000 
#    0.000    0.000    0.000    0.000    0.000    0.000 
#
# Total GULP energy -347332.704373 kJ/mol
# GULP energy per Si atom -12404.739442 kJ/mol
# Density = 1.887415 g / cm^3
# Si number density = 18.917204 Si / 1000 Ang^3
#
#
#
# Elastic Constant Matrix: (Units=GPa)
#
#
# Indices 1 2 3 4 5 6 
#
# 1 80.7476 42.0465 43.2265 0.0000 5.9758 0.0000
# 2 42.0465 69.3227 47.9116 0.0000 8.4971 0.0000
# 3 43.2265 47.9116 99.3821 0.0000 6.2860 0.0000
# 4 0.0000 0.0000 0.0000 30.4597 0.0000 3.0337
# 5 5.9758 8.4971 6.2860 0.0000 23.5794 0.0000
# 6 0.0000 0.0000 0.0000 3.0337 0.0000 34.4395
#
#
#
# Elastic Compliance Matrix: (Units=1/GPa)
#
#
# Indices 1 2 3 4 5 6 
#
# 1 0.019160 -0.008716 -0.004092 0.000000 -0.000624 0.000000
# 2 -0.008716 0.026219 -0.008535 0.000000 -0.004964 0.000000
# 3 -0.004092 -0.008535 0.015966 0.000000 -0.000144 0.000000
# 4 0.000000 0.000000 0.000000 0.033121 0.000000 -0.002918
# 5 -0.000624 -0.004964 -0.000144 0.000000 0.044395 0.000000
# 6 0.000000 0.000000 0.000000 -0.002918 0.000000 0.029293
#
#
# Mechanical properties :
#
#
# Convention : Reuss Voigt Hill
#
# Bulk Modulus (GPa) = 53.59617 57.31352 55.45484
# Shear Modulus (GPa) = 23.03503 25.44690 24.24096
#
# Velocity S-wave (km/s) = 3.49331 3.67164 3.58358
# Velocity P-wave (km/s) = 6.68314 6.95251 6.81916
#
# Compressibility (1/GPa) = 0.01865805
#
# Stress axis : x y z
#
# Youngs Moduli (GPa) = 52.19270 38.13967 62.63395
#
# Poissons Ratio (x) = 0.33244 0.25630
# Poissons Ratio (y) = 0.45493 0.53458
# Poissons Ratio (z) = 0.21357 0.32552
#
# Static dielectric constant tensor:
#      x y z
#    x 3.375130 0.000000 -0.020670 
#    y 0.000000 3.417070 0.000000 
#    z -0.020670 0.000000 3.591100 
# 
# 
# High freq. dielectric constant tensor:
#      x y z
#    x 1.728240 0.000000 0.000840 
#    y 0.000000 1.732420 0.000000 
#    z 0.000840 0.000000 1.741120 
# 
# From -- ./inp_files/180856.got.cif
#   From: 2010.06.25/outbox.cif.g09.slc.cpg/sg12_91_cif.got.tgz:180856.got - 2010.06.28 00:19:55.
