data_PCOD8090887
_publ_section_title
;
Structure prediction by ZEFSAII (Michael W. Deem and Ramdas Pophale) SiO2 
 PCOD8090887
Probable space group: C 2/M
;
_chemical_formula_sum "Si O2"
_cell_formula_units_Z 48
_cell_length_a 24.536054
_cell_length_b 18.705421
_cell_length_c 17.072015
_cell_angle_alpha 90.000000
_cell_angle_beta 20.151142
_cell_angle_gamma 90.000000
_cell_volume 2699.251985
_symmetry_space_group_name_H-M "C 2/M"
_symmetry_group_IT_number 12
_symmetry_cell_setting 'monoclinic'
loop_
_space_group_symop_operation_xyz
x,y,z
-x,y,-z
-x,-y,-z
x,-y,z
1/2+x,1/2+y,z
1/2-x,1/2+y,-z
1/2-x,1/2-y,-z
1/2+x,1/2-y,z
loop_
_atom_site_type_symbol
_atom_site_label
_atom_site_fract_x
_atom_site_fract_y
_atom_site_fract_z
Si Si1 0.807744 0.000000 0.561633
Si Si2 0.669380 0.745080 0.806837
Si Si3 0.057642 0.149909 0.588177
Si Si4 0.376233 0.000000 0.350661
Si Si5 0.221048 0.653061 0.473065
Si Si6 0.000000 0.112328 0.500000
Si Si7 0.998435 0.224966 0.816375
Si Si8 0.265745 0.000000 0.169873
O O1 0.924042 0.931574 0.407600
O O2 0.689887 0.000000 0.647927
O O3 0.698221 0.000000 0.786314
O O4 0.769860 0.814687 0.650534
O O5 0.745091 0.675870 0.662472
O O6 0.500000 0.763371 0.000000
O O7 0.654091 0.730116 0.920763
O O8 0.978602 0.157761 0.608752
O O9 0.950202 0.192481 0.796721
O O10 0.312218 0.069092 0.482406
O O11 0.566207 0.000000 0.099670
O O12 0.070381 0.695634 0.710678
O O13 0.372407 0.670640 0.322199
O O14 0.162248 0.068439 0.286641
#
# Coordination Sequence:
#
# PCOD8090887 Si02
#       8
#     4   8   8   4   8   4   8   4
#     4  10  20  29  49  83 103 125 168 208 254 314
#     4   9  19  33  54  74 107 141 162 203 265 305
#     4  10  19  34  53  74 107 134 172 212 247 309
#     4  12  20  31  54  80 104 129 176 207 256 316
#     4   9  19  31  48  81 109 130 165 208 256 314
#     4   9  20  36  48  74 104 137 172 212 254 297
#     4   9  17  34  51  73 108 140 162 204 264 301
#     4   9  21  34  48  72 113 134 158 214 273 300
#
# _framework density 17.782703999999999
#
# number of rings (size 3 to 8) (size 9 to 14) (size 15 to 20)
#    0.000    2.500    1.667    1.750    4.667    0.000 
#    0.000    5.417    0.000    0.000    0.000    1.167 
#    0.000    0.000    0.000    0.000    0.000    0.000 
#
# Total GULP energy -297491.882269 kJ/mol
# GULP energy per Si atom -12395.495095 kJ/mol
# Density = 1.774223 g / cm^3
# Si number density = 17.782704 Si / 1000 Ang^3
#
#
#
# Elastic Constant Matrix: (Units=GPa)
#
#
# Indices 1 2 3 4 5 6 
#
# 1 101.7133 33.3839 33.9307 0.0013 25.4987 0.0004
# 2 33.3839 113.6659 29.3326 0.0060 14.6146 -0.0036
# 3 33.9307 29.3326 64.9409 -0.0022 24.4356 0.0069
# 4 0.0013 0.0060 -0.0022 9.7697 0.0016 8.1879
# 5 25.4987 14.6146 24.4356 0.0016 32.3503 -0.0050
# 6 0.0004 -0.0036 0.0069 8.1879 -0.0050 24.1306
#
#
#
# Elastic Compliance Matrix: (Units=1/GPa)
#
#
# Indices 1 2 3 4 5 6 
#
# 1 0.013442 -0.002166 -0.003390 0.000001 -0.007056 -0.000001
# 2 -0.002166 0.010363 -0.003395 -0.000012 -0.000410 0.000007
# 3 -0.003390 -0.003395 0.023919 0.000026 -0.013861 -0.000019
# 4 0.000001 -0.000012 0.000026 0.143034 -0.000030 -0.048534
# 5 -0.007056 -0.000410 -0.013861 -0.000030 0.047129 0.000024
# 6 -0.000001 0.000007 -0.000019 -0.048534 0.000024 0.057910
#
#
# Mechanical properties :
#
#
# Convention : Reuss Voigt Hill
#
# Bulk Modulus (GPa) = 33.53175 52.62385 43.07780
# Shear Modulus (GPa) = 15.44938 25.49497 20.47218
#
# Velocity S-wave (km/s) = 2.95072 3.79052 3.39668
# Velocity P-wave (km/s) = 5.52325 6.98673 6.29765
#
# Compressibility (1/GPa) = 0.02982248
#
# Stress axis : x y z
#
# Youngs Moduli (GPa) = 74.39228 96.50088 41.80815
#
# Poissons Ratio (x) = 0.20902 0.14173
# Poissons Ratio (y) = 0.16113 0.14192
# Poissons Ratio (z) = 0.25219 0.32758
#
# Static dielectric constant tensor:
#      x y z
#    x 3.471200 -0.000010 0.339440 
#    y -0.000010 3.221760 0.000010 
#    z 0.339440 0.000010 3.147760 
# 
# 
# High freq. dielectric constant tensor:
#      x y z
#    x 1.679280 0.000000 0.022740 
#    y 0.000000 1.680330 0.000000 
#    z 0.022740 0.000000 1.662380 
# 
# From -- ./inp_files/293786.got.cif
#   From: 2010.06.25/outbox.cif.g09.slc.cpg/sg12_147_cif.got.tgz:293786.got - 2010.06.28 00:19:55.
