data_PCOD8090938
_publ_section_title
;
Structure prediction by ZEFSAII (Michael W. Deem and Ramdas Pophale) SiO2 
 PCOD8090938
Probable space group: C 2/M
;
_chemical_formula_sum "Si O2"
_cell_formula_units_Z 64
_cell_length_a 23.562519
_cell_length_b 9.135268
_cell_length_c 23.889745
_cell_angle_alpha 90.000000
_cell_angle_beta 135.017184
_cell_angle_gamma 90.000000
_cell_volume 3635.040343
_symmetry_space_group_name_H-M "C 2/M"
_symmetry_group_IT_number 12
_symmetry_cell_setting 'monoclinic'
loop_
_space_group_symop_operation_xyz
x,y,z
-x,y,-z
-x,-y,-z
x,-y,z
1/2+x,1/2+y,z
1/2-x,1/2+y,-z
1/2-x,1/2-y,-z
1/2+x,1/2-y,z
loop_
_atom_site_type_symbol
_atom_site_label
_atom_site_fract_x
_atom_site_fract_y
_atom_site_fract_z
Si Si1 0.899926 0.168123 0.676570
Si Si2 0.176277 0.327938 0.978047
Si Si3 0.235462 0.327683 0.356485
Si Si4 0.975091 0.331357 0.419120
Si Si5 0.774891 0.829644 0.147736
Si Si6 0.808498 0.173765 0.292041
Si Si7 0.618329 0.669610 0.463380
Si Si8 0.579944 0.673011 0.826951
O O1 0.848945 0.258317 0.685664
O O2 0.864671 0.194832 0.590183
O O3 0.992539 0.218700 0.743878
O O4 0.892903 0.000000 0.688990
O O5 0.175444 0.500000 0.964051
O O6 0.192069 0.299838 0.055607
O O7 0.250000 0.250000 0.000000
O O8 0.095401 0.252425 0.898012
O O9 0.224456 0.500000 0.349849
O O10 0.258003 0.270047 0.310173
O O11 0.304228 0.278069 0.447905
O O12 0.959807 0.500000 0.393548
O O13 0.896374 0.239294 0.353270
O O14 0.000000 0.309382 0.500000
O O15 0.043960 0.269776 0.427505
O O16 0.765825 0.770213 0.204879
O O17 0.853990 0.765623 0.171286
O O18 0.792307 0.000000 0.164115
O O19 0.817072 0.000000 0.301322
O O20 0.597761 0.500000 0.461793
O O21 0.588083 0.500000 0.841785
#
# Coordination Sequence:
#
# PCOD8090938 Si02
#       8
#     8   8   8   8   8   8   8   8
#     4  10  21  35  53  72  98 133 168 208 253 295
#     4   9  16  28  48  74 102 130 155 192 243 295
#     4  10  21  34  51  73  96 127 172 213 246 288
#     4  11  22  33  48  74 104 131 160 202 251 293
#     4   8  15  29  51  76 100 124 157 196 240 292
#     4  10  19  34  54  73  98 134 169 204 243 296
#     4  10  20  36  54  73  95 129 172 208 248 297
#     4   9  17  31  49  73 100 129 162 197 241 296
#
# _framework density 17.606407000000001
#
# number of rings (size 3 to 8) (size 9 to 14) (size 15 to 20)
#    0.000    2.375    1.250    2.625    0.000    4.500 
#    0.000    5.625    0.000    0.750    0.000    5.250 
#    0.000    0.000    0.000    0.000    0.000    0.000 
#
# Total GULP energy -396666.256370 kJ/mol
# GULP energy per Si atom -12395.820512 kJ/mol
# Density = 1.756633 g / cm^3
# Si number density = 17.606407 Si / 1000 Ang^3
#
#
#
# Elastic Constant Matrix: (Units=GPa)
#
#
# Indices 1 2 3 4 5 6 
#
# 1 84.3302 20.0509 52.1334 0.0000 -7.4164 0.0000
# 2 20.0509 32.5869 30.6821 0.0000 -3.0340 -0.0001
# 3 52.1334 30.6821 127.4197 0.0000 -18.5399 0.0000
# 4 0.0000 0.0000 0.0000 26.4302 0.0000 3.7034
# 5 -7.4164 -3.0340 -18.5399 0.0000 16.9729 0.0000
# 6 0.0000 -0.0001 0.0000 3.7034 0.0000 26.6660
#
#
#
# Elastic Compliance Matrix: (Units=1/GPa)
#
#
# Indices 1 2 3 4 5 6 
#
# 1 0.016457 -0.004913 -0.005507 0.000000 0.000297 0.000000
# 2 -0.004913 0.041378 -0.008548 0.000000 -0.004088 0.000000
# 3 -0.005507 -0.008548 0.013777 0.000000 0.011114 0.000000
# 4 0.000000 0.000000 0.000000 0.038586 0.000000 -0.005359
# 5 0.000297 -0.004088 0.011114 0.000000 0.070457 0.000000
# 6 0.000000 0.000000 0.000000 -0.005359 0.000000 0.038245
#
#
# Mechanical properties :
#
#
# Convention : Reuss Voigt Hill
#
# Bulk Modulus (GPa) = 29.69554 50.00774 39.85164
# Shear Modulus (GPa) = 18.65236 23.44518 21.04877
#
# Velocity S-wave (km/s) = 3.25838 3.65311 3.46138
# Velocity P-wave (km/s) = 5.57306 6.80135 6.21761
#
# Compressibility (1/GPa) = 0.03367509
#
# Stress axis : x y z
#
# Youngs Moduli (GPa) = 60.76462 24.16720 72.58593
#
# Poissons Ratio (x) = 0.11874 0.39973
# Poissons Ratio (y) = 0.29856 0.62048
# Poissons Ratio (z) = 0.33463 0.20659
#
# Static dielectric constant tensor:
#      x y z
#    x 3.184930 0.000000 -0.248460 
#    y 0.000000 3.203180 0.000000 
#    z -0.248460 0.000000 3.897050 
# 
# 
# High freq. dielectric constant tensor:
#      x y z
#    x 1.654940 0.000000 -0.010560 
#    y 0.000000 1.667730 0.000000 
#    z -0.010560 0.000000 1.690290 
# 
# From -- ./inp_files/348582.got.cif
#   From: 2010.06.25/outbox.cif.g09.slc.cpg/sg12_175_cif.got.tgz:348582.got - 2010.06.28 00:19:55.
