data_PCOD8090754
_publ_section_title
;
Structure prediction by ZEFSAII (Michael W. Deem and Ramdas Pophale) SiO2 
 PCOD8090754
Probable space group: C 2/M
;
_chemical_formula_sum "Si O2"
_cell_formula_units_Z 56
_cell_length_a 10.619396
_cell_length_b 17.145344
_cell_length_c 15.652907
_cell_angle_alpha 90.000000
_cell_angle_beta 73.895559
_cell_angle_gamma 90.000000
_cell_volume 2738.135137
_symmetry_space_group_name_H-M "C 2/M"
_symmetry_group_IT_number 12
_symmetry_cell_setting 'monoclinic'
loop_
_space_group_symop_operation_xyz
x,y,z
-x,y,-z
-x,-y,-z
x,-y,z
1/2+x,1/2+y,z
1/2-x,1/2+y,-z
1/2-x,1/2-y,-z
1/2+x,1/2-y,z
loop_
_atom_site_type_symbol
_atom_site_label
_atom_site_fract_x
_atom_site_fract_y
_atom_site_fract_z
Si Si1 0.606178 0.909782 0.542722
Si Si2 0.966380 0.155686 0.910381
Si Si3 0.579129 0.087349 0.272550
Si Si4 0.366926 0.410744 0.268473
Si Si5 0.040826 0.664661 0.109677
Si Si6 0.309859 0.090166 0.067179
Si Si7 0.892324 0.907091 0.454270
O O1 0.500000 0.869074 0.500000
O O2 0.552088 0.899732 0.648292
O O3 0.750648 0.871942 0.508337
O O4 0.618911 0.000000 0.513429
O O5 0.934161 0.246736 0.921339
O O6 0.842613 0.109214 0.897496
O O7 0.082375 0.140640 0.820656
O O8 0.000000 0.125961 0.000000
O O9 0.709523 0.097954 0.304984
O O10 0.578439 0.152590 0.200228
O O11 0.577468 0.000000 0.233253
O O12 0.407261 0.500000 0.243029
O O13 0.424105 0.382819 0.349785
O O14 0.889962 0.640581 0.121738
O O15 0.137326 0.610514 0.036590
O O16 0.332733 0.000000 0.083035
O O17 0.000000 0.872506 0.500000
O O18 0.890693 0.000000 0.461511
#
# Coordination Sequence:
#
# PCOD8090754 Si02
#       7
#     8   8   8   8   8   8   8
#     4   9  15  28  51  82 114 148 195 247 297 359
#     4  12  25  40  62  87 124 166 206 251 315 381
#     4  10  19  33  60  89 117 153 204 256 300 356
#     4  10  21  36  58  91 123 157 203 256 306 367
#     4  11  23  39  61  85 120 161 205 250 313 372
#     4  11  23  41  63  87 119 158 207 264 309 364
#     4   9  17  31  54  85 125 162 194 249 317 367
#
# _framework density 20.451875999999999
#
# number of rings (size 3 to 8) (size 9 to 14) (size 15 to 20)
#    0.000    1.714    2.857    3.429    2.000    3.429 
#    0.000    2.857    0.000    1.714    0.000    0.000 
#    0.000    0.000    0.000    0.000    0.000    0.000 
#
# Total GULP energy -347185.033735 kJ/mol
# GULP energy per Si atom -12399.465491 kJ/mol
# Density = 2.040533 g / cm^3
# Si number density = 20.451876 Si / 1000 Ang^3
#
#
#
# Elastic Constant Matrix: (Units=GPa)
#
#
# Indices 1 2 3 4 5 6 
#
# 1 117.7827 12.1453 53.0376 0.0000 0.4353 0.0000
# 2 12.1453 48.9683 13.7647 0.0000 1.8254 0.0000
# 3 53.0376 13.7647 112.5055 0.0000 12.1864 0.0000
# 4 0.0000 0.0000 0.0000 15.6290 0.0000 2.4411
# 5 0.4353 1.8254 12.1864 0.0000 37.3403 0.0000
# 6 0.0000 0.0000 0.0000 2.4411 0.0000 20.0141
#
#
#
# Elastic Compliance Matrix: (Units=1/GPa)
#
#
# Indices 1 2 3 4 5 6 
#
# 1 0.010952 -0.001322 -0.005177 0.000000 0.001627 0.000000
# 2 -0.001322 0.021310 -0.001942 0.000000 -0.000393 0.000000
# 3 -0.005177 -0.001942 0.011973 0.000000 -0.003752 0.000000
# 4 0.000000 0.000000 0.000000 0.065226 0.000000 -0.007956
# 5 0.001627 -0.000393 -0.003752 0.000000 0.028006 0.000000
# 6 0.000000 0.000000 0.000000 -0.007956 0.000000 0.050935
#
#
# Mechanical properties :
#
#
# Convention : Reuss Voigt Hill
#
# Bulk Modulus (GPa) = 36.55861 48.57242 42.56551
# Shear Modulus (GPa) = 23.32083 27.95062 25.63573
#
# Velocity S-wave (km/s) = 3.38046 3.70084 3.54427
# Velocity P-wave (km/s) = 5.75769 6.48558 6.13244
#
# Compressibility (1/GPa) = 0.02735334
#
# Stress axis : x y z
#
# Youngs Moduli (GPa) = 91.30849 46.92730 83.51981
#
# Poissons Ratio (x) = 0.06202 0.43242
# Poissons Ratio (y) = 0.12067 0.16216
# Poissons Ratio (z) = 0.47275 0.09111
#
# Static dielectric constant tensor:
#      x y z
#    x 3.930250 0.000000 0.027600 
#    y 0.000000 3.301620 0.000000 
#    z 0.027600 0.000000 3.557620 
# 
# 
# High freq. dielectric constant tensor:
#      x y z
#    x 1.807270 0.000000 0.001000 
#    y 0.000000 1.757290 0.000000 
#    z 0.001000 0.000000 1.799340 
# 
# From -- ./inp_files/206123.got.cif
#   From: 2010.06.25/outbox.cif.g09.slc.cpg/sg12_104_cif.got.tgz:206123.got - 2010.06.28 00:19:55.
