data_PCOD8090025
_publ_section_title
;
Structure prediction by ZEFSAII (Michael W. Deem and Ramdas Pophale) SiO2 
 PCOD8090025
Probable space group: C 2/M
;
_chemical_formula_sum "Si O2"
_cell_formula_units_Z 64
_cell_length_a 27.679329
_cell_length_b 9.191104
_cell_length_c 14.438622
_cell_angle_alpha 90.000000
_cell_angle_beta 86.779207
_cell_angle_gamma 90.000000
_cell_volume 3667.435196
_symmetry_space_group_name_H-M "C 2/M"
_symmetry_group_IT_number 12
_symmetry_cell_setting 'monoclinic'
loop_
_space_group_symop_operation_xyz
x,y,z
-x,y,-z
-x,-y,-z
x,-y,z
1/2+x,1/2+y,z
1/2-x,1/2+y,-z
1/2-x,1/2-y,-z
1/2+x,1/2-y,z
loop_
_atom_site_type_symbol
_atom_site_label
_atom_site_fract_x
_atom_site_fract_y
_atom_site_fract_z
Si Si1 0.598079 0.168130 0.349430
Si Si2 0.996392 0.828404 0.607010
Si Si3 0.417406 0.160350 0.319859
Si Si4 0.805527 0.665078 0.748740
Si Si5 0.158862 0.337439 0.509946
Si Si6 0.753472 0.333342 0.094839
Si Si7 0.770748 0.167211 0.386912
Si Si8 0.329177 0.833951 0.230442
O O1 0.549840 0.259890 0.336771
O O2 0.636192 0.184334 0.260984
O O3 0.624473 0.235739 0.436871
O O4 0.583396 0.000000 0.367247
O O5 0.000000 0.773445 0.500000
O O6 0.043099 0.780644 0.660577
O O7 0.992217 0.000000 0.611697
O O8 0.372313 0.164364 0.394110
O O9 0.388140 0.190848 0.226381
O O10 0.442135 0.000000 0.317886
O O11 0.791881 0.500000 0.778993
O O12 0.785214 0.774670 0.826603
O O13 0.784495 0.693464 0.645102
O O14 0.172768 0.500000 0.476012
O O15 0.210806 0.258909 0.524370
O O16 0.740295 0.500000 0.077618
O O17 0.808099 0.315309 0.128817
O O18 0.750000 0.250000 0.000000
O O19 0.802540 0.214661 0.295538
O O20 0.781524 0.000000 0.408712
O O21 0.317449 0.000000 0.265823
#
# Coordination Sequence:
#
# PCOD8090025 Si02
#       8
#     8   8   8   8   8   8   8   8
#     4  10  20  34  49  63  88 129 172 207 240 286
#     4  11  22  32  44  67  96 124 164 216 259 288
#     4   9  16  29  48  66  89 125 168 205 240 282
#     4   9  19  34  49  69  96 126 162 200 238 285
#     4   9  17  28  43  63  87 123 168 204 236 280
#     4  10  19  33  55  80 106 130 155 189 234 289
#     4   9  16  26  42  64  92 123 156 197 240 279
#     4   8  16  30  47  70  96 125 159 194 231 281
#
# _framework density 17.450887999999999
#
# number of rings (size 3 to 8) (size 9 to 14) (size 15 to 20)
#    0.000    2.625    1.250    1.875    0.000    5.000 
#    0.000    0.000    0.000    0.000    0.000    0.875 
#    0.000    7.000    0.000    0.000    0.000    0.000 
#
# Total GULP energy -396548.771677 kJ/mol
# GULP energy per Si atom -12392.149115 kJ/mol
# Density = 1.741117 g / cm^3
# Si number density = 17.450888 Si / 1000 Ang^3
#
#
#
# Elastic Constant Matrix: (Units=GPa)
#
#
# Indices 1 2 3 4 5 6 
#
# 1 118.1281 46.3725 27.7967 0.0000 13.6694 0.0000
# 2 46.3725 72.4422 14.1946 0.0000 5.3593 0.0000
# 3 27.7967 14.1946 43.4436 0.0000 11.9649 0.0000
# 4 0.0000 0.0000 0.0000 23.7562 0.0000 4.0492
# 5 13.6694 5.3593 11.9649 0.0000 17.2148 0.0000
# 6 0.0000 0.0000 0.0000 4.0492 0.0000 26.9263
#
#
#
# Elastic Compliance Matrix: (Units=1/GPa)
#
#
# Indices 1 2 3 4 5 6 
#
# 1 0.012841 -0.006959 -0.004614 0.000000 -0.004823 0.000000
# 2 -0.006959 0.018553 -0.001905 0.000000 0.001074 0.000000
# 3 -0.004614 -0.001905 0.031439 0.000000 -0.017594 0.000000
# 4 0.000000 0.000000 0.000000 0.043202 0.000000 -0.006497
# 5 -0.004823 0.001074 -0.017594 0.000000 0.073814 0.000000
# 6 0.000000 0.000000 0.000000 -0.006497 0.000000 0.038115
#
#
# Mechanical properties :
#
#
# Convention : Reuss Voigt Hill
#
# Bulk Modulus (GPa) = 27.87362 45.63795 36.75578
# Shear Modulus (GPa) = 19.46447 23.28945 21.37696
#
# Velocity S-wave (km/s) = 3.34336 3.65714 3.50377
# Velocity P-wave (km/s) = 5.55980 6.63641 6.12182
#
# Compressibility (1/GPa) = 0.03587622
#
# Stress axis : x y z
#
# Youngs Moduli (GPa) = 77.87495 53.90067 31.80790
#
# Poissons Ratio (x) = 0.37510 0.14676
# Poissons Ratio (y) = 0.54194 0.06059
# Poissons Ratio (z) = 0.35932 0.10268
#
# Static dielectric constant tensor:
#      x y z
#    x 3.344300 0.000000 0.276210 
#    y 0.000000 3.250200 0.000000 
#    z 0.276210 0.000000 3.003280 
# 
# 
# High freq. dielectric constant tensor:
#      x y z
#    x 1.675030 0.000000 0.017260 
#    y 0.000000 1.673940 0.000000 
#    z 0.017260 0.000000 1.631850 
# 
# From -- ./inp_files/248335.got.cif
#   From: 2010.06.25/outbox.cif.g09.slc.cpg/sg12_125_cif.got.tgz:248335.got - 2010.06.28 00:19:55.
