data_PCOD8090230
_publ_section_title
;
Structure prediction by ZEFSAII (Michael W. Deem and Ramdas Pophale) SiO2 
 PCOD8090230
Probable space group: C 2/M
;
_chemical_formula_sum "Si O2"
_cell_formula_units_Z 64
_cell_length_a 26.495437
_cell_length_b 15.203803
_cell_length_c 12.612783
_cell_angle_alpha 90.000000
_cell_angle_beta 142.107435
_cell_angle_gamma 90.000000
_cell_volume 3120.555377
_symmetry_space_group_name_H-M "C 2/M"
_symmetry_group_IT_number 12
_symmetry_cell_setting 'monoclinic'
loop_
_space_group_symop_operation_xyz
x,y,z
-x,y,-z
-x,-y,-z
x,-y,z
1/2+x,1/2+y,z
1/2-x,1/2+y,-z
1/2-x,1/2-y,-z
1/2+x,1/2-y,z
loop_
_atom_site_type_symbol
_atom_site_label
_atom_site_fract_x
_atom_site_fract_y
_atom_site_fract_z
Si Si1 0.818957 0.897843 0.088060
Si Si2 0.244285 0.598304 0.314470
Si Si3 0.104043 0.216340 0.410104
Si Si4 0.839713 0.601235 0.037353
Si Si5 0.044183 0.750651 0.680497
Si Si6 0.997149 0.905531 0.116752
Si Si7 0.211507 0.662844 0.481765
Si Si8 0.678350 0.398690 0.142803
O O1 0.895639 0.833675 0.239006
O O2 0.847382 0.000000 0.146921
O O3 0.745863 0.875349 0.046841
O O4 0.783232 0.880259 0.909650
O O5 0.280069 0.500000 0.355012
O O6 0.313684 0.671562 0.405814
O O7 0.205580 0.598976 0.370110
O O8 0.172656 0.616280 0.109352
O O9 0.123894 0.311743 0.390310
O O10 0.030604 0.220008 0.370087
O O11 0.076644 0.152376 0.270811
O O12 0.865254 0.500000 0.103910
O O13 0.909796 0.666340 0.194846
O O14 0.000000 0.720367 0.500000
O O15 0.004055 0.000000 0.188827
O O16 0.912450 0.854194 0.007276
O O17 0.000000 0.925814 0.000000
O O18 0.250000 0.750000 0.500000
O O19 0.264973 0.629704 0.667751
O O20 0.660685 0.500000 0.133192
#
# Coordination Sequence:
#
# PCOD8090230 Si02
#       8
#     8   8   8   8   8   8   8   8
#     4  10  22  41  67  95 124 162 207 255 309 372
#     4  10  21  41  65  87 120 164 209 256 304 366
#     4  11  23  35  56  93 126 155 198 251 315 362
#     4  10  24  45  67  89 120 168 215 256 302 363
#     4  12  26  40  64  95 127 162 200 259 321 374
#     4  10  19  33  55  84 121 160 196 244 309 370
#     4  10  22  35  57  88 123 163 204 247 293 360
#     4  10  20  36  59  86 119 159 203 249 299 362
#
# _framework density 20.509169
#
# number of rings (size 3 to 8) (size 9 to 14) (size 15 to 20)
#    0.000    1.625    1.250    3.375    5.250    3.000 
#    0.000    1.250    0.000    1.500    0.000    0.000 
#    0.000    0.000    0.000    0.000    0.000    0.000 
#
# Total GULP energy -396527.724936 kJ/mol
# GULP energy per Si atom -12391.491404 kJ/mol
# Density = 2.046249 g / cm^3
# Si number density = 20.509169 Si / 1000 Ang^3
#
#
#
# Elastic Constant Matrix: (Units=GPa)
#
#
# Indices 1 2 3 4 5 6 
#
# 1 63.6629 25.4504 35.2381 0.0000 -3.0527 0.0000
# 2 25.4504 82.9541 54.2755 0.0000 4.4694 0.0000
# 3 35.2381 54.2755 133.2861 0.0000 -15.2485 0.0000
# 4 0.0000 0.0000 0.0000 52.1110 0.0000 -0.1379
# 5 -3.0527 4.4694 -15.2485 0.0000 29.4879 0.0000
# 6 0.0000 0.0000 0.0000 -0.1379 0.0000 38.8516
#
#
#
# Elastic Compliance Matrix: (Units=1/GPa)
#
#
# Indices 1 2 3 4 5 6 
#
# 1 0.019126 -0.003615 -0.003502 0.000000 0.000717 0.000000
# 2 -0.003615 0.018307 -0.007291 0.000000 -0.006919 0.000000
# 3 -0.003502 -0.007291 0.012204 0.000000 0.007053 0.000000
# 4 0.000000 0.000000 0.000000 0.019190 0.000000 0.000068
# 5 0.000717 -0.006919 0.007053 0.000000 0.038682 0.000000
# 6 0.000000 0.000000 0.000000 0.000068 0.000000 0.025739
#
#
# Mechanical properties :
#
#
# Convention : Reuss Voigt Hill
#
# Bulk Modulus (GPa) = 48.02792 56.64790 52.33791
# Shear Modulus (GPa) = 29.58494 35.08604 32.33549
#
# Velocity S-wave (km/s) = 3.80218 4.14061 3.97500
# Velocity P-wave (km/s) = 6.53789 7.10917 6.82950
#
# Compressibility (1/GPa) = 0.02082122
#
# Stress axis : x y z
#
# Youngs Moduli (GPa) = 52.28518 54.62457 81.93779
#
# Poissons Ratio (x) = 0.19746 0.28699
# Poissons Ratio (y) = 0.18900 0.59737
# Poissons Ratio (z) = 0.18313 0.39824
#
# Static dielectric constant tensor:
#      x y z
#    x 4.192150 0.000000 -0.118730 
#    y 0.000000 3.855130 0.000000 
#    z -0.118730 0.000000 3.898840 
# 
# 
# High freq. dielectric constant tensor:
#      x y z
#    x 1.804370 0.000000 -0.017370 
#    y 0.000000 1.798390 0.000000 
#    z -0.017370 0.000000 1.795080 
# 
# From -- ./inp_files/183834.got.cif
#   From: 2010.06.25/outbox.cif.g09.slc.cpg/sg12_92_cif.got.tgz:183834.got - 2010.06.28 00:19:55.
