data_PCOD8090492
_publ_section_title
;
Structure prediction by ZEFSAII (Michael W. Deem and Ramdas Pophale) SiO2 
 PCOD8090492
Probable space group: C 2/M
;
_chemical_formula_sum "Si O2"
_cell_formula_units_Z 48
_cell_length_a 10.705807
_cell_length_b 22.758927
_cell_length_c 16.623406
_cell_angle_alpha 90.000000
_cell_angle_beta 145.532572
_cell_angle_gamma 90.000000
_cell_volume 2292.238398
_symmetry_space_group_name_H-M "C 2/M"
_symmetry_group_IT_number 12
_symmetry_cell_setting 'monoclinic'
loop_
_space_group_symop_operation_xyz
x,y,z
-x,y,-z
-x,-y,-z
x,-y,z
1/2+x,1/2+y,z
1/2-x,1/2+y,-z
1/2-x,1/2-y,-z
1/2+x,1/2-y,z
loop_
_atom_site_type_symbol
_atom_site_label
_atom_site_fract_x
_atom_site_fract_y
_atom_site_fract_z
Si Si1 0.031039 0.269804 0.927771
Si Si2 0.181795 0.564800 0.287953
Si Si3 0.002799 0.932924 0.306667
Si Si4 0.759200 0.347719 0.534199
Si Si5 0.938100 0.741092 0.379616
Si Si6 0.636700 0.904172 0.001039
O O1 0.823449 0.250252 0.764158
O O2 0.250000 0.250000 0.000000
O O3 0.046863 0.338809 0.945283
O O4 0.000000 0.241269 0.000000
O O5 0.225179 0.500000 0.349287
O O6 0.346471 0.576460 0.301274
O O7 0.218861 0.615693 0.372094
O O8 0.929670 0.565325 0.118859
O O9 0.892003 0.910779 0.163373
O O10 0.217837 0.892908 0.438142
O O11 0.076041 0.000000 0.334660
O O12 0.552302 0.303638 0.425148
O O13 0.980596 0.309225 0.639395
O O14 0.000000 0.717253 0.500000
O O15 0.500000 0.936178 0.000000
#
# Coordination Sequence:
#
# PCOD8090492 Si02
#       6
#     8   8   8   8   8   8
#     4  11  25  41  65  94 128 168 213 261 315 378
#     4  10  19  33  56  89 122 159 204 260 313 368
#     4  10  19  33  57  90 123 161 206 258 317 371
#     4  11  22  36  60  88 125 158 204 253 318 374
#     4  11  25  40  61  87 124 168 208 257 318 379
#     4   9  18  33  56  84 123 157 201 256 311 365
#
# _framework density 20.940228000000001
#
# number of rings (size 3 to 8) (size 9 to 14) (size 15 to 20)
#    0.000    1.667    0.000    6.500    9.333    3.333 
#    0.000    0.000    0.000    2.000    0.000    1.167 
#    0.000    0.000    0.000    0.000    0.000    0.000 
#
# Total GULP energy -297426.365944 kJ/mol
# GULP energy per Si atom -12392.765248 kJ/mol
# Density = 2.089257 g / cm^3
# Si number density = 20.940228 Si / 1000 Ang^3
#
#
#
# Elastic Constant Matrix: (Units=GPa)
#
#
# Indices 1 2 3 4 5 6 
#
# 1 65.1145 35.1474 37.2352 -0.0016 8.4007 0.0001
# 2 35.1474 125.2972 64.2967 -0.0002 0.3230 0.0002
# 3 37.2352 64.2967 149.2366 0.0017 -3.4335 0.0041
# 4 -0.0016 -0.0002 0.0017 26.2615 -0.0006 -3.1948
# 5 8.4007 0.3230 -3.4335 -0.0006 28.3398 0.0008
# 6 0.0001 0.0002 0.0041 -3.1948 0.0008 18.1607
#
#
#
# Elastic Compliance Matrix: (Units=1/GPa)
#
#
# Indices 1 2 3 4 5 6 
#
# 1 0.020294 -0.003855 -0.003550 0.000001 -0.006402 0.000001
# 2 -0.003855 0.010991 -0.003760 0.000000 0.000562 0.000001
# 3 -0.003550 -0.003760 0.009258 -0.000001 0.002217 -0.000002
# 4 0.000001 0.000000 -0.000001 0.038911 0.000000 0.006845
# 5 -0.006402 0.000562 0.002217 0.000000 0.037446 -0.000002
# 6 0.000001 0.000001 -0.000002 0.006845 -0.000002 0.056268
#
#
# Mechanical properties :
#
#
# Convention : Reuss Voigt Hill
#
# Bulk Modulus (GPa) = 54.90830 68.11188 61.51009
# Shear Modulus (GPa) = 24.80545 28.08369 26.44457
#
# Velocity S-wave (km/s) = 3.44551 3.66612 3.55753
# Velocity P-wave (km/s) = 6.48900 7.10761 6.80533
#
# Compressibility (1/GPa) = 0.01821218
#
# Stress axis : x y z
#
# Youngs Moduli (GPa) = 49.27519 90.98756 108.01827
#
# Poissons Ratio (x) = 0.35071 0.38348
# Poissons Ratio (y) = 0.18993 0.40620
# Poissons Ratio (z) = 0.17493 0.34216
#
# Static dielectric constant tensor:
#      x y z
#    x 14.331170 0.001640 -5.536220 
#    y 0.001640 3.466830 -0.000790 
#    z -5.536220 -0.000790 6.765420 
# 
# 
# High freq. dielectric constant tensor:
#      x y z
#    x 1.756890 0.000000 -0.026820 
#    y 0.000000 1.830320 0.000000 
#    z -0.026820 0.000000 1.836590 
# 
# From -- ./inp_files/265722.got.cif
#   From: 2010.06.25/outbox.cif.g09.slc.cpg/sg12_133_cif.got.tgz:265722.got - 2010.06.28 00:19:55.
