data_PCOD8090772
_publ_section_title
;
Structure prediction by ZEFSAII (Michael W. Deem and Ramdas Pophale) SiO2 
 PCOD8090772
Probable space group: C 2/M
;
_chemical_formula_sum "Si O2"
_cell_formula_units_Z 56
_cell_length_a 15.371620
_cell_length_b 11.350860
_cell_length_c 18.544757
_cell_angle_alpha 90.000000
_cell_angle_beta 64.836982
_cell_angle_gamma 90.000000
_cell_volume 2928.646327
_symmetry_space_group_name_H-M "C 2/M"
_symmetry_group_IT_number 12
_symmetry_cell_setting 'monoclinic'
loop_
_space_group_symop_operation_xyz
x,y,z
-x,y,-z
-x,-y,-z
x,-y,z
1/2+x,1/2+y,z
1/2-x,1/2+y,-z
1/2-x,1/2-y,-z
1/2+x,1/2-y,z
loop_
_atom_site_type_symbol
_atom_site_label
_atom_site_fract_x
_atom_site_fract_y
_atom_site_fract_z
Si Si1 0.020484 0.500000 0.103215
Si Si2 0.727570 0.272876 0.091443
Si Si3 0.512159 0.760971 0.176578
Si Si4 0.810118 0.636116 0.501337
Si Si5 0.333367 0.638811 0.175236
Si Si6 0.673887 0.863263 0.337714
Si Si7 0.343357 0.000000 0.079876
Si Si8 0.484099 0.135551 0.332018
O O1 0.905649 0.500000 0.131060
O O2 0.049925 0.386243 0.136633
O O3 0.081646 0.500000 0.010248
O O4 0.615210 0.303332 0.145145
O O5 0.775667 0.168169 0.121984
O O6 0.778075 0.387375 0.103140
O O7 0.750000 0.250000 0.000000
O O8 0.438578 0.699458 0.146532
O O9 0.460491 0.779911 0.272326
O O10 0.766480 0.500000 0.508579
O O11 0.750000 0.750000 0.500000
O O12 0.831995 0.663632 0.576273
O O13 0.905466 0.643708 0.421450
O O14 0.352164 0.500000 0.170085
O O15 0.270722 0.684443 0.265755
O O16 0.580910 0.809357 0.331598
O O17 0.669058 0.000000 0.323992
O O18 0.494101 0.000000 0.302366
#
# Coordination Sequence:
#
# PCOD8090772 Si02
#       8
#     4   8   8   8   8   8   4   8
#     4  11  22  40  66  83 115 158 206 257 303 359
#     4  12  26  41  65  88 121 160 202 255 313 367
#     4  12  23  40  63  92 122 160 202 255 308 364
#     4  10  20  35  58  90 125 160 203 251 304 360
#     4  11  25  42  61  91 125 162 204 251 311 370
#     4   9  18  36  60  86 121 159 202 252 295 355
#     4  11  24  44  60  88 119 154 210 258 308 367
#     4  10  19  33  62  93 117 156 208 253 294 355
#
# _framework density 19.121462999999999
#
# number of rings (size 3 to 8) (size 9 to 14) (size 15 to 20)
#    0.000    1.286    5.000    1.286    3.000    2.286 
#    0.000    0.714    0.000    2.571    0.000    0.000 
#    0.000    0.000    0.000    0.000    0.000    0.000 
#
# Total GULP energy -346946.699351 kJ/mol
# GULP energy per Si atom -12390.953548 kJ/mol
# Density = 1.907794 g / cm^3
# Si number density = 19.121463 Si / 1000 Ang^3
#
#
#
# Elastic Constant Matrix: (Units=GPa)
#
#
# Indices 1 2 3 4 5 6 
#
# 1 110.7368 25.7578 28.0783 0.0000 -6.1993 0.0000
# 2 25.7578 69.5325 13.6137 0.0000 -4.9676 0.0000
# 3 28.0783 13.6137 102.5582 0.0000 5.0574 0.0000
# 4 0.0000 0.0000 0.0000 45.6360 0.0000 28.7701
# 5 -6.1993 -4.9676 5.0574 0.0000 30.8198 0.0000
# 6 0.0000 0.0000 0.0000 28.7701 0.0000 91.8779
#
#
#
# Elastic Compliance Matrix: (Units=1/GPa)
#
#
# Indices 1 2 3 4 5 6 
#
# 1 0.010550 -0.003264 -0.002555 0.000000 0.002015 0.000000
# 2 -0.003264 0.016006 -0.001337 0.000000 0.002143 0.000000
# 3 -0.002555 -0.001337 0.010750 0.000000 -0.002493 0.000000
# 4 0.000000 0.000000 0.000000 0.027302 0.000000 -0.008549
# 5 0.002015 0.002143 -0.002493 0.000000 0.033606 0.000000
# 6 0.000000 0.000000 0.000000 -0.008549 0.000000 0.013561
#
#
# Mechanical properties :
#
#
# Convention : Reuss Voigt Hill
#
# Bulk Modulus (GPa) = 43.48639 46.41410 44.95024
# Shear Modulus (GPa) = 37.38270 48.02526 42.70398
#
# Velocity S-wave (km/s) = 4.42635 5.01701 4.73091
# Velocity P-wave (km/s) = 6.99392 7.60832 7.30758
#
# Compressibility (1/GPa) = 0.02299570
#
# Stress axis : x y z
#
# Youngs Moduli (GPa) = 94.78493 62.47770 93.02055
#
# Poissons Ratio (x) = 0.20394 0.23762
# Poissons Ratio (y) = 0.30939 0.12433
# Poissons Ratio (z) = 0.24213 0.08351
#
# Static dielectric constant tensor:
#      x y z
#    x 3.695360 0.000000 0.132910 
#    y 0.000000 3.266510 0.000000 
#    z 0.132910 0.000000 4.293390 
# 
# 
# High freq. dielectric constant tensor:
#      x y z
#    x 1.750790 0.000000 0.002590 
#    y 0.000000 1.726410 0.000000 
#    z 0.002590 0.000000 1.753860 
# 
# From -- ./inp_files/269227.got.cif
#   From: 2010.06.25/outbox.cif.g09.slc.cpg/sg12_135_cif.got.tgz:269227.got - 2010.06.28 00:19:55.
