data_PCOD8090392
_publ_section_title
;
Structure prediction by ZEFSAII (Michael W. Deem and Ramdas Pophale) SiO2 
 PCOD8090392
Probable space group: C 2/M
;
_chemical_formula_sum "Si O2"
_cell_formula_units_Z 48
_cell_length_a 15.938980
_cell_length_b 9.151850
_cell_length_c 29.474978
_cell_angle_alpha 90.000000
_cell_angle_beta 34.601328
_cell_angle_gamma 90.000000
_cell_volume 2441.554068
_symmetry_space_group_name_H-M "C 2/M"
_symmetry_group_IT_number 12
_symmetry_cell_setting 'monoclinic'
loop_
_space_group_symop_operation_xyz
x,y,z
-x,y,-z
-x,-y,-z
x,-y,z
1/2+x,1/2+y,z
1/2-x,1/2+y,-z
1/2-x,1/2-y,-z
1/2+x,1/2-y,z
loop_
_atom_site_type_symbol
_atom_site_label
_atom_site_fract_x
_atom_site_fract_y
_atom_site_fract_z
Si Si1 0.629929 0.826051 0.584437
Si Si2 0.666672 0.669179 0.164271
Si Si3 0.156388 0.670283 0.831675
Si Si4 0.829364 0.328879 0.004696
Si Si5 0.812165 0.670479 0.687228
Si Si6 0.343288 0.668627 0.332669
O O1 0.750000 0.750000 0.500000
O O2 0.471696 0.776622 0.634317
O O3 0.657452 0.772630 0.623482
O O4 0.647938 0.000000 0.574835
O O5 0.709590 0.500000 0.145899
O O6 0.720391 0.733045 0.188533
O O7 0.492356 0.695775 0.237337
O O8 0.758657 0.739448 0.081971
O O9 0.172979 0.500000 0.813638
O O10 0.180819 0.752026 0.773392
O O11 0.001862 0.706392 0.924510
O O12 0.796891 0.500000 0.015796
O O13 0.750000 0.250000 0.000000
O O14 0.792165 0.500000 0.704092
O O15 0.790026 0.706083 0.643192
O O16 0.333614 0.500000 0.353477
#
# Coordination Sequence:
#
# PCOD8090392 Si02
#       6
#     8   8   8   8   8   8
#     4  11  24  42  63  89 120 151 187 236 291 348
#     4   9  17  32  55  80 109 149 194 236 281 337
#     4  10  19  33  56  83 111 151 200 244 284 338
#     4  10  20  33  50  77 113 151 197 244 286 334
#     4  10  22  39  61  89 120 153 190 239 294 344
#     4  10  20  38  63  87 115 155 196 234 286 348
#
# _framework density 19.659609
#
# number of rings (size 3 to 8) (size 9 to 14) (size 15 to 20)
#    0.000    2.000    1.667    2.000    0.000    6.000 
#    0.000    5.000    0.000    2.000    0.000    0.000 
#    0.000    0.000    0.000    0.000    0.000    0.000 
#
# Total GULP energy -297529.511582 kJ/mol
# GULP energy per Si atom -12397.062983 kJ/mol
# Density = 1.961486 g / cm^3
# Si number density = 19.659609 Si / 1000 Ang^3
#
#
#
# Elastic Constant Matrix: (Units=GPa)
#
#
# Indices 1 2 3 4 5 6 
#
# 1 135.0701 39.3118 47.7351 0.0002 12.5923 0.0006
# 2 39.3118 47.9324 44.7369 0.0003 3.9880 0.0009
# 3 47.7351 44.7369 113.0491 0.0000 13.3166 0.0000
# 4 0.0002 0.0003 0.0000 31.0387 0.0000 4.4751
# 5 12.5923 3.9880 13.3166 0.0000 23.6672 0.0001
# 6 0.0006 0.0009 0.0000 4.4751 0.0001 31.6374
#
#
#
# Elastic Compliance Matrix: (Units=1/GPa)
#
#
# Indices 1 2 3 4 5 6 
#
# 1 0.010170 -0.007024 -0.001089 0.000000 -0.003615 0.000000
# 2 -0.007024 0.038014 -0.012598 0.000000 0.004420 -0.000001
# 3 -0.001089 -0.012598 0.014964 0.000000 -0.005718 0.000000
# 4 0.000000 0.000000 0.000000 0.032889 0.000000 -0.004652
# 5 -0.003615 0.004420 -0.005718 0.000000 0.046648 0.000000
# 6 0.000000 -0.000001 0.000000 -0.004652 0.000000 0.032266
#
#
# Mechanical properties :
#
#
# Convention : Reuss Voigt Hill
#
# Bulk Modulus (GPa) = 46.02657 62.17990 54.10324
# Shear Modulus (GPa) = 22.36000 28.21984 25.28992
#
# Velocity S-wave (km/s) = 3.37613 3.79281 3.59052
# Velocity P-wave (km/s) = 6.21774 7.13284 6.69095
#
# Compressibility (1/GPa) = 0.02172658
#
# Stress axis : x y z
#
# Youngs Moduli (GPa) = 98.33278 26.30642 66.82502
#
# Poissons Ratio (x) = 0.18476 0.07277
# Poissons Ratio (y) = 0.69064 0.84187
# Poissons Ratio (z) = 0.10707 0.33141
#
# Static dielectric constant tensor:
#      x y z
#    x 3.751870 0.000000 0.109710 
#    y 0.000000 3.333780 0.000000 
#    z 0.109710 0.000000 3.540180 
# 
# 
# High freq. dielectric constant tensor:
#      x y z
#    x 1.781160 0.000000 0.002400 
#    y 0.000000 1.737780 0.000000 
#    z 0.002400 0.000000 1.769350 
# 
# From -- ./inp_files/212927.got.cif
#   From: 2010.06.25/outbox.cif.g09.slc.cpg/sg12_107_cif.got.tgz:212927.got - 2010.06.28 00:19:55.
