data_PCOD8090221
_publ_section_title
;
Structure prediction by ZEFSAII (Michael W. Deem and Ramdas Pophale) SiO2 
 PCOD8090221
Probable space group: C 2/M
;
_chemical_formula_sum "Si O2"
_cell_formula_units_Z 56
_cell_length_a 28.801639
_cell_length_b 9.210678
_cell_length_c 13.746355
_cell_angle_alpha 90.000000
_cell_angle_beta 127.178376
_cell_angle_gamma 90.000000
_cell_volume 2905.512941
_symmetry_space_group_name_H-M "C 2/M"
_symmetry_group_IT_number 12
_symmetry_cell_setting 'monoclinic'
loop_
_space_group_symop_operation_xyz
x,y,z
-x,y,-z
-x,-y,-z
x,-y,z
1/2+x,1/2+y,z
1/2-x,1/2+y,-z
1/2-x,1/2-y,-z
1/2+x,1/2-y,z
loop_
_atom_site_type_symbol
_atom_site_label
_atom_site_fract_x
_atom_site_fract_y
_atom_site_fract_z
Si Si1 0.919887 0.170159 0.146361
Si Si2 0.558696 0.836098 0.014848
Si Si3 0.502995 0.170107 0.390290
Si Si4 0.376024 0.829132 0.542794
Si Si5 0.841373 0.671936 0.711045
Si Si6 0.755700 0.329228 0.301461
Si Si7 0.784926 0.169788 0.961456
O O1 0.948764 0.246570 0.275126
O O2 0.930973 0.000000 0.166425
O O3 0.949017 0.229889 0.085389
O O4 0.852103 0.210130 0.059286
O O5 0.611232 0.782394 0.149010
O O6 0.570090 0.000000 0.992038
O O7 0.500000 0.829103 0.000000
O O8 0.500000 0.202663 0.500000
O O9 0.563601 0.233920 0.423564
O O10 0.496439 0.000000 0.359684
O O11 0.363052 0.767913 0.634172
O O12 0.323322 0.788512 0.403366
O O13 0.383091 0.000000 0.558779
O O14 0.831496 0.500000 0.694542
O O15 0.781005 0.748335 0.661977
O O16 0.744364 0.500000 0.299033
O O17 0.737089 0.274249 0.171278
O O18 0.773210 0.000000 0.957131
O O19 0.750000 0.250000 0.000000
#
# Coordination Sequence:
#
# PCOD8090221 Si02
#       7
#     8   8   8   8   8   8   8
#     4  11  23  40  59  86 122 154 188 239 298 351
#     4  10  20  35  58  85 116 156 199 242 283 337
#     4  10  22  40  64  88 111 150 201 244 285 343
#     4   9  19  36  58  85 115 148 191 240 283 335
#     4  10  19  33  55  84 116 148 188 235 285 339
#     4  10  20  37  59  83 117 151 185 234 288 342
#     4  10  23  39  59  86 116 153 194 239 288 344
#
# _framework density 19.273705
#
# number of rings (size 3 to 8) (size 9 to 14) (size 15 to 20)
#    0.000    2.000    1.429    1.714    2.000    4.571 
#    0.000    2.857    0.000    0.000    0.000    0.000 
#    0.000    0.000    0.000    0.000    0.000    0.000 
#
# Total GULP energy -347292.701027 kJ/mol
# GULP energy per Si atom -12403.310751 kJ/mol
# Density = 1.922984 g / cm^3
# Si number density = 19.273705 Si / 1000 Ang^3
#
#
#
# Elastic Constant Matrix: (Units=GPa)
#
#
# Indices 1 2 3 4 5 6 
#
# 1 107.8330 34.9728 50.7182 0.0000 -14.9761 0.0000
# 2 34.9728 45.7564 47.0892 0.0000 -6.0984 0.0000
# 3 50.7182 47.0892 141.9957 0.0000 -7.3923 0.0000
# 4 0.0000 0.0000 0.0000 24.3936 0.0000 3.8208
# 5 -14.9761 -6.0984 -7.3923 0.0000 28.7408 0.0000
# 6 0.0000 0.0000 0.0000 3.8208 0.0000 27.2405
#
#
#
# Elastic Compliance Matrix: (Units=1/GPa)
#
#
# Indices 1 2 3 4 5 6 
#
# 1 0.013315 -0.007435 -0.002039 0.000000 0.004836 0.000000
# 2 -0.007435 0.037853 -0.009813 0.000000 0.001634 0.000000
# 3 -0.002039 -0.009813 0.011008 0.000000 -0.000313 0.000000
# 4 0.000000 0.000000 0.000000 0.041915 0.000000 -0.005879
# 5 0.004836 0.001634 -0.000313 0.000000 0.037580 0.000000
# 6 0.000000 0.000000 0.000000 -0.005879 0.000000 0.037535
#
#
# Mechanical properties :
#
#
# Convention : Reuss Voigt Hill
#
# Bulk Modulus (GPa) = 42.36286 62.34949 52.35617
# Shear Modulus (GPa) = 22.15844 26.92864 24.54354
#
# Velocity S-wave (km/s) = 3.39436 3.74193 3.57237
# Velocity P-wave (km/s) = 6.11470 7.14766 6.65127
#
# Compressibility (1/GPa) = 0.02360558
#
# Stress axis : x y z
#
# Youngs Moduli (GPa) = 75.10102 26.41766 90.83925
#
# Poissons Ratio (x) = 0.19640 0.18520
# Poissons Ratio (y) = 0.55834 0.89137
# Poissons Ratio (z) = 0.15311 0.25922
#
# Static dielectric constant tensor:
#      x y z
#    x 3.605720 0.000000 0.067660 
#    y 0.000000 3.338110 0.000000 
#    z 0.067660 0.000000 3.738600 
# 
# 
# High freq. dielectric constant tensor:
#      x y z
#    x 1.757450 0.000000 0.002120 
#    y 0.000000 1.724120 0.000000 
#    z 0.002120 0.000000 1.766820 
# 
# From -- ./inp_files/180811.got.cif
#   From: 2010.06.25/outbox.cif.g09.slc.cpg/sg12_91_cif.got.tgz:180811.got - 2010.06.28 00:19:55.
