data_PCOD8090942
_publ_section_title
;
Structure prediction by ZEFSAII (Michael W. Deem and Ramdas Pophale) SiO2 
 PCOD8090942
Probable space group: C 2/M
;
_chemical_formula_sum "Si O2"
_cell_formula_units_Z 64
_cell_length_a 14.575141
_cell_length_b 9.205415
_cell_length_c 29.905139
_cell_angle_alpha 90.000000
_cell_angle_beta 59.746892
_cell_angle_gamma 90.000000
_cell_volume 3465.925898
_symmetry_space_group_name_H-M "C 2/M"
_symmetry_group_IT_number 12
_symmetry_cell_setting 'monoclinic'
loop_
_space_group_symop_operation_xyz
x,y,z
-x,y,-z
-x,-y,-z
x,-y,z
1/2+x,1/2+y,z
1/2-x,1/2+y,-z
1/2-x,1/2-y,-z
1/2+x,1/2-y,z
loop_
_atom_site_type_symbol
_atom_site_label
_atom_site_fract_x
_atom_site_fract_y
_atom_site_fract_z
Si Si1 0.290155 0.328132 0.875297
Si Si2 0.176613 0.833776 0.750404
Si Si3 0.989832 0.171190 0.137104
Si Si4 0.141487 0.666260 0.227887
Si Si5 0.094685 0.328819 0.690424
Si Si6 0.335533 0.169894 0.423789
Si Si7 0.097909 0.829907 0.506770
Si Si8 0.418001 0.328436 0.058552
O O1 0.275013 0.500000 0.876283
O O2 0.391439 0.282689 0.879782
O O3 0.302933 0.266785 0.822342
O O4 0.191104 0.255053 0.924540
O O5 0.293802 0.820468 0.742012
O O6 0.176498 0.744438 0.704568
O O7 0.091261 0.765103 0.806148
O O8 0.147050 0.000000 0.746888
O O9 0.963532 0.231056 0.094391
O O10 0.974906 0.000000 0.140146
O O11 0.143122 0.500000 0.210170
O O12 0.023367 0.721086 0.267089
O O13 0.109392 0.500000 0.689857
O O14 0.120565 0.274102 0.634354
O O15 0.210075 0.206903 0.455670
O O16 0.403553 0.250494 0.445109
O O17 0.355141 0.000000 0.425806
O O18 0.000000 0.773951 0.500000
O O19 0.085115 0.000000 0.519013
O O20 0.396086 0.500000 0.064658
O O21 0.500000 0.285214 0.000000
#
# Coordination Sequence:
#
# PCOD8090942 Si02
#       8
#     8   8   8   8   8   8   8   8
#     4  11  21  34  55  79 106 135 169 217 266 307
#     4  10  19  34  54  74 103 140 174 212 258 314
#     4   9  18  34  54  77 105 136 170 212 262 312
#     4  10  20  35  54  75 103 140 179 211 254 320
#     4  10  21  35  52  79 112 139 174 224 268 310
#     4   9  19  35  52  76 111 142 173 224 273 310
#     4   9  18  34  56  78 103 142 186 221 265 322
#     4  10  21  39  60  79 104 141 179 215 262 321
#
# _framework density 18.465484
#
# number of rings (size 3 to 8) (size 9 to 14) (size 15 to 20)
#    0.000    2.250    2.500    0.375    0.000    3.000 
#    0.000    1.250    0.000    0.000    0.000    0.000 
#    0.000    0.000    0.000    0.000    0.000    0.000 
#
# Total GULP energy -396862.728933 kJ/mol
# GULP energy per Si atom -12401.960279 kJ/mol
# Density = 1.842346 g / cm^3
# Si number density = 18.465484 Si / 1000 Ang^3
#
#
#
# Elastic Constant Matrix: (Units=GPa)
#
#
# Indices 1 2 3 4 5 6 
#
# 1 97.6486 23.8473 21.3619 0.0000 8.4079 0.0000
# 2 23.8473 35.5550 22.1644 0.0000 3.1765 0.0000
# 3 21.3619 22.1644 82.2846 0.0000 13.6623 0.0000
# 4 0.0000 0.0000 0.0000 25.1992 0.0000 1.5236
# 5 8.4079 3.1765 13.6623 0.0000 29.0579 0.0000
# 6 0.0000 0.0000 0.0000 1.5236 0.0000 27.7252
#
#
#
# Elastic Compliance Matrix: (Units=1/GPa)
#
#
# Indices 1 2 3 4 5 6 
#
# 1 0.012494 -0.007682 -0.000774 0.000000 -0.002411 0.000000
# 2 -0.007682 0.038535 -0.008737 0.000000 0.002118 0.000000
# 3 -0.000774 -0.008737 0.015740 0.000000 -0.006222 0.000000
# 4 0.000000 0.000000 0.000000 0.039816 0.000000 -0.002188
# 5 -0.002411 0.002118 -0.006222 0.000000 0.037806 0.000000
# 6 0.000000 0.000000 0.000000 -0.002188 0.000000 0.036189
#
#
# Mechanical properties :
#
#
# Convention : Reuss Voigt Hill
#
# Bulk Modulus (GPa) = 30.88033 38.91506 34.89769
# Shear Modulus (GPa) = 22.14737 26.27077 24.20907
#
# Velocity S-wave (km/s) = 3.46698 3.77596 3.62476
# Velocity P-wave (km/s) = 5.72592 6.33488 6.03808
#
# Compressibility (1/GPa) = 0.03238307
#
# Stress axis : x y z
#
# Youngs Moduli (GPa) = 80.03984 25.95024 63.53068
#
# Poissons Ratio (x) = 0.19935 0.04917
# Poissons Ratio (y) = 0.61486 0.55509
# Poissons Ratio (z) = 0.06194 0.22674
#
# Static dielectric constant tensor:
#      x y z
#    x 3.506860 0.000000 -0.018910 
#    y 0.000000 3.200990 0.000000 
#    z -0.018910 0.000000 3.418480 
# 
# 
# High freq. dielectric constant tensor:
#      x y z
#    x 1.725800 0.000000 -0.000890 
#    y 0.000000 1.696690 0.000000 
#    z -0.000890 0.000000 1.712660 
# 
# From -- ./inp_files/359886.got.cif
#   From: 2010.06.25/outbox.cif.g09.slc.cpg/sg12_180_cif.got.tgz:359886.got - 2010.06.28 00:19:55.
