data_PCOD8090483
_publ_section_title
;
Structure prediction by ZEFSAII (Michael W. Deem and Ramdas Pophale) SiO2 
 PCOD8090483
Probable space group: C 2/M
;
_chemical_formula_sum "Si O2"
_cell_formula_units_Z 48
_cell_length_a 30.933894
_cell_length_b 10.496051
_cell_length_c 7.885539
_cell_angle_alpha 90.000000
_cell_angle_beta 110.202870
_cell_angle_gamma 90.000000
_cell_volume 2402.785226
_symmetry_space_group_name_H-M "C 2/M"
_symmetry_group_IT_number 12
_symmetry_cell_setting 'monoclinic'
loop_
_space_group_symop_operation_xyz
x,y,z
-x,y,-z
-x,-y,-z
x,-y,z
1/2+x,1/2+y,z
1/2-x,1/2+y,-z
1/2-x,1/2-y,-z
1/2+x,1/2-y,z
loop_
_atom_site_type_symbol
_atom_site_label
_atom_site_fract_x
_atom_site_fract_y
_atom_site_fract_z
Si Si1 0.902396 0.145559 0.210281
Si Si2 0.686524 0.264829 0.063448
Si Si3 0.157526 0.646637 0.354658
Si Si4 0.094827 0.148413 0.415051
Si Si5 0.716225 0.141978 0.755298
Si Si6 0.006641 0.852570 0.825433
O O1 0.888179 0.197129 0.377042
O O2 0.949199 0.213404 0.205543
O O3 0.914691 0.000000 0.259396
O O4 0.861189 0.158468 0.019468
O O5 0.679687 0.155629 0.196552
O O6 0.728362 0.352238 0.184207
O O7 0.697955 0.218043 0.891114
O O8 0.140582 0.500000 0.356499
O O9 0.116717 0.751883 0.311130
O O10 0.194926 0.687712 0.547558
O O11 0.039661 0.163540 0.345042
O O12 0.108429 0.000000 0.390816
O O13 0.700218 0.000000 0.767946
O O14 0.019352 0.000000 0.871547
O O15 0.000000 0.787267 0.000000
#
# Coordination Sequence:
#
# PCOD8090483 Si02
#       6
#     8   8   8   8   8   8
#     4  10  19  33  56  87 118 150 192 243 295 345
#     4  11  21  37  60  84 112 154 198 239 287 350
#     4  11  23  40  60  86 120 158 196 237 290 346
#     4  10  20  36  58  87 118 153 195 240 288 344
#     4  10  22  39  57  82 117 153 194 243 290 343
#     4   9  17  30  52  83 117 150 187 238 293 342
#
# _framework density 19.976815999999999
#
# number of rings (size 3 to 8) (size 9 to 14) (size 15 to 20)
#    0.000    1.833    1.667    3.000    0.000    4.667 
#    0.000    0.833    0.000    7.500    0.000    0.000 
#    0.000    0.000    0.000    0.000    0.000    0.000 
#
# Total GULP energy -297396.462606 kJ/mol
# GULP energy per Si atom -12391.519275 kJ/mol
# Density = 1.993135 g / cm^3
# Si number density = 19.976816 Si / 1000 Ang^3
#
#
#
# Elastic Constant Matrix: (Units=GPa)
#
#
# Indices 1 2 3 4 5 6 
#
# 1 96.9419 25.3799 33.2715 0.0000 6.8843 0.0000
# 2 25.3799 57.9023 18.6491 0.0000 -5.5934 0.0000
# 3 33.2715 18.6491 98.7856 0.0000 -4.7484 0.0000
# 4 0.0000 0.0000 0.0000 22.3677 0.0000 -0.1354
# 5 6.8843 -5.5934 -4.7484 0.0000 31.3962 0.0000
# 6 0.0000 0.0000 0.0000 -0.1354 0.0000 18.1825
#
#
#
# Elastic Compliance Matrix: (Units=1/GPa)
#
#
# Indices 1 2 3 4 5 6 
#
# 1 0.013212 -0.005016 -0.003712 0.000000 -0.004352 0.000000
# 2 -0.005016 0.020535 -0.001973 0.000000 0.004460 0.000000
# 3 -0.003712 -0.001973 0.011854 0.000000 0.002255 0.000000
# 4 0.000000 0.000000 0.000000 0.044709 0.000000 0.000333
# 5 -0.004352 0.004460 0.002255 0.000000 0.033941 0.000000
# 6 0.000000 0.000000 0.000000 0.000333 0.000000 0.055001
#
#
# Mechanical properties :
#
#
# Convention : Reuss Voigt Hill
#
# Bulk Modulus (GPa) = 41.32348 45.35897 43.34123
# Shear Modulus (GPa) = 23.95554 26.14457 25.05005
#
# Velocity S-wave (km/s) = 3.46666 3.62158 3.54497
# Velocity P-wave (km/s) = 6.06253 6.34373 6.20472
#
# Compressibility (1/GPa) = 0.02419932
#
# Stress axis : x y z
#
# Youngs Moduli (GPa) = 75.69048 48.69665 84.35939
#
# Poissons Ratio (x) = 0.24425 0.31315
# Poissons Ratio (y) = 0.37965 0.16644
# Poissons Ratio (z) = 0.28097 0.09608
#
# Static dielectric constant tensor:
#      x y z
#    x 3.751330 0.000000 -0.069620 
#    y 0.000000 3.137820 0.000000 
#    z -0.069620 0.000000 3.810670 
# 
# 
# High freq. dielectric constant tensor:
#      x y z
#    x 1.784610 0.000000 -0.000490 
#    y 0.000000 1.726990 0.000000 
#    z -0.000490 0.000000 1.800820 
# 
# From -- ./inp_files/102034.got.cif
#   From: 2010.06.25/outbox.cif.g09.slc.cpg/sg12_52_cif.got.tgz:102034.got - 2010.06.28 00:19:55.
