data_PCOD8090138
_publ_section_title
;
Structure prediction by ZEFSAII (Michael W. Deem and Ramdas Pophale) SiO2 
 PCOD8090138
Probable space group: C 2/M
;
_chemical_formula_sum "Si O2"
_cell_formula_units_Z 56
_cell_length_a 30.530067
_cell_length_b 9.030147
_cell_length_c 11.663562
_cell_angle_alpha 90.000000
_cell_angle_beta 63.328900
_cell_angle_gamma 90.000000
_cell_volume 2873.398924
_symmetry_space_group_name_H-M "C 2/M"
_symmetry_group_IT_number 12
_symmetry_cell_setting 'monoclinic'
loop_
_space_group_symop_operation_xyz
x,y,z
-x,y,-z
-x,-y,-z
x,-y,z
1/2+x,1/2+y,z
1/2-x,1/2+y,-z
1/2-x,1/2-y,-z
1/2+x,1/2-y,z
loop_
_atom_site_type_symbol
_atom_site_label
_atom_site_fract_x
_atom_site_fract_y
_atom_site_fract_z
Si Si1 0.199141 0.669529 0.551749
Si Si2 0.977760 0.170997 0.206213
Si Si3 0.957893 0.675897 0.466384
Si Si4 0.758208 0.675839 0.869085
Si Si5 0.150017 0.675151 0.382711
Si Si6 0.575725 0.329000 0.962300
Si Si7 0.172787 0.670104 0.836366
O O1 0.211333 0.500000 0.510497
O O2 0.250000 0.750000 0.500000
O O3 0.167490 0.739219 0.485297
O O4 0.169022 0.687463 0.704075
O O5 0.965092 0.270680 0.328976
O O6 0.943602 0.218975 0.140176
O O7 0.969076 0.000000 0.247355
O O8 0.034142 0.198142 0.105827
O O9 0.960274 0.500000 0.461513
O O10 0.905167 0.732863 0.576543
O O11 0.000000 0.741246 0.500000
O O12 0.753683 0.500000 0.885146
O O13 0.812136 0.724702 0.760886
O O14 0.718058 0.733732 0.827412
O O15 0.750000 0.750000 0.000000
O O16 0.148860 0.500000 0.392052
O O17 0.591584 0.500000 0.941111
O O18 0.621898 0.230665 0.946787
O O19 0.179981 0.500000 0.866208
#
# Coordination Sequence:
#
# PCOD8090138 Si02
#       7
#     8   8   8   8   8   8   8
#     4  10  19  33  55  82 112 144 182 231 282 338
#     4   9  19  37  58  83 114 149 189 233 282 340
#     4  10  21  37  58  83 112 149 192 235 285 340
#     4  11  23  40  59  78 112 156 195 236 283 338
#     4   9  19  37  58  81 113 151 185 230 289 339
#     4   9  19  36  58  83 116 152 184 226 287 346
#     4  11  22  35  56  88 118 145 189 238 282 343
#
# _framework density 19.489113
#
# number of rings (size 3 to 8) (size 9 to 14) (size 15 to 20)
#    0.000    2.143    1.429    2.571    0.000    4.286 
#    0.000    5.000    0.000    0.000    0.000    0.000 
#    0.000    0.000    0.000    0.000    0.000    0.000 
#
# Total GULP energy -347191.191795 kJ/mol
# GULP energy per Si atom -12399.685421 kJ/mol
# Density = 1.944476 g / cm^3
# Si number density = 19.489113 Si / 1000 Ang^3
#
#
#
# Elastic Constant Matrix: (Units=GPa)
#
#
# Indices 1 2 3 4 5 6 
#
# 1 135.9459 36.2459 63.0356 0.0000 -22.3582 0.0000
# 2 36.2459 58.2334 37.4267 0.0000 -7.7870 0.0000
# 3 63.0356 37.4267 118.1281 0.0000 -7.7339 0.0000
# 4 0.0000 0.0000 0.0000 30.6800 0.0000 3.3048
# 5 -22.3582 -7.7870 -7.7339 0.0000 33.7562 0.0000
# 6 0.0000 0.0000 0.0000 3.3048 0.0000 26.3505
#
#
#
# Elastic Compliance Matrix: (Units=1/GPa)
#
#
# Indices 1 2 3 4 5 6 
#
# 1 0.011312 -0.003317 -0.004614 0.000000 0.005670 0.000000
# 2 -0.003317 0.022942 -0.005376 0.000000 0.001863 0.000000
# 3 -0.004614 -0.005376 0.012538 0.000000 -0.001424 0.000000
# 4 0.000000 0.000000 0.000000 0.033041 0.000000 -0.004144
# 5 0.005670 0.001863 -0.001424 0.000000 0.033483 0.000000
# 6 0.000000 0.000000 0.000000 -0.004144 0.000000 0.038470
#
#
# Mechanical properties :
#
#
# Convention : Reuss Voigt Hill
#
# Bulk Modulus (GPa) = 49.56419 65.08044 57.32231
# Shear Modulus (GPa) = 27.00844 29.86397 28.43621
#
# Velocity S-wave (km/s) = 3.72670 3.91876 3.82394
# Velocity P-wave (km/s) = 6.63360 7.34447 6.99807
#
# Compressibility (1/GPa) = 0.02017586
#
# Stress axis : x y z
#
# Youngs Moduli (GPa) = 88.39827 43.58880 79.75832
#
# Poissons Ratio (x) = 0.14460 0.36803
# Poissons Ratio (y) = 0.29324 0.42882
# Poissons Ratio (z) = 0.40789 0.23435
#
# Static dielectric constant tensor:
#      x y z
#    x 3.819780 0.000000 -0.128900 
#    y 0.000000 3.384780 0.000000 
#    z -0.128900 0.000000 3.734220 
# 
# 
# High freq. dielectric constant tensor:
#      x y z
#    x 1.764350 0.000000 -0.009650 
#    y 0.000000 1.740500 0.000000 
#    z -0.009650 0.000000 1.762530 
# 
# From -- ./inp_files/187207.got.cif
#   From: 2010.06.25/outbox.cif.g09.slc.cpg/sg12_94_cif.got.tgz:187207.got - 2010.06.28 00:19:55.
