data_PCOD8090165
_publ_section_title
;
Structure prediction by ZEFSAII (Michael W. Deem and Ramdas Pophale) SiO2 
 PCOD8090165
Probable space group: C 2/M
;
_chemical_formula_sum "Si O2"
_cell_formula_units_Z 44
_cell_length_a 16.242179
_cell_length_b 19.793693
_cell_length_c 11.275322
_cell_angle_alpha 90.000000
_cell_angle_beta 143.847466
_cell_angle_gamma 90.000000
_cell_volume 2138.482365
_symmetry_space_group_name_H-M "C 2/M"
_symmetry_group_IT_number 12
_symmetry_cell_setting 'monoclinic'
loop_
_space_group_symop_operation_xyz
x,y,z
-x,y,-z
-x,-y,-z
x,-y,z
1/2+x,1/2+y,z
1/2-x,1/2+y,-z
1/2-x,1/2-y,-z
1/2+x,1/2-y,z
loop_
_atom_site_type_symbol
_atom_site_label
_atom_site_fract_x
_atom_site_fract_y
_atom_site_fract_z
Si Si1 0.371564 0.425243 0.919823
Si Si2 0.500000 0.839446 0.500000
Si Si3 0.236516 0.819880 0.551695
Si Si4 0.412748 0.324583 0.155351
Si Si5 0.763124 0.768987 0.195386
Si Si6 0.881478 0.423056 0.553453
O O1 0.419436 0.500000 0.011891
O O2 0.239049 0.426053 0.683208
O O3 0.500000 0.388853 0.000000
O O4 0.338810 0.386562 0.002915
O O5 0.638656 0.793854 0.653456
O O6 0.506804 0.885317 0.628189
O O7 0.250000 0.750000 0.500000
O O8 0.283916 0.809669 0.742905
O O9 0.332963 0.879496 0.610597
O O10 0.075376 0.840235 0.355679
O O11 0.349886 0.319624 0.213322
O O12 0.375080 0.256801 0.035515
O O13 0.922917 0.500000 0.639980
#
# Coordination Sequence:
#
# PCOD8090165 Si02
#       6
#     8   4   8   8   8   8
#     4  10  19  33  55  83 108 143 192 233 283 344
#     4  12  19  40  54  86 117 146 200 242 285 344
#     4  12  21  37  60  87 117 150 195 241 288 348
#     4  11  21  37  57  83 121 148 185 244 293 334
#     4  11  23  36  58  90 115 151 194 238 291 352
#     4  11  23  36  58  85 117 155 194 244 294 343
#
# _framework density 20.575339
#
# number of rings (size 3 to 8) (size 9 to 14) (size 15 to 20)
#    0.000    0.909    7.273    0.273    0.000    0.000 
#    0.000    0.909    0.000    2.182    0.000    7.636 
#    0.000    0.000    0.000    0.000    0.000    0.000 
#
# Total GULP energy -272751.555451 kJ/mol
# GULP energy per Si atom -12397.797975 kJ/mol
# Density = 2.052851 g / cm^3
# Si number density = 20.575339 Si / 1000 Ang^3
#
#
#
# Elastic Constant Matrix: (Units=GPa)
#
#
# Indices 1 2 3 4 5 6 
#
# 1 147.1718 68.2222 13.3328 0.0000 -29.7903 0.0000
# 2 68.2222 113.2610 -4.8128 0.0000 -17.9001 0.0000
# 3 13.3328 -4.8128 27.4736 0.0000 -11.8694 0.0000
# 4 0.0000 0.0000 0.0000 -40.3079 0.0000 10.7432
# 5 -29.7903 -17.9001 -11.8694 0.0000 33.3694 0.0000
# 6 0.0000 0.0000 0.0000 10.7432 0.0000 36.4972
#
#
#
# Elastic Compliance Matrix: (Units=1/GPa)
#
#
# Indices 1 2 3 4 5 6 
#
# 1 0.010981 -0.005984 -0.004169 0.000000 0.005110 0.000000
# 2 -0.005984 0.013435 0.007164 0.000000 0.004413 0.000000
# 3 -0.004169 0.007164 0.046943 0.000000 0.016818 0.000000
# 4 0.000000 0.000000 0.000000 -0.023004 0.000000 0.006771
# 5 0.005110 0.004413 0.016818 0.000000 0.042879 0.000000
# 6 0.000000 0.000000 0.000000 0.006771 0.000000 0.025406
#
#
# Mechanical properties :
#
#
# Convention : Reuss Voigt Hill
#
# Bulk Modulus (GPa) = 15.29492 49.04341 32.16917
# Shear Modulus (GPa) = 34.62326 19.98937 27.30631
#
# Velocity S-wave (km/s) = 4.10659 3.12030 3.64694
# Velocity P-wave (km/s) = 5.47131 6.07203 5.77948
#
# Compressibility (1/GPa) = 0.06538117
#
# Stress axis : x y z
#
# Youngs Moduli (GPa) = 91.06934 74.43059 21.30246
#
# Poissons Ratio (x) = 0.44537 0.08882
# Poissons Ratio (y) = 0.54493 -0.15261
# Poissons Ratio (z) = 0.37970 -0.53323
#
# Static dielectric constant tensor:
#      x y z
#    x 4.053090 0.000000 0.007740 
#    y 0.000000 4.020040 0.000000 
#    z 0.007740 0.000000 3.658820 
# 
# 
# High freq. dielectric constant tensor:
#      x y z
#    x 1.811580 0.000000 0.006830 
#    y 0.000000 1.789750 0.000000 
#    z 0.006830 0.000000 1.785610 
# 
# From -- ./inp_files/147767.got.cif
#   From: 2010.06.25/outbox.cif.g09.slc.cpg/sg12_74_cif.got.tgz:147767.got - 2010.06.28 00:19:55.
