data_PCOD8090883
_publ_section_title
;
Structure prediction by ZEFSAII (Michael W. Deem and Ramdas Pophale) SiO2 
 PCOD8090883
Probable space group: C 2/M
;
_chemical_formula_sum "Si O2"
_cell_formula_units_Z 64
_cell_length_a 24.042652
_cell_length_b 20.208842
_cell_length_c 10.870050
_cell_angle_alpha 90.000000
_cell_angle_beta 44.559817
_cell_angle_gamma 90.000000
_cell_volume 3705.766472
_symmetry_space_group_name_H-M "C 2/M"
_symmetry_group_IT_number 12
_symmetry_cell_setting 'monoclinic'
loop_
_space_group_symop_operation_xyz
x,y,z
-x,y,-z
-x,-y,-z
x,-y,z
1/2+x,1/2+y,z
1/2-x,1/2+y,-z
1/2-x,1/2-y,-z
1/2+x,1/2-y,z
loop_
_atom_site_type_symbol
_atom_site_label
_atom_site_fract_x
_atom_site_fract_y
_atom_site_fract_z
Si Si1 0.688688 0.573027 0.617608
Si Si2 0.326991 0.130495 0.552327
Si Si3 0.408296 0.831300 0.181813
Si Si4 0.209207 0.574743 0.771296
Si Si5 0.409062 0.076081 0.654165
Si Si6 0.407498 0.686294 0.124184
Si Si7 0.705428 0.702054 0.903441
Si Si8 0.211056 0.652980 0.999849
O O1 0.653586 0.500000 0.700089
O O2 0.764372 0.583381 0.584559
O O3 0.714744 0.578896 0.435635
O O4 0.622792 0.628175 0.741048
O O5 0.392599 0.154893 0.350778
O O6 0.370421 0.084849 0.582010
O O7 0.279890 0.191663 0.691939
O O8 0.363319 0.881789 0.164132
O O9 0.373426 0.757775 0.216213
O O10 0.500000 0.836032 0.000000
O O11 0.177517 0.500000 0.832597
O O12 0.240289 0.600254 0.853804
O O13 0.500000 0.096418 0.500000
O O14 0.370452 0.125898 0.813353
O O15 0.398572 0.000000 0.713430
O O16 0.375724 0.675720 0.033784
O O17 0.500000 0.685792 0.000000
O O18 0.721278 0.659538 0.002100
O O19 0.694938 0.778038 0.956866
#
# Coordination Sequence:
#
# PCOD8090883 Si02
#       8
#     8   8   8   8   8   8   8   8
#     4   9  19  34  53  77 103 133 175 222 267 317
#     4   9  19  33  52  74 101 140 176 214 263 308
#     4  10  21  33  51  79 112 142 174 216 260 315
#     4  10  20  33  53  78 106 141 178 216 257 308
#     4  10  21  33  48  71 104 144 177 213 259 310
#     4  10  20  34  55  81 106 135 172 220 274 319
#     4   9  19  34  55  76 100 136 176 222 259 308
#     4  10  19  34  53  74 103 137 182 216 254 306
#
# _framework density 17.270381
#
# number of rings (size 3 to 8) (size 9 to 14) (size 15 to 20)
#    0.000    2.375    1.250    0.750    3.500    2.500 
#    0.000    0.625    0.000    0.000    0.000    1.750 
#    0.000    0.000    0.000    0.000    0.000    0.000 
#
# Total GULP energy -396668.680064 kJ/mol
# GULP energy per Si atom -12395.896252 kJ/mol
# Density = 1.723107 g / cm^3
# Si number density = 17.270381 Si / 1000 Ang^3
#
#
#
# Elastic Constant Matrix: (Units=GPa)
#
#
# Indices 1 2 3 4 5 6 
#
# 1 91.0984 40.5549 50.7074 0.0000 4.9363 0.0000
# 2 40.5549 138.1821 62.1520 0.0000 2.8011 0.0000
# 3 50.7074 62.1520 86.0898 0.0000 12.8096 0.0000
# 4 0.0000 0.0000 0.0000 28.4577 0.0000 0.8664
# 5 4.9363 2.8011 12.8096 0.0000 27.4365 0.0000
# 6 0.0000 0.0000 0.0000 0.8664 0.0000 23.6245
#
#
#
# Elastic Compliance Matrix: (Units=1/GPa)
#
#
# Indices 1 2 3 4 5 6 
#
# 1 0.016435 -0.000589 -0.009482 0.000000 0.001530 0.000000
# 2 -0.000589 0.010928 -0.007944 0.000000 0.002699 0.000000
# 3 -0.009482 -0.007944 0.024246 0.000000 -0.008803 0.000000
# 4 0.000000 0.000000 0.000000 0.035179 0.000000 -0.001290
# 5 0.001530 0.002699 -0.008803 0.000000 0.040007 0.000000
# 6 0.000000 0.000000 0.000000 -0.001290 0.000000 0.042376
#
#
# Mechanical properties :
#
#
# Convention : Reuss Voigt Hill
#
# Bulk Modulus (GPa) = 64.19617 69.13319 66.66468
# Shear Modulus (GPa) = 23.76488 26.70082 25.23285
#
# Velocity S-wave (km/s) = 3.71354 3.93625 3.82651
# Velocity P-wave (km/s) = 7.45916 7.79587 7.62937
#
# Compressibility (1/GPa) = 0.01557725
#
# Stress axis : x y z
#
# Youngs Moduli (GPa) = 60.84705 91.50668 41.24429
#
# Poissons Ratio (x) = 0.05394 0.39109
# Poissons Ratio (y) = 0.03587 0.32764
# Poissons Ratio (z) = 0.57697 0.72693
#
# Static dielectric constant tensor:
#      x y z
#    x 3.260280 0.000000 0.234480 
#    y 0.000000 3.390090 0.000000 
#    z 0.234480 0.000000 3.196880 
# 
# 
# High freq. dielectric constant tensor:
#      x y z
#    x 1.664930 0.000000 0.017890 
#    y 0.000000 1.674850 0.000000 
#    z 0.017890 0.000000 1.654370 
# 
# From -- ./inp_files/184504.got.cif
#   From: 2010.06.25/outbox.cif.g09.slc.cpg/sg12_93_cif.got.tgz:184504.got - 2010.06.28 00:19:55.
