data_PCOD8090948
_publ_section_title
;
Structure prediction by ZEFSAII (Michael W. Deem and Ramdas Pophale) SiO2 
 PCOD8090948
Probable space group: C 2/M
;
_chemical_formula_sum "Si O2"
_cell_formula_units_Z 48
_cell_length_a 14.211217
_cell_length_b 8.549315
_cell_length_c 21.445415
_cell_angle_alpha 90.000000
_cell_angle_beta 89.829148
_cell_angle_gamma 90.000000
_cell_volume 2605.524217
_symmetry_space_group_name_H-M "C 2/M"
_symmetry_group_IT_number 12
_symmetry_cell_setting 'monoclinic'
loop_
_space_group_symop_operation_xyz
x,y,z
-x,y,-z
-x,-y,-z
x,-y,z
1/2+x,1/2+y,z
1/2-x,1/2+y,-z
1/2-x,1/2-y,-z
1/2+x,1/2-y,z
loop_
_atom_site_type_symbol
_atom_site_label
_atom_site_fract_x
_atom_site_fract_y
_atom_site_fract_z
Si Si1 0.000279 0.185573 0.400921
Si Si2 0.495749 0.315214 0.739548
Si Si3 0.646784 0.315091 0.500106
Si Si4 0.347930 0.816403 0.832725
Si Si5 0.357426 0.183610 0.171394
Si Si6 0.499141 0.815340 0.931064
O O1 0.000733 0.251080 0.330840
O O2 0.908374 0.246482 0.438429
O O3 0.093165 0.242806 0.437769
O O4 0.997883 0.000000 0.398923
O O5 0.478044 0.500000 0.742383
O O6 0.409568 0.227033 0.772595
O O7 0.595366 0.274310 0.771064
O O8 0.650072 0.500000 0.500995
O O9 0.750000 0.250000 0.500000
O O10 0.251821 0.721279 0.832444
O O11 0.404869 0.764598 0.894562
O O12 0.326287 0.000000 0.832144
O O13 0.408818 0.239547 0.107553
O O14 0.373185 0.000000 0.181889
O O15 0.500844 0.000000 0.937600
O O16 0.500000 0.737533 0.000000
#
# Coordination Sequence:
#
# PCOD8090948 Si02
#       6
#     8   8   8   8   8   8
#     4   8  17  33  52  71  97 131 161 196 245 297
#     4  10  19  34  54  75 100 132 169 208 251 295
#     4   9  17  33  52  72  98 127 161 199 242 290
#     4  10  20  34  52  75 103 134 167 205 249 296
#     4  10  20  34  52  75 103 134 167 205 249 296
#     4   8  16  32  52  73  99 130 165 206 249 293
#
# _framework density 18.422395999999999
#
# number of rings (size 3 to 8) (size 9 to 14) (size 15 to 20)
#    0.000    2.833    0.000    3.500    0.000    2.000 
#    0.000    8.333    0.000   17.000    0.000    0.000 
#    0.000    0.000    0.000    0.000    0.000    0.000 
#
# Total GULP energy -297524.461585 kJ/mol
# GULP energy per Si atom -12396.852566 kJ/mol
# Density = 1.838047 g / cm^3
# Si number density = 18.422396 Si / 1000 Ang^3
#
#
#
# Elastic Constant Matrix: (Units=GPa)
#
#
# Indices 1 2 3 4 5 6 
#
# 1 144.5376 6.4131 73.1865 0.0000 4.1261 0.0000
# 2 6.4131 26.6821 15.4969 0.0000 0.0298 0.0000
# 3 73.1865 15.4969 182.2077 0.0000 3.1905 0.0000
# 4 0.0000 0.0000 0.0000 20.4048 0.0000 -0.1945
# 5 4.1261 0.0298 3.1905 0.0000 14.2585 0.0000
# 6 0.0000 0.0000 0.0000 -0.1945 0.0000 30.6024
#
#
#
# Elastic Compliance Matrix: (Units=1/GPa)
#
#
# Indices 1 2 3 4 5 6 
#
# 1 0.008728 -0.000082 -0.003468 0.000000 -0.001750 0.000000
# 2 -0.000082 0.039433 -0.003333 0.000000 0.000687 0.000000
# 3 -0.003468 -0.003333 0.007175 0.000000 -0.000595 0.000000
# 4 0.000000 0.000000 0.000000 0.049011 0.000000 0.000311
# 5 -0.001750 0.000687 -0.000595 0.000000 0.070772 0.000000
# 6 0.000000 0.000000 0.000000 0.000311 0.000000 0.032679
#
#
# Mechanical properties :
#
#
# Convention : Reuss Voigt Hill
#
# Bulk Modulus (GPa) = 24.05542 60.40228 42.22885
# Shear Modulus (GPa) = 21.23852 30.27518 25.75685
#
# Velocity S-wave (km/s) = 3.39907 4.05827 3.74321
# Velocity P-wave (km/s) = 5.33769 7.40392 6.45403
#
# Compressibility (1/GPa) = 0.04157068
#
# Stress axis : x y z
#
# Youngs Moduli (GPa) = 114.56912 25.35950 139.36816
#
# Poissons Ratio (x) = 0.00207 0.48337
# Poissons Ratio (y) = 0.00934 0.46452
# Poissons Ratio (z) = 0.39736 0.08452
#
# Static dielectric constant tensor:
#      x y z
#    x 3.185190 0.000000 0.014470 
#    y 0.000000 3.116390 0.000000 
#    z 0.014470 0.000000 3.862500 
# 
# 
# High freq. dielectric constant tensor:
#      x y z
#    x 1.717210 0.000000 0.000100 
#    y 0.000000 1.691100 0.000000 
#    z 0.000100 0.000000 1.721390 
# 
# From -- ./inp_files/307987.got.cif
#   From: 2010.06.25/outbox.cif.g09.slc.cpg/sg12_154_cif.got.tgz:307987.got - 2010.06.28 00:19:55.
