data_PCOD8090309
_publ_section_title
;
Structure prediction by ZEFSAII (Michael W. Deem and Ramdas Pophale) SiO2 
 PCOD8090309
Probable space group: C 2/M
;
_chemical_formula_sum "Si O2"
_cell_formula_units_Z 48
_cell_length_a 14.504410
_cell_length_b 9.153136
_cell_length_c 29.319904
_cell_angle_alpha 90.000000
_cell_angle_beta 39.313163
_cell_angle_gamma 90.000000
_cell_volume 2466.149169
_symmetry_space_group_name_H-M "C 2/M"
_symmetry_group_IT_number 12
_symmetry_cell_setting 'monoclinic'
loop_
_space_group_symop_operation_xyz
x,y,z
-x,y,-z
-x,-y,-z
x,-y,z
1/2+x,1/2+y,z
1/2-x,1/2+y,-z
1/2-x,1/2-y,-z
1/2+x,1/2-y,z
loop_
_atom_site_type_symbol
_atom_site_label
_atom_site_fract_x
_atom_site_fract_y
_atom_site_fract_z
Si Si1 0.927719 0.830371 0.890180
Si Si2 0.063631 0.165554 0.368845
Si Si3 0.591851 0.831205 0.009396
Si Si4 0.389577 0.826349 0.255835
Si Si5 0.585283 0.332849 0.664681
Si Si6 0.620523 0.834131 0.492019
O O1 0.954788 0.769251 0.930518
O O2 0.031644 0.741244 0.817453
O O3 0.970641 0.000000 0.873523
O O4 0.763310 0.807562 0.935233
O O5 0.222177 0.228257 0.320168
O O6 0.045825 0.176799 0.321148
O O7 0.931722 0.250007 0.443219
O O8 0.051768 0.000000 0.390372
O O9 0.558946 0.000000 0.034009
O O10 0.500000 0.782816 0.000000
O O11 0.461274 0.765479 0.274638
O O12 0.403294 0.000000 0.248125
O O13 0.610957 0.500000 0.671061
O O14 0.730689 0.268668 0.585227
O O15 0.500000 0.818397 0.500000
O O16 0.647935 0.000000 0.496573
#
# Coordination Sequence:
#
# PCOD8090309 Si02
#       6
#     8   8   8   8   8   8
#     4  10  21  37  59  86 115 147 180 220 268 317
#     4  10  22  37  55  78 106 144 186 228 275 329
#     4   9  19  38  63  88 114 145 180 218 263 318
#     4  11  23  38  55  79 112 148 185 225 269 321
#     4  10  21  38  56  77 107 143 184 229 280 332
#     4  10  19  33  56  81 105 137 179 233 286 328
#
# _framework density 19.463543999999999
#
# number of rings (size 3 to 8) (size 9 to 14) (size 15 to 20)
#    0.000    2.000    1.667    1.500    0.000    4.667 
#    0.000    6.667    0.000    0.000    0.000    0.000 
#    0.000    0.000    0.000    0.000    0.000    0.000 
#
# Total GULP energy -297654.952538 kJ/mol
# GULP energy per Si atom -12402.289689 kJ/mol
# Density = 1.941924 g / cm^3
# Si number density = 19.463544 Si / 1000 Ang^3
#
#
#
# Elastic Constant Matrix: (Units=GPa)
#
#
# Indices 1 2 3 4 5 6 
#
# 1 89.2141 33.6387 25.5074 -0.0001 16.5726 0.0001
# 2 33.6387 88.0921 54.4844 -0.0004 13.6311 0.0002
# 3 25.5074 54.4844 96.9046 0.0000 19.1292 -0.0001
# 4 -0.0001 -0.0004 0.0000 37.3942 0.0000 7.2305
# 5 16.5726 13.6311 19.1292 0.0000 21.6604 0.0001
# 6 0.0001 0.0002 -0.0001 7.2305 0.0001 28.4825
#
#
#
# Elastic Compliance Matrix: (Units=1/GPa)
#
#
# Indices 1 2 3 4 5 6 
#
# 1 0.014343 -0.004389 0.000380 0.000000 -0.008547 0.000000
# 2 -0.004389 0.018888 -0.009424 0.000000 -0.000206 0.000000
# 3 0.000380 -0.009424 0.017446 0.000000 -0.009767 0.000000
# 4 0.000000 0.000000 0.000000 0.028123 0.000000 -0.007139
# 5 -0.008547 -0.000206 -0.009767 0.000000 0.061462 0.000000
# 6 0.000000 0.000000 0.000000 -0.007139 0.000000 0.036922
#
#
# Mechanical properties :
#
#
# Convention : Reuss Voigt Hill
#
# Bulk Modulus (GPa) = 41.99828 55.71911 48.85869
# Shear Modulus (GPa) = 23.58622 28.21276 25.89949
#
# Velocity S-wave (km/s) = 3.48489 3.81138 3.65179
# Velocity P-wave (km/s) = 6.14958 6.93242 6.55270
#
# Compressibility (1/GPa) = 0.02381050
#
# Stress axis : x y z
#
# Youngs Moduli (GPa) = 69.71939 52.94274 57.31903
#
# Poissons Ratio (x) = 0.23238 -0.02176
# Poissons Ratio (y) = 0.30602 0.54017
# Poissons Ratio (z) = -0.02647 0.49893
#
# Static dielectric constant tensor:
#      x y z
#    x 3.604720 0.000000 -0.037560 
#    y 0.000000 3.517610 0.000000 
#    z -0.037560 0.000000 3.440550 
# 
# 
# High freq. dielectric constant tensor:
#      x y z
#    x 1.764730 0.000000 0.004000 
#    y 0.000000 1.754080 0.000000 
#    z 0.004000 0.000000 1.751170 
# 
# From -- ./inp_files/308303.got.cif
#   From: 2010.06.25/outbox.cif.g09.slc.cpg/sg12_155_cif.got.tgz:308303.got - 2010.06.28 00:19:55.
