data_PCOD8090697
_publ_section_title
;
Structure prediction by ZEFSAII (Michael W. Deem and Ramdas Pophale) SiO2 
 PCOD8090697
Probable space group: C 2/M
;
_chemical_formula_sum "Si O2"
_cell_formula_units_Z 64
_cell_length_a 15.249133
_cell_length_b 8.851211
_cell_length_c 32.919870
_cell_angle_alpha 90.000000
_cell_angle_beta 45.884897
_cell_angle_gamma 90.000000
_cell_volume 3190.037744
_symmetry_space_group_name_H-M "C 2/M"
_symmetry_group_IT_number 12
_symmetry_cell_setting 'monoclinic'
loop_
_space_group_symop_operation_xyz
x,y,z
-x,y,-z
-x,-y,-z
x,-y,z
1/2+x,1/2+y,z
1/2-x,1/2+y,-z
1/2-x,1/2-y,-z
1/2+x,1/2-y,z
loop_
_atom_site_type_symbol
_atom_site_label
_atom_site_fract_x
_atom_site_fract_y
_atom_site_fract_z
Si Si1 0.225406 0.174101 0.618394
Si Si2 0.059864 0.327142 0.394076
Si Si3 0.845855 0.324955 0.873611
Si Si4 0.709903 0.678623 0.190961
Si Si5 0.661750 0.678497 0.495557
Si Si6 0.103390 0.177927 0.996872
Si Si7 0.029062 0.321576 0.310931
Si Si8 0.486509 0.174730 0.108603
O O1 0.300004 0.188916 0.636536
O O2 0.304421 0.257193 0.558984
O O3 0.094822 0.250974 0.666711
O O4 0.206611 0.000000 0.612018
O O5 0.014877 0.500000 0.413220
O O6 0.047984 0.273848 0.351523
O O7 0.976776 0.221379 0.449134
O O8 0.829443 0.500000 0.866604
O O9 0.853554 0.226057 0.830614
O O10 0.733430 0.269548 0.937648
O O11 0.969805 0.298377 0.859143
O O12 0.701747 0.500000 0.199045
O O13 0.642825 0.757054 0.249844
O O14 0.849602 0.737649 0.147071
O O15 0.678516 0.500000 0.489631
O O16 0.750000 0.750000 0.500000
O O17 0.095890 0.000000 0.003305
O O18 0.000000 0.241134 0.000000
O O19 0.082024 0.244548 0.048226
O O20 0.022907 0.500000 0.307538
O O21 0.490752 0.000000 0.095942
#
# Coordination Sequence:
#
# PCOD8090697 Si02
#       8
#     8   8   8   8   8   8   8   8
#     4  11  23  41  65  94 127 161 199 251 303 359
#     4  10  23  42  64  92 126 161 200 247 304 362
#     4  10  21  39  60  86 120 156 195 240 295 358
#     4  11  24  41  60  85 116 153 200 251 299 349
#     4  12  23  37  62  94 128 166 204 247 303 361
#     4  10  19  33  58  89 120 155 193 237 293 357
#     4  11  24  43  65  87 117 160 204 249 299 359
#     4  10  22  38  59  87 119 155 195 244 296 351
#
# _framework density 20.062459
#
# number of rings (size 3 to 8) (size 9 to 14) (size 15 to 20)
#    0.000    1.375    2.500    3.000    0.000    5.750 
#    0.000    2.500    0.000    0.000    0.000    0.000 
#    0.000    0.000    0.000    0.000    0.000    0.000 
#
# Total GULP energy -396961.340429 kJ/mol
# GULP energy per Si atom -12405.041888 kJ/mol
# Density = 2.001680 g / cm^3
# Si number density = 20.062459 Si / 1000 Ang^3
#
#
#
# Elastic Constant Matrix: (Units=GPa)
#
#
# Indices 1 2 3 4 5 6 
#
# 1 95.9016 25.4430 18.9843 0.0003 0.6147 0.0010
# 2 25.4430 85.0052 34.9255 0.0014 -0.2212 0.0013
# 3 18.9843 34.9255 93.6167 0.0001 -4.3486 0.0004
# 4 0.0003 0.0014 0.0001 36.8918 0.0001 0.0326
# 5 0.6147 -0.2212 -4.3486 0.0001 17.6572 0.0003
# 6 0.0010 0.0013 0.0004 0.0326 0.0003 27.9473
#
#
#
# Elastic Compliance Matrix: (Units=1/GPa)
#
#
# Indices 1 2 3 4 5 6 
#
# 1 0.011456 -0.002908 -0.001273 0.000000 -0.000749 0.000000
# 2 -0.002908 0.014653 -0.004920 -0.000001 -0.000927 0.000000
# 3 -0.001273 -0.004920 0.012923 0.000000 0.003165 0.000000
# 4 0.000000 -0.000001 0.000000 0.027106 0.000000 -0.000032
# 5 -0.000749 -0.000927 0.003165 0.000000 0.057428 0.000000
# 6 0.000000 0.000000 0.000000 -0.000032 0.000000 0.035782
#
#
# Mechanical properties :
#
#
# Convention : Reuss Voigt Hill
#
# Bulk Modulus (GPa) = 48.00815 48.13656 48.07235
# Shear Modulus (GPa) = 27.10135 29.51064 28.30600
#
# Velocity S-wave (km/s) = 3.67938 3.83944 3.76026
# Velocity P-wave (km/s) = 6.48319 6.61064 6.54722
#
# Compressibility (1/GPa) = 0.02082980
#
# Stress axis : x y z
#
# Youngs Moduli (GPa) = 87.29371 68.24366 77.38384
#
# Poissons Ratio (x) = 0.19843 0.09851
# Poissons Ratio (y) = 0.25382 0.38074
# Poissons Ratio (z) = 0.11113 0.33577
#
# Static dielectric constant tensor:
#      x y z
#    x 3.813130 0.000000 -0.039650 
#    y 0.000000 3.629140 0.000000 
#    z -0.039650 0.000000 3.581570 
# 
# 
# High freq. dielectric constant tensor:
#      x y z
#    x 1.797110 0.000000 0.000130 
#    y 0.000000 1.782460 0.000000 
#    z 0.000130 0.000000 1.776350 
# 
# From -- ./inp_files/375392.got.cif
#   From: 2010.06.25/outbox.cif.g09.slc.cpg/sg12_188_cif.got.tgz:375392.got - 2010.06.28 00:19:55.
