data_PCOD8090750
_publ_section_title
;
Structure prediction by ZEFSAII (Michael W. Deem and Ramdas Pophale) SiO2 
 PCOD8090750
Probable space group: C 2/M
;
_chemical_formula_sum "Si O2"
_cell_formula_units_Z 40
_cell_length_a 22.341053
_cell_length_b 10.724862
_cell_length_c 9.081150
_cell_angle_alpha 90.000000
_cell_angle_beta 119.360849
_cell_angle_gamma 90.000000
_cell_volume 1896.391649
_symmetry_space_group_name_H-M "C 2/M"
_symmetry_group_IT_number 12
_symmetry_cell_setting 'monoclinic'
loop_
_space_group_symop_operation_xyz
x,y,z
-x,y,-z
-x,-y,-z
x,-y,z
1/2+x,1/2+y,z
1/2-x,1/2+y,-z
1/2-x,1/2-y,-z
1/2+x,1/2-y,z
loop_
_atom_site_type_symbol
_atom_site_label
_atom_site_fract_x
_atom_site_fract_y
_atom_site_fract_z
Si Si1 0.309859 0.500000 0.691235
Si Si2 0.245248 0.000000 0.700466
Si Si3 0.334686 0.243223 0.832138
Si Si4 0.405047 0.500000 0.375732
Si Si5 0.960216 0.000000 0.770655
Si Si6 0.047545 0.637302 0.200450
Si Si7 0.554349 0.299272 0.805382
O O1 0.271102 0.500000 0.491284
O O2 0.290929 0.371162 0.753330
O O3 0.392549 0.500000 0.786050
O O4 0.285606 0.875135 0.791632
O O5 0.176555 0.000000 0.712983
O O6 0.385384 0.222267 0.752716
O O7 0.375534 0.254627 0.034453
O O8 0.442204 0.500000 0.575688
O O9 0.428163 0.373662 0.321302
O O10 0.009655 0.883553 0.865951
O O11 0.075073 0.500000 0.274582
O O12 0.000244 0.685185 0.281007
O O13 0.000000 0.630925 0.000000
#
# Coordination Sequence:
#
# PCOD8090750 Si02
#       7
#     4   4   8   4   4   8   8
#     4  11  21  36  60  89 116 153 193 245 285 344
#     4  11  25  41  56  80 123 174 187 220 290 362
#     4  11  21  36  60  89 119 146 196 244 291 341
#     4  10  23  40  57  82 118 162 198 222 285 358
#     4  10  19  35  59  87 115 145 186 246 299 340
#     4   9  17  30  54  89 118 140 175 239 312 341
#     4  10  19  33  60  88 110 145 191 248 283 330
#
# _framework density 21.092690000000001
#
# number of rings (size 3 to 8) (size 9 to 14) (size 15 to 20)
#    0.000    1.800    3.000    3.000    1.400    1.600 
#    0.000    0.000    2.200    2.400    0.000    0.000 
#    0.000    0.000    0.000    0.000    0.000    0.000 
#
# Total GULP energy -247821.031813 kJ/mol
# GULP energy per Si atom -12391.051591 kJ/mol
# Density = 2.104468 g / cm^3
# Si number density = 21.092690 Si / 1000 Ang^3
#
#
#
# Elastic Constant Matrix: (Units=GPa)
#
#
# Indices 1 2 3 4 5 6 
#
# 1 85.7464 35.1672 24.5714 0.0000 5.5711 0.0000
# 2 35.1672 155.1585 22.6597 0.0000 5.7845 0.0000
# 3 24.5714 22.6597 48.6044 0.0000 7.3883 0.0000
# 4 0.0000 0.0000 0.0000 12.6960 0.0000 -0.8806
# 5 5.5711 5.7845 7.3883 0.0000 29.1289 0.0000
# 6 0.0000 0.0000 0.0000 -0.8806 0.0000 22.6424
#
#
#
# Elastic Compliance Matrix: (Units=1/GPa)
#
#
# Indices 1 2 3 4 5 6 
#
# 1 0.014417 -0.002352 -0.006078 0.000000 -0.000749 0.000000
# 2 -0.002352 0.007309 -0.002149 0.000000 -0.000456 0.000000
# 3 -0.006078 -0.002149 0.025386 0.000000 -0.004850 0.000000
# 4 0.000000 0.000000 0.000000 0.078978 0.000000 0.003072
# 5 -0.000749 -0.000456 -0.004850 0.000000 0.035794 0.000000
# 6 0.000000 0.000000 0.000000 0.003072 0.000000 0.044284
#
#
# Mechanical properties :
#
#
# Convention : Reuss Voigt Hill
#
# Bulk Modulus (GPa) = 38.52992 50.47842 44.50417
# Shear Modulus (GPa) = 21.18833 26.70087 23.94460
#
# Velocity S-wave (km/s) = 3.17288 3.56178 3.37294
# Velocity P-wave (km/s) = 5.63289 6.39521 6.02612
#
# Compressibility (1/GPa) = 0.02595385
#
# Stress axis : x y z
#
# Youngs Moduli (GPa) = 69.36071 136.81736 39.39166
#
# Poissons Ratio (x) = 0.32182 0.23943
# Poissons Ratio (y) = 0.16315 0.08465
# Poissons Ratio (z) = 0.42158 0.29402
#
# Static dielectric constant tensor:
#      x y z
#    x 3.778280 0.000000 0.235220 
#    y 0.000000 4.329380 0.000000 
#    z 0.235220 0.000000 3.393240 
# 
# 
# High freq. dielectric constant tensor:
#      x y z
#    x 1.807350 0.000000 0.022540 
#    y 0.000000 1.846620 0.000000 
#    z 0.022540 0.000000 1.796430 
# 
# From -- ./inp_files/94686.got.cif
#   From: 2010.06.25/outbox.cif.g09.slc.cpg/sg12_48_cif.got.tgz:94686.got - 2010.06.28 00:19:55.
