data_PCOD8090578
_publ_section_title
;
Structure prediction by ZEFSAII (Michael W. Deem and Ramdas Pophale) SiO2 
 PCOD8090578
Probable space group: C 2/M
;
_chemical_formula_sum "Si O2"
_cell_formula_units_Z 56
_cell_length_a 19.006456
_cell_length_b 8.968397
_cell_length_c 16.435225
_cell_angle_alpha 90.000000
_cell_angle_beta 91.865547
_cell_angle_gamma 90.000000
_cell_volume 2800.021551
_symmetry_space_group_name_H-M "C 2/M"
_symmetry_group_IT_number 12
_symmetry_cell_setting 'monoclinic'
loop_
_space_group_symop_operation_xyz
x,y,z
-x,y,-z
-x,-y,-z
x,-y,z
1/2+x,1/2+y,z
1/2-x,1/2+y,-z
1/2-x,1/2-y,-z
1/2+x,1/2-y,z
loop_
_atom_site_type_symbol
_atom_site_label
_atom_site_fract_x
_atom_site_fract_y
_atom_site_fract_z
Si Si1 0.134087 0.831914 0.821437
Si Si2 0.029117 0.669427 0.919424
Si Si3 0.417937 0.678307 0.355219
Si Si4 0.394070 0.170300 0.813890
Si Si5 0.069070 0.675775 0.359102
Si Si6 0.272296 0.829477 0.917890
Si Si7 0.674144 0.176230 0.509633
O O1 0.100281 0.746408 0.895593
O O2 0.111293 0.766584 0.733416
O O3 0.216637 0.817940 0.841857
O O4 0.106896 0.000000 0.824228
O O5 0.048536 0.500000 0.940602
O O6 0.973901 0.685959 0.845107
O O7 0.000000 0.746961 0.000000
O O8 0.417390 0.500000 0.363969
O O9 0.496411 0.738570 0.374486
O O10 0.363232 0.749326 0.415311
O O11 0.394574 0.237476 0.722744
O O12 0.341669 0.245697 0.878351
O O13 0.368848 0.000000 0.807595
O O14 0.051560 0.500000 0.351628
O O15 0.125000 0.710508 0.430746
O O16 0.285878 0.000000 0.943729
O O17 0.250000 0.750000 0.000000
O O18 0.750000 0.250000 0.500000
O O19 0.683107 0.000000 0.523728
#
# Coordination Sequence:
#
# PCOD8090578 Si02
#       7
#     8   8   8   8   8   8   8
#     4  10  22  37  57  85 118 156 193 238 295 352
#     4  10  19  33  57  86 113 147 195 243 285 340
#     4  11  23  40  63  91 125 160 198 245 298 355
#     4   9  18  34  58  83 111 150 193 238 286 343
#     4  10  21  40  65  89 117 159 203 243 296 361
#     4  10  21  38  58  81 114 155 199 244 297 351
#     4  11  25  42  65  94 123 156 198 245 297 358
#
# _framework density 19.999846999999999
#
# number of rings (size 3 to 8) (size 9 to 14) (size 15 to 20)
#    0.000    1.857    1.429    2.143    2.000    5.429 
#    0.000    1.429    0.000    0.000    0.000    0.000 
#    0.000    0.000    0.000    0.000    0.000    0.000 
#
# Total GULP energy -347110.434887 kJ/mol
# GULP energy per Si atom -12396.801246 kJ/mol
# Density = 1.995433 g / cm^3
# Si number density = 19.999847 Si / 1000 Ang^3
#
#
#
# Elastic Constant Matrix: (Units=GPa)
#
#
# Indices 1 2 3 4 5 6 
#
# 1 112.3324 38.8818 43.0387 0.0000 -18.1513 0.0000
# 2 38.8818 62.7136 36.1390 0.0000 -5.7101 0.0000
# 3 43.0387 36.1390 122.3673 0.0000 -16.5217 0.0000
# 4 0.0000 0.0000 0.0000 26.7771 0.0000 -4.3693
# 5 -18.1513 -5.7101 -16.5217 0.0000 42.8862 0.0000
# 6 0.0000 0.0000 0.0000 -4.3693 0.0000 30.2013
#
#
#
# Elastic Compliance Matrix: (Units=1/GPa)
#
#
# Indices 1 2 3 4 5 6 
#
# 1 0.012417 -0.006186 -0.002048 0.000000 0.003643 0.000000
# 2 -0.006186 0.022304 -0.004603 0.000000 -0.001422 0.000000
# 3 -0.002048 -0.004603 0.010604 0.000000 0.002605 0.000000
# 4 0.000000 0.000000 0.000000 0.038248 0.000000 0.005533
# 5 0.003643 -0.001422 0.002605 0.000000 0.025674 0.000000
# 6 0.000000 0.000000 0.000000 0.005533 0.000000 0.033912
#
#
# Mechanical properties :
#
#
# Convention : Reuss Voigt Hill
#
# Bulk Modulus (GPa) = 50.89359 59.28138 55.08749
# Shear Modulus (GPa) = 28.50890 31.92984 30.21937
#
# Velocity S-wave (km/s) = 3.77962 3.99996 3.89135
# Velocity P-wave (km/s) = 6.67455 7.14410 6.91331
#
# Compressibility (1/GPa) = 0.01964884
#
# Stress axis : x y z
#
# Youngs Moduli (GPa) = 80.53600 44.83472 94.30553
#
# Poissons Ratio (x) = 0.27736 0.19318
# Poissons Ratio (y) = 0.49822 0.43412
# Poissons Ratio (z) = 0.16497 0.20639
#
# Static dielectric constant tensor:
#      x y z
#    x 3.703310 0.000000 -0.058480 
#    y 0.000000 3.499630 0.000000 
#    z -0.058480 0.000000 3.847490 
# 
# 
# High freq. dielectric constant tensor:
#      x y z
#    x 1.790900 0.000000 -0.002350 
#    y 0.000000 1.753590 0.000000 
#    z -0.002350 0.000000 1.799740 
# 
# From -- ./inp_files/230885.got.cif
#   From: 2010.06.25/outbox.cif.g09.slc.cpg/sg12_116_cif.got.tgz:230885.got - 2010.06.28 00:19:55.
