data_PCOD8090425
_publ_section_title
;
Structure prediction by ZEFSAII (Michael W. Deem and Ramdas Pophale) SiO2 
 PCOD8090425
Probable space group: C 2/M
;
_chemical_formula_sum "Si O2"
_cell_formula_units_Z 56
_cell_length_a 22.494183
_cell_length_b 8.894570
_cell_length_c 20.370078
_cell_angle_alpha 90.000000
_cell_angle_beta 44.159293
_cell_angle_gamma 90.000000
_cell_volume 2839.265432
_symmetry_space_group_name_H-M "C 2/M"
_symmetry_group_IT_number 12
_symmetry_cell_setting 'monoclinic'
loop_
_space_group_symop_operation_xyz
x,y,z
-x,y,-z
-x,-y,-z
x,-y,z
1/2+x,1/2+y,z
1/2-x,1/2+y,-z
1/2-x,1/2-y,-z
1/2+x,1/2-y,z
loop_
_atom_site_type_symbol
_atom_site_label
_atom_site_fract_x
_atom_site_fract_y
_atom_site_fract_z
Si Si1 0.454368 0.323741 0.375011
Si Si2 0.829077 0.676032 0.972969
Si Si3 0.699809 0.826497 0.858744
Si Si4 0.387639 0.672463 0.670187
Si Si5 0.349535 0.677580 0.234238
Si Si6 0.818230 0.824095 0.590234
Si Si7 0.515801 0.823020 0.784071
O O1 0.467764 0.500000 0.349585
O O2 0.533496 0.252388 0.353557
O O3 0.367436 0.294847 0.483784
O O4 0.445382 0.235431 0.314592
O O5 0.812255 0.500000 0.985241
O O6 0.916065 0.720521 0.867193
O O7 0.750000 0.750000 0.000000
O O8 0.835778 0.729745 0.043293
O O9 0.801831 0.803933 0.779830
O O10 0.657630 0.726612 0.835689
O O11 0.676821 0.000000 0.862746
O O12 0.413606 0.500000 0.641797
O O13 0.374638 0.738047 0.606962
O O14 0.351486 0.500000 0.237308
O O15 0.271331 0.737981 0.340419
O O16 0.436881 0.744027 0.193135
O O17 0.798713 0.000000 0.617402
O O18 0.529849 0.000000 0.778600
#
# Coordination Sequence:
#
# PCOD8090425 Si02
#       7
#     8   8   8   8   8   8   8
#     4  10  19  33  56  84 112 147 190 231 273 325
#     4  10  22  39  62  89 116 148 183 222 272 330
#     4   9  18  36  60  83 111 148 184 223 274 328
#     4   8  14  28  54  84 110 138 176 221 268 323
#     4  11  23  39  58  81 108 143 189 235 279 328
#     4   9  18  34  57  83 112 147 185 228 278 331
#     4  11  24  40  56  79 113 149 185 228 278 330
#
# _framework density 19.723410999999999
#
# number of rings (size 3 to 8) (size 9 to 14) (size 15 to 20)
#    0.000    2.286    0.000    3.857    0.000    6.286 
#    0.000    7.143    0.000    4.286    0.000    0.000 
#    0.000    0.000    0.000    0.000    0.000    0.000 
#
# Total GULP energy -347228.262972 kJ/mol
# GULP energy per Si atom -12401.009392 kJ/mol
# Density = 1.967852 g / cm^3
# Si number density = 19.723411 Si / 1000 Ang^3
#
#
#
# Elastic Constant Matrix: (Units=GPa)
#
#
# Indices 1 2 3 4 5 6 
#
# 1 116.1254 51.5060 45.0312 0.0003 -3.2820 -0.0003
# 2 51.5060 84.7282 45.8014 0.0015 -2.3031 -0.0016
# 3 45.0312 45.8014 107.9065 0.0002 17.5706 -0.0002
# 4 0.0003 0.0015 0.0002 26.6563 -0.0002 2.9742
# 5 -3.2820 -2.3031 17.5706 -0.0002 24.9607 0.0002
# 6 -0.0003 -0.0016 -0.0002 2.9742 0.0002 31.3735
#
#
#
# Elastic Compliance Matrix: (Units=1/GPa)
#
#
# Indices 1 2 3 4 5 6 
#
# 1 0.012555 -0.005704 -0.003390 0.000000 0.003511 0.000000
# 2 -0.005704 0.018992 -0.006600 -0.000001 0.005648 0.000001
# 3 -0.003390 -0.006600 0.015423 0.000000 -0.011912 0.000000
# 4 0.000000 -0.000001 0.000000 0.037916 0.000000 -0.003594
# 5 0.003511 0.005648 -0.011912 0.000000 0.049431 0.000000
# 6 0.000000 0.000001 0.000000 -0.003594 0.000000 0.032215
#
#
# Mechanical properties :
#
#
# Convention : Reuss Voigt Hill
#
# Bulk Modulus (GPa) = 64.18195 65.93746 65.05970
# Shear Modulus (GPa) = 24.61674 27.69286 26.15480
#
# Velocity S-wave (km/s) = 3.53668 3.75114 3.64549
# Velocity P-wave (km/s) = 7.02062 7.22946 7.12580
#
# Compressibility (1/GPa) = 0.01558070
#
# Stress axis : x y z
#
# Youngs Moduli (GPa) = 79.64784 52.65497 64.83794
#
# Poissons Ratio (x) = 0.30036 0.21980
# Poissons Ratio (y) = 0.45434 0.42795
# Poissons Ratio (z) = 0.27000 0.34754
#
# Static dielectric constant tensor:
#      x y z
#    x 3.618330 0.000000 0.018720 
#    y 0.000000 3.312720 0.000000 
#    z 0.018720 0.000000 3.649180 
# 
# 
# High freq. dielectric constant tensor:
#      x y z
#    x 1.772960 0.000000 0.002950 
#    y 0.000000 1.741060 0.000000 
#    z 0.002950 0.000000 1.774270 
# 
# From -- ./inp_files/319654.got.cif
#   From: 2010.06.25/outbox.cif.g09.slc.cpg/sg12_160_cif.got.tgz:319654.got - 2010.06.28 00:19:55.
