data_PCOD8090485
_publ_section_title
;
Structure prediction by ZEFSAII (Michael W. Deem and Ramdas Pophale) SiO2 
 PCOD8090485
Probable space group: C 2/M
;
_chemical_formula_sum "Si O2"
_cell_formula_units_Z 64
_cell_length_a 22.626569
_cell_length_b 11.214032
_cell_length_c 21.603609
_cell_angle_alpha 90.000000
_cell_angle_beta 145.319851
_cell_angle_gamma 90.000000
_cell_volume 3118.997185
_symmetry_space_group_name_H-M "C 2/M"
_symmetry_group_IT_number 12
_symmetry_cell_setting 'monoclinic'
loop_
_space_group_symop_operation_xyz
x,y,z
-x,y,-z
-x,-y,-z
x,-y,z
1/2+x,1/2+y,z
1/2-x,1/2+y,-z
1/2-x,1/2-y,-z
1/2+x,1/2-y,z
loop_
_atom_site_type_symbol
_atom_site_label
_atom_site_fract_x
_atom_site_fract_y
_atom_site_fract_z
Si Si1 0.646450 0.631047 0.306106
Si Si2 0.112128 0.633732 0.473490
Si Si3 0.327299 0.361672 0.180977
Si Si4 0.499549 0.211407 0.262121
Si Si5 0.760447 0.363267 0.767642
Si Si6 0.547142 0.282542 0.102117
Si Si7 0.913230 0.132859 0.476416
Si Si8 0.395322 0.132271 0.054338
O O1 0.623202 0.500000 0.311237
O O2 0.766458 0.661699 0.419479
O O3 0.581606 0.719588 0.291326
O O4 0.613692 0.633399 0.205088
O O5 0.090651 0.500000 0.484547
O O6 0.058667 0.750923 0.458322
O O7 0.066601 0.627254 0.365018
O O8 0.357816 0.500000 0.211086
O O9 0.426393 0.297054 0.238482
O O10 0.301598 0.307650 0.227172
O O11 0.227092 0.338810 0.051613
O O12 0.430154 0.134043 0.155830
O O13 0.774084 0.500000 0.796051
O O14 0.875928 0.315403 0.859628
O O15 0.698122 0.342117 0.650643
O O16 0.454905 0.225095 0.062439
O O17 0.500000 0.348957 0.000000
O O18 0.000000 0.122728 0.500000
O O19 0.910057 0.000000 0.507349
O O20 0.415446 0.000000 0.045083
#
# Coordination Sequence:
#
# PCOD8090485 Si02
#       8
#     8   8   8   8   8   8   8   8
#     4  10  23  41  60  85 118 157 203 252 303 362
#     4  11  23  41  62  87 123 161 203 257 307 361
#     4  10  20  35  58  85 116 153 193 245 303 360
#     4  11  22  38  59  83 114 158 205 248 298 359
#     4  10  19  33  56  88 119 147 190 244 300 361
#     4  11  20  35  61  86 115 150 192 243 304 365
#     4  10  21  38  61  91 125 159 201 250 299 365
#     4  10  21  35  55  85 117 150 191 246 302 357
#
# _framework density 20.519414999999999
#
# number of rings (size 3 to 8) (size 9 to 14) (size 15 to 20)
#    0.000    1.625    2.500    2.625    0.000    3.000 
#    0.000    0.625    0.000    1.500    0.000    0.000 
#    0.000    0.000    0.000    0.000    0.000    0.000 
#
# Total GULP energy -396511.052897 kJ/mol
# GULP energy per Si atom -12390.970403 kJ/mol
# Density = 2.047271 g / cm^3
# Si number density = 20.519415 Si / 1000 Ang^3
#
#
#
# Elastic Constant Matrix: (Units=GPa)
#
#
# Indices 1 2 3 4 5 6 
#
# 1 68.2094 26.6378 25.2695 0.0000 -4.4115 0.0000
# 2 26.6378 89.6406 25.5649 0.0000 -4.3050 0.0000
# 3 25.2695 25.5649 120.4079 0.0000 -10.6899 0.0000
# 4 0.0000 0.0000 0.0000 16.8727 0.0000 -3.3111
# 5 -4.4115 -4.3050 -10.6899 0.0000 30.6448 0.0000
# 6 0.0000 0.0000 0.0000 -3.3111 0.0000 21.1503
#
#
#
# Elastic Compliance Matrix: (Units=1/GPa)
#
#
# Indices 1 2 3 4 5 6 
#
# 1 0.017409 -0.004374 -0.002639 0.000000 0.000971 0.000000
# 2 -0.004374 0.012993 -0.001790 0.000000 0.000571 0.000000
# 3 -0.002639 -0.001790 0.009476 0.000000 0.002674 0.000000
# 4 0.000000 0.000000 0.000000 0.061146 0.000000 0.009572
# 5 0.000971 0.000571 0.002674 0.000000 0.033785 0.000000
# 6 0.000000 0.000000 0.000000 0.009572 0.000000 0.048779
#
#
# Mechanical properties :
#
#
# Convention : Reuss Voigt Hill
#
# Bulk Modulus (GPa) = 44.89683 48.13360 46.51521
# Shear Modulus (GPa) = 23.96712 27.11931 25.54321
#
# Velocity S-wave (km/s) = 3.42134 3.63938 3.53204
# Velocity P-wave (km/s) = 6.12659 6.41628 6.27311
#
# Compressibility (1/GPa) = 0.02227329
#
# Stress axis : x y z
#
# Youngs Moduli (GPa) = 57.44041 76.96188 105.52579
#
# Poissons Ratio (x) = 0.33665 0.27845
# Poissons Ratio (y) = 0.25126 0.18890
# Poissons Ratio (z) = 0.15157 0.13777
#
# Static dielectric constant tensor:
#      x y z
#    x 3.552580 0.000000 -0.204190 
#    y 0.000000 3.602940 0.000000 
#    z -0.204190 0.000000 4.259480 
# 
# 
# High freq. dielectric constant tensor:
#      x y z
#    x 1.787550 0.000000 0.000400 
#    y 0.000000 1.784030 0.000000 
#    z 0.000400 0.000000 1.830540 
# 
# From -- ./inp_files/321278.got.cif
#   From: 2010.06.25/outbox.cif.g09.slc.cpg/sg12_161_cif.got.tgz:321278.got - 2010.06.28 00:19:55.
