data_PCOD8090827
_publ_section_title
;
Structure prediction by ZEFSAII (Michael W. Deem and Ramdas Pophale) SiO2 
 PCOD8090827
Probable space group: C 2/M
;
_chemical_formula_sum "Si O2"
_cell_formula_units_Z 64
_cell_length_a 16.963072
_cell_length_b 14.136471
_cell_length_c 25.005913
_cell_angle_alpha 90.000000
_cell_angle_beta 35.804178
_cell_angle_gamma 90.000000
_cell_volume 3507.975712
_symmetry_space_group_name_H-M "C 2/M"
_symmetry_group_IT_number 12
_symmetry_cell_setting 'monoclinic'
loop_
_space_group_symop_operation_xyz
x,y,z
-x,y,-z
-x,-y,-z
x,-y,z
1/2+x,1/2+y,z
1/2-x,1/2+y,-z
1/2-x,1/2-y,-z
1/2+x,1/2-y,z
loop_
_atom_site_type_symbol
_atom_site_label
_atom_site_fract_x
_atom_site_fract_y
_atom_site_fract_z
Si Si1 0.132740 0.271268 0.893407
Si Si2 0.474243 0.607926 0.635648
Si Si3 0.249176 0.890672 0.755951
Si Si4 0.488851 0.102739 0.695171
Si Si5 0.762219 0.809164 0.546187
Si Si6 0.328827 0.891735 0.226124
Si Si7 0.649227 0.277034 0.712839
Si Si8 0.412405 0.708973 0.777985
O O1 0.167791 0.173575 0.843605
O O2 0.111610 0.356736 0.863341
O O3 0.251708 0.306848 0.868766
O O4 0.000000 0.253476 0.000000
O O5 0.498441 0.500000 0.639362
O O6 0.590705 0.642709 0.531209
O O7 0.332690 0.619497 0.683505
O O8 0.475414 0.669545 0.688614
O O9 0.408120 0.883202 0.683047
O O10 0.228143 0.848339 0.708362
O O11 0.198949 0.000000 0.785853
O O12 0.649534 0.109710 0.600796
O O13 0.437180 0.178531 0.766069
O O14 0.452568 0.000000 0.738386
O O15 0.750000 0.750000 0.500000
O O16 0.738469 0.742574 0.610948
O O17 0.384541 0.824275 0.241748
O O18 0.373590 0.000000 0.211306
O O19 0.504644 0.327385 0.776716
#
# Coordination Sequence:
#
# PCOD8090827 Si02
#       8
#     8   8   8   8   8   8   8   8
#     4   9  18  35  61  83 100 130 171 213 253 305
#     4  10  19  34  52  71 100 137 178 219 255 298
#     4   9  19  36  54  76 107 139 169 206 260 313
#     4   9  17  32  52  69  96 136 173 210 251 298
#     4  11  20  33  49  75 101 134 180 223 251 285
#     4   9  20  36  53  76 106 139 170 207 262 314
#     4  10  20  33  53  73 105 141 167 211 258 307
#     4   9  18  34  52  78 102 133 171 210 258 302
#
# _framework density 18.244140000000002
#
# number of rings (size 3 to 8) (size 9 to 14) (size 15 to 20)
#    0.000    2.500    2.500    1.125    0.000    4.000 
#    0.000    3.750    0.000    3.000    0.000    0.000 
#    0.000    0.000    0.000    0.000    0.000    0.000 
#
# Total GULP energy -396475.945363 kJ/mol
# GULP energy per Si atom -12389.873293 kJ/mol
# Density = 1.820262 g / cm^3
# Si number density = 18.244140 Si / 1000 Ang^3
#
#
#
# Elastic Constant Matrix: (Units=GPa)
#
#
# Indices 1 2 3 4 5 6 
#
# 1 76.1938 2.0534 33.6004 0.0000 -4.1256 0.0000
# 2 2.0534 61.2617 15.0601 0.0000 3.9074 0.0000
# 3 33.6004 15.0601 104.5929 0.0004 -6.5597 0.0001
# 4 0.0000 0.0000 0.0004 14.7647 0.0000 -4.7037
# 5 -4.1256 3.9074 -6.5597 0.0000 16.9669 -0.0001
# 6 0.0000 0.0000 0.0001 -4.7037 -0.0001 15.3918
#
#
#
# Elastic Compliance Matrix: (Units=1/GPa)
#
#
# Indices 1 2 3 4 5 6 
#
# 1 0.015368 0.000584 -0.004914 0.000000 0.001702 0.000000
# 2 0.000584 0.017362 -0.003002 0.000000 -0.005017 0.000000
# 3 -0.004914 -0.003002 0.011827 0.000000 0.004069 0.000000
# 4 0.000000 0.000000 0.000000 0.075034 0.000000 0.022930
# 5 0.001702 -0.005017 0.004069 0.000000 0.062081 0.000000
# 6 0.000000 0.000000 0.000000 0.022930 0.000000 0.071977
#
#
# Mechanical properties :
#
#
# Convention : Reuss Voigt Hill
#
# Bulk Modulus (GPa) = 33.45317 38.16403 35.80860
# Shear Modulus (GPa) = 17.96769 22.18031 20.07400
#
# Velocity S-wave (km/s) = 3.14163 3.49054 3.32067
# Velocity P-wave (km/s) = 5.61569 6.09993 5.86281
#
# Compressibility (1/GPa) = 0.02989253
#
# Stress axis : x y z
#
# Youngs Moduli (GPa) = 65.07024 57.59740 84.55151
#
# Poissons Ratio (x) = -0.03366 0.41552
# Poissons Ratio (y) = -0.03803 0.25385
# Poissons Ratio (z) = 0.31978 0.17292
#
# Static dielectric constant tensor:
#      x y z
#    x 4.008260 0.000000 -0.654710 
#    y 0.000000 3.539050 0.000000 
#    z -0.654710 0.000000 3.579530 
# 
# 
# High freq. dielectric constant tensor:
#      x y z
#    x 1.713940 0.000000 -0.016010 
#    y 0.000000 1.710970 0.000000 
#    z -0.016010 0.000000 1.667050 
# 
# From -- ./inp_files/340132.got.cif
#   From: 2010.06.25/outbox.cif.g09.slc.cpg/sg12_171_cif.got.tgz:340132.got - 2010.06.28 00:19:55.
