data_PCOD8090854
_publ_section_title
;
Structure prediction by ZEFSAII (Michael W. Deem and Ramdas Pophale) SiO2 
 PCOD8090854
Probable space group: C 2/M
;
_chemical_formula_sum "Si O2"
_cell_formula_units_Z 56
_cell_length_a 20.107270
_cell_length_b 11.086640
_cell_length_c 14.887581
_cell_angle_alpha 90.000000
_cell_angle_beta 110.513957
_cell_angle_gamma 90.000000
_cell_volume 3108.316613
_symmetry_space_group_name_H-M "C 2/M"
_symmetry_group_IT_number 12
_symmetry_cell_setting 'monoclinic'
loop_
_space_group_symop_operation_xyz
x,y,z
-x,y,-z
-x,-y,-z
x,-y,z
1/2+x,1/2+y,z
1/2-x,1/2+y,-z
1/2-x,1/2-y,-z
1/2+x,1/2-y,z
loop_
_atom_site_type_symbol
_atom_site_label
_atom_site_fract_x
_atom_site_fract_y
_atom_site_fract_z
Si Si1 0.462502 0.500000 0.338761
Si Si2 0.272971 0.860844 0.392288
Si Si3 0.303205 0.139075 0.044071
Si Si4 0.460588 0.139705 0.072416
Si Si5 0.354853 0.267865 0.571789
Si Si6 0.992063 0.245235 0.272738
Si Si7 0.392290 0.500000 0.486615
Si Si8 0.143039 0.363798 0.731585
O O1 0.462017 0.610762 0.269680
O O2 0.397135 0.500000 0.379408
O O3 0.531056 0.500000 0.432677
O O4 0.326050 0.845838 0.502087
O O5 0.198461 0.792726 0.371245
O O6 0.309614 0.798961 0.322135
O O7 0.254724 0.000000 0.369511
O O8 0.375668 0.158895 0.021558
O O9 0.320775 0.154434 0.156082
O O10 0.274318 0.000000 0.012477
O O11 0.250000 0.250000 0.000000
O O12 0.492301 0.219649 0.168074
O O13 0.476309 0.000000 0.102542
O O14 0.500000 0.180087 0.000000
O O15 0.430762 0.237166 0.648769
O O16 0.352226 0.381215 0.502178
O O17 0.938660 0.324812 0.306212
O O18 0.140690 0.500000 0.699220
#
# Coordination Sequence:
#
# PCOD8090854 Si02
#       8
#     4   8   8   8   8   8   4   8
#     4   9  18  28  49  74 102 138 167 211 259 306
#     4  10  20  34  50  74 105 140 176 212 264 315
#     4   9  18  35  58  80 107 141 179 221 272 326
#     4   9  19  37  59  79 105 141 175 217 273 326
#     4  10  20  32  52  73 104 140 176 220 257 303
#     4  10  19  34  52  79 104 133 179 221 262 314
#     4   9  16  32  48  68 100 139 180 201 252 320
#     4   9  19  35  54  75 103 137 173 217 266 314
#
# _framework density 18.016182000000001
#
# number of rings (size 3 to 8) (size 9 to 14) (size 15 to 20)
#    0.000    2.571    0.714    2.143    0.000    4.000 
#    5.143    1.786    0.000    0.000    0.000    0.000 
#    0.000    0.000    0.000    0.000    0.000    0.000 
#
# Total GULP energy -346989.195392 kJ/mol
# GULP energy per Si atom -12392.471264 kJ/mol
# Density = 1.797518 g / cm^3
# Si number density = 18.016182 Si / 1000 Ang^3
#
#
#
# Elastic Constant Matrix: (Units=GPa)
#
#
# Indices 1 2 3 4 5 6 
#
# 1 144.5884 41.6396 65.3364 0.0000 -19.8134 0.0000
# 2 41.6396 65.0021 42.5326 0.0000 -0.3547 0.0000
# 3 65.3364 42.5326 68.2467 0.0000 -16.3186 0.0000
# 4 0.0000 0.0000 0.0000 25.6429 0.0000 0.8166
# 5 -19.8134 -0.3547 -16.3186 0.0000 39.3198 0.0000
# 6 0.0000 0.0000 0.0000 0.8166 0.0000 22.2926
#
#
#
# Elastic Compliance Matrix: (Units=1/GPa)
#
#
# Indices 1 2 3 4 5 6 
#
# 1 0.012282 -0.000715 -0.010918 0.000000 0.001651 0.000000
# 2 -0.000715 0.027994 -0.018637 0.000000 -0.007843 0.000000
# 3 -0.010918 -0.018637 0.039260 0.000000 0.010624 0.000000
# 4 0.000000 0.000000 0.000000 0.039043 0.000000 -0.001430
# 5 0.001651 -0.007843 0.010624 0.000000 0.030603 0.000000
# 6 0.000000 0.000000 0.000000 -0.001430 0.000000 0.044910
#
#
# Mechanical properties :
#
#
# Convention : Reuss Voigt Hill
#
# Bulk Modulus (GPa) = 52.64122 64.09494 58.36808
# Shear Modulus (GPa) = 19.15968 26.00631 22.58299
#
# Velocity S-wave (km/s) = 3.26463 3.80346 3.54430
# Velocity P-wave (km/s) = 6.59490 7.41228 7.01551
#
# Compressibility (1/GPa) = 0.01899652
#
# Stress axis : x y z
#
# Youngs Moduli (GPa) = 81.42117 35.72169 25.47092
#
# Poissons Ratio (x) = 0.02553 0.27808
# Poissons Ratio (y) = 0.05820 0.47471
# Poissons Ratio (z) = 0.88893 0.66576
#
# Static dielectric constant tensor:
#      x y z
#    x 3.558370 0.000000 -0.224740 
#    y 0.000000 3.442210 0.000000 
#    z -0.224740 0.000000 3.113520 
# 
# 
# High freq. dielectric constant tensor:
#      x y z
#    x 1.710600 0.000000 -0.018480 
#    y 0.000000 1.694340 0.000000 
#    z -0.018480 0.000000 1.675140 
# 
# From -- ./inp_files/232003.got.cif
#   From: 2010.06.25/outbox.cif.g09.slc.cpg/sg12_117_cif.got.tgz:232003.got - 2010.06.28 00:19:55.
