data_PCOD8090259
_publ_section_title
;
Structure prediction by ZEFSAII (Michael W. Deem and Ramdas Pophale) SiO2 
 PCOD8090259
Probable space group: C 2/M
;
_chemical_formula_sum "Si O2"
_cell_formula_units_Z 64
_cell_length_a 12.547218
_cell_length_b 26.151868
_cell_length_c 11.818345
_cell_angle_alpha 90.000000
_cell_angle_beta 136.988295
_cell_angle_gamma 90.000000
_cell_volume 2645.363012
_symmetry_space_group_name_H-M "C 2/M"
_symmetry_group_IT_number 12
_symmetry_cell_setting 'monoclinic'
loop_
_space_group_symop_operation_xyz
x,y,z
-x,y,-z
-x,-y,-z
x,-y,z
1/2+x,1/2+y,z
1/2-x,1/2+y,-z
1/2-x,1/2-y,-z
1/2+x,1/2-y,z
loop_
_atom_site_type_symbol
_atom_site_label
_atom_site_fract_x
_atom_site_fract_y
_atom_site_fract_z
Si Si1 0.897605 0.556233 0.637446
Si Si2 0.190843 0.269086 0.636970
Si Si3 0.241396 0.059283 0.102525
Si Si4 0.329895 0.057147 0.835561
Si Si5 0.344323 0.369922 0.153361
Si Si6 0.353454 0.777633 0.970019
Si Si7 0.677333 0.888062 0.622864
Si Si8 0.978032 0.227629 0.700303
O O1 0.888961 0.500000 0.573674
O O2 0.808947 0.555847 0.686190
O O3 0.793897 0.596865 0.485227
O O4 0.080134 0.570135 0.797276
O O5 0.208740 0.241134 0.774564
O O6 0.195901 0.328958 0.665187
O O7 0.038333 0.253615 0.439938
O O8 0.331409 0.254705 0.661610
O O9 0.214191 0.078624 0.209617
O O10 0.192919 0.000000 0.053710
O O11 0.133045 0.095596 0.940902
O O12 0.186475 0.091487 0.767472
O O13 0.315178 0.000000 0.877251
O O14 0.500000 0.079672 0.000000
O O15 0.187505 0.334973 0.024397
O O16 0.498749 0.334173 0.291817
O O17 0.500000 0.773895 0.000000
O O18 0.376974 0.745752 0.106206
O O19 0.500000 0.907132 0.500000
#
# Coordination Sequence:
#
# PCOD8090259 Si02
#       8
#     8   8   8   8   8   8   8   8
#     4   9  18  33  54  85 125 160 200 255 314 374
#     4  10  23  43  60  86 125 170 211 271 324 388
#     4  10  20  35  57  92 129 161 204 262 320 385
#     4  10  19  33  55  86 126 167 207 260 319 377
#     4  12  22  34  61  91 124 165 211 259 311 386
#     4  10  23  39  59  88 125 162 213 266 322 387
#     4  10  21  33  62  88 117 159 210 260 325 376
#     4  10  24  41  61  86 125 169 216 266 327 384
#
# _framework density 24.193277999999999
#
# number of rings (size 3 to 8) (size 9 to 14) (size 15 to 20)
#    0.000    1.875    1.250    2.250    5.250    3.500 
#    0.000    0.000    0.000    3.750    0.000    8.750 
#    0.000    0.000    0.000    0.000    0.000    0.000 
#
# Total GULP energy -396657.112318 kJ/mol
# GULP energy per Si atom -12395.534760 kJ/mol
# Density = 2.413821 g / cm^3
# Si number density = 24.193278 Si / 1000 Ang^3
#
#
#
# Elastic Constant Matrix: (Units=GPa)
#
#
# Indices 1 2 3 4 5 6 
#
# 1 54.0469 13.1887 47.6758 0.0000 -25.7355 0.0000
# 2 13.1887 142.9248 53.1803 0.0000 -25.8808 0.0000
# 3 47.6758 53.1803 121.1003 0.0000 -28.0338 0.0000
# 4 0.0000 0.0000 0.0000 44.6391 0.0000 -6.8751
# 5 -25.7355 -25.8808 -28.0338 0.0000 37.6871 0.0000
# 6 0.0000 0.0000 0.0000 -6.8751 0.0000 36.3769
#
#
#
# Elastic Compliance Matrix: (Units=1/GPa)
#
#
# Indices 1 2 3 4 5 6 
#
# 1 0.037604 0.004678 -0.012286 0.000000 0.019752 0.000000
# 2 0.004678 0.009380 -0.004506 0.000000 0.006284 0.000000
# 3 -0.012286 -0.004506 0.014997 0.000000 -0.000329 0.000000
# 4 0.000000 0.000000 0.000000 0.023074 0.000000 0.004361
# 5 0.019752 0.006284 -0.000329 0.000000 0.044094 0.000000
# 6 0.000000 0.000000 0.000000 0.004361 0.000000 0.028314
#
#
# Mechanical properties :
#
#
# Convention : Reuss Voigt Hill
#
# Bulk Modulus (GPa) = 26.48783 60.68460 43.58621
# Shear Modulus (GPa) = 25.73670 37.34244 31.53957
#
# Velocity S-wave (km/s) = 3.26513 3.93301 3.61453
# Velocity P-wave (km/s) = 5.01866 6.76479 5.95606
#
# Compressibility (1/GPa) = 0.03775319
#
# Stress axis : x y z
#
# Youngs Moduli (GPa) = 26.59265 106.61506 66.67853
#
# Poissons Ratio (x) = -0.49878 0.81923
# Poissons Ratio (y) = -0.12441 0.30046
# Poissons Ratio (z) = 0.32673 0.48041
#
# Static dielectric constant tensor:
#      x y z
#    x 4.423860 0.000000 -0.221020 
#    y 0.000000 4.186750 0.000000 
#    z -0.221020 0.000000 4.483520 
# 
# 
# High freq. dielectric constant tensor:
#      x y z
#    x 1.980910 0.000000 -0.020800 
#    y 0.000000 1.952780 0.000000 
#    z -0.020800 0.000000 1.957730 
# 
# From -- ./inp_files/149790.got.cif
#   From: 2010.06.25/outbox.cif.g09.slc.cpg/sg12_75_cif.got.tgz:149790.got - 2010.06.28 00:19:55.
