data_PCOD8090733
_publ_section_title
;
Structure prediction by ZEFSAII (Michael W. Deem and Ramdas Pophale) SiO2 
 PCOD8090733
Probable space group: C 2/M
;
_chemical_formula_sum "Si O2"
_cell_formula_units_Z 48
_cell_length_a 9.846378
_cell_length_b 15.639683
_cell_length_c 23.526482
_cell_angle_alpha 90.000000
_cell_angle_beta 143.231493
_cell_angle_gamma 90.000000
_cell_volume 2168.633167
_symmetry_space_group_name_H-M "C 2/M"
_symmetry_group_IT_number 12
_symmetry_cell_setting 'monoclinic'
loop_
_space_group_symop_operation_xyz
x,y,z
-x,y,-z
-x,-y,-z
x,-y,z
1/2+x,1/2+y,z
1/2-x,1/2+y,-z
1/2-x,1/2-y,-z
1/2+x,1/2-y,z
loop_
_atom_site_type_symbol
_atom_site_label
_atom_site_fract_x
_atom_site_fract_y
_atom_site_fract_z
Si Si1 0.988963 0.601925 0.723406
Si Si2 0.218472 0.170709 0.533481
Si Si3 0.028787 0.101436 0.072081
Si Si4 0.740446 0.904902 0.564294
Si Si5 0.555666 0.898103 0.957162
Si Si6 0.727179 0.397872 0.748901
O O1 0.973004 0.500000 0.707271
O O2 0.926688 0.655059 0.646023
O O3 0.828916 0.629857 0.722234
O O4 0.243016 0.633536 0.821684
O O5 0.250000 0.250000 0.500000
O O6 0.214352 0.090984 0.488566
O O7 0.000000 0.176860 0.500000
O O8 0.039629 0.000000 0.071241
O O9 0.000000 0.141034 0.000000
O O10 0.811197 0.133505 0.033461
O O11 0.500000 0.856967 0.500000
O O12 0.967065 0.861918 0.668228
O O13 0.719902 0.000000 0.581920
O O14 0.382360 0.860735 0.851828
O O15 0.540667 0.000000 0.950171
O O16 0.500000 0.860716 0.000000
O O17 0.722097 0.500000 0.749857
#
# Coordination Sequence:
#
# PCOD8090733 Si02
#       6
#     8   8   8   8   8   8
#     4  10  19  33  59  89 115 151 198 241 289 352
#     4  12  25  41  59  82 113 154 201 249 300 355
#     4   9  15  26  47  79 116 147 181 229 282 346
#     4  10  21  37  59  87 118 150 193 250 299 348
#     4   9  16  25  41  73 119 155 177 217 281 345
#     4   9  16  29  51  80 115 155 189 226 286 347
#
# _framework density 22.133759000000001
#
# number of rings (size 3 to 8) (size 9 to 14) (size 15 to 20)
#    0.000    2.167    3.333    1.000    0.000    2.000 
#    0.000    5.000    0.000    0.000    0.000    5.833 
#    0.000    0.000    0.000    0.000    0.000    0.167 
#
# Total GULP energy -297313.233259 kJ/mol
# GULP energy per Si atom -12388.051386 kJ/mol
# Density = 2.208338 g / cm^3
# Si number density = 22.133759 Si / 1000 Ang^3
#
#
#
# Elastic Constant Matrix: (Units=GPa)
#
#
# Indices 1 2 3 4 5 6 
#
# 1 174.6530 14.6881 97.8478 0.0000 17.3820 0.0000
# 2 14.6881 26.1137 20.1283 0.0000 -2.0978 0.0000
# 3 97.8478 20.1283 229.7762 -0.0004 16.8348 0.0001
# 4 0.0000 0.0000 -0.0004 9.7223 0.0000 -7.1315
# 5 17.3820 -2.0978 16.8348 0.0000 52.8487 0.0000
# 6 0.0000 0.0000 0.0001 -7.1315 0.0000 10.5604
#
#
#
# Elastic Compliance Matrix: (Units=1/GPa)
#
#
# Indices 1 2 3 4 5 6 
#
# 1 0.007750 -0.002194 -0.002985 0.000000 -0.001685 0.000000
# 2 -0.002194 0.042109 -0.003000 0.000000 0.003349 0.000000
# 3 -0.002985 -0.003000 0.005962 0.000000 -0.001037 0.000000
# 4 0.000000 0.000000 0.000000 0.203814 0.000000 0.137637
# 5 -0.001685 0.003349 -0.001037 0.000000 0.019939 0.000000
# 6 0.000000 0.000000 0.000000 0.137637 0.000000 0.187641
#
#
# Mechanical properties :
#
#
# Convention : Reuss Voigt Hill
#
# Bulk Modulus (GPa) = 25.33935 77.31904 51.32919
# Shear Modulus (GPa) = 10.06589 34.48485 22.27537
#
# Velocity S-wave (km/s) = 2.13486 3.95146 3.17582
# Velocity P-wave (km/s) = 4.18927 7.47176 6.05711
#
# Compressibility (1/GPa) = 0.03946431
#
# Stress axis : x y z
#
# Youngs Moduli (GPa) = 129.03294 23.74767 167.73633
#
# Poissons Ratio (x) = 0.05210 0.50062
# Poissons Ratio (y) = 0.28310 0.50318
# Poissons Ratio (z) = 0.38511 0.07124
#
# Static dielectric constant tensor:
#      x y z
#    x 4.257670 0.000000 0.049790 
#    y 0.000000 3.431220 0.000000 
#    z 0.049790 0.000000 4.454080 
# 
# 
# High freq. dielectric constant tensor:
#      x y z
#    x 1.874470 0.000000 0.008650 
#    y 0.000000 1.818030 0.000000 
#    z 0.008650 0.000000 1.888600 
# 
# From -- ./inp_files/301836.got.cif
#   From: 2010.06.25/outbox.cif.g09.slc.cpg/sg12_151_cif.got.tgz:301836.got - 2010.06.28 00:19:55.
