data_PCOD8090781
_publ_section_title
;
Structure prediction by ZEFSAII (Michael W. Deem and Ramdas Pophale) SiO2 
 PCOD8090781
Probable space group: C 2/M
;
_chemical_formula_sum "Si O2"
_cell_formula_units_Z 64
_cell_length_a 25.553220
_cell_length_b 24.815225
_cell_length_c 18.780354
_cell_angle_alpha 90.000000
_cell_angle_beta 18.640610
_cell_angle_gamma 90.000000
_cell_volume 3806.418198
_symmetry_space_group_name_H-M "C 2/M"
_symmetry_group_IT_number 12
_symmetry_cell_setting 'monoclinic'
loop_
_space_group_symop_operation_xyz
x,y,z
-x,y,-z
-x,-y,-z
x,-y,z
1/2+x,1/2+y,z
1/2-x,1/2+y,-z
1/2-x,1/2-y,-z
1/2+x,1/2-y,z
loop_
_atom_site_type_symbol
_atom_site_label
_atom_site_fract_x
_atom_site_fract_y
_atom_site_fract_z
Si Si1 0.820009 0.937949 0.758123
Si Si2 0.738186 0.155475 0.960045
Si Si3 0.500026 0.062005 0.917252
Si Si4 0.186991 0.752537 0.251372
Si Si5 0.236992 0.346371 0.571774
Si Si6 0.312791 0.237143 0.242450
Si Si7 0.909525 0.703066 0.376816
Si Si8 0.418566 0.314748 0.868318
O O1 0.782127 0.903704 0.876637
O O2 0.000000 0.921026 0.500000
O O3 0.816938 0.000000 0.785069
O O4 0.682625 0.925462 0.875580
O O5 0.797698 0.201041 0.827830
O O6 0.820493 0.160683 0.929746
O O7 0.541926 0.157261 0.224380
O O8 0.637708 0.097625 0.699961
O O9 0.548224 0.000000 0.841592
O O10 0.500000 0.076481 0.000000
O O11 0.250683 0.776637 0.243498
O O12 0.000000 0.734216 0.500000
O O13 0.293000 0.699188 0.094355
O O14 0.214935 0.316631 0.675568
O O15 0.168910 0.307161 0.598719
O O16 0.431609 0.355431 0.304579
O O17 0.225660 0.290672 0.387086
O O18 0.500000 0.253144 0.000000
O O19 0.001950 0.759395 0.258601
#
# Coordination Sequence:
#
# PCOD8090781 Si02
#       8
#     8   8   8   8   8   8   8   8
#     4  10  22  37  53  75 102 131 170 213 246 289
#     4  11  20  34  50  71  99 140 169 201 249 296
#     4  10  22  36  53  76 102 132 169 213 249 285
#     4  11  20  32  48  72 102 134 169 209 240 295
#     4  11  20  34  51  70 103 140 168 201 245 300
#     4  11  20  29  48  72  99 132 171 201 243 294
#     4  10  19  34  48  68 101 135 168 209 241 293
#     4  10  21  32  48  71 100 132 172 202 248 294
#
# _framework density 16.813707000000001
#
# number of rings (size 3 to 8) (size 9 to 14) (size 15 to 20)
#    0.000    1.500    1.250    8.250    3.500    0.000 
#    0.000    0.000    0.000    0.000    0.000    0.000 
#    0.000   20.000    0.000    0.000    0.000    0.000 
#
# Total GULP energy -396724.431615 kJ/mol
# GULP energy per Si atom -12397.638488 kJ/mol
# Density = 1.677544 g / cm^3
# Si number density = 16.813707 Si / 1000 Ang^3
#
#
#
# Elastic Constant Matrix: (Units=GPa)
#
#
# Indices 1 2 3 4 5 6 
#
# 1 76.3841 18.8441 17.7346 0.0306 -20.5019 -0.0382
# 2 18.8441 57.9414 37.4647 0.1142 0.3286 -0.0330
# 3 17.7346 37.4647 132.0235 0.1747 -16.7973 -0.0490
# 4 0.0306 0.1142 0.1747 32.7715 -0.0673 0.0898
# 5 -20.5019 0.3286 -16.7973 -0.0673 26.0265 0.0148
# 6 -0.0382 -0.0330 -0.0490 0.0898 0.0148 16.9656
#
#
#
# Elastic Compliance Matrix: (Units=1/GPa)
#
#
# Indices 1 2 3 4 5 6 
#
# 1 0.018766 -0.007187 0.001537 0.000032 0.015866 0.000019
# 2 -0.007187 0.024387 -0.007315 -0.000061 -0.010691 0.000020
# 3 0.001537 -0.007315 0.010469 -0.000015 0.008060 0.000012
# 4 0.000032 -0.000061 -0.000015 0.030515 0.000095 -0.000162
# 5 0.015866 -0.010691 0.008060 0.000095 0.056258 -0.000011
# 6 0.000019 0.000020 0.000012 -0.000162 -0.000011 0.058944
#
#
# Mechanical properties :
#
#
# Convention : Reuss Voigt Hill
#
# Bulk Modulus (GPa) = 36.11098 46.04845 41.07972
# Shear Modulus (GPa) = 21.32195 27.97308 24.64751
#
# Velocity S-wave (km/s) = 3.56494 4.08328 3.83288
# Velocity P-wave (km/s) = 6.20232 7.04825 6.63877
#
# Compressibility (1/GPa) = 0.02769241
#
# Stress axis : x y z
#
# Youngs Moduli (GPa) = 53.28664 41.00554 95.51832
#
# Poissons Ratio (x) = 0.29472 -0.14684
# Poissons Ratio (y) = 0.38299 0.69871
# Poissons Ratio (z) = -0.08192 0.29995
#
# Static dielectric constant tensor:
#      x y z
#    x 5.182780 0.000640 1.103170 
#    y 0.000640 2.973740 0.000510 
#    z 1.103170 0.000510 4.742520 
# 
# 
# High freq. dielectric constant tensor:
#      x y z
#    x 1.653520 -0.000010 -0.021770 
#    y -0.000010 1.606710 0.000020 
#    z -0.021770 0.000020 1.661770 
# 
# From -- ./inp_files/272843.got.cif
#   From: 2010.06.25/outbox.cif.g09.slc.cpg/sg12_137_cif.got.tgz:272843.got - 2010.06.28 00:19:55.
