data_PCOD8090734
_publ_section_title
;
Structure prediction by ZEFSAII (Michael W. Deem and Ramdas Pophale) SiO2 
 PCOD8090734
Probable space group: C 2/M
;
_chemical_formula_sum "Si O2"
_cell_formula_units_Z 64
_cell_length_a 9.000985
_cell_length_b 15.711300
_cell_length_c 22.962510
_cell_angle_alpha 90.000000
_cell_angle_beta 94.946984
_cell_angle_gamma 90.000000
_cell_volume 3235.196873
_symmetry_space_group_name_H-M "C 2/M"
_symmetry_group_IT_number 12
_symmetry_cell_setting 'monoclinic'
loop_
_space_group_symop_operation_xyz
x,y,z
-x,y,-z
-x,-y,-z
x,-y,z
1/2+x,1/2+y,z
1/2-x,1/2+y,-z
1/2-x,1/2-y,-z
1/2+x,1/2-y,z
loop_
_atom_site_type_symbol
_atom_site_label
_atom_site_fract_x
_atom_site_fract_y
_atom_site_fract_z
Si Si1 0.743793 0.406868 0.609670
Si Si2 0.147232 0.738121 0.775259
Si Si3 0.587889 0.314513 0.146377
Si Si4 0.669816 0.338864 0.490327
Si Si5 0.404907 0.401795 0.634617
Si Si6 0.078929 0.905077 0.947327
Si Si7 0.355598 0.801720 0.960569
Si Si8 0.879037 0.274820 0.694955
O O1 0.805578 0.500000 0.629724
O O2 0.741566 0.403122 0.539602
O O3 0.579439 0.393905 0.629098
O O4 0.848846 0.331929 0.637412
O O5 0.249330 0.674243 0.818048
O O6 0.262050 0.796611 0.742502
O O7 0.039781 0.794701 0.811173
O O8 0.040575 0.693567 0.723842
O O9 0.533042 0.399469 0.111816
O O10 0.590827 0.242362 0.096941
O O11 0.500000 0.321847 0.500000
O O12 0.750000 0.250000 0.500000
O O13 0.687839 0.380613 0.427198
O O14 0.366265 0.500000 0.653500
O O15 0.368958 0.327395 0.680667
O O16 0.245329 0.876579 0.936254
O O17 0.096278 0.000000 0.968871
O O18 0.000000 0.854370 0.000000
O O19 0.500000 0.836794 0.000000
O O20 0.250000 0.750000 0.000000
#
# Coordination Sequence:
#
# PCOD8090734 Si02
#       8
#     8   8   8   8   8   8   8   8
#     4  10  20  36  60  86 117 152 190 240 300 364
#     4  10  23  35  62  83 111 153 207 243 286 328
#     4  11  19  39  61  88 112 157 195 242 276 351
#     4  10  19  33  59  89 116 148 187 238 299 367
#     4  10  20  36  61  87 115 153 196 237 298 371
#     4  11  23  38  59  94 129 153 184 242 301 349
#     4  12  19  34  65  94 115 153 200 229 282 364
#     4  11  20  39  58  86 112 154 201 255 290 347
#
# _framework density 19.782412999999998
#
# number of rings (size 3 to 8) (size 9 to 14) (size 15 to 20)
#    0.000    1.375    6.250    0.375    0.000    1.750 
#    0.000    4.375    0.000    1.500    0.000    0.000 
#    0.000    0.000    0.000    0.000    0.000    0.000 
#
# Total GULP energy -396428.798202 kJ/mol
# GULP energy per Si atom -12388.399944 kJ/mol
# Density = 1.973739 g / cm^3
# Si number density = 19.782413 Si / 1000 Ang^3
#
#
#
# Elastic Constant Matrix: (Units=GPa)
#
#
# Indices 1 2 3 4 5 6 
#
# 1 100.5030 27.4735 42.8819 0.0000 24.5747 0.0000
# 2 27.4735 93.2960 28.4606 0.0000 12.0865 0.0000
# 3 42.8819 28.4606 102.4497 0.0000 20.0634 0.0000
# 4 0.0000 0.0000 0.0000 15.1629 0.0000 3.5432
# 5 24.5747 12.0865 20.0634 0.0000 43.6038 0.0000
# 6 0.0000 0.0000 0.0000 3.5432 0.0000 18.5117
#
#
#
# Elastic Compliance Matrix: (Units=1/GPa)
#
#
# Indices 1 2 3 4 5 6 
#
# 1 0.013517 -0.002069 -0.004070 0.000000 -0.005172 0.000000
# 2 -0.002069 0.012176 -0.002290 0.000000 -0.001155 0.000000
# 3 -0.004070 -0.002290 0.012669 0.000000 -0.002901 0.000000
# 4 0.000000 0.000000 0.000000 0.069038 0.000000 -0.013214
# 5 -0.005172 -0.001155 -0.002901 0.000000 0.027503 0.000000
# 6 0.000000 0.000000 0.000000 -0.013214 0.000000 0.056549
#
#
# Mechanical properties :
#
#
# Convention : Reuss Voigt Hill
#
# Bulk Modulus (GPa) = 46.50490 54.87565 50.69028
# Shear Modulus (GPa) = 23.20417 28.61786 25.91102
#
# Velocity S-wave (km/s) = 3.42858 3.80759 3.62304
# Velocity P-wave (km/s) = 6.26361 6.86514 6.57126
#
# Compressibility (1/GPa) = 0.02150311
#
# Stress axis : x y z
#
# Youngs Moduli (GPa) = 73.98299 82.12792 78.93416
#
# Poissons Ratio (x) = 0.16990 0.32127
# Poissons Ratio (y) = 0.15305 0.18079
# Poissons Ratio (z) = 0.30112 0.18810
#
# Static dielectric constant tensor:
#      x y z
#    x 4.293490 0.000000 0.173900 
#    y 0.000000 3.387910 0.000000 
#    z 0.173900 0.000000 3.915700 
# 
# 
# High freq. dielectric constant tensor:
#      x y z
#    x 1.775070 0.000000 0.010030 
#    y 0.000000 1.732480 0.000000 
#    z 0.010030 0.000000 1.785120 
# 
# From -- ./inp_files/332933.got.cif
#   From: 2010.06.25/outbox.cif.g09.slc.cpg/sg12_167_cif.got.tgz:332933.got - 2010.06.28 00:19:55.
