data_PCOD8090904
_publ_section_title
;
Structure prediction by ZEFSAII (Michael W. Deem and Ramdas Pophale) SiO2 
 PCOD8090904
Probable space group: C 2/M
;
_chemical_formula_sum "Si O2"
_cell_formula_units_Z 56
_cell_length_a 33.026684
_cell_length_b 8.785010
_cell_length_c 23.829743
_cell_angle_alpha 90.000000
_cell_angle_beta 157.023639
_cell_angle_gamma 90.000000
_cell_volume 2698.871682
_symmetry_space_group_name_H-M "C 2/M"
_symmetry_group_IT_number 12
_symmetry_cell_setting 'monoclinic'
loop_
_space_group_symop_operation_xyz
x,y,z
-x,y,-z
-x,-y,-z
x,-y,z
1/2+x,1/2+y,z
1/2-x,1/2+y,-z
1/2-x,1/2-y,-z
1/2+x,1/2-y,z
loop_
_atom_site_type_symbol
_atom_site_label
_atom_site_fract_x
_atom_site_fract_y
_atom_site_fract_z
Si Si1 0.810878 0.679314 0.899907
Si Si2 0.642755 0.175871 0.345877
Si Si3 0.282843 0.829873 0.678678
Si Si4 0.054538 0.825573 0.403817
Si Si5 0.089217 0.181491 0.572050
Si Si6 0.408900 0.676373 0.923979
Si Si7 0.549479 0.318895 0.837323
O O1 0.810447 0.500000 0.906196
O O2 0.699313 0.742201 0.736663
O O3 0.900870 0.730035 0.971336
O O4 0.842812 0.750709 0.001028
O O5 0.750000 0.250000 0.500000
O O6 0.639705 0.190616 0.274488
O O7 0.545479 0.265361 0.245455
O O8 0.639178 0.000000 0.360540
O O9 0.162937 0.805644 0.508488
O O10 0.305137 0.707677 0.755738
O O11 0.294681 0.000000 0.719710
O O12 0.062216 0.749292 0.475665
O O13 0.968282 0.760165 0.250053
O O14 0.026962 0.000000 0.379456
O O15 0.000000 0.238328 0.500000
O O16 0.095327 0.000000 0.576747
O O17 0.422606 0.500000 0.956222
O O18 0.500000 0.738758 0.000000
O O19 0.553805 0.500000 0.844496
#
# Coordination Sequence:
#
# PCOD8090904 Si02
#       7
#     8   8   8   8   8   8   8
#     4  11  22  38  60  87 119 152 194 245 296 354
#     4  11  21  33  51  78 115 159 206 247 287 339
#     4  10  19  34  53  76 107 148 197 241 284 335
#     4   9  17  34  57  82 111 147 188 232 287 344
#     4   9  18  36  65  93 112 141 193 249 295 351
#     4  11  23  36  52  79 115 155 197 239 287 343
#     4  11  22  37  56  81 120 160 196 239 291 351
#
# _framework density 20.749413000000001
#
# number of rings (size 3 to 8) (size 9 to 14) (size 15 to 20)
#    0.000    1.714    2.857    2.571    0.000    4.571 
#    0.000    0.714    0.000    1.714    0.000    0.000 
#    0.000    0.000    0.000    0.000    0.000    0.000 
#
# Total GULP energy -347007.444137 kJ/mol
# GULP energy per Si atom -12393.123005 kJ/mol
# Density = 2.070219 g / cm^3
# Si number density = 20.749413 Si / 1000 Ang^3
#
#
#
# Elastic Constant Matrix: (Units=GPa)
#
#
# Indices 1 2 3 4 5 6 
#
# 1 108.8259 18.4739 67.6017 0.0000 -12.6285 0.0000
# 2 18.4739 53.4684 29.0662 0.0000 -7.5238 0.0000
# 3 67.6017 29.0662 144.7983 0.0000 -32.7710 0.0000
# 4 0.0000 0.0000 0.0000 32.0388 0.0000 -6.2616
# 5 -12.6285 -7.5238 -32.7710 0.0000 33.8869 0.0000
# 6 0.0000 0.0000 0.0000 -6.2616 0.0000 14.4374
#
#
#
# Elastic Compliance Matrix: (Units=1/GPa)
#
#
# Indices 1 2 3 4 5 6 
#
# 1 0.013077 -0.001373 -0.006139 0.000000 -0.001369 0.000000
# 2 -0.001373 0.021153 -0.003403 0.000000 0.000894 0.000000
# 3 -0.006139 -0.003403 0.012503 0.000000 0.009048 0.000000
# 4 0.000000 0.000000 0.000000 0.034103 0.000000 0.014791
# 5 -0.001369 0.000894 0.009048 0.000000 0.037949 0.000000
# 6 0.000000 0.000000 0.000000 0.014791 0.000000 0.075679
#
#
# Mechanical properties :
#
#
# Convention : Reuss Voigt Hill
#
# Bulk Modulus (GPa) = 40.15687 59.70848 49.93268
# Shear Modulus (GPa) = 22.26231 28.86934 25.56582
#
# Velocity S-wave (km/s) = 3.27909 3.73410 3.51397
# Velocity P-wave (km/s) = 5.80791 6.88693 6.37031
#
# Compressibility (1/GPa) = 0.02490234
#
# Stress axis : x y z
#
# Youngs Moduli (GPa) = 76.47024 47.27544 79.97953
#
# Poissons Ratio (x) = 0.06493 0.49102
# Poissons Ratio (y) = 0.10502 0.27213
# Poissons Ratio (z) = 0.46947 0.16086
#
# Static dielectric constant tensor:
#      x y z
#    x 3.786820 0.000000 -0.262140 
#    y 0.000000 3.423270 0.000000 
#    z -0.262140 0.000000 3.982170 
# 
# 
# High freq. dielectric constant tensor:
#      x y z
#    x 1.793990 0.000000 -0.023390 
#    y 0.000000 1.776780 0.000000 
#    z -0.023390 0.000000 1.821440 
# 
# From -- ./inp_files/329683.got.cif
#   From: 2010.06.25/outbox.cif.g09.slc.cpg/sg12_165_cif.got.tgz:329683.got - 2010.06.28 00:19:55.
