data_PCOD8090631
_publ_section_title
;
Structure prediction by ZEFSAII (Michael W. Deem and Ramdas Pophale) SiO2 
 PCOD8090631
Probable space group: C 2/M
;
_chemical_formula_sum "Si O2"
_cell_formula_units_Z 52
_cell_length_a 12.418236
_cell_length_b 28.770239
_cell_length_c 12.982715
_cell_angle_alpha 90.000000
_cell_angle_beta 35.029451
_cell_angle_gamma 90.000000
_cell_volume 2662.433943
_symmetry_space_group_name_H-M "C 2/M"
_symmetry_group_IT_number 12
_symmetry_cell_setting 'monoclinic'
loop_
_space_group_symop_operation_xyz
x,y,z
-x,y,-z
-x,-y,-z
x,-y,z
1/2+x,1/2+y,z
1/2-x,1/2+y,-z
1/2-x,1/2-y,-z
1/2+x,1/2-y,z
loop_
_atom_site_type_symbol
_atom_site_label
_atom_site_fract_x
_atom_site_fract_y
_atom_site_fract_z
Si Si1 0.831729 0.361511 0.436308
Si Si2 0.500000 0.191070 0.500000
Si Si3 0.945302 0.145535 0.822212
Si Si4 0.038142 0.321874 0.089675
Si Si5 0.523274 0.948303 0.598125
Si Si6 0.117436 0.052637 0.009145
Si Si7 0.097689 0.772901 0.821677
O O1 0.958816 0.338274 0.427979
O O2 0.613179 0.346404 0.607601
O O3 0.824489 0.416303 0.465977
O O4 0.922937 0.356895 0.252727
O O5 0.678300 0.224439 0.341552
O O6 0.011126 0.176917 0.866267
O O7 0.758460 0.168822 0.926809
O O8 0.924320 0.091630 0.871651
O O9 0.967968 0.271955 0.194331
O O10 0.000000 0.332199 0.000000
O O11 0.500000 0.930694 0.500000
O O12 0.332798 0.944486 0.810675
O O13 0.606120 0.000000 0.532982
O O14 0.068473 0.000000 0.087043
O O15 0.000000 0.064691 0.000000
O O16 0.000000 0.754747 0.000000
#
# Coordination Sequence:
#
# PCOD8090631 Si02
#       7
#     8   4   8   8   8   8   8
#     4  11  22  38  62  89 123 157 194 245 303 365
#     4  10  22  36  59  94 120 150 191 248 314 364
#     4  11  22  37  62  86 117 158 200 252 301 355
#     4  11  25  42  58  81 116 161 216 253 295 342
#     4  10  19  33  57  91 128 157 186 230 294 366
#     4  10  20  33  56  92 130 157 186 235 299 375
#     4  10  22  37  60  86 119 159 197 252 301 364
#
# _framework density 19.531001
#
# number of rings (size 3 to 8) (size 9 to 14) (size 15 to 20)
#    0.000    1.538    2.308    2.769    2.154    8.615 
#    0.000    0.000    0.000    1.846    0.000    2.154 
#    0.000    0.000    0.000    0.000    0.000    0.000 
#
# Total GULP energy -322090.323914 kJ/mol
# GULP energy per Si atom -12388.089381 kJ/mol
# Density = 1.948655 g / cm^3
# Si number density = 19.531001 Si / 1000 Ang^3
#
#
#
# Elastic Constant Matrix: (Units=GPa)
#
#
# Indices 1 2 3 4 5 6 
#
# 1 78.8647 43.1685 63.5558 0.0000 -19.2354 0.0000
# 2 43.1685 111.1843 36.6035 0.0000 -7.4985 0.0000
# 3 63.5558 36.6035 117.6616 0.0000 -12.7647 0.0000
# 4 0.0000 0.0000 0.0000 28.1677 0.0000 -7.1190
# 5 -19.2354 -7.4985 -12.7647 0.0000 40.5084 0.0000
# 6 0.0000 0.0000 0.0000 -7.1190 0.0000 24.7824
#
#
#
# Elastic Compliance Matrix: (Units=1/GPa)
#
#
# Indices 1 2 3 4 5 6 
#
# 1 0.028050 -0.006283 -0.012298 0.000000 0.008281 0.000000
# 2 -0.006283 0.011460 -0.000274 0.000000 -0.000949 0.000000
# 3 -0.012298 -0.000274 0.015105 0.000000 -0.001131 0.000000
# 4 0.000000 0.000000 0.000000 0.038281 0.000000 0.010997
# 5 0.008281 -0.000949 -0.001131 0.000000 0.028087 0.000000
# 6 0.000000 0.000000 0.000000 0.010997 0.000000 0.043510
#
#
# Mechanical properties :
#
#
# Convention : Reuss Voigt Hill
#
# Bulk Modulus (GPa) = 59.16093 66.04070 62.60081
# Shear Modulus (GPa) = 24.05716 29.65058 26.85387
#
# Velocity S-wave (km/s) = 3.51343 3.90054 3.71203
# Velocity P-wave (km/s) = 6.84218 7.36019 7.10590
#
# Compressibility (1/GPa) = 0.01690305
#
# Stress axis : x y z
#
# Youngs Moduli (GPa) = 35.65022 87.26079 66.20514
#
# Poissons Ratio (x) = 0.54830 0.81422
# Poissons Ratio (y) = 0.22401 0.01814
# Poissons Ratio (z) = 0.43844 0.02390
#
# Static dielectric constant tensor:
#      x y z
#    x 3.246900 0.000000 -0.231670 
#    y 0.000000 3.812790 0.000000 
#    z -0.231670 0.000000 3.623730 
# 
# 
# High freq. dielectric constant tensor:
#      x y z
#    x 1.720410 0.000000 -0.020040 
#    y 0.000000 1.772340 0.000000 
#    z -0.020040 0.000000 1.774990 
# 
# From -- ./inp_files/137545.got.cif
#   From: 2010.06.25/outbox.cif.g09.slc.cpg/sg12_69_cif.got.tgz:137545.got - 2010.06.28 00:19:55.
