data_PCOD8090014
_publ_section_title
;
Structure prediction by ZEFSAII (Michael W. Deem and Ramdas Pophale) SiO2 
 PCOD8090014
Probable space group: C 2/M
;
_chemical_formula_sum "Si O2"
_cell_formula_units_Z 48
_cell_length_a 12.660624
_cell_length_b 28.899109
_cell_length_c 14.443531
_cell_angle_alpha 90.000000
_cell_angle_beta 28.169981
_cell_angle_gamma 90.000000
_cell_volume 2494.806029
_symmetry_space_group_name_H-M "C 2/M"
_symmetry_group_IT_number 12
_symmetry_cell_setting 'monoclinic'
loop_
_space_group_symop_operation_xyz
x,y,z
-x,y,-z
-x,-y,-z
x,-y,z
1/2+x,1/2+y,z
1/2-x,1/2+y,-z
1/2-x,1/2-y,-z
1/2+x,1/2-y,z
loop_
_atom_site_type_symbol
_atom_site_label
_atom_site_fract_x
_atom_site_fract_y
_atom_site_fract_z
Si Si1 0.546334 0.733907 0.063416
Si Si2 0.073122 0.195807 0.227193
Si Si3 0.813923 0.054474 0.006708
Si Si4 0.215657 0.445048 0.285903
Si Si5 0.270293 0.684750 0.624619
Si Si6 0.583854 0.116592 0.033926
O O1 0.523823 0.692286 0.155054
O O2 0.363018 0.773030 0.227323
O O3 0.500000 0.711089 0.000000
O O4 0.797230 0.755056 0.864369
O O5 0.840087 0.195282 0.464155
O O6 0.231749 0.154459 0.137723
O O7 0.718353 0.073179 0.178356
O O8 0.694851 0.077274 0.010679
O O9 0.778425 0.000000 0.022013
O O10 0.075267 0.068256 0.810381
O O11 0.205163 0.500000 0.287538
O O12 0.000000 0.422749 0.500000
O O13 0.500000 0.676608 0.500000
O O14 0.117583 0.639026 0.750799
O O15 0.500000 0.095827 0.000000
#
# Coordination Sequence:
#
# PCOD8090014 Si02
#       6
#     8   8   8   8   8   8
#     4  10  19  33  55  80 104 135 181 232 273 322
#     4  10  20  35  53  76 106 143 182 226 272 327
#     4   9  19  35  57  83 109 142 186 230 274 330
#     4   8  15  33  59  82 104 134 173 221 280 337
#     4  11  18  35  57  75 104 152 192 218 267 330
#     4  11  22  36  54  77 111 152 187 227 276 324
#
# _framework density 19.239972000000002
#
# number of rings (size 3 to 8) (size 9 to 14) (size 15 to 20)
#    0.000    2.167    3.333    2.500    0.000    1.667 
#    3.000    0.000    0.000    1.500    0.000    0.000 
#    0.000    0.000    0.000    0.000    0.000    0.000 
#
# Total GULP energy -297441.049235 kJ/mol
# GULP energy per Si atom -12393.377051 kJ/mol
# Density = 1.919618 g / cm^3
# Si number density = 19.239972 Si / 1000 Ang^3
#
#
#
# Elastic Constant Matrix: (Units=GPa)
#
#
# Indices 1 2 3 4 5 6 
#
# 1 168.5188 33.7864 49.3820 -0.0003 13.0050 0.0001
# 2 33.7864 31.5651 18.5064 0.0000 -1.7091 0.0000
# 3 49.3820 18.5064 139.0043 0.0001 11.6784 0.0000
# 4 -0.0003 0.0000 0.0001 10.8941 -0.0001 -1.4240
# 5 13.0050 -1.7091 11.6784 -0.0001 27.8473 0.0000
# 6 0.0001 0.0000 0.0000 -1.4240 0.0000 32.8034
#
#
#
# Elastic Compliance Matrix: (Units=1/GPa)
#
#
# Indices 1 2 3 4 5 6 
#
# 1 0.008321 -0.008200 -0.001550 0.000000 -0.003739 0.000000
# 2 -0.008200 0.042918 -0.003466 0.000000 0.007917 0.000000
# 3 -0.001550 -0.003466 0.008461 0.000000 -0.003037 0.000000
# 4 0.000000 0.000000 0.000000 0.092316 0.000000 0.004007
# 5 -0.003739 0.007917 -0.003037 0.000000 0.039416 0.000000
# 6 0.000000 0.000000 0.000000 0.004007 0.000000 0.030659
#
#
# Mechanical properties :
#
#
# Convention : Reuss Voigt Hill
#
# Bulk Modulus (GPa) = 30.05873 60.27089 45.16481
# Shear Modulus (GPa) = 19.25941 30.13654 24.69797
#
# Velocity S-wave (km/s) = 3.16731 3.96201 3.58674
# Velocity P-wave (km/s) = 5.38821 7.23353 6.37796
#
# Compressibility (1/GPa) = 0.03326820
#
# Stress axis : x y z
#
# Youngs Moduli (GPa) = 120.17923 23.30000 118.18444
#
# Poissons Ratio (x) = 0.19106 0.18321
# Poissons Ratio (y) = 0.98548 0.40963
# Poissons Ratio (z) = 0.18630 0.08076
#
# Static dielectric constant tensor:
#      x y z
#    x 3.722540 0.000000 0.133940 
#    y 0.000000 2.992360 0.000000 
#    z 0.133940 0.000000 4.044310 
# 
# 
# High freq. dielectric constant tensor:
#      x y z
#    x 1.759310 0.000000 0.004670 
#    y 0.000000 1.696320 0.000000 
#    z 0.004670 0.000000 1.758720 
# 
# From -- ./inp_files/209292.got.cif
#   From: 2010.06.25/outbox.cif.g09.slc.cpg/sg12_105_cif.got.tgz:209292.got - 2010.06.28 00:19:55.
