data_PCOD8090450
_publ_section_title
;
Structure prediction by ZEFSAII (Michael W. Deem and Ramdas Pophale) SiO2 
 PCOD8090450
Probable space group: C 2/M
;
_chemical_formula_sum "Si O2"
_cell_formula_units_Z 64
_cell_length_a 20.625375
_cell_length_b 8.740127
_cell_length_c 24.533892
_cell_angle_alpha 90.000000
_cell_angle_beta 128.447630
_cell_angle_gamma 90.000000
_cell_volume 3463.744700
_symmetry_space_group_name_H-M "C 2/M"
_symmetry_group_IT_number 12
_symmetry_cell_setting 'monoclinic'
loop_
_space_group_symop_operation_xyz
x,y,z
-x,y,-z
-x,-y,-z
x,-y,z
1/2+x,1/2+y,z
1/2-x,1/2+y,-z
1/2-x,1/2-y,-z
1/2+x,1/2-y,z
loop_
_atom_site_type_symbol
_atom_site_label
_atom_site_fract_x
_atom_site_fract_y
_atom_site_fract_z
Si Si1 0.119202 0.817804 0.671479
Si Si2 0.786694 0.818879 0.464628
Si Si3 0.237946 0.820358 0.825908
Si Si4 0.464947 0.178772 0.541368
Si Si5 0.254917 0.678840 0.665722
Si Si6 0.790027 0.320219 0.968031
Si Si7 0.130281 0.174046 0.178191
Si Si8 0.036935 0.176166 0.961026
O O1 0.158880 0.761662 0.749872
O O2 0.177171 0.760993 0.652928
O O3 0.030089 0.738852 0.620224
O O4 0.110645 0.000000 0.663542
O O5 0.750000 0.750000 0.500000
O O6 0.881287 0.770845 0.506427
O O7 0.731545 0.752737 0.386254
O O8 0.779295 0.000000 0.462271
O O9 0.241066 0.754927 0.889149
O O10 0.322862 0.779063 0.840321
O O11 0.233745 0.000000 0.826669
O O12 0.500000 0.214821 0.500000
O O13 0.448159 0.000000 0.541300
O O14 0.233513 0.500000 0.648839
O O15 0.338844 0.707415 0.744155
O O16 0.780534 0.500000 0.966779
O O17 0.750000 0.250000 0.000000
O O18 0.886412 0.280636 0.014677
O O19 0.032334 0.203803 0.121951
O O20 0.151527 0.000000 0.173093
O O21 0.065772 0.000000 0.977723
O O22 0.000000 0.225283 0.000000
#
# Coordination Sequence:
#
# PCOD8090450 Si02
#       8
#     8   8   8   8   8   8   8   8
#     4  10  19  33  56  85 113 145 187 234 284 331
#     4  12  25  41  61  84 115 152 190 231 282 339
#     4   9  19  34  53  80 113 146 184 232 282 331
#     4  11  22  37  59  87 118 148 187 235 279 329
#     4  10  19  34  55  83 116 149 187 229 280 333
#     4  11  23  38  56  80 113 152 190 232 283 336
#     4   9  18  32  55  84 113 146 183 229 279 329
#     4  10  19  34  57  85 114 145 187 233 277 329
#
# _framework density 18.477112000000002
#
# number of rings (size 3 to 8) (size 9 to 14) (size 15 to 20)
#    0.000    1.750    2.500    2.625    0.000    2.750 
#    0.000    1.250    0.000    3.000    0.000    0.000 
#    0.000    0.000    0.000    0.000    0.000    0.000 
#
# Total GULP energy -396797.401010 kJ/mol
# GULP energy per Si atom -12399.918782 kJ/mol
# Density = 1.843506 g / cm^3
# Si number density = 18.477112 Si / 1000 Ang^3
#
#
#
# Elastic Constant Matrix: (Units=GPa)
#
#
# Indices 1 2 3 4 5 6 
#
# 1 79.7977 21.3296 60.0513 0.0000 -11.8926 0.0000
# 2 21.3296 44.1357 40.1250 0.0000 -2.6042 0.0000
# 3 60.0513 40.1250 158.2710 0.0000 -10.1228 0.0000
# 4 0.0000 0.0000 0.0000 29.0710 0.0000 1.3571
# 5 -11.8926 -2.6042 -10.1228 0.0000 28.7159 0.0000
# 6 0.0000 0.0000 0.0000 1.3571 0.0000 32.0054
#
#
#
# Elastic Compliance Matrix: (Units=1/GPa)
#
#
# Indices 1 2 3 4 5 6 
#
# 1 0.018653 -0.003347 -0.005887 0.000000 0.005346 0.000000
# 2 -0.003347 0.030044 -0.006406 0.000000 -0.000920 0.000000
# 3 -0.005887 -0.006406 0.010213 0.000000 0.000581 0.000000
# 4 0.000000 0.000000 0.000000 0.034467 0.000000 -0.001461
# 5 0.005346 -0.000920 0.000581 0.000000 0.037160 0.000000
# 6 0.000000 0.000000 0.000000 -0.001461 0.000000 0.031307
#
#
# Mechanical properties :
#
#
# Convention : Reuss Voigt Hill
#
# Bulk Modulus (GPa) = 36.19112 58.35733 47.27422
# Shear Modulus (GPa) = 24.71163 28.67169 26.69166
#
# Velocity S-wave (km/s) = 3.66104 3.94349 3.80489
# Velocity P-wave (km/s) = 6.12376 7.23788 6.70401
#
# Compressibility (1/GPa) = 0.02763109
#
# Stress axis : x y z
#
# Youngs Moduli (GPa) = 53.60960 33.28418 97.91403
#
# Poissons Ratio (x) = 0.11141 0.57641
# Poissons Ratio (y) = 0.17944 0.62720
# Poissons Ratio (z) = 0.31560 0.21321
#
# Static dielectric constant tensor:
#      x y z
#    x 2.938330 0.000000 -0.401270 
#    y 0.000000 3.447200 0.000000 
#    z -0.401270 0.000000 3.388110 
# 
# 
# High freq. dielectric constant tensor:
#      x y z
#    x 1.682040 0.000000 0.003080 
#    y 0.000000 1.722940 0.000000 
#    z 0.003080 0.000000 1.740300 
# 
# From -- ./inp_files/346226.got.cif
#   From: 2010.06.25/outbox.cif.g09.slc.cpg/sg12_174_cif.got.tgz:346226.got - 2010.06.28 00:19:55.
