data_PCOD8090786
_publ_section_title
;
Structure prediction by ZEFSAII (Michael W. Deem and Ramdas Pophale) SiO2 
 PCOD8090786
Probable space group: C 2/M
;
_chemical_formula_sum "Si O2"
_cell_formula_units_Z 64
_cell_length_a 24.863627
_cell_length_b 9.370758
_cell_length_c 17.822051
_cell_angle_alpha 90.000000
_cell_angle_beta 103.841902
_cell_angle_gamma 90.000000
_cell_volume 4031.791221
_symmetry_space_group_name_H-M "C 2/M"
_symmetry_group_IT_number 12
_symmetry_cell_setting 'monoclinic'
loop_
_space_group_symop_operation_xyz
x,y,z
-x,y,-z
-x,-y,-z
x,-y,z
1/2+x,1/2+y,z
1/2-x,1/2+y,-z
1/2-x,1/2-y,-z
1/2+x,1/2-y,z
loop_
_atom_site_type_symbol
_atom_site_label
_atom_site_fract_x
_atom_site_fract_y
_atom_site_fract_z
Si Si1 0.493450 0.834026 0.084702
Si Si2 0.177399 0.333651 0.092238
Si Si3 0.904888 0.832068 0.827644
Si Si4 0.198632 0.166300 0.821823
Si Si5 0.368865 0.835333 0.083198
Si Si6 0.304009 0.663519 0.501002
Si Si7 0.220237 0.166328 0.665169
Si Si8 0.669186 0.664465 0.332628
O O1 0.534962 0.738537 0.147159
O O2 0.432135 0.792759 0.089776
O O3 0.506916 0.000000 0.102680
O O4 0.500000 0.794839 0.000000
O O5 0.165024 0.500000 0.105494
O O6 0.136418 0.237683 0.126733
O O7 0.239892 0.290008 0.131896
O O8 0.167514 0.298946 0.001880
O O9 0.883602 0.799570 0.736191
O O10 0.908886 0.000000 0.845546
O O11 0.152698 0.247465 0.853618
O O12 0.190294 0.212640 0.732071
O O13 0.188600 0.000000 0.831068
O O14 0.363526 0.000000 0.102314
O O15 0.286414 0.500000 0.498037
O O16 0.250000 0.750000 0.500000
O O17 0.321165 0.699415 0.420076
O O18 0.346713 0.695902 0.584076
O O19 0.278571 0.244797 0.676562
O O20 0.235191 0.000000 0.675813
O O21 0.686186 0.500000 0.327783
#
# Coordination Sequence:
#
# PCOD8090786 Si02
#       8
#     8   8   8   8   8   8   8   8
#     4  10  20  37  55  67  87 121 159 198 239 284
#     4  10  19  34  50  66  94 129 160 189 226 279
#     4  11  21  30  47  74  98 123 155 195 239 274
#     4  10  20  31  47  71  98 125 155 194 232 270
#     4  10  21  35  51  67  87 123 162 194 235 280
#     4   8  14  25  41  62  91 124 154 183 219 271
#     4   9  16  27  45  67  92 126 159 184 222 274
#     4   9  17  28  42  66  98 125 151 188 231 271
#
# _framework density 15.873837
#
# number of rings (size 3 to 8) (size 9 to 14) (size 15 to 20)
#    0.000    2.375    2.500    0.750    0.000    2.750 
#    0.000    0.000    0.000    0.000    0.000    0.875 
#    0.000    7.000    0.000    0.000    0.000    0.000 
#
# Total GULP energy -396555.937104 kJ/mol
# GULP energy per Si atom -12392.373035 kJ/mol
# Density = 1.583771 g / cm^3
# Si number density = 15.873837 Si / 1000 Ang^3
#
#
#
# Elastic Constant Matrix: (Units=GPa)
#
#
# Indices 1 2 3 4 5 6 
#
# 1 78.0030 35.5737 58.8881 0.0000 -9.3265 0.0000
# 2 35.5737 47.2806 46.5966 0.0000 -2.3875 0.0000
# 3 58.8881 46.5966 146.0207 0.0000 -9.3095 0.0000
# 4 0.0000 0.0000 0.0000 19.2219 0.0000 -3.6533
# 5 -9.3265 -2.3875 -9.3095 0.0000 17.0570 0.0000
# 6 0.0000 0.0000 0.0000 -3.6533 0.0000 24.7047
#
#
#
# Elastic Compliance Matrix: (Units=1/GPa)
#
#
# Indices 1 2 3 4 5 6 
#
# 1 0.023006 -0.012060 -0.004906 0.000000 0.008214 0.000000
# 2 -0.012060 0.037195 -0.007350 0.000000 -0.005399 0.000000
# 3 -0.004906 -0.007350 0.011330 0.000000 0.002473 0.000000
# 4 0.000000 0.000000 0.000000 0.053528 0.000000 0.007916
# 5 0.008214 -0.005399 0.002473 0.000000 0.063712 0.000000
# 6 0.000000 0.000000 0.000000 0.007916 0.000000 0.041649
#
#
# Mechanical properties :
#
#
# Convention : Reuss Voigt Hill
#
# Bulk Modulus (GPa) = 43.66919 61.49125 52.58022
# Shear Modulus (GPa) = 17.44080 20.87975 19.16028
#
# Velocity S-wave (km/s) = 3.31828 3.63072 3.47801
# Velocity P-wave (km/s) = 6.50009 7.50984 7.02314
#
# Compressibility (1/GPa) = 0.02289944
#
# Stress axis : x y z
#
# Youngs Moduli (GPa) = 43.46760 26.88524 88.26208
#
# Poissons Ratio (x) = 0.32423 0.43300
# Poissons Ratio (y) = 0.52421 0.64873
# Poissons Ratio (z) = 0.21324 0.19761
#
# Static dielectric constant tensor:
#      x y z
#    x 2.677130 0.000000 0.116740 
#    y 0.000000 2.988720 0.000000 
#    z 0.116740 0.000000 3.642820 
# 
# 
# High freq. dielectric constant tensor:
#      x y z
#    x 1.566610 0.000000 0.003040 
#    y 0.000000 1.613700 0.000000 
#    z 0.003040 0.000000 1.627120 
# 
# From -- ./inp_files/287759.got.cif
#   From: 2010.06.25/outbox.cif.g09.slc.cpg/sg12_144_cif.got.tgz:287759.got - 2010.06.28 00:19:55.
