data_PCOD8090789
_publ_section_title
;
Structure prediction by ZEFSAII (Michael W. Deem and Ramdas Pophale) SiO2 
 PCOD8090789
Probable space group: C 2/M
;
_chemical_formula_sum "Si O2"
_cell_formula_units_Z 64
_cell_length_a 17.936920
_cell_length_b 21.089657
_cell_length_c 9.657310
_cell_angle_alpha 90.000000
_cell_angle_beta 88.438586
_cell_angle_gamma 90.000000
_cell_volume 3651.844473
_symmetry_space_group_name_H-M "C 2/M"
_symmetry_group_IT_number 12
_symmetry_cell_setting 'monoclinic'
loop_
_space_group_symop_operation_xyz
x,y,z
-x,y,-z
-x,-y,-z
x,-y,z
1/2+x,1/2+y,z
1/2-x,1/2+y,-z
1/2-x,1/2-y,-z
1/2+x,1/2-y,z
loop_
_atom_site_type_symbol
_atom_site_label
_atom_site_fract_x
_atom_site_fract_y
_atom_site_fract_z
Si Si1 0.585156 0.878107 0.325186
Si Si2 0.564503 0.927485 0.768471
Si Si3 0.378605 0.145896 0.983827
Si Si4 0.221065 0.807958 0.411696
Si Si5 0.312033 0.929485 0.457295
Si Si6 0.069606 0.785651 0.079945
Si Si7 0.934868 0.763075 0.609859
Si Si8 0.231934 0.810609 0.091272
O O1 0.498215 0.896403 0.326391
O O2 0.617957 0.882562 0.169191
O O3 0.632150 0.926383 0.415445
O O4 0.594187 0.809156 0.394147
O O5 0.642627 0.919691 0.686626
O O6 0.543566 0.000000 0.797495
O O7 0.567823 0.892448 0.915643
O O8 0.407562 0.218005 0.985703
O O9 0.292262 0.137424 0.038630
O O10 0.250000 0.750000 0.500000
O O11 0.248982 0.875604 0.467702
O O12 0.131898 0.809751 0.429295
O O13 0.245160 0.795326 0.252102
O O14 0.275662 0.000000 0.460356
O O15 0.038308 0.777822 0.236402
O O16 0.144454 0.829957 0.071888
O O17 0.000000 0.815910 0.000000
O O18 0.000000 0.776356 0.500000
O O19 0.250000 0.750000 0.000000
#
# Coordination Sequence:
#
# PCOD8090789 Si02
#       8
#     8   8   8   8   8   8   8   8
#     4  11  21  33  51  79 112 147 182 224 266 314
#     4  11  22  35  53  74 105 154 190 214 260 319
#     4  10  19  34  50  72 108 144 184 223 261 314
#     4  11  21  36  57  82 108 142 188 226 271 327
#     4  11  23  38  54  76 112 151 186 227 272 321
#     4   9  18  31  48  75 104 137 168 217 283 321
#     4  10  20  33  52  81 110 135 175 225 275 323
#     4   9  19  33  52  75 106 139 179 225 274 323
#
# _framework density 17.525390000000002
#
# number of rings (size 3 to 8) (size 9 to 14) (size 15 to 20)
#    0.000    1.750    2.500    4.125    0.000    4.500 
#    0.000    0.000    0.000    0.375    0.000    0.000 
#    0.000    3.000    0.000    0.000    0.000    0.000 
#
# Total GULP energy -396727.911080 kJ/mol
# GULP energy per Si atom -12397.747221 kJ/mol
# Density = 1.748550 g / cm^3
# Si number density = 17.525390 Si / 1000 Ang^3
#
#
#
# Elastic Constant Matrix: (Units=GPa)
#
#
# Indices 1 2 3 4 5 6 
#
# 1 100.2930 41.7526 44.1256 0.0000 2.5778 0.0000
# 2 41.7526 82.1338 28.1702 0.0000 5.8544 0.0000
# 3 44.1256 28.1702 78.7276 0.0000 0.0070 0.0000
# 4 0.0000 0.0000 0.0000 16.8416 0.0000 1.0200
# 5 2.5778 5.8544 0.0070 0.0000 29.7250 0.0000
# 6 0.0000 0.0000 0.0000 1.0200 0.0000 23.7474
#
#
#
# Elastic Compliance Matrix: (Units=1/GPa)
#
#
# Indices 1 2 3 4 5 6 
#
# 1 0.015106 -0.005424 -0.006526 0.000000 -0.000240 0.000000
# 2 -0.005424 0.016051 -0.002703 0.000000 -0.002690 0.000000
# 3 -0.006526 -0.002703 0.017327 0.000000 0.001094 0.000000
# 4 0.000000 0.000000 0.000000 0.059532 0.000000 -0.002557
# 5 -0.000240 -0.002690 0.001094 0.000000 0.034192 0.000000
# 6 0.000000 0.000000 0.000000 -0.002557 0.000000 0.042220
#
#
# Mechanical properties :
#
#
# Convention : Reuss Voigt Hill
#
# Bulk Modulus (GPa) = 52.14228 54.36123 53.25176
# Shear Modulus (GPa) = 22.71417 23.86986 23.29202
#
# Velocity S-wave (km/s) = 3.60401 3.69455 3.64956
# Velocity P-wave (km/s) = 6.86553 7.02037 6.94338
#
# Compressibility (1/GPa) = 0.01917829
#
# Stress axis : x y z
#
# Youngs Moduli (GPa) = 66.19826 62.29996 57.71357
#
# Poissons Ratio (x) = 0.33790 0.37664
# Poissons Ratio (y) = 0.35904 0.15602
# Poissons Ratio (z) = 0.43201 0.16842
#
# Static dielectric constant tensor:
#      x y z
#    x 3.559610 0.000000 -0.026950 
#    y 0.000000 3.073470 0.000000 
#    z -0.026950 0.000000 3.363280 
# 
# 
# High freq. dielectric constant tensor:
#      x y z
#    x 1.675380 0.000000 0.002040 
#    y 0.000000 1.631720 0.000000 
#    z 0.002040 0.000000 1.695100 
# 
# From -- ./inp_files/77526.got.cif
#   From: 2010.06.25/outbox.cif.g09.slc.cpg/sg12_39_cif.got.tgz:77526.got - 2010.06.28 00:19:55.
