data_PCOD8090121
_publ_section_title
;
Structure prediction by ZEFSAII (Michael W. Deem and Ramdas Pophale) SiO2 
 PCOD8090121
Probable space group: C 2/M
;
_chemical_formula_sum "Si O2"
_cell_formula_units_Z 56
_cell_length_a 13.431988
_cell_length_b 10.709502
_cell_length_c 20.651409
_cell_angle_alpha 90.000000
_cell_angle_beta 71.707766
_cell_angle_gamma 90.000000
_cell_volume 2820.587679
_symmetry_space_group_name_H-M "C 2/M"
_symmetry_group_IT_number 12
_symmetry_cell_setting 'monoclinic'
loop_
_space_group_symop_operation_xyz
x,y,z
-x,y,-z
-x,-y,-z
x,-y,z
1/2+x,1/2+y,z
1/2-x,1/2+y,-z
1/2-x,1/2-y,-z
1/2+x,1/2-y,z
loop_
_atom_site_type_symbol
_atom_site_label
_atom_site_fract_x
_atom_site_fract_y
_atom_site_fract_z
Si Si1 0.291883 0.214459 0.393426
Si Si2 0.014892 0.640267 0.724065
Si Si3 0.468282 0.855956 0.134688
Si Si4 0.896062 0.139083 0.486318
Si Si5 0.697874 0.137513 0.049198
Si Si6 0.185053 0.356699 0.303324
Si Si7 0.318967 0.360335 0.151598
O O1 0.370846 0.137259 0.332287
O O2 0.205664 0.129632 0.446367
O O3 0.366786 0.282678 0.429344
O O4 0.223650 0.306765 0.363856
O O5 0.975487 0.500000 0.743137
O O6 0.019212 0.698405 0.794905
O O7 0.924969 0.707025 0.698286
O O8 0.573254 0.849798 0.071232
O O9 0.394097 0.753889 0.115593
O O10 0.424079 0.000000 0.143080
O O11 0.000000 0.197219 0.500000
O O12 0.924961 0.000000 0.457555
O O13 0.725366 0.142871 0.119274
O O14 0.731052 0.000000 0.014269
O O15 0.750000 0.250000 0.000000
O O16 0.163272 0.500000 0.321145
O O17 0.273532 0.333328 0.231706
O O18 0.372058 0.500000 0.139453
#
# Coordination Sequence:
#
# PCOD8090121 Si02
#       7
#     8   8   8   8   8   8   8
#     4  11  20  34  58  80 103 144 190 230 281 338
#     4  10  19  33  55  82 110 140 182 233 286 340
#     4  10  20  37  59  85 116 151 187 235 292 343
#     4  10  22  38  52  74 112 148 182 228 282 340
#     4  10  22  40  62  84 118 161 196 233 287 342
#     4  10  19  33  55  82 110 140 182 233 286 340
#     4  10  20  37  59  85 116 151 187 235 292 343
#
# _framework density 19.854018
#
# number of rings (size 3 to 8) (size 9 to 14) (size 15 to 20)
#    0.000    1.857    2.857    1.714    0.000    1.714 
#    0.000    2.857    0.000    8.571    0.000    0.000 
#    0.000    0.000    0.000    0.000    0.000    0.000 
#
# Total GULP energy -346988.950255 kJ/mol
# GULP energy per Si atom -12392.462509 kJ/mol
# Density = 1.980883 g / cm^3
# Si number density = 19.854018 Si / 1000 Ang^3
#
#
#
# Elastic Constant Matrix: (Units=GPa)
#
#
# Indices 1 2 3 4 5 6 
#
# 1 85.2199 29.1102 -1.6592 0.0000 -6.3065 0.0000
# 2 29.1102 88.2518 15.6989 0.0000 -8.5431 0.0000
# 3 -1.6592 15.6989 52.9170 0.0000 -7.8830 0.0000
# 4 0.0000 0.0000 0.0000 4.6427 0.0000 -0.1911
# 5 -6.3065 -8.5431 -7.8830 0.0000 27.6143 0.0000
# 6 0.0000 0.0000 0.0000 -0.1911 0.0000 27.4582
#
#
#
# Elastic Compliance Matrix: (Units=1/GPa)
#
#
# Indices 1 2 3 4 5 6 
#
# 1 0.013522 -0.004620 0.002132 0.000000 0.002268 0.000000
# 2 -0.004620 0.013753 -0.003915 0.000000 0.002082 0.000000
# 3 0.002132 -0.003915 0.020907 0.000000 0.005244 0.000000
# 4 0.000000 0.000000 0.000000 0.215453 0.000000 0.001500
# 5 0.002268 0.002082 0.005244 0.000000 0.038872 0.000000
# 6 0.000000 0.000000 0.000000 0.001500 0.000000 0.036429
#
#
# Mechanical properties :
#
#
# Convention : Reuss Voigt Hill
#
# Bulk Modulus (GPa) = 28.26694 34.74317 31.50505
# Shear Modulus (GPa) = 13.75388 24.15896 18.95642
#
# Velocity S-wave (km/s) = 2.63487 3.49209 3.09332
# Velocity P-wave (km/s) = 4.85026 5.81351 5.35359
#
# Compressibility (1/GPa) = 0.03537702
#
# Stress axis : x y z
#
# Youngs Moduli (GPa) = 73.95448 72.71077 47.83083
#
# Poissons Ratio (x) = 0.33593 -0.10200
# Poissons Ratio (y) = 0.34167 0.18725
# Poissons Ratio (z) = -0.15770 0.28465
#
# Static dielectric constant tensor:
#      x y z
#    x 3.721610 0.000000 0.114460 
#    y 0.000000 3.445610 0.000000 
#    z 0.114460 0.000000 3.431750 
# 
# 
# High freq. dielectric constant tensor:
#      x y z
#    x 1.781320 0.000000 0.005640 
#    y 0.000000 1.757580 0.000000 
#    z 0.005640 0.000000 1.769790 
# 
# From -- ./inp_files/304202.got.cif
#   From: 2010.06.25/outbox.cif.g09.slc.cpg/sg12_153_cif.got.tgz:304202.got - 2010.06.28 00:19:55.
