data_PCOD8090214
_publ_section_title
;
Structure prediction by ZEFSAII (Michael W. Deem and Ramdas Pophale) SiO2 
 PCOD8090214
Probable space group: C 2/M
;
_chemical_formula_sum "Si O2"
_cell_formula_units_Z 56
_cell_length_a 24.943676
_cell_length_b 13.406864
_cell_length_c 8.973164
_cell_angle_alpha 90.000000
_cell_angle_beta 115.851094
_cell_angle_gamma 90.000000
_cell_volume 2700.487284
_symmetry_space_group_name_H-M "C 2/M"
_symmetry_group_IT_number 12
_symmetry_cell_setting 'monoclinic'
loop_
_space_group_symop_operation_xyz
x,y,z
-x,y,-z
-x,-y,-z
x,-y,z
1/2+x,1/2+y,z
1/2-x,1/2+y,-z
1/2-x,1/2-y,-z
1/2+x,1/2-y,z
loop_
_atom_site_type_symbol
_atom_site_label
_atom_site_fract_x
_atom_site_fract_y
_atom_site_fract_z
Si Si1 0.339853 0.885666 0.892025
Si Si2 0.948691 0.386880 0.818578
Si Si3 0.010717 0.784169 0.339446
Si Si4 0.681508 0.274423 0.911121
Si Si5 0.906770 0.884366 0.031648
Si Si6 0.611945 0.613840 0.315286
Si Si7 0.795844 0.116867 0.344027
O O1 0.386018 0.856911 0.818521
O O2 0.274629 0.863300 0.744409
O O3 0.347496 0.000000 0.949673
O O4 0.351853 0.822888 0.059570
O O5 0.946068 0.500000 0.755823
O O6 0.962025 0.317573 0.693656
O O7 0.000000 0.373171 0.000000
O O8 0.060418 0.869083 0.374470
O O9 0.000000 0.768243 0.500000
O O10 0.950417 0.817969 0.185273
O O11 0.660389 0.368356 0.987115
O O12 0.668775 0.309091 0.726615
O O13 0.750000 0.250000 0.000000
O O14 0.925832 0.000000 0.061082
O O15 0.906374 0.835974 0.864561
O O16 0.616184 0.500000 0.276042
O O17 0.676261 0.645673 0.461044
O O18 0.809478 0.000000 0.323532
#
# Coordination Sequence:
#
# PCOD8090214 Si02
#       7
#     8   8   8   8   8   8   8
#     4   9  18  34  58  85 114 153 197 241 289 343
#     4  10  21  39  62  83 110 152 197 239 285 339
#     4  12  24  37  58  88 119 149 186 237 293 349
#     4  10  19  33  55  84 114 148 186 227 281 338
#     4  11  23  40  61  85 117 153 190 234 285 345
#     4  10  21  37  58  84 114 153 196 236 284 345
#     4   9  18  34  56  84 118 152 191 239 291 345
#
# _framework density 20.736998
#
# number of rings (size 3 to 8) (size 9 to 14) (size 15 to 20)
#    0.000    1.857    0.000    4.714    0.000    4.286 
#    0.000    7.857    0.000    2.571    0.000    0.000 
#    0.000    0.000    0.000    0.000    0.000    0.000 
#
# Total GULP energy -346912.653346 kJ/mol
# GULP energy per Si atom -12389.737619 kJ/mol
# Density = 2.068980 g / cm^3
# Si number density = 20.736998 Si / 1000 Ang^3
#
#
#
# Elastic Constant Matrix: (Units=GPa)
#
#
# Indices 1 2 3 4 5 6 
#
# 1 132.3743 41.4481 71.8589 0.0000 -13.5118 0.0000
# 2 41.4481 84.7551 64.2342 0.0000 -8.7942 0.0000
# 3 71.8589 64.2342 148.2160 0.0000 -14.1155 0.0000
# 4 0.0000 0.0000 0.0000 23.0143 0.0000 -3.8397
# 5 -13.5118 -8.7942 -14.1155 0.0000 32.1913 0.0000
# 6 0.0000 0.0000 0.0000 -3.8397 0.0000 38.3311
#
#
#
# Elastic Compliance Matrix: (Units=1/GPa)
#
#
# Indices 1 2 3 4 5 6 
#
# 1 0.010590 -0.001817 -0.004144 0.000000 0.002132 0.000000
# 2 -0.001817 0.017953 -0.006789 0.000000 0.001165 0.000000
# 3 -0.004144 -0.006789 0.011851 0.000000 0.001602 0.000000
# 4 0.000000 0.000000 0.000000 0.044190 0.000000 0.004427
# 5 0.002132 0.001165 0.001602 0.000000 0.032980 0.000000
# 6 0.000000 0.000000 0.000000 0.004427 0.000000 0.026532
#
#
# Mechanical properties :
#
#
# Convention : Reuss Voigt Hill
#
# Bulk Modulus (GPa) = 67.13787 80.04754 73.59270
# Shear Modulus (GPa) = 28.64337 31.22764 29.93550
#
# Velocity S-wave (km/s) = 3.72057 3.88479 3.80357
# Velocity P-wave (km/s) = 7.13464 7.66859 7.40643
#
# Compressibility (1/GPa) = 0.01489472
#
# Stress axis : x y z
#
# Youngs Moduli (GPa) = 94.42468 55.70023 84.38356
#
# Poissons Ratio (x) = 0.10122 0.34968
# Poissons Ratio (y) = 0.17160 0.57284
# Poissons Ratio (z) = 0.39129 0.37813
#
# Static dielectric constant tensor:
#      x y z
#    x 4.019610 0.000000 -0.026340 
#    y 0.000000 3.971720 0.000000 
#    z -0.026340 0.000000 3.744470 
# 
# 
# High freq. dielectric constant tensor:
#      x y z
#    x 1.821310 0.000000 0.003760 
#    y 0.000000 1.816220 0.000000 
#    z 0.003760 0.000000 1.795460 
# 
# From -- ./inp_files/96978.got.cif
#   From: 2010.06.25/outbox.cif.g09.slc.cpg/sg12_49_cif.got.tgz:96978.got - 2010.06.28 00:19:55.
