data_PCOD8090241
_publ_section_title
;
Structure prediction by ZEFSAII (Michael W. Deem and Ramdas Pophale) SiO2 
 PCOD8090241
Probable space group: C 2/M
;
_chemical_formula_sum "Si O2"
_cell_formula_units_Z 32
_cell_length_a 16.515536
_cell_length_b 21.182293
_cell_length_c 9.904155
_cell_angle_alpha 90.000000
_cell_angle_beta 25.687682
_cell_angle_gamma 90.000000
_cell_volume 1501.887704
_symmetry_space_group_name_H-M "C 2/M"
_symmetry_group_IT_number 12
_symmetry_cell_setting 'monoclinic'
loop_
_space_group_symop_operation_xyz
x,y,z
-x,y,-z
-x,-y,-z
x,-y,z
1/2+x,1/2+y,z
1/2-x,1/2+y,-z
1/2-x,1/2-y,-z
1/2+x,1/2-y,z
loop_
_atom_site_type_symbol
_atom_site_label
_atom_site_fract_x
_atom_site_fract_y
_atom_site_fract_z
Si Si1 0.555244 0.818107 0.570532
Si Si2 0.178658 0.070659 0.823920
Si Si3 0.192443 0.192065 0.294408
Si Si4 0.442161 0.431340 0.431518
O O1 0.500000 0.828828 0.500000
O O2 0.663382 0.880074 0.458619
O O3 0.688376 0.756255 0.388819
O O4 0.369808 0.806704 0.933047
O O5 0.258361 0.000000 0.682070
O O6 0.000000 0.082488 0.000000
O O7 0.122378 0.080395 0.065684
O O8 0.199043 0.128047 0.376105
O O9 0.000000 0.191052 0.500000
O O10 0.500000 0.434015 0.500000
O O11 0.352260 0.500000 0.526774
#
# Coordination Sequence:
#
# PCOD8090241 Si02
#       4
#     8   8   8   8
#     4  11  20  34  58  84 114 152 195 234 279 341
#     4  10  22  40  59  83 118 152 185 235 293 340
#     4  10  19  33  55  85 117 147 187 240 287 326
#     4   9  17  33  57  81 108 145 188 230 273 328
#
# _framework density 21.306519000000002
#
# number of rings (size 3 to 8) (size 9 to 14) (size 15 to 20)
#    0.000    2.000    0.000    7.500    0.000    1.500 
#    0.000    6.250    0.000    4.500    0.000    0.000 
#    0.000    0.000    0.000    0.000    0.000    0.000 
#
# Total GULP energy -198256.565589 kJ/mol
# GULP energy per Si atom -12391.035349 kJ/mol
# Density = 2.125802 g / cm^3
# Si number density = 21.306519 Si / 1000 Ang^3
#
#
#
# Elastic Constant Matrix: (Units=GPa)
#
#
# Indices 1 2 3 4 5 6 
#
# 1 32.0190 22.6373 24.2631 0.0379 2.1217 0.0140
# 2 22.6373 231.4784 94.7238 0.0284 -10.6259 0.0110
# 3 24.2631 94.7238 174.8176 0.0051 5.2000 -0.2428
# 4 0.0379 0.0284 0.0051 44.4673 -0.0100 2.2351
# 5 2.1217 -10.6259 5.2000 -0.0100 16.4626 0.0507
# 6 0.0140 0.0110 -0.2428 2.2351 0.0507 48.3125
#
#
#
# Elastic Compliance Matrix: (Units=1/GPa)
#
#
# Indices 1 2 3 4 5 6 
#
# 1 0.035892 -0.002260 -0.003610 -0.000029 -0.004944 -0.000022
# 2 -0.002260 0.006057 -0.003123 0.000001 0.005187 -0.000022
# 3 -0.003610 -0.003123 0.008035 0.000001 -0.004088 0.000046
# 4 -0.000029 0.000001 0.000001 0.022541 0.000021 -0.001043
# 5 -0.004944 0.005187 -0.004088 0.000021 0.066021 -0.000091
# 6 -0.000022 -0.000022 0.000046 -0.001043 -0.000091 0.020747
#
#
# Mechanical properties :
#
#
# Convention : Reuss Voigt Hill
#
# Bulk Modulus (GPa) = 31.25056 80.17372 55.71214
# Shear Modulus (GPa) = 26.60359 41.62785 34.11572
#
# Velocity S-wave (km/s) = 3.53740 4.42493 4.00582
# Velocity P-wave (km/s) = 5.60208 7.98856 6.89929
#
# Compressibility (1/GPa) = 0.03199943
#
# Stress axis : x y z
#
# Youngs Moduli (GPa) = 27.86104 165.09874 124.45625
#
# Poissons Ratio (x) = 0.37308 0.44930
# Poissons Ratio (y) = 0.06296 0.38863
# Poissons Ratio (z) = 0.10058 0.51554
#
# Static dielectric constant tensor:
#      x y z
#    x 3.449310 0.000050 0.242290 
#    y 0.000050 5.573520 0.000100 
#    z 0.242290 0.000100 3.723830 
# 
# 
# High freq. dielectric constant tensor:
#      x y z
#    x 1.781580 -0.000010 0.028830 
#    y -0.000010 1.878520 0.000010 
#    z 0.028830 0.000010 1.824350 
# 
# From -- ./inp_files/38356.got.cif
#   From: 2010.06.25/outbox.cif.g09.slc.cpg/sg12_20_cif.got.tgz:38356.got - 2010.06.28 00:19:55.
