data_PCOD8090521
_publ_section_title
;
Structure prediction by ZEFSAII (Michael W. Deem and Ramdas Pophale) SiO2 
 PCOD8090521
Probable space group: C 2/M
;
_chemical_formula_sum "Si O2"
_cell_formula_units_Z 48
_cell_length_a 20.553035
_cell_length_b 8.964379
_cell_length_c 14.502275
_cell_angle_alpha 90.000000
_cell_angle_beta 99.858872
_cell_angle_gamma 90.000000
_cell_volume 2632.516070
_symmetry_space_group_name_H-M "C 2/M"
_symmetry_group_IT_number 12
_symmetry_cell_setting 'monoclinic'
loop_
_space_group_symop_operation_xyz
x,y,z
-x,y,-z
-x,-y,-z
x,-y,z
1/2+x,1/2+y,z
1/2-x,1/2+y,-z
1/2-x,1/2-y,-z
1/2+x,1/2-y,z
loop_
_atom_site_type_symbol
_atom_site_label
_atom_site_fract_x
_atom_site_fract_y
_atom_site_fract_z
Si Si1 0.798129 0.825848 0.439809
Si Si2 0.556267 0.674033 0.943835
Si Si3 0.198851 0.174859 0.056182
Si Si4 0.094636 0.673688 0.777847
Si Si5 0.729425 0.325893 0.775357
Si Si6 0.567075 0.173539 0.563516
O O1 0.750000 0.750000 0.500000
O O2 0.767870 0.791673 0.332249
O O3 0.871719 0.760951 0.466068
O O4 0.801956 0.000000 0.461401
O O5 0.549639 0.500000 0.918848
O O6 0.546875 0.766025 0.846678
O O7 0.500000 0.727460 0.000000
O O8 0.625269 0.713968 0.008034
O O9 0.209412 0.242802 0.161115
O O10 0.212026 0.000000 0.061701
O O11 0.250000 0.250000 0.000000
O O12 0.109818 0.500000 0.795109
O O13 0.162330 0.764310 0.803446
O O14 0.060714 0.704625 0.671037
O O15 0.732718 0.500000 0.798145
O O16 0.500000 0.231514 0.500000
O O17 0.578727 0.000000 0.545510
#
# Coordination Sequence:
#
# PCOD8090521 Si02
#       6
#     8   8   8   8   8   8
#     4  10  21  37  58  83 113 147 184 229 280 329
#     4  10  22  39  55  75 110 149 179 220 274 321
#     4  11  21  34  57  83 109 142 183 226 268 323
#     4  10  19  33  57  83 106 142 184 224 271 326
#     4  10  20  35  56  82 110 143 182 227 273 323
#     4   9  19  37  59  82 112 145 181 227 278 332
#
# _framework density 18.233508
#
# number of rings (size 3 to 8) (size 9 to 14) (size 15 to 20)
#    0.000    2.000    1.667    2.000    0.000    4.000 
#    3.000    0.000    0.000    0.000    0.000    0.000 
#    0.000    0.000    0.000    0.000    0.000    0.000 
#
# Total GULP energy -297680.480551 kJ/mol
# GULP energy per Si atom -12403.353356 kJ/mol
# Density = 1.819201 g / cm^3
# Si number density = 18.233508 Si / 1000 Ang^3
#
#
#
# Elastic Constant Matrix: (Units=GPa)
#
#
# Indices 1 2 3 4 5 6 
#
# 1 127.5562 64.1600 81.3670 0.0000 -6.8226 0.0000
# 2 64.1600 88.0858 61.7209 0.0000 -3.3356 0.0000
# 3 81.3670 61.7209 120.8145 0.0000 -6.0395 0.0000
# 4 0.0000 0.0000 0.0000 34.5072 0.0000 -2.7160
# 5 -6.8226 -3.3356 -6.0395 0.0000 35.1092 0.0000
# 6 0.0000 0.0000 0.0000 -2.7160 0.0000 28.1927
#
#
#
# Elastic Compliance Matrix: (Units=1/GPa)
#
#
# Indices 1 2 3 4 5 6 
#
# 1 0.015741 -0.006283 -0.007332 0.000000 0.001201 0.000000
# 2 -0.006283 0.020190 -0.006101 0.000000 -0.000352 0.000000
# 3 -0.007332 -0.006101 0.016372 0.000000 0.000812 0.000000
# 4 0.000000 0.000000 0.000000 0.029201 0.000000 0.002813
# 5 0.001201 -0.000352 0.000812 0.000000 0.028822 0.000000
# 6 0.000000 0.000000 0.000000 0.002813 0.000000 0.035741
#
#
# Mechanical properties :
#
#
# Convention : Reuss Voigt Hill
#
# Bulk Modulus (GPa) = 77.68223 83.43916 80.56069
# Shear Modulus (GPa) = 26.34505 28.17573 27.26039
#
# Velocity S-wave (km/s) = 3.80527 3.93526 3.87081
# Velocity P-wave (km/s) = 7.87422 8.15531 8.01600
#
# Compressibility (1/GPa) = 0.01287296
#
# Stress axis : x y z
#
# Youngs Moduli (GPa) = 63.52919 49.52872 61.07883
#
# Poissons Ratio (x) = 0.31117 0.44780
# Poissons Ratio (y) = 0.39913 0.37264
# Poissons Ratio (z) = 0.46577 0.30217
#
# Static dielectric constant tensor:
#      x y z
#    x 3.358340 0.000000 0.146440 
#    y 0.000000 3.435930 0.000000 
#    z 0.146440 0.000000 3.673690 
# 
# 
# High freq. dielectric constant tensor:
#      x y z
#    x 1.689950 0.000000 0.004710 
#    y 0.000000 1.716360 0.000000 
#    z 0.004710 0.000000 1.716420 
# 
# From -- ./inp_files/221642.got.cif
#   From: 2010.06.25/outbox.cif.g09.slc.cpg/sg12_111_cif.got.tgz:221642.got - 2010.06.28 00:19:55.
