data_PCOD8090716
_publ_section_title
;
Structure prediction by ZEFSAII (Michael W. Deem and Ramdas Pophale) SiO2 
 PCOD8090716
Probable space group: C 2/M
;
_chemical_formula_sum "Si O2"
_cell_formula_units_Z 56
_cell_length_a 9.112314
_cell_length_b 14.471598
_cell_length_c 20.603135
_cell_angle_alpha 90.000000
_cell_angle_beta 87.227445
_cell_angle_gamma 90.000000
_cell_volume 2713.749781
_symmetry_space_group_name_H-M "C 2/M"
_symmetry_group_IT_number 12
_symmetry_cell_setting 'monoclinic'
loop_
_space_group_symop_operation_xyz
x,y,z
-x,y,-z
-x,-y,-z
x,-y,z
1/2+x,1/2+y,z
1/2-x,1/2+y,-z
1/2-x,1/2-y,-z
1/2+x,1/2-y,z
loop_
_atom_site_type_symbol
_atom_site_label
_atom_site_fract_x
_atom_site_fract_y
_atom_site_fract_z
Si Si1 0.794871 0.291270 0.902457
Si Si2 0.869189 0.605302 0.651729
Si Si3 0.202726 0.599709 0.623073
Si Si4 0.334587 0.607811 0.978453
Si Si5 0.686226 0.281817 0.274795
Si Si6 0.828200 0.344406 0.511677
Si Si7 0.446018 0.245192 0.185970
O O1 0.807848 0.181342 0.920942
O O2 0.651928 0.307559 0.860382
O O3 0.942349 0.317998 0.859204
O O4 0.780235 0.360542 0.963160
O O5 0.851093 0.500000 0.675789
O O6 0.803088 0.672197 0.708501
O O7 0.788129 0.615751 0.583480
O O8 0.038130 0.635621 0.639581
O O9 0.224668 0.500000 0.654305
O O10 0.320358 0.665595 0.656317
O O11 0.230522 0.590473 0.545266
O O12 0.303677 0.500000 0.959369
O O13 0.500000 0.619151 0.000000
O O14 0.545246 0.306047 0.233412
O O15 0.831609 0.313901 0.231872
O O16 0.750000 0.250000 0.500000
O O17 0.000000 0.331215 0.500000
#
# Coordination Sequence:
#
# PCOD8090716 Si02
#       7
#     8   8   8   8   8   8   8
#     4  10  20  41  60  89 126 158 182 238 284 338
#     4  10  20  36  58  84 112 148 194 245 297 355
#     4  10  20  36  58  84 112 148 194 245 297 355
#     4  10  20  37  66  97 122 151 189 236 286 334
#     4  11  20  38  58  80 112 157 200 242 278 343
#     4  10  19  33  59  84 110 144 187 241 309 358
#     4  10  22  37  60  83 118 162 196 230 286 330
#
# _framework density 20.635653000000001
#
# number of rings (size 3 to 8) (size 9 to 14) (size 15 to 20)
#    0.000    1.857    4.286    0.429    0.000    1.714 
#    0.000   10.714    0.000    0.857    0.000    0.000 
#    0.000    0.000    0.000    0.000    0.000    0.000 
#
# Total GULP energy -346885.101539 kJ/mol
# GULP energy per Si atom -12388.753626 kJ/mol
# Density = 2.058869 g / cm^3
# Si number density = 20.635653 Si / 1000 Ang^3
#
#
#
# Elastic Constant Matrix: (Units=GPa)
#
#
# Indices 1 2 3 4 5 6 
#
# 1 81.8375 17.1125 33.0586 0.0000 8.5256 0.0000
# 2 17.1125 104.1593 30.7012 0.0000 8.2083 0.0000
# 3 33.0586 30.7012 100.6005 0.0000 12.5372 0.0000
# 4 0.0000 0.0000 0.0000 13.5256 0.0000 -2.3171
# 5 8.5256 8.2083 12.5372 0.0000 35.0705 0.0000
# 6 0.0000 0.0000 0.0000 -2.3171 0.0000 18.3161
#
#
#
# Elastic Compliance Matrix: (Units=1/GPa)
#
#
# Indices 1 2 3 4 5 6 
#
# 1 0.014295 -0.000978 -0.004181 0.000000 -0.001752 0.000000
# 2 -0.000978 0.010681 -0.002780 0.000000 -0.001268 0.000000
# 3 -0.004181 -0.002780 0.012512 0.000000 -0.002806 0.000000
# 4 0.000000 0.000000 0.000000 0.075572 0.000000 0.009560
# 5 -0.001752 -0.001268 -0.002806 0.000000 0.030240 0.000000
# 6 0.000000 0.000000 0.000000 0.009560 0.000000 0.055806
#
#
# Mechanical properties :
#
#
# Convention : Reuss Voigt Hill
#
# Bulk Modulus (GPa) = 46.27459 49.81578 48.04519
# Shear Modulus (GPa) = 22.50355 27.09744 24.80050
#
# Velocity S-wave (km/s) = 3.30588 3.62765 3.47050
# Velocity P-wave (km/s) = 6.08647 6.46062 6.27633
#
# Compressibility (1/GPa) = 0.02161013
#
# Stress axis : x y z
#
# Youngs Moduli (GPa) = 69.95359 93.62632 79.92166
#
# Poissons Ratio (x) = 0.09159 0.33413
# Poissons Ratio (y) = 0.06843 0.22218
# Poissons Ratio (z) = 0.29246 0.26028
#
# Static dielectric constant tensor:
#      x y z
#    x 3.753470 0.000000 -0.057280 
#    y 0.000000 3.420950 0.000000 
#    z -0.057280 0.000000 4.430610 
# 
# 
# High freq. dielectric constant tensor:
#      x y z
#    x 1.797730 0.000000 0.007500 
#    y 0.000000 1.766080 0.000000 
#    z 0.007500 0.000000 1.824760 
# 
# From -- ./inp_files/300148.got.cif
#   From: 2010.06.25/outbox.cif.g09.slc.cpg/sg12_151_cif.got.tgz:300148.got - 2010.06.28 00:19:55.
