data_PCOD8090908
_publ_section_title
;
Structure prediction by ZEFSAII (Michael W. Deem and Ramdas Pophale) SiO2 
 PCOD8090908
Probable space group: C 2/M
;
_chemical_formula_sum "Si O2"
_cell_formula_units_Z 56
_cell_length_a 8.949511
_cell_length_b 27.009503
_cell_length_c 15.685211
_cell_angle_alpha 90.000000
_cell_angle_beta 50.229758
_cell_angle_gamma 90.000000
_cell_volume 2914.174915
_symmetry_space_group_name_H-M "C 2/M"
_symmetry_group_IT_number 12
_symmetry_cell_setting 'monoclinic'
loop_
_space_group_symop_operation_xyz
x,y,z
-x,y,-z
-x,-y,-z
x,-y,z
1/2+x,1/2+y,z
1/2-x,1/2+y,-z
1/2-x,1/2-y,-z
1/2+x,1/2-y,z
loop_
_atom_site_type_symbol
_atom_site_label
_atom_site_fract_x
_atom_site_fract_y
_atom_site_fract_z
Si Si1 0.473012 0.621219 0.109184
Si Si2 0.839186 0.556961 0.993599
Si Si3 0.534039 0.195333 0.693573
Si Si4 0.058894 0.409321 0.227179
Si Si5 0.705793 0.555912 0.470016
Si Si6 0.853463 0.205948 0.264921
Si Si7 0.294564 0.151009 0.528343
O O1 0.641836 0.586348 0.082349
O O2 0.267307 0.592822 0.200983
O O3 0.489064 0.673626 0.152775
O O4 0.500000 0.632899 0.000000
O O5 0.792123 0.500000 0.028820
O O6 0.920145 0.562692 0.869040
O O7 0.000000 0.577315 0.000000
O O8 0.496257 0.148061 0.767476
O O9 0.354996 0.211184 0.701103
O O10 0.577426 0.238370 0.744730
O O11 0.701045 0.180521 0.563769
O O12 0.892526 0.437158 0.340549
O O13 0.500000 0.565448 0.500000
O O14 0.712392 0.500000 0.503887
O O15 0.720242 0.594949 0.541703
O O16 0.854628 0.179106 0.356273
O O17 0.500000 0.147902 0.500000
#
# Coordination Sequence:
#
# PCOD8090908 Si02
#       7
#     8   8   8   8   8   8   8
#     4   9  20  38  57  78 106 141 184 223 261 319
#     4  10  21  36  56  83 108 134 178 230 273 315
#     4   9  19  33  53  79 105 137 179 218 264 321
#     4   9  19  38  56  75 107 145 180 218 265 325
#     4  10  21  35  53  80 111 142 178 221 271 325
#     4  10  19  34  53  77 107 139 175 222 267 311
#     4   9  19  35  52  75 107 140 180 222 261 321
#
# _framework density 19.216417
#
# number of rings (size 3 to 8) (size 9 to 14) (size 15 to 20)
#    0.000    2.571    0.000    1.714    0.000    8.000 
#    0.000   10.000    0.000    0.000    0.000    0.000 
#    0.000    0.000    0.000    0.000    0.000    0.000 
#
# Total GULP energy -347072.007204 kJ/mol
# GULP energy per Si atom -12395.428829 kJ/mol
# Density = 1.917268 g / cm^3
# Si number density = 19.216417 Si / 1000 Ang^3
#
#
#
# Elastic Constant Matrix: (Units=GPa)
#
#
# Indices 1 2 3 4 5 6 
#
# 1 69.0342 47.2347 29.2830 0.0000 -5.8830 0.0000
# 2 47.2347 117.7286 23.9045 0.0000 -3.4665 0.0000
# 3 29.2830 23.9045 50.9344 0.0000 -17.0255 0.0000
# 4 0.0000 0.0000 0.0000 26.1744 0.0000 7.6027
# 5 -5.8830 -3.4665 -17.0255 0.0000 22.7014 0.0000
# 6 0.0000 0.0000 0.0000 7.6027 0.0000 35.9150
#
#
#
# Elastic Compliance Matrix: (Units=1/GPa)
#
#
# Indices 1 2 3 4 5 6 
#
# 1 0.024212 -0.007462 -0.011613 0.000000 -0.003574 0.000000
# 2 -0.007462 0.011796 -0.001722 0.000000 -0.001424 0.000000
# 3 -0.011613 -0.001722 0.034731 0.000000 0.022775 0.000000
# 4 0.000000 0.000000 0.000000 0.040708 0.000000 -0.008617
# 5 -0.003574 -0.001424 0.022775 0.000000 0.059987 0.000000
# 6 0.000000 0.000000 0.000000 -0.008617 0.000000 0.029668
#
#
# Mechanical properties :
#
#
# Convention : Reuss Voigt Hill
#
# Bulk Modulus (GPa) = 34.31097 48.72685 41.51891
# Shear Modulus (GPa) = 19.80903 26.10981 22.95942
#
# Velocity S-wave (km/s) = 3.21415 3.69009 3.46031
# Velocity P-wave (km/s) = 5.62745 6.60057 6.13334
#
# Compressibility (1/GPa) = 0.02914520
#
# Stress axis : x y z
#
# Youngs Moduli (GPa) = 41.30114 84.77745 28.79309
#
# Poissons Ratio (x) = 0.63258 0.33437
# Poissons Ratio (y) = 0.30818 0.04958
# Poissons Ratio (z) = 0.47963 0.14599
#
# Static dielectric constant tensor:
#      x y z
#    x 3.488480 0.000000 -0.075240 
#    y 0.000000 3.574190 0.000000 
#    z -0.075240 0.000000 3.532190 
# 
# 
# High freq. dielectric constant tensor:
#      x y z
#    x 1.740810 0.000000 -0.003290 
#    y 0.000000 1.753320 0.000000 
#    z -0.003290 0.000000 1.738050 
# 
# From -- ./inp_files/199687.got.cif
#   From: 2010.06.25/outbox.cif.g09.slc.cpg/sg12_100_cif.got.tgz:199687.got - 2010.06.28 00:19:55.
