data_PCOD8090771
_publ_section_title
;
Structure prediction by ZEFSAII (Michael W. Deem and Ramdas Pophale) SiO2 
 PCOD8090771
Probable space group: C 2/M
;
_chemical_formula_sum "Si O2"
_cell_formula_units_Z 40
_cell_length_a 10.970956
_cell_length_b 19.466983
_cell_length_c 18.058441
_cell_angle_alpha 90.000000
_cell_angle_beta 149.357149
_cell_angle_gamma 90.000000
_cell_volume 1965.736231
_symmetry_space_group_name_H-M "C 2/M"
_symmetry_group_IT_number 12
_symmetry_cell_setting 'monoclinic'
loop_
_space_group_symop_operation_xyz
x,y,z
-x,y,-z
-x,-y,-z
x,-y,z
1/2+x,1/2+y,z
1/2-x,1/2+y,-z
1/2-x,1/2-y,-z
1/2+x,1/2-y,z
loop_
_atom_site_type_symbol
_atom_site_label
_atom_site_fract_x
_atom_site_fract_y
_atom_site_fract_z
Si Si1 0.986273 0.336352 0.580616
Si Si2 0.507107 0.156625 0.831305
Si Si3 0.247907 0.579566 0.834135
Si Si4 0.240446 0.290648 0.090964
Si Si5 0.023089 0.178144 0.641390
O O1 0.736122 0.358422 0.490538
O O2 0.000000 0.352669 0.500000
O O3 0.196327 0.377636 0.732232
O O4 0.011546 0.256293 0.608538
O O5 0.564005 0.097141 0.803318
O O6 0.571823 0.232999 0.836506
O O7 0.221671 0.144971 0.691530
O O8 0.660654 0.153231 0.987585
O O9 0.233401 0.500000 0.805801
O O10 0.500000 0.601398 0.000000
O O11 0.380981 0.332449 0.225763
O O12 0.000000 0.255649 0.000000
#
# Coordination Sequence:
#
# PCOD8090771 Si02
#       5
#     8   8   8   8   8
#     4  11  24  38  61  90 132 161 201 252 313 369
#     4  10  19  33  62  89 123 155 206 252 305 358
#     4  11  26  45  64  86 121 170 217 251 295 371
#     4   9  17  30  56  94 123 156 192 250 313 362
#     4  10  21  35  57  98 128 155 191 258 323 371
#
# _framework density 20.348610000000001
#
# number of rings (size 3 to 8) (size 9 to 14) (size 15 to 20)
#    0.000    1.800    2.000    1.800   11.200    0.400 
#    0.000    2.000    0.000    5.400    0.000    0.000 
#    0.000    0.000    0.000    0.000    0.000    0.000 
#
# Total GULP energy -247787.890205 kJ/mol
# GULP energy per Si atom -12389.394510 kJ/mol
# Density = 2.030230 g / cm^3
# Si number density = 20.348610 Si / 1000 Ang^3
#
#
#
# Elastic Constant Matrix: (Units=GPa)
#
#
# Indices 1 2 3 4 5 6 
#
# 1 119.0681 19.4109 54.3597 0.0039 -5.1948 0.0002
# 2 19.4109 39.4487 32.2092 -0.0098 -8.8028 -0.0016
# 3 54.3597 32.2092 109.0371 -0.0092 0.1851 0.0024
# 4 0.0039 -0.0098 -0.0092 16.0791 0.0006 1.0114
# 5 -5.1948 -8.8028 0.1851 0.0006 38.7505 0.0006
# 6 0.0002 -0.0016 0.0024 1.0114 0.0006 15.0214
#
#
#
# Elastic Compliance Matrix: (Units=1/GPa)
#
#
# Indices 1 2 3 4 5 6 
#
# 1 0.010979 -0.000844 -0.005227 -0.000006 0.001305 0.000001
# 2 -0.000844 0.035895 -0.010196 0.000016 0.008090 0.000004
# 3 -0.005227 -0.010196 0.014794 0.000004 -0.003088 -0.000003
# 4 -0.000006 0.000016 0.000004 0.062457 0.000002 -0.004205
# 5 0.001305 0.008090 -0.003088 0.000002 0.027834 0.000000
# 6 0.000001 0.000004 -0.000003 -0.004205 0.000000 0.066855
#
#
# Mechanical properties :
#
#
# Convention : Reuss Voigt Hill
#
# Bulk Modulus (GPa) = 34.32311 53.27928 43.80120
# Shear Modulus (GPa) = 19.15278 24.74179 21.94728
#
# Velocity S-wave (km/s) = 3.07128 3.49075 3.28771
# Velocity P-wave (km/s) = 5.42966 6.51822 5.99868
#
# Compressibility (1/GPa) = 0.02913489
#
# Stress axis : x y z
#
# Youngs Moduli (GPa) = 91.08124 27.85913 67.59458
#
# Poissons Ratio (x) = 0.02350 0.35329
# Poissons Ratio (y) = 0.07684 0.68922
# Poissons Ratio (z) = 0.47605 0.28406
#
# Static dielectric constant tensor:
#      x y z
#    x 4.175960 0.000000 0.112480 
#    y 0.000000 2.980630 -0.000010 
#    z 0.112480 -0.000010 4.174480 
# 
# 
# High freq. dielectric constant tensor:
#      x y z
#    x 1.817130 0.000000 0.000770 
#    y 0.000000 1.714700 0.000000 
#    z 0.000770 0.000000 1.818180 
# 
# From -- ./inp_files/306512.got.cif
#   From: 2010.06.25/outbox.cif.g09.slc.cpg/sg12_154_cif.got.tgz:306512.got - 2010.06.28 00:19:55.
