data_PCOD8090401
_publ_section_title
;
Structure prediction by ZEFSAII (Michael W. Deem and Ramdas Pophale) SiO2 
 PCOD8090401
Probable space group: C 2/M
;
_chemical_formula_sum "Si O2"
_cell_formula_units_Z 56
_cell_length_a 28.527257
_cell_length_b 8.724901
_cell_length_c 16.970935
_cell_angle_alpha 90.000000
_cell_angle_beta 138.359440
_cell_angle_gamma 90.000000
_cell_volume 2806.675080
_symmetry_space_group_name_H-M "C 2/M"
_symmetry_group_IT_number 12
_symmetry_cell_setting 'monoclinic'
loop_
_space_group_symop_operation_xyz
x,y,z
-x,y,-z
-x,-y,-z
x,-y,z
1/2+x,1/2+y,z
1/2-x,1/2+y,-z
1/2-x,1/2-y,-z
1/2+x,1/2-y,z
loop_
_atom_site_type_symbol
_atom_site_label
_atom_site_fract_x
_atom_site_fract_y
_atom_site_fract_z
Si Si1 0.213041 0.817380 0.199984
Si Si2 0.556553 0.824188 0.806523
Si Si3 0.794681 0.179510 0.985317
Si Si4 0.576621 0.678843 0.113640
Si Si5 0.522158 0.175657 0.446551
Si Si6 0.159000 0.317078 0.533306
Si Si7 0.417327 0.321632 0.698927
O O1 0.231714 0.763374 0.134334
O O2 0.136711 0.751428 0.131335
O O3 0.271089 0.757084 0.335112
O O4 0.211954 0.000000 0.201713
O O5 0.541721 0.809131 0.694915
O O6 0.489533 0.767097 0.771325
O O7 0.572183 0.000000 0.849002
O O8 0.623381 0.719945 0.907638
O O9 0.785125 0.000000 0.980789
O O10 0.750000 0.250000 0.000000
O O11 0.570299 0.500000 0.087235
O O12 0.601336 0.708319 0.233767
O O13 0.500000 0.755438 0.000000
O O14 0.500000 0.259440 0.500000
O O15 0.593320 0.248605 0.501365
O O16 0.540358 0.000000 0.488048
O O17 0.157365 0.500000 0.521934
O O18 0.149252 0.243000 0.434494
O O19 0.428937 0.500000 0.695556
#
# Coordination Sequence:
#
# PCOD8090401 Si02
#       7
#     8   8   8   8   8   8   8
#     4   9  19  35  56  80 107 146 194 231 266 330
#     4  10  20  35  56  80 109 143 184 229 273 327
#     4  11  23  38  58  82 111 147 186 231 282 332
#     4   9  17  31  54  82 108 142 189 233 270 323
#     4   8  15  27  49  74  96 130 179 225 262 310
#     4   9  18  33  53  77 107 143 186 230 270 327
#     4  10  19  33  56  83 113 144 179 227 283 330
#
# _framework density 19.952435999999999
#
# number of rings (size 3 to 8) (size 9 to 14) (size 15 to 20)
#    0.000    2.571    0.000    3.000    2.000    2.857 
#    0.000    1.429    0.000   12.429    0.000    0.000 
#    0.000    0.000    0.000    0.000    0.000    0.000 
#
# Total GULP energy -347070.422329 kJ/mol
# GULP energy per Si atom -12395.372226 kJ/mol
# Density = 1.990702 g / cm^3
# Si number density = 19.952436 Si / 1000 Ang^3
#
#
#
# Elastic Constant Matrix: (Units=GPa)
#
#
# Indices 1 2 3 4 5 6 
#
# 1 106.3880 26.0582 60.1771 0.0000 -11.3344 0.0000
# 2 26.0582 39.3018 23.1014 0.0000 -10.2745 0.0000
# 3 60.1771 23.1014 139.9624 0.0000 1.2308 0.0000
# 4 0.0000 0.0000 0.0000 27.3953 0.0000 -1.4146
# 5 -11.3344 -10.2745 1.2308 0.0000 28.0556 0.0000
# 6 0.0000 0.0000 0.0000 -1.4146 0.0000 21.5778
#
#
#
# Elastic Compliance Matrix: (Units=1/GPa)
#
#
# Indices 1 2 3 4 5 6 
#
# 1 0.014052 -0.005204 -0.005218 0.000000 0.004000 0.000000
# 2 -0.005204 0.033599 -0.003399 0.000000 0.010351 0.000000
# 3 -0.005218 -0.003399 0.009983 0.000000 -0.003791 0.000000
# 4 0.000000 0.000000 0.000000 0.036627 0.000000 0.002401
# 5 0.004000 0.010351 -0.003791 0.000000 0.041217 0.000000
# 6 0.000000 0.000000 0.000000 0.002401 0.000000 0.046501
#
#
# Mechanical properties :
#
#
# Convention : Reuss Voigt Hill
#
# Bulk Modulus (GPa) = 33.34340 56.03618 44.68979
# Shear Modulus (GPa) = 22.76699 27.16011 24.96355
#
# Velocity S-wave (km/s) = 3.38163 3.69351 3.54100
# Velocity P-wave (km/s) = 5.65641 6.80699 6.25820
#
# Compressibility (1/GPa) = 0.02999094
#
# Stress axis : x y z
#
# Youngs Moduli (GPa) = 71.16556 29.76320 100.17482
#
# Poissons Ratio (x) = 0.15489 0.52269
# Poissons Ratio (y) = 0.37035 0.34051
# Poissons Ratio (z) = 0.37133 0.10117
#
# Static dielectric constant tensor:
#      x y z
#    x 3.844960 0.000000 -0.106500 
#    y 0.000000 3.255760 0.000000 
#    z -0.106500 0.000000 3.843120 
# 
# 
# High freq. dielectric constant tensor:
#      x y z
#    x 1.782720 0.000000 -0.007990 
#    y 0.000000 1.733360 0.000000 
#    z -0.007990 0.000000 1.788990 
# 
# From -- ./inp_files/295168.got.cif
#   From: 2010.06.25/outbox.cif.g09.slc.cpg/sg12_148_cif.got.tgz:295168.got - 2010.06.28 00:19:55.
