data_PCOD8090200
_publ_section_title
;
Structure prediction by ZEFSAII (Michael W. Deem and Ramdas Pophale) SiO2 
 PCOD8090200
Probable space group: C 2/M
;
_chemical_formula_sum "Si O2"
_cell_formula_units_Z 48
_cell_length_a 8.793508
_cell_length_b 15.550407
_cell_length_c 17.120997
_cell_angle_alpha 90.000000
_cell_angle_beta 90.000084
_cell_angle_gamma 90.000000
_cell_volume 2341.170130
_symmetry_space_group_name_H-M "C 2/M"
_symmetry_group_IT_number 12
_symmetry_cell_setting 'monoclinic'
loop_
_space_group_symop_operation_xyz
x,y,z
-x,y,-z
-x,-y,-z
x,-y,z
1/2+x,1/2+y,z
1/2-x,1/2+y,-z
1/2-x,1/2-y,-z
1/2+x,1/2-y,z
loop_
_atom_site_type_symbol
_atom_site_label
_atom_site_fract_x
_atom_site_fract_y
_atom_site_fract_z
Si Si1 0.819007 0.500000 0.087935
Si Si2 0.823461 0.101175 0.341527
Si Si3 0.176539 0.898825 0.341527
Si Si4 0.819938 0.662125 0.814231
Si Si5 0.819939 0.337875 0.185769
Si Si6 0.819007 0.500000 0.912065
Si Si7 0.671667 0.102262 0.500000
O O1 0.757713 0.415684 0.132399
O O2 0.000000 0.500000 0.087788
O O3 0.754351 0.500000 0.000000
O O4 0.732625 0.149798 0.274394
O O5 0.759903 0.136082 0.423770
O O6 0.000000 0.124405 0.335341
O O7 0.794205 0.000000 0.332953
O O8 0.267375 0.850202 0.274394
O O9 0.240097 0.863918 0.423770
O O10 0.205795 0.000000 0.332953
O O11 0.750000 0.750000 0.848220
O O12 0.757713 0.584316 0.867601
O O13 1.000000 0.667472 0.816986
O O14 0.500000 0.138111 0.500000
O O15 0.671924 0.000000 0.500000
#
# Coordination Sequence:
#
# PCOD8090200 Si02
#       7
#     4   8   8   8   8   4   8
#     4   9  20  40  65  90 119 156 195 239 296 361
#     4  10  19  33  55  83 118 157 201 249 297 347
#     4  10  19  33  55  83 118 157 201 249 297 347
#     4  11  22  38  61  89 121 158 200 244 296 354
#     4  11  22  38  61  89 121 158 200 244 296 354
#     4   9  20  40  65  90 119 156 195 239 296 361
#     4   9  17  29  50  81 116 156 203 246 293 349
#
# _framework density 20.502569000000001
#
# number of rings (size 3 to 8) (size 9 to 14) (size 15 to 20)
#    0.000    2.000    1.667    2.500    0.000    4.000 
#    0.000    0.833    0.000    7.000    0.000    0.000 
#    0.000    0.000    0.000    0.000    0.000    0.000 
#
# Total GULP energy -297688.422647 kJ/mol
# GULP energy per Si atom -12403.684277 kJ/mol
# Density = 2.045590 g / cm^3
# Si number density = 20.502569 Si / 1000 Ang^3
#
#
#
# Elastic Constant Matrix: (Units=GPa)
#
#
# Indices 1 2 3 4 5 6 
#
# 1 91.5728 43.9079 32.6589 0.0000 -0.0001 0.0000
# 2 43.9079 125.7230 69.0297 0.0000 0.0000 0.0000
# 3 32.6589 69.0297 152.7256 0.0000 -0.0001 0.0000
# 4 0.0000 0.0000 0.0000 4.3314 0.0000 0.0000
# 5 -0.0001 0.0000 -0.0001 0.0000 17.4096 0.0000
# 6 0.0000 0.0000 0.0000 0.0000 0.0000 29.4833
#
#
#
# Elastic Compliance Matrix: (Units=1/GPa)
#
#
# Indices 1 2 3 4 5 6 
#
# 1 0.013227 -0.004079 -0.000985 0.000000 0.000000 0.000000
# 2 -0.004079 0.011837 -0.004478 0.000000 0.000000 0.000000
# 3 -0.000985 -0.004478 0.008782 0.000000 0.000000 0.000000
# 4 0.000000 0.000000 0.000000 0.230870 0.000000 0.000000
# 5 0.000000 0.000000 0.000000 0.000000 0.057440 0.000000
# 6 0.000000 0.000000 0.000000 0.000000 0.000000 0.033917
#
#
# Mechanical properties :
#
#
# Convention : Reuss Voigt Hill
#
# Bulk Modulus (GPa) = 67.73566 73.46824 70.60195
# Shear Modulus (GPa) = 13.15519 25.20654 19.18087
#
# Velocity S-wave (km/s) = 2.53580 3.51013 3.06197
# Velocity P-wave (km/s) = 6.45624 7.23460 6.85648
#
# Compressibility (1/GPa) = 0.01476327
#
# Stress axis : x y z
#
# Youngs Moduli (GPa) = 75.60156 84.47972 113.86502
#
# Poissons Ratio (x) = 0.34457 0.11216
# Poissons Ratio (y) = 0.30836 0.50989
# Poissons Ratio (z) = 0.07447 0.37830
#
# Static dielectric constant tensor:
#      x y z
#    x 3.594190 0.000000 0.000000 
#    y 0.000000 3.727450 0.000000 
#    z 0.000000 0.000000 3.823000 
# 
# 
# High freq. dielectric constant tensor:
#      x y z
#    x 1.794320 0.000000 0.000000 
#    y 0.000000 1.794620 0.000000 
#    z 0.000000 0.000000 1.801970 
# 
# From -- ./inp_files/196041.got.cif
#   From: 2010.06.25/outbox.cif.g09.slc.cpg/sg12_99_cif.got.tgz:196041.got - 2010.06.28 00:19:55.
