data_PCOD8090782
_publ_section_title
;
Structure prediction by ZEFSAII (Michael W. Deem and Ramdas Pophale) SiO2 
 PCOD8090782
Probable space group: C 2/M
;
_chemical_formula_sum "Si O2"
_cell_formula_units_Z 48
_cell_length_a 24.363368
_cell_length_b 8.909933
_cell_length_c 14.430995
_cell_angle_alpha 90.000000
_cell_angle_beta 68.478306
_cell_angle_gamma 90.000000
_cell_volume 2914.211932
_symmetry_space_group_name_H-M "C 2/M"
_symmetry_group_IT_number 12
_symmetry_cell_setting 'monoclinic'
loop_
_space_group_symop_operation_xyz
x,y,z
-x,y,-z
-x,-y,-z
x,-y,z
1/2+x,1/2+y,z
1/2-x,1/2+y,-z
1/2-x,1/2-y,-z
1/2+x,1/2-y,z
loop_
_atom_site_type_symbol
_atom_site_label
_atom_site_fract_x
_atom_site_fract_y
_atom_site_fract_z
Si Si1 0.078073 0.677723 0.509508
Si Si2 0.238276 0.676020 0.223400
Si Si3 0.298432 0.826289 0.032868
Si Si4 0.287865 0.175884 0.555847
Si Si5 0.122943 0.327429 0.177539
Si Si6 0.467367 0.322075 0.648090
O O1 0.067749 0.500000 0.507125
O O2 0.143715 0.715981 0.502603
O O3 0.068033 0.752068 0.415921
O O4 0.032866 0.750638 0.611166
O O5 0.249035 0.500000 0.213885
O O6 0.294664 0.753603 0.137754
O O7 0.233777 0.736749 0.330936
O O8 0.178203 0.718875 0.207514
O O9 0.283134 0.000000 0.050437
O O10 0.250000 0.750000 0.000000
O O11 0.361152 0.802845 0.941392
O O12 0.250000 0.250000 0.500000
O O13 0.277901 0.000000 0.557748
O O14 0.106004 0.500000 0.207229
O O15 0.067348 0.222644 0.236880
O O16 0.471982 0.500000 0.635074
#
# Coordination Sequence:
#
# PCOD8090782 Si02
#       6
#     8   8   8   8   8   8
#     4  10  19  34  49  63  92 130 160 188 237 290
#     4   9  17  31  46  64  93 125 159 194 233 280
#     4   9  17  27  42  65  92 123 157 190 231 282
#     4  10  21  35  51  70  93 127 165 199 235 279
#     4   9  16  29  45  64  95 129 156 183 230 293
#     4  11  20  28  45  73  97 120 157 199 236 275
#
# _framework density 16.471005000000002
#
# number of rings (size 3 to 8) (size 9 to 14) (size 15 to 20)
#    0.000    2.333    1.667    4.500    0.000    5.333 
#    0.000    0.000    0.000    0.000    0.000    1.167 
#    0.000    9.333    0.000    0.000    0.000    0.000 
#
# Total GULP energy -297481.430536 kJ/mol
# GULP energy per Si atom -12395.059606 kJ/mol
# Density = 1.643352 g / cm^3
# Si number density = 16.471005 Si / 1000 Ang^3
#
#
#
# Elastic Constant Matrix: (Units=GPa)
#
#
# Indices 1 2 3 4 5 6 
#
# 1 78.3325 40.5501 56.5523 0.0000 -9.0795 0.0000
# 2 40.5501 88.7975 57.4605 0.0000 -14.6544 0.0000
# 3 56.5523 57.4605 142.0617 0.0000 -22.1343 0.0000
# 4 0.0000 0.0000 0.0000 31.4579 0.0000 -3.4563
# 5 -9.0795 -14.6544 -22.1343 0.0000 22.7509 0.0000
# 6 0.0000 0.0000 0.0000 -3.4563 0.0000 21.4003
#
#
#
# Elastic Compliance Matrix: (Units=1/GPa)
#
#
# Indices 1 2 3 4 5 6 
#
# 1 0.019620 -0.005405 -0.005830 0.000000 -0.001324 0.000000
# 2 -0.005405 0.017146 -0.004006 0.000000 0.004989 0.000000
# 3 -0.005830 -0.004006 0.012041 0.000000 0.006808 0.000000
# 4 0.000000 0.000000 0.000000 0.032363 0.000000 0.005227
# 5 -0.001324 0.004989 0.006808 0.000000 0.053263 0.000000
# 6 0.000000 0.000000 0.000000 0.005227 0.000000 0.047572
#
#
# Mechanical properties :
#
#
# Convention : Reuss Voigt Hill
#
# Bulk Modulus (GPa) = 54.57418 68.70194 61.63806
# Shear Modulus (GPa) = 22.87327 25.43041 24.15184
#
# Velocity S-wave (km/s) = 3.73057 3.93358 3.83342
# Velocity P-wave (km/s) = 7.19455 7.90140 7.55624
#
# Compressibility (1/GPa) = 0.01832368
#
# Stress axis : x y z
#
# Youngs Moduli (GPa) = 50.96834 58.32430 83.04899
#
# Poissons Ratio (x) = 0.31526 0.48421
# Poissons Ratio (y) = 0.27550 0.33267
# Poissons Ratio (z) = 0.29716 0.23363
#
# Static dielectric constant tensor:
#      x y z
#    x 2.801090 0.000000 -0.296110 
#    y 0.000000 3.211230 0.000000 
#    z -0.296110 0.000000 3.752560 
# 
# 
# High freq. dielectric constant tensor:
#      x y z
#    x 1.579560 0.000000 -0.031950 
#    y 0.000000 1.640950 0.000000 
#    z -0.031950 0.000000 1.642590 
# 
# From -- ./inp_files/236625.got.cif
#   From: 2010.06.25/outbox.cif.g09.slc.cpg/sg12_119_cif.got.tgz:236625.got - 2010.06.28 00:19:55.
