data_PCOD8090793
_publ_section_title
;
Structure prediction by ZEFSAII (Michael W. Deem and Ramdas Pophale) SiO2 
 PCOD8090793
Probable space group: C 2/M
;
_chemical_formula_sum "Si O2"
_cell_formula_units_Z 64
_cell_length_a 15.862762
_cell_length_b 21.307611
_cell_length_c 11.559333
_cell_angle_alpha 90.000000
_cell_angle_beta 61.137355
_cell_angle_gamma 90.000000
_cell_volume 3421.693312
_symmetry_space_group_name_H-M "C 2/M"
_symmetry_group_IT_number 12
_symmetry_cell_setting 'monoclinic'
loop_
_space_group_symop_operation_xyz
x,y,z
-x,y,-z
-x,-y,-z
x,-y,z
1/2+x,1/2+y,z
1/2-x,1/2+y,-z
1/2-x,1/2-y,-z
1/2+x,1/2-y,z
loop_
_atom_site_type_symbol
_atom_site_label
_atom_site_fract_x
_atom_site_fract_y
_atom_site_fract_z
Si Si1 0.099300 0.712710 0.001036
Si Si2 0.394443 0.569600 0.864076
Si Si3 0.919877 0.747511 0.720033
Si Si4 0.242150 0.849531 0.450469
Si Si5 0.271205 0.360153 0.795495
Si Si6 0.375045 0.774422 0.503369
Si Si7 0.384255 0.426069 0.299360
Si Si8 0.113997 0.151203 0.922177
O O1 0.177478 0.658968 0.930386
O O2 0.144801 0.776027 0.912955
O O3 0.087889 0.717473 0.147288
O O4 0.000000 0.696562 0.000000
O O5 0.394634 0.500000 0.915276
O O6 0.319334 0.575285 0.808235
O O7 0.502989 0.587021 0.754387
O O8 0.348835 0.614840 0.990680
O O9 0.860224 0.811678 0.752977
O O10 0.886050 0.705277 0.631885
O O11 0.032735 0.756374 0.620537
O O12 0.266601 0.874985 0.307488
O O13 0.338416 0.837587 0.462699
O O14 0.200136 0.781167 0.455982
O O15 0.172574 0.901291 0.552169
O O16 0.363464 0.500000 0.291767
O O17 0.345936 0.383111 0.218345
O O18 0.000000 0.146712 0.000000
#
# Coordination Sequence:
#
# PCOD8090793 Si02
#       8
#     8   8   8   8   8   8   8   8
#     4  11  22  33  55  80 115 143 174 222 281 323
#     4  10  20  35  53  76 110 146 180 225 270 317
#     4  10  19  34  50  78 108 139 176 216 266 326
#     4  10  21  33  52  72 108 142 181 218 270 322
#     4  11  22  34  50  82 108 142 182 225 267 332
#     4   9  20  33  52  75 107 142 176 220 268 316
#     4  10  21  35  54  78 106 146 187 223 267 320
#     4   9  19  32  52  77 108 143 180 223 271 324
#
# _framework density 18.704189
#
# number of rings (size 3 to 8) (size 9 to 14) (size 15 to 20)
#    0.000    2.000    1.250    2.250    8.750    3.500 
#    0.000    1.250    0.000    0.375    0.000    2.625 
#    0.000    0.000    0.000    0.000    0.000    0.000 
#
# Total GULP energy -396467.659517 kJ/mol
# GULP energy per Si atom -12389.614360 kJ/mol
# Density = 1.866162 g / cm^3
# Si number density = 18.704189 Si / 1000 Ang^3
#
#
#
# Elastic Constant Matrix: (Units=GPa)
#
#
# Indices 1 2 3 4 5 6 
#
# 1 82.5263 20.7765 30.6841 0.0000 13.1287 0.0000
# 2 20.7765 39.8140 18.4489 0.0000 -2.4413 0.0000
# 3 30.6841 18.4489 102.4923 0.0000 18.7244 0.0000
# 4 0.0000 0.0000 0.0000 20.0937 0.0000 -5.6553
# 5 13.1287 -2.4413 18.7244 0.0000 30.1727 0.0000
# 6 0.0000 0.0000 0.0000 -5.6553 0.0000 23.2302
#
#
#
# Elastic Compliance Matrix: (Units=1/GPa)
#
#
# Indices 1 2 3 4 5 6 
#
# 1 0.015840 -0.007593 -0.002260 0.000000 -0.006104 0.000000
# 2 -0.007593 0.032024 -0.005152 0.000000 0.009092 0.000000
# 3 -0.002260 -0.005152 0.012697 0.000000 -0.007313 0.000000
# 4 0.000000 0.000000 0.000000 0.053428 0.000000 0.013007
# 5 -0.006104 0.009092 -0.007313 0.000000 0.041072 0.000000
# 6 0.000000 0.000000 0.000000 0.013007 0.000000 0.046214
#
#
# Mechanical properties :
#
#
# Convention : Reuss Voigt Hill
#
# Bulk Modulus (GPa) = 32.73317 40.51684 36.62500
# Shear Modulus (GPa) = 20.70647 25.02751 22.86699
#
# Velocity S-wave (km/s) = 3.33085 3.66193 3.50031
# Velocity P-wave (km/s) = 5.68605 6.29195 5.99666
#
# Compressibility (1/GPa) = 0.03055005
#
# Stress axis : x y z
#
# Youngs Moduli (GPa) = 63.12947 31.22640 78.75912
#
# Poissons Ratio (x) = 0.23710 0.17802
# Poissons Ratio (y) = 0.47935 0.40579
# Poissons Ratio (z) = 0.14270 0.16089
#
# Static dielectric constant tensor:
#      x y z
#    x 3.759150 0.000000 0.340990 
#    y 0.000000 3.148890 0.000000 
#    z 0.340990 0.000000 3.485500 
# 
# 
# High freq. dielectric constant tensor:
#      x y z
#    x 1.729660 0.000000 0.020810 
#    y 0.000000 1.681520 0.000000 
#    z 0.020810 0.000000 1.728690 
# 
# From -- ./inp_files/160293.got.cif
#   From: 2010.06.25/outbox.cif.g09.slc.cpg/sg12_81_cif.got.tgz:160293.got - 2010.06.28 00:19:55.
