data_PCOD8090038
_publ_section_title
;
Structure prediction by ZEFSAII (Michael W. Deem and Ramdas Pophale) SiO2 
 PCOD8090038
Probable space group: C 2/M
;
_chemical_formula_sum "Si O2"
_cell_formula_units_Z 56
_cell_length_a 18.525963
_cell_length_b 8.948757
_cell_length_c 25.248617
_cell_angle_alpha 90.000000
_cell_angle_beta 134.822192
_cell_angle_gamma 90.000000
_cell_volume 2968.996540
_symmetry_space_group_name_H-M "C 2/M"
_symmetry_group_IT_number 12
_symmetry_cell_setting 'monoclinic'
loop_
_space_group_symop_operation_xyz
x,y,z
-x,y,-z
-x,-y,-z
x,-y,z
1/2+x,1/2+y,z
1/2-x,1/2+y,-z
1/2-x,1/2-y,-z
1/2+x,1/2-y,z
loop_
_atom_site_type_symbol
_atom_site_label
_atom_site_fract_x
_atom_site_fract_y
_atom_site_fract_z
Si Si1 0.273650 0.827045 0.590609
Si Si2 0.483388 0.826222 0.149837
Si Si3 0.410195 0.674147 0.579520
Si Si4 0.714841 0.174007 0.281427
Si Si5 0.813722 0.671140 0.989042
Si Si6 0.383998 0.823646 0.300046
Si Si7 0.148444 0.824269 0.828427
O O1 0.362934 0.730782 0.610319
O O2 0.165740 0.789599 0.507995
O O3 0.266114 0.783637 0.647826
O O4 0.302795 0.000000 0.597942
O O5 0.600738 0.782408 0.205796
O O6 0.430283 0.725179 0.166822
O O7 0.471945 0.000000 0.160599
O O8 0.432675 0.797487 0.064734
O O9 0.432921 0.500000 0.596710
O O10 0.514745 0.757827 0.620612
O O11 0.787349 0.273573 0.283470
O O12 0.737528 0.000000 0.282665
O O13 0.788116 0.500000 0.983456
O O14 0.766308 0.715644 0.907144
O O15 0.750000 0.750000 0.000000
O O16 0.375340 0.766677 0.236038
O O17 0.391274 0.000000 0.303683
O O18 0.134600 0.000000 0.809937
#
# Coordination Sequence:
#
# PCOD8090038 Si02
#       7
#     8   8   8   8   8   8   8
#     4   9  19  36  59  86 112 139 172 212 259 312
#     4   9  17  32  56  83 110 139 172 214 263 315
#     4  10  20  36  59  84 110 139 174 215 259 312
#     4  10  21  37  55  76 106 142 177 213 259 315
#     4   8  15  28  49  79 108 135 170 212 259 311
#     4  12  25  38  52  73 105 142 182 225 268 314
#     4  10  19  33  55  80 107 139 177 219 263 315
#
# _framework density 18.861592000000002
#
# number of rings (size 3 to 8) (size 9 to 14) (size 15 to 20)
#    0.000    2.286    0.000    3.000    0.000    4.000 
#    0.000    3.571    0.000    4.286    0.000    0.000 
#    0.000    0.000    0.000    0.000    0.000    0.000 
#
# Total GULP energy -347047.249774 kJ/mol
# GULP energy per Si atom -12394.544635 kJ/mol
# Density = 1.881866 g / cm^3
# Si number density = 18.861592 Si / 1000 Ang^3
#
#
#
# Elastic Constant Matrix: (Units=GPa)
#
#
# Indices 1 2 3 4 5 6 
#
# 1 79.3843 38.9307 43.2402 0.0000 25.3144 0.0000
# 2 38.9307 81.8759 37.0505 0.0000 14.5169 0.0000
# 3 43.2402 37.0505 105.6837 0.0000 30.9088 0.0000
# 4 0.0000 0.0000 0.0000 22.1827 0.0000 -0.3253
# 5 25.3144 14.5169 30.9088 0.0000 17.4376 0.0000
# 6 0.0000 0.0000 0.0000 -0.3253 0.0000 32.8514
#
#
#
# Elastic Compliance Matrix: (Units=1/GPa)
#
#
# Indices 1 2 3 4 5 6 
#
# 1 0.026561 -0.007193 0.002451 0.000000 -0.036915 0.000000
# 2 -0.007193 0.016813 -0.003969 0.000000 0.003482 0.000000
# 3 0.002451 -0.003969 0.020609 0.000000 -0.036783 0.000000
# 4 0.000000 0.000000 0.000000 0.045087 0.000000 0.000446
# 5 -0.036915 0.003482 -0.036783 0.000000 0.173238 0.000000
# 6 0.000000 0.000000 0.000000 0.000446 0.000000 0.030445
#
#
# Mechanical properties :
#
#
# Convention : Reuss Voigt Hill
#
# Bulk Modulus (GPa) = 21.47820 56.15409 38.81615
# Shear Modulus (GPa) = 14.46356 24.34251 19.40303
#
# Velocity S-wave (km/s) = 2.77217 3.59637 3.21082
# Velocity P-wave (km/s) = 4.65387 6.86159 5.86259
#
# Compressibility (1/GPa) = 0.04655883
#
# Stress axis : x y z
#
# Youngs Moduli (GPa) = 37.64874 59.47836 48.52259
#
# Poissons Ratio (x) = 0.42785 -0.11891
# Poissons Ratio (y) = 0.27082 0.19261
# Poissons Ratio (z) = -0.09226 0.23609
#
# Static dielectric constant tensor:
#      x y z
#    x 3.161680 0.000000 0.205880 
#    y 0.000000 3.453350 0.000000 
#    z 0.205880 0.000000 4.181340 
# 
# 
# High freq. dielectric constant tensor:
#      x y z
#    x 1.700640 0.000000 0.012380 
#    y 0.000000 1.734260 0.000000 
#    z 0.012380 0.000000 1.759550 
# 
# From -- ./inp_files/342234.got.cif
#   From: 2010.06.25/outbox.cif.g09.slc.cpg/sg12_172_cif.got.tgz:342234.got - 2010.06.28 00:19:55.
