data_PCOD8090523
_publ_section_title
;
Structure prediction by ZEFSAII (Michael W. Deem and Ramdas Pophale) SiO2 
 PCOD8090523
Probable space group: C 2/M
;
_chemical_formula_sum "Si O2"
_cell_formula_units_Z 48
_cell_length_a 20.549784
_cell_length_b 9.173137
_cell_length_c 14.743435
_cell_angle_alpha 90.000000
_cell_angle_beta 108.582661
_cell_angle_gamma 90.000000
_cell_volume 2634.330485
_symmetry_space_group_name_H-M "C 2/M"
_symmetry_group_IT_number 12
_symmetry_cell_setting 'monoclinic'
loop_
_space_group_symop_operation_xyz
x,y,z
-x,y,-z
-x,-y,-z
x,-y,z
1/2+x,1/2+y,z
1/2-x,1/2+y,-z
1/2-x,1/2-y,-z
1/2+x,1/2-y,z
loop_
_atom_site_type_symbol
_atom_site_label
_atom_site_fract_x
_atom_site_fract_y
_atom_site_fract_z
Si Si1 0.210065 0.331125 0.560413
Si Si2 0.194524 0.830130 0.035220
Si Si3 0.554491 0.173097 0.253017
Si Si4 0.686805 0.668725 0.237722
Si Si5 0.058601 0.327175 0.461441
Si Si6 0.039388 0.829406 0.926000
O O1 0.210412 0.500000 0.533786
O O2 0.250000 0.250000 0.500000
O O3 0.245342 0.303526 0.672853
O O4 0.132343 0.271332 0.530282
O O5 0.205357 0.784358 0.144278
O O6 0.206378 0.000000 0.027342
O O7 0.250000 0.750000 0.000000
O O8 0.118525 0.784879 0.970404
O O9 0.625627 0.232538 0.246285
O O10 0.546577 0.224687 0.353280
O O11 0.490385 0.238317 0.170573
O O12 0.554476 0.000000 0.243647
O O13 0.662827 0.500000 0.230398
O O14 0.055424 0.500000 0.465452
O O15 0.000000 0.258289 0.500000
O O16 0.029467 0.000000 0.902031
O O17 0.000000 0.784848 0.000000
#
# Coordination Sequence:
#
# PCOD8090523 Si02
#       6
#     8   8   8   8   8   8
#     4  10  19  33  57  83 108 144 185 227 272 328
#     4  10  22  39  58  83 114 149 184 229 280 329
#     4  11  21  33  57  88 112 141 188 241 275 316
#     4  10  20  36  58  81 110 152 189 221 278 345
#     4   9  19  35  53  80 116 147 178 225 282 328
#     4  10  20  38  60  80 111 152 188 223 276 341
#
# _framework density 18.220949999999998
#
# number of rings (size 3 to 8) (size 9 to 14) (size 15 to 20)
#    0.000    2.000    3.333    0.500    0.000    3.000 
#    0.000    3.333    0.000    4.500    0.000    0.000 
#    0.000    0.000    0.000    0.000    0.000    0.000 
#
# Total GULP energy -297650.583546 kJ/mol
# GULP energy per Si atom -12402.107648 kJ/mol
# Density = 1.817948 g / cm^3
# Si number density = 18.220950 Si / 1000 Ang^3
#
#
#
# Elastic Constant Matrix: (Units=GPa)
#
#
# Indices 1 2 3 4 5 6 
#
# 1 180.8411 50.2017 101.0525 0.0000 -2.6625 0.0000
# 2 50.2017 49.2350 55.5158 0.0000 0.5375 0.0000
# 3 101.0525 55.5158 177.7865 0.0000 5.2407 0.0000
# 4 0.0000 0.0000 0.0000 26.3451 0.0000 -0.0872
# 5 -2.6625 0.5375 5.2407 0.0000 33.1984 0.0000
# 6 0.0000 0.0000 0.0000 -0.0872 0.0000 30.7679
#
#
#
# Elastic Compliance Matrix: (Units=1/GPa)
#
#
# Indices 1 2 3 4 5 6 
#
# 1 0.008949 -0.005184 -0.003508 0.000000 0.001355 0.000000
# 2 -0.005184 0.034388 -0.007799 0.000000 0.000259 0.000000
# 3 -0.003508 -0.007799 0.010105 0.000000 -0.001750 0.000000
# 4 0.000000 0.000000 0.000000 0.037958 0.000000 0.000108
# 5 0.001355 0.000259 -0.001750 0.000000 0.030503 0.000000
# 6 0.000000 0.000000 0.000000 0.000108 0.000000 0.032502
#
#
# Mechanical properties :
#
#
# Convention : Reuss Voigt Hill
#
# Bulk Modulus (GPa) = 48.87486 91.26697 70.07092
# Shear Modulus (GPa) = 25.74585 31.46845 28.60715
#
# Velocity S-wave (km/s) = 3.76304 4.16028 3.96664
# Velocity P-wave (km/s) = 6.76479 8.56009 7.71484
#
# Compressibility (1/GPa) = 0.02046041
#
# Stress axis : x y z
#
# Youngs Moduli (GPa) = 111.74650 29.08009 98.95849
#
# Poissons Ratio (x) = 0.15076 0.34710
# Poissons Ratio (y) = 0.57933 0.77176
# Poissons Ratio (z) = 0.39195 0.22679
#
# Static dielectric constant tensor:
#      x y z
#    x 3.491490 0.000000 0.110150 
#    y 0.000000 3.193100 0.000000 
#    z 0.110150 0.000000 3.731050 
# 
# 
# High freq. dielectric constant tensor:
#      x y z
#    x 1.709130 0.000000 0.008630 
#    y 0.000000 1.685830 0.000000 
#    z 0.008630 0.000000 1.722320 
# 
# From -- ./inp_files/229822.got.cif
#   From: 2010.06.25/outbox.cif.g09.slc.cpg/sg12_115_cif.got.tgz:229822.got - 2010.06.28 00:19:55.
