data_PCOD8090428
_publ_section_title
;
Structure prediction by ZEFSAII (Michael W. Deem and Ramdas Pophale) SiO2 
 PCOD8090428
Probable space group: C 2/M
;
_chemical_formula_sum "Si O2"
_cell_formula_units_Z 64
_cell_length_a 9.565077
_cell_length_b 17.948970
_cell_length_c 31.585351
_cell_angle_alpha 90.000000
_cell_angle_beta 141.687837
_cell_angle_gamma 90.000000
_cell_volume 3361.764612
_symmetry_space_group_name_H-M "C 2/M"
_symmetry_group_IT_number 12
_symmetry_cell_setting 'monoclinic'
loop_
_space_group_symop_operation_xyz
x,y,z
-x,y,-z
-x,-y,-z
x,-y,z
1/2+x,1/2+y,z
1/2-x,1/2+y,-z
1/2-x,1/2-y,-z
1/2+x,1/2-y,z
loop_
_atom_site_type_symbol
_atom_site_label
_atom_site_fract_x
_atom_site_fract_y
_atom_site_fract_z
Si Si1 0.778256 0.415005 0.919819
Si Si2 0.980617 0.414868 0.194568
Si Si3 0.694570 0.586278 0.651361
Si Si4 0.643200 0.318549 0.160452
Si Si5 0.520231 0.187418 0.685035
Si Si6 0.210256 0.646095 0.168703
Si Si7 0.176423 0.167834 0.320408
Si Si8 0.726733 0.912179 0.574050
O O1 0.685525 0.500000 0.900397
O O2 0.600486 0.355484 0.895039
O O3 0.839644 0.395382 0.886520
O O4 0.000000 0.405856 0.000000
O O5 0.898961 0.500000 0.179584
O O6 0.774534 0.359247 0.153800
O O7 0.179812 0.396545 0.274700
O O8 0.067711 0.399567 0.168659
O O9 0.695368 0.500000 0.640071
O O10 0.441442 0.617434 0.598075
O O11 0.822512 0.626185 0.642944
O O12 0.770221 0.332263 0.234910
O O13 0.626230 0.231295 0.146164
O O14 0.611877 0.190445 0.658877
O O15 0.409354 0.264948 0.671164
O O16 0.474759 0.639690 0.242628
O O17 0.257938 0.105250 0.372415
O O18 0.500000 0.876873 0.500000
O O19 0.722336 0.000000 0.569046
#
# Coordination Sequence:
#
# PCOD8090428 Si02
#       8
#     8   8   8   8   8   8   8   8
#     4  11  24  41  58  84 123 158 193 245 302 353
#     4  10  19  33  56  84 113 144 193 244 290 342
#     4   9  18  34  54  81 115 150 188 239 293 342
#     4  10  21  37  59  86 116 155 192 242 298 349
#     4  10  21  35  59  88 116 150 190 249 292 345
#     4  11  21  36  61  87 113 151 199 247 288 351
#     4  11  21  36  59  86 116 151 194 244 288 348
#     4  10  21  38  59  85 121 160 195 238 293 352
#
# _framework density 19.037621000000001
#
# number of rings (size 3 to 8) (size 9 to 14) (size 15 to 20)
#    0.000    1.750    2.500    2.250    7.000    2.000 
#    0.000    3.750    0.000    4.500    0.000    0.000 
#    0.000    0.000    0.000    0.000    0.000    0.000 
#
# Total GULP energy -396838.504213 kJ/mol
# GULP energy per Si atom -12401.203257 kJ/mol
# Density = 1.899429 g / cm^3
# Si number density = 19.037621 Si / 1000 Ang^3
#
#
#
# Elastic Constant Matrix: (Units=GPa)
#
#
# Indices 1 2 3 4 5 6 
#
# 1 118.1855 15.5072 34.5745 -0.0001 4.3395 -0.0002
# 2 15.5072 55.8684 35.2113 -0.0005 5.6617 -0.0010
# 3 34.5745 35.2113 69.8554 -0.0007 8.1393 -0.0022
# 4 -0.0001 -0.0005 -0.0007 19.6383 -0.0005 -3.5431
# 5 4.3395 5.6617 8.1393 -0.0005 21.6436 -0.0010
# 6 -0.0002 -0.0010 -0.0022 -3.5431 -0.0010 23.3287
#
#
#
# Elastic Compliance Matrix: (Units=1/GPa)
#
#
# Indices 1 2 3 4 5 6 
#
# 1 0.009904 0.000507 -0.005136 0.000000 -0.000187 0.000000
# 2 0.000507 0.026340 -0.013296 0.000000 -0.001992 0.000000
# 3 -0.005136 -0.013296 0.024089 0.000001 -0.004551 0.000002
# 4 0.000000 0.000000 0.000001 0.052356 0.000001 0.007952
# 5 -0.000187 -0.001992 -0.004551 0.000001 0.048473 0.000002
# 6 0.000000 0.000000 0.000002 0.007952 0.000002 0.044073
#
#
# Mechanical properties :
#
#
# Convention : Reuss Voigt Hill
#
# Bulk Modulus (GPa) = 40.84265 46.05504 43.44885
# Shear Modulus (GPa) = 20.06051 23.49653 21.77852
#
# Velocity S-wave (km/s) = 3.24964 3.51695 3.38594
# Velocity P-wave (km/s) = 5.96494 6.38248 6.17724
#
# Compressibility (1/GPa) = 0.02448421
#
# Stress axis : x y z
#
# Youngs Moduli (GPa) = 100.96897 37.96501 41.51245
#
# Poissons Ratio (x) = -0.01923 0.21319
# Poissons Ratio (y) = -0.05115 0.55193
# Poissons Ratio (z) = 0.51853 0.50477
#
# Static dielectric constant tensor:
#      x y z
#    x 3.577960 0.000000 0.152450 
#    y 0.000000 3.517550 0.000000 
#    z 0.152450 0.000000 3.373540 
# 
# 
# High freq. dielectric constant tensor:
#      x y z
#    x 1.751250 0.000000 0.009450 
#    y 0.000000 1.745890 0.000000 
#    z 0.009450 0.000000 1.708230 
# 
# From -- ./inp_files/372909.got.cif
#   From: 2010.06.25/outbox.cif.g09.slc.cpg/sg12_187_cif.got.tgz:372909.got - 2010.06.28 00:19:55.
