data_PCOD8090065
_publ_section_title
;
Structure prediction by ZEFSAII (Michael W. Deem and Ramdas Pophale) SiO2 
 PCOD8090065
Probable space group: C 2/M
;
_chemical_formula_sum "Si O2"
_cell_formula_units_Z 64
_cell_length_a 20.049379
_cell_length_b 9.122090
_cell_length_c 23.223980
_cell_angle_alpha 90.000000
_cell_angle_beta 126.348988
_cell_angle_gamma 90.000000
_cell_volume 3421.017656
_symmetry_space_group_name_H-M "C 2/M"
_symmetry_group_IT_number 12
_symmetry_cell_setting 'monoclinic'
loop_
_space_group_symop_operation_xyz
x,y,z
-x,y,-z
-x,-y,-z
x,-y,z
1/2+x,1/2+y,z
1/2-x,1/2+y,-z
1/2-x,1/2-y,-z
1/2+x,1/2-y,z
loop_
_atom_site_type_symbol
_atom_site_label
_atom_site_fract_x
_atom_site_fract_y
_atom_site_fract_z
Si Si1 0.197817 0.330171 0.552148
Si Si2 0.551591 0.671732 0.689568
Si Si3 0.866928 0.169955 0.589102
Si Si4 0.072970 0.668668 0.582325
Si Si5 0.932219 0.165108 0.915604
Si Si6 0.644091 0.170942 0.836591
Si Si7 0.052179 0.667453 0.904270
Si Si8 0.686854 0.171778 0.068079
O O1 0.187059 0.500000 0.532659
O O2 0.143296 0.250573 0.476445
O O3 0.294833 0.282854 0.597549
O O4 0.160894 0.295624 0.596214
O O5 0.571622 0.500000 0.704808
O O6 0.457231 0.707059 0.660888
O O7 0.565706 0.721783 0.631590
O O8 0.613164 0.761243 0.761344
O O9 0.860292 0.000000 0.571100
O O10 0.069686 0.500000 0.601930
O O11 0.000000 0.699942 0.500000
O O12 0.853612 0.260761 0.894808
O O13 0.972970 0.232911 0.879032
O O14 0.902910 0.000000 0.887286
O O15 0.000000 0.169286 0.000000
O O16 0.574759 0.196699 0.849726
O O17 0.726463 0.251199 0.899625
O O18 0.663216 0.000000 0.837799
O O19 0.026498 0.500000 0.902337
O O20 0.130754 0.706982 0.984075
O O21 0.700039 0.000000 0.084477
#
# Coordination Sequence:
#
# PCOD8090065 Si02
#       8
#     8   8   8   8   8   8   8   8
#     4   9  17  31  53  79 104 131 169 212 258 311
#     4  11  23  37  53  75 107 143 180 222 274 326
#     4   9  18  32  51  76 104 133 166 211 260 310
#     4  10  19  33  55  81 106 137 174 214 264 321
#     4   9  17  30  52  82 112 142 179 223 269 320
#     4  11  23  38  55  77 108 146 187 228 279 334
#     4   9  19  35  56  82 110 144 184 230 279 329
#     4  10  19  34  57  83 112 143 181 229 280 330
#
# _framework density 18.707882999999999
#
# number of rings (size 3 to 8) (size 9 to 14) (size 15 to 20)
#    0.000    2.250    1.250    1.875    0.000    4.250 
#    0.000    1.250    0.000    4.500    0.000    0.000 
#    0.000    0.000    0.000    0.000    0.000    0.000 
#
# Total GULP energy -396802.791085 kJ/mol
# GULP energy per Si atom -12400.087221 kJ/mol
# Density = 1.866530 g / cm^3
# Si number density = 18.707883 Si / 1000 Ang^3
#
#
#
# Elastic Constant Matrix: (Units=GPa)
#
#
# Indices 1 2 3 4 5 6 
#
# 1 87.3194 38.4948 19.5393 0.0000 -8.1147 0.0000
# 2 38.4948 88.1749 26.5544 0.0000 -4.5938 0.0000
# 3 19.5393 26.5544 46.9781 0.0000 -9.1949 0.0000
# 4 0.0000 0.0000 0.0000 25.7399 0.0000 0.2347
# 5 -8.1147 -4.5938 -9.1949 0.0000 17.0902 0.0000
# 6 0.0000 0.0000 0.0000 0.2347 0.0000 33.4646
#
#
#
# Elastic Compliance Matrix: (Units=1/GPa)
#
#
# Indices 1 2 3 4 5 6 
#
# 1 0.014802 -0.005589 -0.002141 0.000000 0.004374 0.000000
# 2 -0.005589 0.015783 -0.007025 0.000000 -0.002191 0.000000
# 3 -0.002141 -0.007025 0.028590 0.000000 0.012477 0.000000
# 4 0.000000 0.000000 0.000000 0.038853 0.000000 -0.000272
# 5 0.004374 -0.002191 0.012477 0.000000 0.066714 0.000000
# 6 0.000000 0.000000 0.000000 -0.000272 0.000000 0.029884
#
#
# Mechanical properties :
#
#
# Convention : Reuss Voigt Hill
#
# Bulk Modulus (GPa) = 33.71162 43.51659 38.61411
# Shear Modulus (GPa) = 21.36527 24.45121 22.90824
#
# Velocity S-wave (km/s) = 3.38308 3.61917 3.50312
# Velocity P-wave (km/s) = 5.77230 6.38562 6.08669
#
# Compressibility (1/GPa) = 0.02966336
#
# Stress axis : x y z
#
# Youngs Moduli (GPa) = 67.55902 63.35983 34.97709
#
# Poissons Ratio (x) = 0.35415 0.07488
# Poissons Ratio (y) = 0.37762 0.24573
# Poissons Ratio (z) = 0.14464 0.44513
#
# Static dielectric constant tensor:
#      x y z
#    x 3.778960 0.000000 0.101540 
#    y 0.000000 3.498570 0.000000 
#    z 0.101540 0.000000 3.093840 
# 
# 
# High freq. dielectric constant tensor:
#      x y z
#    x 1.741880 0.000000 0.003760 
#    y 0.000000 1.732920 0.000000 
#    z 0.003760 0.000000 1.687040 
# 
# From -- ./inp_files/346284.got.cif
#   From: 2010.06.25/outbox.cif.g09.slc.cpg/sg12_174_cif.got.tgz:346284.got - 2010.06.28 00:19:55.
