data_PCOD8090601
_publ_section_title
;
Structure prediction by ZEFSAII (Michael W. Deem and Ramdas Pophale) SiO2 
 PCOD8090601
Probable space group: C 2/M
;
_chemical_formula_sum "Si O2"
_cell_formula_units_Z 64
_cell_length_a 20.065009
_cell_length_b 8.851480
_cell_length_c 24.252682
_cell_angle_alpha 90.000000
_cell_angle_beta 128.482270
_cell_angle_gamma 90.000000
_cell_volume 3371.834572
_symmetry_space_group_name_H-M "C 2/M"
_symmetry_group_IT_number 12
_symmetry_cell_setting 'monoclinic'
loop_
_space_group_symop_operation_xyz
x,y,z
-x,y,-z
-x,-y,-z
x,-y,z
1/2+x,1/2+y,z
1/2-x,1/2+y,-z
1/2-x,1/2-y,-z
1/2+x,1/2-y,z
loop_
_atom_site_type_symbol
_atom_site_label
_atom_site_fract_x
_atom_site_fract_y
_atom_site_fract_z
Si Si1 0.540040 0.676780 0.287548
Si Si2 0.202303 0.177922 0.924429
Si Si3 0.502988 0.321387 0.438197
Si Si4 0.405201 0.825147 0.295717
Si Si5 0.733962 0.327440 0.149246
Si Si6 0.840275 0.175106 0.553575
Si Si7 0.956296 0.825444 0.920169
Si Si8 0.478058 0.822254 0.154009
O O1 0.530090 0.500000 0.270908
O O2 0.456512 0.732016 0.276567
O O3 0.623620 0.711618 0.366979
O O4 0.549283 0.764258 0.234175
O O5 0.253598 0.216402 0.895576
O O6 0.108566 0.244581 0.871506
O O7 0.197901 0.000000 0.930448
O O8 0.250000 0.250000 0.000000
O O9 0.500000 0.271355 0.500000
O O10 0.491039 0.500000 0.424586
O O11 0.425506 0.238783 0.366981
O O12 0.592380 0.266885 0.457612
O O13 0.305115 0.802007 0.232766
O O14 0.431690 0.000000 0.305521
O O15 0.735963 0.500000 0.128355
O O16 0.643667 0.290130 0.130062
O O17 0.750000 0.250000 0.500000
O O18 0.826084 0.000000 0.537622
O O19 0.997956 0.721771 0.895322
O O20 0.974630 0.000000 0.915467
O O21 0.000000 0.780415 0.000000
O O22 0.467295 0.000000 0.152663
#
# Coordination Sequence:
#
# PCOD8090601 Si02
#       8
#     8   8   8   8   8   8   8   8
#     4  10  20  37  60  85 115 155 196 236 288 348
#     4  12  24  38  61  89 118 151 191 240 290 345
#     4   9  19  37  58  80 112 152 194 236 279 340
#     4  10  19  33  57  87 118 149 187 242 293 341
#     4  10  21  38  59  86 119 150 193 243 291 348
#     4   9  19  35  57  84 114 149 188 232 284 337
#     4  10  22  41  62  82 114 160 196 234 296 354
#     4  12  24  39  60  88 119 152 197 245 289 346
#
# _framework density 18.980765000000002
#
# number of rings (size 3 to 8) (size 9 to 14) (size 15 to 20)
#    0.000    1.750    1.250    4.500    0.000    5.000 
#    2.250    0.000    0.000    0.000    0.000    0.000 
#    0.000    0.000    0.000    0.000    0.000    0.000 
#
# Total GULP energy -396902.053078 kJ/mol
# GULP energy per Si atom -12403.189159 kJ/mol
# Density = 1.893756 g / cm^3
# Si number density = 18.980765 Si / 1000 Ang^3
#
#
#
# Elastic Constant Matrix: (Units=GPa)
#
#
# Indices 1 2 3 4 5 6 
#
# 1 56.3591 27.9146 38.0572 0.0000 -1.6325 0.0000
# 2 27.9146 101.9956 47.5884 0.0000 -4.2460 0.0000
# 3 38.0572 47.5884 123.4871 0.0000 -3.8587 0.0000
# 4 0.0000 0.0000 0.0000 33.4877 0.0000 -2.8847
# 5 -1.6325 -4.2460 -3.8587 0.0000 37.4877 0.0000
# 6 0.0000 0.0000 0.0000 -2.8847 0.0000 29.2629
#
#
#
# Elastic Compliance Matrix: (Units=1/GPa)
#
#
# Indices 1 2 3 4 5 6 
#
# 1 0.023512 -0.003723 -0.005811 0.000000 0.000004 0.000000
# 2 -0.003723 0.012572 -0.003670 0.000000 0.000884 0.000000
# 3 -0.005811 -0.003670 0.011319 0.000000 0.000496 0.000000
# 4 0.000000 0.000000 0.000000 0.030117 0.000000 0.002969
# 5 0.000004 0.000884 0.000496 0.000000 0.026827 0.000000
# 6 0.000000 0.000000 0.000000 0.002969 0.000000 0.034466
#
#
# Mechanical properties :
#
#
# Convention : Reuss Voigt Hill
#
# Bulk Modulus (GPa) = 47.63221 56.55134 52.09177
# Shear Modulus (GPa) = 29.03274 31.26642 30.14958
#
# Velocity S-wave (km/s) = 3.91524 4.06306 3.98983
# Velocity P-wave (km/s) = 6.75191 7.20208 6.98062
#
# Compressibility (1/GPa) = 0.02099420
#
# Stress axis : x y z
#
# Youngs Moduli (GPa) = 42.53217 79.53884 88.34939
#
# Poissons Ratio (x) = 0.29615 0.51340
# Poissons Ratio (y) = 0.15836 0.32424
# Poissons Ratio (z) = 0.24715 0.29190
#
# Static dielectric constant tensor:
#      x y z
#    x 3.352500 0.000000 0.006680 
#    y 0.000000 3.563050 0.000000 
#    z 0.006680 0.000000 3.549990 
# 
# 
# High freq. dielectric constant tensor:
#      x y z
#    x 1.720920 0.000000 -0.000220 
#    y 0.000000 1.740560 0.000000 
#    z -0.000220 0.000000 1.753380 
# 
# From -- ./inp_files/346308.got.cif
#   From: 2010.06.25/outbox.cif.g09.slc.cpg/sg12_174_cif.got.tgz:346308.got - 2010.06.28 00:19:55.
