data_PCOD8090322
_publ_section_title
;
Structure prediction by ZEFSAII (Michael W. Deem and Ramdas Pophale) SiO2 
 PCOD8090322
Probable space group: C 2/M
;
_chemical_formula_sum "Si O2"
_cell_formula_units_Z 64
_cell_length_a 20.531914
_cell_length_b 9.209036
_cell_length_c 22.896771
_cell_angle_alpha 90.000000
_cell_angle_beta 48.915466
_cell_angle_gamma 90.000000
_cell_volume 3263.171347
_symmetry_space_group_name_H-M "C 2/M"
_symmetry_group_IT_number 12
_symmetry_cell_setting 'monoclinic'
loop_
_space_group_symop_operation_xyz
x,y,z
-x,y,-z
-x,-y,-z
x,-y,z
1/2+x,1/2+y,z
1/2-x,1/2+y,-z
1/2-x,1/2-y,-z
1/2+x,1/2-y,z
loop_
_atom_site_type_symbol
_atom_site_label
_atom_site_fract_x
_atom_site_fract_y
_atom_site_fract_z
Si Si1 0.572477 0.339260 0.004947
Si Si2 0.761751 0.833048 0.163662
Si Si3 0.035889 0.668223 0.139429
Si Si4 0.727484 0.168825 0.313251
Si Si5 0.952384 0.831683 0.588808
Si Si6 0.879824 0.840296 0.815755
Si Si7 0.947736 0.839548 0.357215
Si Si8 0.638577 0.169578 0.688096
O O1 0.588182 0.500000 0.023156
O O2 0.539673 0.226508 0.071863
O O3 0.500000 0.352853 0.000000
O O4 0.658009 0.280276 0.922487
O O5 0.780485 0.812065 0.221504
O O6 0.680667 0.735558 0.195470
O O7 0.739105 0.000000 0.163996
O O8 0.057797 0.500000 0.126664
O O9 0.112515 0.746468 0.129943
O O10 0.941947 0.699346 0.221723
O O11 0.632444 0.233800 0.360859
O O12 0.777596 0.252108 0.334943
O O13 0.719636 0.000000 0.335012
O O14 0.018795 0.778201 0.600248
O O15 0.000000 0.811007 0.500000
O O16 0.926890 0.000000 0.615310
O O17 0.972909 0.853681 0.732987
O O18 0.843512 0.000000 0.852715
O O19 0.878994 0.732092 0.366822
O O20 0.905854 0.000000 0.390320
O O21 0.658682 0.000000 0.670071
#
# Coordination Sequence:
#
# PCOD8090322 Si02
#       8
#     8   8   8   8   8   8   8   8
#     4  10  21  37  54  73 104 145 188 232 284 341
#     4  10  21  35  54  80 109 144 185 234 284 332
#     4  10  21  36  54  79 111 145 186 236 287 336
#     4  11  22  37  60  88 118 150 191 239 283 339
#     4  10  21  39  63  90 121 153 185 229 285 342
#     4  10  19  33  56  81 106 143 186 231 279 334
#     4   9  18  35  58  85 115 149 189 229 278 339
#     4  10  21  36  58  85 115 152 193 239 285 334
#
# _framework density 19.612824
#
# number of rings (size 3 to 8) (size 9 to 14) (size 15 to 20)
#    0.000    2.000    1.250    2.250    0.000    5.500 
#    0.000    0.625    0.000    0.000    0.000    0.000 
#    0.000    0.000    0.000    0.000    0.000    0.000 
#
# Total GULP energy -396792.840047 kJ/mol
# GULP energy per Si atom -12399.776251 kJ/mol
# Density = 1.956818 g / cm^3
# Si number density = 19.612824 Si / 1000 Ang^3
#
#
#
# Elastic Constant Matrix: (Units=GPa)
#
#
# Indices 1 2 3 4 5 6 
#
# 1 129.8580 68.5258 28.7776 0.0000 23.3289 -0.0003
# 2 68.5258 114.3885 36.3539 -0.0001 11.1044 -0.0003
# 3 28.7776 36.3539 55.9409 0.0000 17.8235 0.0000
# 4 0.0000 -0.0001 0.0000 21.9415 0.0000 4.2388
# 5 23.3289 11.1044 17.8235 0.0000 24.7079 -0.0001
# 6 -0.0003 -0.0003 0.0000 4.2388 -0.0001 39.1699
#
#
#
# Elastic Compliance Matrix: (Units=1/GPa)
#
#
# Indices 1 2 3 4 5 6 
#
# 1 0.013026 -0.007203 0.001126 0.000000 -0.009874 0.000000
# 2 -0.007203 0.015002 -0.007872 0.000000 0.005737 0.000000
# 3 0.001126 -0.007872 0.028077 0.000000 -0.017779 0.000000
# 4 0.000000 0.000000 0.000000 0.046549 0.000000 -0.005037
# 5 -0.009874 0.005737 -0.017779 0.000000 0.060043 0.000000
# 6 0.000000 0.000000 0.000000 -0.005037 0.000000 0.026075
#
#
# Mechanical properties :
#
#
# Convention : Reuss Voigt Hill
#
# Bulk Modulus (GPa) = 35.45131 63.05578 49.25354
# Shear Modulus (GPa) = 22.11695 28.26585 25.19140
#
# Velocity S-wave (km/s) = 3.36174 3.80042 3.58779
# Velocity P-wave (km/s) = 5.76048 7.17480 6.50618
#
# Compressibility (1/GPa) = 0.02820771
#
# Stress axis : x y z
#
# Youngs Moduli (GPa) = 76.77038 66.65895 35.61624
#
# Poissons Ratio (x) = 0.48012 -0.04010
# Poissons Ratio (y) = 0.55294 0.28036
# Poissons Ratio (z) = -0.08643 0.52472
#
# Static dielectric constant tensor:
#      x y z
#    x 3.680540 0.000000 0.017530 
#    y 0.000000 3.742850 0.000000 
#    z 0.017530 0.000000 3.586380 
# 
# 
# High freq. dielectric constant tensor:
#      x y z
#    x 1.769370 0.000000 0.012960 
#    y 0.000000 1.768690 0.000000 
#    z 0.012960 0.000000 1.742770 
# 
# From -- ./inp_files/346100.got.cif
#   From: 2010.06.25/outbox.cif.g09.slc.cpg/sg12_174_cif.got.tgz:346100.got - 2010.06.28 00:19:55.
