data_PCOD8090010
_publ_section_title
;
Structure prediction by ZEFSAII (Michael W. Deem and Ramdas Pophale) SiO2 
 PCOD8090010
Probable space group: C 2/M
;
_chemical_formula_sum "Si O2"
_cell_formula_units_Z 56
_cell_length_a 12.529968
_cell_length_b 13.542990
_cell_length_c 26.709863
_cell_angle_alpha 90.000000
_cell_angle_beta 38.466162
_cell_angle_gamma 90.000000
_cell_volume 2819.441595
_symmetry_space_group_name_H-M "C 2/M"
_symmetry_group_IT_number 12
_symmetry_cell_setting 'monoclinic'
loop_
_space_group_symop_operation_xyz
x,y,z
-x,y,-z
-x,-y,-z
x,-y,z
1/2+x,1/2+y,z
1/2-x,1/2+y,-z
1/2-x,1/2-y,-z
1/2+x,1/2-y,z
loop_
_atom_site_type_symbol
_atom_site_label
_atom_site_fract_x
_atom_site_fract_y
_atom_site_fract_z
Si Si1 0.590110 0.613426 0.205719
Si Si2 0.932448 0.615313 0.451647
Si Si3 0.592898 0.708233 0.814158
Si Si4 0.960786 0.612839 0.802713
Si Si5 0.370226 0.728722 0.091861
Si Si6 0.768923 0.882842 0.383139
Si Si7 0.048373 0.386648 0.305921
O O1 0.633655 0.500000 0.199370
O O2 0.509807 0.627265 0.179965
O O3 0.765121 0.673274 0.145334
O O4 0.452621 0.658383 0.296568
O O5 0.936323 0.500000 0.461397
O O6 0.774072 0.655027 0.544209
O O7 0.116502 0.656864 0.403034
O O8 0.908538 0.637742 0.401119
O O9 0.567826 0.817788 0.800427
O O10 0.523443 0.701433 0.896965
O O11 0.793674 0.685693 0.742667
O O12 0.981150 0.500000 0.813073
O O13 0.758876 0.641411 0.877411
O O14 0.032186 0.627740 0.719636
O O15 0.500000 0.752645 0.000000
O O16 0.784784 0.000000 0.373043
O O17 0.111948 0.500000 0.288545
#
# Coordination Sequence:
#
# PCOD8090010 Si02
#       7
#     8   8   8   8   8   8   8
#     4  10  19  33  55  80 104 133 169 206 251 306
#     4   8  12  20  42  74 107 134 162 202 245 287
#     4  10  19  34  54  73 102 133 164 209 256 301
#     4   9  20  35  53  75  99 133 175 211 252 301
#     4  10  23  39  53  74 103 132 167 212 258 307
#     4   8  13  22  41  75 107 132 163 202 246 291
#     4   9  15  28  51  78 104 134 168 203 247 298
#
# _framework density 19.862089000000001
#
# number of rings (size 3 to 8) (size 9 to 14) (size 15 to 20)
#    0.000    2.857    1.429    1.286    0.000    4.000 
#    0.000    1.429    0.000    9.429    0.000    0.000 
#    0.000   14.857    0.000    0.000    0.000    0.000 
#
# Total GULP energy -346913.946833 kJ/mol
# GULP energy per Si atom -12389.783815 kJ/mol
# Density = 1.981688 g / cm^3
# Si number density = 19.862089 Si / 1000 Ang^3
#
#
#
# Elastic Constant Matrix: (Units=GPa)
#
#
# Indices 1 2 3 4 5 6 
#
# 1 61.5186 10.3489 39.0694 0.0000 17.3753 0.0000
# 2 10.3489 74.0235 17.5541 0.0000 1.0399 0.0000
# 3 39.0694 17.5541 155.9490 -0.0001 33.5368 -0.0001
# 4 0.0000 0.0000 -0.0001 20.8509 -0.0002 -3.2905
# 5 17.3753 1.0399 33.5368 -0.0002 25.1675 0.0001
# 6 0.0000 0.0000 -0.0001 -3.2905 0.0001 23.2058
#
#
#
# Elastic Compliance Matrix: (Units=1/GPa)
#
#
# Indices 1 2 3 4 5 6 
#
# 1 0.021506 -0.002197 -0.002757 0.000000 -0.011083 0.000000
# 2 -0.002197 0.014185 -0.001747 0.000000 0.003259 0.000000
# 3 -0.002757 -0.001747 0.009636 0.000000 -0.010865 0.000000
# 4 0.000000 0.000000 0.000000 0.049057 0.000000 0.006956
# 5 -0.011083 0.003259 -0.010865 0.000000 0.061728 0.000000
# 6 0.000000 0.000000 0.000000 0.006956 0.000000 0.044079
#
#
# Mechanical properties :
#
#
# Convention : Reuss Voigt Hill
#
# Bulk Modulus (GPa) = 31.32392 47.27065 39.29729
# Shear Modulus (GPa) = 22.29792 28.81277 25.55535
#
# Velocity S-wave (km/s) = 3.35421 3.81286 3.59087
# Velocity P-wave (km/s) = 5.55031 6.57533 6.08444
#
# Compressibility (1/GPa) = 0.03192448
#
# Stress axis : x y z
#
# Youngs Moduli (GPa) = 46.49844 70.49741 103.77445
#
# Poissons Ratio (x) = 0.15489 0.28613
# Poissons Ratio (y) = 0.10216 0.18130
# Poissons Ratio (z) = 0.12821 0.12316
#
# Static dielectric constant tensor:
#      x y z
#    x 3.504640 0.000000 0.404770 
#    y 0.000000 3.403050 0.000000 
#    z 0.404770 0.000000 3.729050 
# 
# 
# High freq. dielectric constant tensor:
#      x y z
#    x 1.755370 0.000000 0.029660 
#    y 0.000000 1.757160 0.000000 
#    z 0.029660 0.000000 1.765570 
# 
# From -- ./inp_files/358183.got.cif
#   From: 2010.06.25/outbox.cif.g09.slc.cpg/sg12_180_cif.got.tgz:358183.got - 2010.06.28 00:19:55.
