data_PCOD8090921
_publ_section_title
;
Structure prediction by ZEFSAII (Michael W. Deem and Ramdas Pophale) SiO2 
 PCOD8090921
Probable space group: C 2/M
;
_chemical_formula_sum "Si O2"
_cell_formula_units_Z 48
_cell_length_a 19.883611
_cell_length_b 16.051205
_cell_length_c 11.831280
_cell_angle_alpha 90.000000
_cell_angle_beta 137.003472
_cell_angle_gamma 90.000000
_cell_volume 2575.074148
_symmetry_space_group_name_H-M "C 2/M"
_symmetry_group_IT_number 12
_symmetry_cell_setting 'monoclinic'
loop_
_space_group_symop_operation_xyz
x,y,z
-x,y,-z
-x,-y,-z
x,-y,z
1/2+x,1/2+y,z
1/2-x,1/2+y,-z
1/2-x,1/2-y,-z
1/2+x,1/2-y,z
loop_
_atom_site_type_symbol
_atom_site_label
_atom_site_fract_x
_atom_site_fract_y
_atom_site_fract_z
Si Si1 0.362177 0.663814 0.558457
Si Si2 0.186389 0.350679 0.497984
Si Si3 0.890483 0.188283 0.343445
Si Si4 0.561465 0.000000 0.400236
Si Si5 0.073600 0.097572 0.836494
Si Si6 0.861663 0.500000 0.251623
Si Si7 0.254162 0.840664 0.173628
O O1 0.267891 0.624931 0.505085
O O2 0.365166 0.762421 0.588942
O O3 0.350898 0.647237 0.410547
O O4 0.460868 0.620780 0.725981
O O5 0.100512 0.418506 0.384447
O O6 0.239508 0.351796 0.684512
O O7 0.899706 0.116613 0.261221
O O8 0.814049 0.258857 0.208079
O O9 0.000000 0.228357 0.500000
O O10 0.443411 0.000000 0.253430
O O11 0.593834 0.000000 0.569222
O O12 0.090958 0.000000 0.882708
O O13 0.139191 0.157961 0.997439
O O14 0.797657 0.417653 0.156175
#
# Coordination Sequence:
#
# PCOD8090921 Si02
#       7
#     8   8   8   4   8   4   8
#     4   9  20  36  54  73 108 140 176 214 254 311
#     4   9  19  36  54  80 104 134 177 218 260 312
#     4   9  20  35  56  75 101 143 182 215 251 305
#     4   9  18  28  53  78  99 134 171 216 260 299
#     4  11  22  35  51  81 110 140 173 214 264 315
#     4   9  18  28  49  78 109 128 161 220 263 303
#     4  10  19  34  53  80 109 133 169 216 269 315
#
# _framework density 18.640239999999999
#
# number of rings (size 3 to 8) (size 9 to 14) (size 15 to 20)
#    0.000    2.500    0.833    0.500   10.500    3.667 
#    0.000    0.833    0.000    0.000    0.000    1.167 
#    0.000    0.000    0.000    0.000    0.000    0.000 
#
# Total GULP energy -297553.490630 kJ/mol
# GULP energy per Si atom -12398.062110 kJ/mol
# Density = 1.859781 g / cm^3
# Si number density = 18.640240 Si / 1000 Ang^3
#
#
#
# Elastic Constant Matrix: (Units=GPa)
#
#
# Indices 1 2 3 4 5 6 
#
# 1 116.3825 23.4577 15.1991 0.0000 16.5809 0.0000
# 2 23.4577 70.2890 24.1876 0.0000 11.4259 0.0000
# 3 15.1991 24.1876 67.8957 0.0000 11.5001 0.0000
# 4 0.0000 0.0000 0.0000 27.0520 0.0000 5.9612
# 5 16.5809 11.4259 11.5001 0.0000 18.7887 0.0000
# 6 0.0000 0.0000 0.0000 5.9612 0.0000 25.7283
#
#
#
# Elastic Compliance Matrix: (Units=1/GPa)
#
#
# Indices 1 2 3 4 5 6 
#
# 1 0.010112 -0.002066 -0.000256 0.000000 -0.007511 0.000000
# 2 -0.002066 0.017521 -0.004779 0.000000 -0.005907 0.000000
# 3 -0.000256 -0.004779 0.017803 0.000000 -0.007765 0.000000
# 4 0.000000 0.000000 0.000000 0.038955 0.000000 -0.009026
# 5 -0.007511 -0.005907 -0.007765 0.000000 0.068197 0.000000
# 6 0.000000 0.000000 0.000000 -0.009026 0.000000 0.040959
#
#
# Mechanical properties :
#
#
# Convention : Reuss Voigt Hill
#
# Bulk Modulus (GPa) = 32.01403 42.25064 37.13234
# Shear Modulus (GPa) = 22.91893 27.09533 25.00713
#
# Velocity S-wave (km/s) = 3.51028 3.81674 3.66671
# Velocity P-wave (km/s) = 5.80012 6.49145 6.15550
#
# Compressibility (1/GPa) = 0.03123630
#
# Stress axis : x y z
#
# Youngs Moduli (GPa) = 98.89010 57.07401 56.16897
#
# Poissons Ratio (x) = 0.11791 0.01435
# Poissons Ratio (y) = 0.20429 0.26842
# Poissons Ratio (z) = 0.02527 0.27275
#
# Static dielectric constant tensor:
#      x y z
#    x 3.530940 0.000000 0.172950 
#    y 0.000000 3.327960 0.000000 
#    z 0.172950 0.000000 3.270150 
# 
# 
# High freq. dielectric constant tensor:
#      x y z
#    x 1.724530 0.000000 0.016940 
#    y 0.000000 1.716900 0.000000 
#    z 0.016940 0.000000 1.702020 
# 
# From -- ./inp_files/233501.got.cif
#   From: 2010.06.25/outbox.cif.g09.slc.cpg/sg12_117_cif.got.tgz:233501.got - 2010.06.28 00:19:55.
