data_PCOD8090435
_publ_section_title
;
Structure prediction by ZEFSAII (Michael W. Deem and Ramdas Pophale) SiO2 
 PCOD8090435
Probable space group: C 2/M
;
_chemical_formula_sum "Si O2"
_cell_formula_units_Z 56
_cell_length_a 26.464822
_cell_length_b 14.170773
_cell_length_c 9.184209
_cell_angle_alpha 90.000000
_cell_angle_beta 56.913002
_cell_angle_gamma 90.000000
_cell_volume 2885.803299
_symmetry_space_group_name_H-M "C 2/M"
_symmetry_group_IT_number 12
_symmetry_cell_setting 'monoclinic'
loop_
_space_group_symop_operation_xyz
x,y,z
-x,y,-z
-x,-y,-z
x,-y,z
1/2+x,1/2+y,z
1/2-x,1/2+y,-z
1/2-x,1/2-y,-z
1/2+x,1/2-y,z
loop_
_atom_site_type_symbol
_atom_site_label
_atom_site_fract_x
_atom_site_fract_y
_atom_site_fract_z
Si Si1 0.291748 0.606982 0.183752
Si Si2 0.497646 0.714236 0.829933
Si Si3 0.893025 0.111445 0.492097
Si Si4 0.681682 0.722560 0.598343
Si Si5 0.159305 0.605051 0.477992
Si Si6 0.528430 0.892770 0.606321
Si Si7 0.604427 0.390961 0.179878
O O1 0.297375 0.500000 0.230332
O O2 0.332772 0.669128 0.229432
O O3 0.220271 0.633919 0.291992
O O4 0.324678 0.619218 0.976509
O O5 0.551192 0.649028 0.687763
O O6 0.505447 0.822744 0.767977
O O7 0.435854 0.672695 0.862844
O O8 0.500000 0.710330 0.000000
O O9 0.832454 0.156120 0.518633
O O10 0.901025 0.144705 0.646064
O O11 0.888470 0.000000 0.488823
O O12 0.750000 0.750000 0.500000
O O13 0.647144 0.822550 0.631389
O O14 0.165908 0.500000 0.533079
O O15 0.100863 0.612404 0.467396
O O16 0.500000 0.859836 0.500000
O O17 0.509183 0.000000 0.678057
O O18 0.583362 0.500000 0.200092
#
# Coordination Sequence:
#
# PCOD8090435 Si02
#       7
#     8   8   8   8   8   8   8
#     4   9  18  35  59  87 120 151 190 236 289 355
#     4  12  24  37  61  89 123 156 196 244 295 353
#     4  11  22  38  60  86 120 158 197 243 297 357
#     4  10  19  33  56  84 114 152 192 236 286 346
#     4   9  18  34  59  86 113 151 194 238 290 344
#     4  10  21  39  64  87 115 156 200 245 294 345
#     4  10  22  38  59  90 124 157 192 239 297 358
#
# _framework density 19.405341
#
# number of rings (size 3 to 8) (size 9 to 14) (size 15 to 20)
#    0.000    1.857    1.429    3.000    0.000    4.286 
#    0.000    2.857    3.143    0.000    0.000    0.000 
#    0.000    0.000    0.000    0.000    0.000    0.000 
#
# Total GULP energy -346959.057670 kJ/mol
# GULP energy per Si atom -12391.394917 kJ/mol
# Density = 1.936117 g / cm^3
# Si number density = 19.405341 Si / 1000 Ang^3
#
#
#
# Elastic Constant Matrix: (Units=GPa)
#
#
# Indices 1 2 3 4 5 6 
#
# 1 119.3003 49.2264 58.4451 0.0000 8.9618 0.0000
# 2 49.2264 104.1896 48.8043 0.0000 5.8465 0.0000
# 3 58.4451 48.8043 119.9761 0.0000 14.5722 0.0000
# 4 0.0000 0.0000 0.0000 25.2184 0.0000 0.9856
# 5 8.9618 5.8465 14.5722 0.0000 28.2714 0.0000
# 6 0.0000 0.0000 0.0000 0.9856 0.0000 34.8323
#
#
#
# Elastic Compliance Matrix: (Units=1/GPa)
#
#
# Indices 1 2 3 4 5 6 
#
# 1 0.012046 -0.003636 -0.004285 0.000000 -0.000858 0.000000
# 2 -0.003636 0.012955 -0.003534 0.000000 0.000295 0.000000
# 3 -0.004285 -0.003534 0.012381 0.000000 -0.004293 0.000000
# 4 0.000000 0.000000 0.000000 0.039697 0.000000 -0.001123
# 5 -0.000858 0.000295 -0.004293 0.000000 0.037795 0.000000
# 6 0.000000 0.000000 0.000000 -0.001123 0.000000 0.028741
#
#
# Mechanical properties :
#
#
# Convention : Reuss Voigt Hill
#
# Bulk Modulus (GPa) = 69.10042 72.93530 71.01786
# Shear Modulus (GPa) = 29.17997 30.13043 29.65520
#
# Velocity S-wave (km/s) = 3.88197 3.94469 3.91346
# Velocity P-wave (km/s) = 7.46855 7.64292 7.55624
#
# Compressibility (1/GPa) = 0.01447169
#
# Stress axis : x y z
#
# Youngs Moduli (GPa) = 83.01385 77.19103 80.76632
#
# Poissons Ratio (x) = 0.28068 0.34607
# Poissons Ratio (y) = 0.30186 0.28546
# Poissons Ratio (z) = 0.35570 0.27282
#
# Static dielectric constant tensor:
#      x y z
#    x 4.130080 0.000000 0.100940 
#    y 0.000000 4.544260 0.000000 
#    z 0.100940 0.000000 3.457720 
# 
# 
# High freq. dielectric constant tensor:
#      x y z
#    x 1.764650 0.000000 -0.008150 
#    y 0.000000 1.772120 0.000000 
#    z -0.008150 0.000000 1.727250 
# 
# From -- ./inp_files/96744.got.cif
#   From: 2010.06.25/outbox.cif.g09.slc.cpg/sg12_49_cif.got.tgz:96744.got - 2010.06.28 00:19:55.
