data_PCOD8090242
_publ_section_title
;
Structure prediction by ZEFSAII (Michael W. Deem and Ramdas Pophale) SiO2 
 PCOD8090242
Probable space group: C 2/M
;
_chemical_formula_sum "Si O2"
_cell_formula_units_Z 56
_cell_length_a 15.148330
_cell_length_b 8.670964
_cell_length_c 24.490448
_cell_angle_alpha 90.000000
_cell_angle_beta 118.994241
_cell_angle_gamma 90.000000
_cell_volume 2813.664578
_symmetry_space_group_name_H-M "C 2/M"
_symmetry_group_IT_number 12
_symmetry_cell_setting 'monoclinic'
loop_
_space_group_symop_operation_xyz
x,y,z
-x,y,-z
-x,-y,-z
x,-y,z
1/2+x,1/2+y,z
1/2-x,1/2+y,-z
1/2-x,1/2-y,-z
1/2+x,1/2-y,z
loop_
_atom_site_type_symbol
_atom_site_label
_atom_site_fract_x
_atom_site_fract_y
_atom_site_fract_z
Si Si1 0.170817 0.682946 0.433613
Si Si2 0.103428 0.317936 0.004985
Si Si3 0.332637 0.681641 0.789171
Si Si4 0.946561 0.178869 0.120908
Si Si5 0.739866 0.183388 0.647707
Si Si6 0.479318 0.319123 0.431020
Si Si7 0.765833 0.178597 0.139412
O O1 0.183759 0.500000 0.434654
O O2 0.250000 0.750000 0.500000
O O3 0.192673 0.756346 0.381620
O O4 0.057860 0.726629 0.417159
O O5 0.106512 0.500000 0.002348
O O6 0.193489 0.255423 0.070008
O O7 0.113358 0.254570 0.947005
O O8 0.000000 0.256439 0.000000
O O9 0.341518 0.500000 0.791618
O O10 0.442832 0.753299 0.836338
O O11 0.297177 0.737978 0.719370
O O12 0.251078 0.732482 0.809376
O O13 0.881290 0.205606 0.156106
O O14 0.955906 0.000000 0.109960
O O15 0.631616 0.263294 0.616855
O O16 0.726387 0.000000 0.639615
O O17 0.500000 0.279757 0.500000
O O18 0.490770 0.500000 0.422627
O O19 0.741482 0.000000 0.142348
#
# Coordination Sequence:
#
# PCOD8090242 Si02
#       7
#     8   8   8   8   8   8   8
#     4  12  24  40  65  96 127 161 200 246 303 362
#     4  10  19  33  55  85 117 149 195 250 302 351
#     4  10  23  41  59  84 118 156 198 244 293 354
#     4  10  21  37  58  84 115 153 198 244 297 354
#     4  11  24  42  63  90 126 163 204 254 306 365
#     4  11  23  40  65  95 124 157 201 249 303 363
#     4  10  21  37  58  84 116 156 199 246 299 356
#
# _framework density 19.902868999999999
#
# number of rings (size 3 to 8) (size 9 to 14) (size 15 to 20)
#    0.000    1.429    2.857    2.571    0.000    4.286 
#    0.000    1.429    0.000    0.000    0.000    0.000 
#    0.000    0.000    0.000    0.000    0.000    0.000 
#
# Total GULP energy -347305.040097 kJ/mol
# GULP energy per Si atom -12403.751432 kJ/mol
# Density = 1.985757 g / cm^3
# Si number density = 19.902869 Si / 1000 Ang^3
#
#
#
# Elastic Constant Matrix: (Units=GPa)
#
#
# Indices 1 2 3 4 5 6 
#
# 1 102.6096 5.2436 42.1814 0.0000 -12.0009 0.0000
# 2 5.2436 23.7234 28.9376 0.0000 -2.8876 0.0000
# 3 42.1814 28.9376 131.7738 0.0000 -21.4905 0.0000
# 4 0.0000 0.0000 0.0000 21.0327 0.0000 -4.6467
# 5 -12.0009 -2.8876 -21.4905 0.0000 28.9994 0.0000
# 6 0.0000 0.0000 0.0000 -4.6467 0.0000 33.9584
#
#
#
# Elastic Compliance Matrix: (Units=1/GPa)
#
#
# Indices 1 2 3 4 5 6 
#
# 1 0.011454 0.002426 -0.003853 0.000000 0.002127 0.000000
# 2 0.002426 0.058529 -0.014236 0.000000 -0.003718 0.000000
# 3 -0.003853 -0.014236 0.013032 0.000000 0.006646 0.000000
# 4 0.000000 0.000000 0.000000 0.049027 0.000000 0.006709
# 5 0.002127 -0.003718 0.006646 0.000000 0.039918 0.000000
# 6 0.000000 0.000000 0.000000 0.006709 0.000000 0.030366
#
#
# Mechanical properties :
#
#
# Convention : Reuss Voigt Hill
#
# Bulk Modulus (GPa) = 19.34582 45.64797 32.49690
# Shear Modulus (GPa) = 19.92985 28.91440 24.42212
#
# Velocity S-wave (km/s) = 3.16785 3.81566 3.50675
# Velocity P-wave (km/s) = 4.80849 6.51134 5.72360
#
# Compressibility (1/GPa) = 0.05169075
#
# Stress axis : x y z
#
# Youngs Moduli (GPa) = 87.30470 17.08568 76.73417
#
# Poissons Ratio (x) = -0.04146 0.29562
# Poissons Ratio (y) = -0.21184 1.09238
# Poissons Ratio (z) = 0.33634 0.24323
#
# Static dielectric constant tensor:
#      x y z
#    x 4.023050 0.000000 0.336510 
#    y 0.000000 3.554900 0.000000 
#    z 0.336510 0.000000 4.045550 
# 
# 
# High freq. dielectric constant tensor:
#      x y z
#    x 1.792100 0.000000 -0.001440 
#    y 0.000000 1.770350 0.000000 
#    z -0.001440 0.000000 1.775070 
# 
# From -- ./inp_files/339067.got.cif
#   From: 2010.06.25/outbox.cif.g09.slc.cpg/sg12_170_cif.got.tgz:339067.got - 2010.06.28 00:19:55.
