data_PCOD8090467
_publ_section_title
;
Structure prediction by ZEFSAII (Michael W. Deem and Ramdas Pophale) SiO2 
 PCOD8090467
Probable space group: C 2/M
;
_chemical_formula_sum "Si O2"
_cell_formula_units_Z 56
_cell_length_a 25.330452
_cell_length_b 13.917267
_cell_length_c 15.931708
_cell_angle_alpha 90.000000
_cell_angle_beta 30.926990
_cell_angle_gamma 90.000000
_cell_volume 2886.530953
_symmetry_space_group_name_H-M "C 2/M"
_symmetry_group_IT_number 12
_symmetry_cell_setting 'monoclinic'
loop_
_space_group_symop_operation_xyz
x,y,z
-x,y,-z
-x,-y,-z
x,-y,z
1/2+x,1/2+y,z
1/2-x,1/2+y,-z
1/2-x,1/2-y,-z
1/2+x,1/2-y,z
loop_
_atom_site_type_symbol
_atom_site_label
_atom_site_fract_x
_atom_site_fract_y
_atom_site_fract_z
Si Si1 0.357366 0.888759 0.227402
Si Si2 0.086405 0.280078 0.450530
Si Si3 0.537499 0.196703 0.074588
Si Si4 0.444326 0.608264 0.879375
Si Si5 0.717121 0.891099 0.148258
Si Si6 0.630552 0.608878 0.501998
Si Si7 0.055225 0.386849 0.232671
O O1 0.420068 0.830928 0.212687
O O2 0.236570 0.872833 0.407751
O O3 0.388303 0.000000 0.191615
O O4 0.385779 0.850786 0.096284
O O5 0.183778 0.330519 0.274906
O O6 0.124541 0.177220 0.430171
O O7 0.000000 0.262464 0.500000
O O8 0.044478 0.345710 0.583569
O O9 0.549671 0.312930 0.054645
O O10 0.567505 0.161344 0.125797
O O11 0.452872 0.500000 0.905376
O O12 0.536738 0.631241 0.690853
O O13 0.339193 0.619602 0.969569
O O14 0.658665 0.859483 0.143010
O O15 0.684788 0.000000 0.212384
O O16 0.627037 0.500000 0.472875
O O17 0.040456 0.500000 0.241843
#
# Coordination Sequence:
#
# PCOD8090467 Si02
#       7
#     8   8   8   8   8   8   8
#     4  10  22  39  60  84 110 141 179 233 286 321
#     4  10  19  35  55  84 113 144 185 227 274 321
#     4  11  20  37  61  83 108 141 185 235 274 325
#     4  10  21  38  57  81 113 151 185 219 270 330
#     4   9  19  35  57  82 115 148 178 224 276 324
#     4  10  21  39  56  78 114 151 185 222 271 328
#     4  10  19  33  56  86 113 142 183 230 275 324
#
# _framework density 19.400448999999998
#
# number of rings (size 3 to 8) (size 9 to 14) (size 15 to 20)
#    0.000    2.000    1.429    3.000    0.000    3.143 
#    2.571    1.429    0.000    0.857    0.000    0.000 
#    0.000    0.000    0.000    0.000    0.000    0.000 
#
# Total GULP energy -347221.618125 kJ/mol
# GULP energy per Si atom -12400.772076 kJ/mol
# Density = 1.935629 g / cm^3
# Si number density = 19.400449 Si / 1000 Ang^3
#
#
#
# Elastic Constant Matrix: (Units=GPa)
#
#
# Indices 1 2 3 4 5 6 
#
# 1 84.7176 54.8983 50.9228 0.0000 -1.6318 0.0000
# 2 54.8983 120.0562 28.6380 0.0000 -0.8199 0.0000
# 3 50.9228 28.6380 92.5459 0.0000 -22.5602 0.0000
# 4 0.0000 0.0000 0.0000 13.6169 0.0000 4.1014
# 5 -1.6318 -0.8199 -22.5602 0.0000 28.0942 0.0000
# 6 0.0000 0.0000 0.0000 4.1014 0.0000 30.8876
#
#
#
# Elastic Compliance Matrix: (Units=1/GPa)
#
#
# Indices 1 2 3 4 5 6 
#
# 1 0.025261 -0.008350 -0.013699 0.000000 -0.009777 0.000000
# 2 -0.008350 0.011891 0.001096 0.000000 0.000742 0.000000
# 3 -0.013699 0.001096 0.022155 0.000000 0.017027 0.000000
# 4 0.000000 0.000000 0.000000 0.076498 0.000000 -0.010158
# 5 -0.009777 0.000742 0.017027 0.000000 0.048722 0.000000
# 6 0.000000 0.000000 0.000000 -0.010158 0.000000 0.033724
#
#
# Mechanical properties :
#
#
# Convention : Reuss Voigt Hill
#
# Bulk Modulus (GPa) = 57.47047 62.91534 60.19290
# Shear Modulus (GPa) = 18.79989 25.37709 22.08849
#
# Velocity S-wave (km/s) = 3.11632 3.62064 3.37791
# Velocity P-wave (km/s) = 6.52964 7.06958 6.80497
#
# Compressibility (1/GPa) = 0.01740024
#
# Stress axis : x y z
#
# Youngs Moduli (GPa) = 39.58651 84.09420 45.13622
#
# Poissons Ratio (x) = 0.70220 0.61833
# Poissons Ratio (y) = 0.33055 -0.04946
# Poissons Ratio (z) = 0.54231 -0.09215
#
# Static dielectric constant tensor:
#      x y z
#    x 3.448300 0.000000 -0.184120 
#    y 0.000000 3.788750 0.000000 
#    z -0.184120 0.000000 3.473680 
# 
# 
# High freq. dielectric constant tensor:
#      x y z
#    x 1.742860 0.000000 -0.016590 
#    y 0.000000 1.771820 0.000000 
#    z -0.016590 0.000000 1.750900 
# 
# From -- ./inp_files/246518.got.cif
#   From: 2010.06.25/outbox.cif.g09.slc.cpg/sg12_124_cif.got.tgz:246518.got - 2010.06.28 00:19:55.
