data_PCOD8090783
_publ_section_title
;
Structure prediction by ZEFSAII (Michael W. Deem and Ramdas Pophale) SiO2 
 PCOD8090783
Probable space group: C 2/M
;
_chemical_formula_sum "Si O2"
_cell_formula_units_Z 44
_cell_length_a 5.146937
_cell_length_b 30.303729
_cell_length_c 19.608772
_cell_angle_alpha 90.000000
_cell_angle_beta 60.648421
_cell_angle_gamma 90.000000
_cell_volume 2665.794563
_symmetry_space_group_name_H-M "C 2/M"
_symmetry_group_IT_number 12
_symmetry_cell_setting 'monoclinic'
loop_
_space_group_symop_operation_xyz
x,y,z
-x,y,-z
-x,-y,-z
x,-y,z
1/2+x,1/2+y,z
1/2-x,1/2+y,-z
1/2-x,1/2-y,-z
1/2+x,1/2-y,z
loop_
_atom_site_type_symbol
_atom_site_label
_atom_site_fract_x
_atom_site_fract_y
_atom_site_fract_z
Si Si1 0.144277 0.552235 0.412862
Si Si2 0.762000 0.871795 0.915227
Si Si3 0.099805 0.585614 0.147502
Si Si4 0.348100 0.000000 0.946296
Si Si5 0.886024 0.230555 0.912946
Si Si6 0.318872 0.947669 0.318210
O O1 0.148380 0.500000 0.419226
O O2 0.480015 0.569084 0.359649
O O3 0.000000 0.572761 0.500000
O O4 0.949865 0.567305 0.373750
O O5 0.626545 0.878578 0.856807
O O6 0.849890 0.821403 0.914319
O O7 0.054212 0.900235 0.895729
O O8 0.500000 0.886585 0.000000
O O9 0.047899 0.542193 0.109468
O O10 0.004591 0.577582 0.237078
O O11 0.500000 0.000000 0.000000
O O12 0.000000 0.000000 0.000000
O O13 0.732236 0.255127 0.868437
O O14 0.750000 0.250000 0.000000
O O15 0.348278 0.000000 0.303222
#
# Coordination Sequence:
#
# PCOD8090783 Si02
#       6
#     8   8   8   4   8   8
#     4   9  17  29  51  75  91 116 163 213 248 287
#     4  12  23  35  53  74  95 122 174 229 249 298
#     4  12  24  36  50  70  97 137 175 210 268 283
#     4  12  24  40  48  62  89 134 187 228 246 272
#     4  10  19  34  54  73  93 113 150 210 268 321
#     4  10  19  34  49  65  99 133 164 204 251 304
#
# _framework density 16.505399000000001
#
# number of rings (size 3 to 8) (size 9 to 14) (size 15 to 20)
#    0.000    1.273    2.727    6.000    2.545    2.182 
#    0.000    0.000    0.000    0.000    0.000    0.000 
#    0.000    0.000    0.000    0.000    0.000  229.091 
#
# Total GULP energy -272752.272740 kJ/mol
# GULP energy per Si atom -12397.830579 kJ/mol
# Density = 1.646783 g / cm^3
# Si number density = 16.505399 Si / 1000 Ang^3
#
#
#
# Elastic Constant Matrix: (Units=GPa)
#
#
# Indices 1 2 3 4 5 6 
#
# 1 140.8314 31.0346 31.7601 0.0000 -2.2419 0.0000
# 2 31.0346 61.8838 33.6173 0.0000 -0.5462 0.0000
# 3 31.7601 33.6173 84.4961 0.0000 4.1826 0.0000
# 4 0.0000 0.0000 0.0000 6.6060 0.0000 3.4316
# 5 -2.2419 -0.5462 4.1826 0.0000 24.6378 0.0000
# 6 0.0000 0.0000 0.0000 3.4316 0.0000 23.7530
#
#
#
# Elastic Compliance Matrix: (Units=1/GPa)
#
#
# Indices 1 2 3 4 5 6 
#
# 1 0.008227 -0.003075 -0.001919 0.000000 0.001006 0.000000
# 2 -0.003075 0.021849 -0.007611 0.000000 0.001497 0.000000
# 3 -0.001919 -0.007611 0.015734 0.000000 -0.003014 0.000000
# 4 0.000000 0.000000 0.000000 0.163658 0.000000 -0.023644
# 5 0.001006 0.001497 -0.003014 0.000000 0.041225 0.000000
# 6 0.000000 0.000000 0.000000 -0.023644 0.000000 0.045516
#
#
# Mechanical properties :
#
#
# Convention : Reuss Voigt Hill
#
# Bulk Modulus (GPa) = 48.54315 53.33726 50.94020
# Shear Modulus (GPa) = 15.23071 23.71932 19.47502
#
# Velocity S-wave (km/s) = 3.04101 3.79498 3.43872
# Velocity P-wave (km/s) = 6.46565 7.18245 6.83346
#
# Compressibility (1/GPa) = 0.02060023
#
# Stress axis : x y z
#
# Youngs Moduli (GPa) = 121.55123 45.76859 63.55848
#
# Poissons Ratio (x) = 0.14072 0.12196
# Poissons Ratio (y) = 0.37371 0.48376
# Poissons Ratio (z) = 0.23325 0.34836
#
# Static dielectric constant tensor:
#      x y z
#    x 3.678670 0.000000 -0.015250 
#    y 0.000000 1.628730 0.000000 
#    z -0.015250 0.000000 2.999430 
# 
# 
# High freq. dielectric constant tensor:
#      x y z
#    x 1.672060 0.000000 0.003650 
#    y 0.000000 1.598940 0.000000 
#    z 0.003650 0.000000 1.605130 
# 
# From -- ./inp_files/191970.got.cif
#   From: 2010.06.25/outbox.cif.g09.slc.cpg/sg12_96_cif.got.tgz:191970.got - 2010.06.28 00:19:55.
