data_PCOD8090863
_publ_section_title
;
Structure prediction by ZEFSAII (Michael W. Deem and Ramdas Pophale) SiO2 
 PCOD8090863
Probable space group: C 2/M
;
_chemical_formula_sum "Si O2"
_cell_formula_units_Z 64
_cell_length_a 21.316745
_cell_length_b 21.522811
_cell_length_c 9.452934
_cell_angle_alpha 90.000000
_cell_angle_beta 114.473558
_cell_angle_gamma 90.000000
_cell_volume 3947.305141
_symmetry_space_group_name_H-M "C 2/M"
_symmetry_group_IT_number 12
_symmetry_cell_setting 'monoclinic'
loop_
_space_group_symop_operation_xyz
x,y,z
-x,y,-z
-x,-y,-z
x,-y,z
1/2+x,1/2+y,z
1/2-x,1/2+y,-z
1/2-x,1/2-y,-z
1/2+x,1/2-y,z
loop_
_atom_site_type_symbol
_atom_site_label
_atom_site_fract_x
_atom_site_fract_y
_atom_site_fract_z
Si Si1 0.815969 0.164016 0.356791
Si Si2 0.864810 0.145495 0.702309
Si Si3 0.324021 0.175184 0.108963
Si Si4 0.791814 0.760683 0.832500
Si Si5 0.877345 0.931644 0.972630
Si Si6 0.485116 0.673487 0.142523
Si Si7 0.756589 0.929968 0.077939
Si Si8 0.433285 0.750042 0.344657
O O1 0.819499 0.138562 0.519566
O O2 0.756638 0.215323 0.301779
O O3 0.795170 0.106110 0.240071
O O4 0.887469 0.196125 0.374599
O O5 0.844125 0.206258 0.774571
O O6 0.856131 0.085112 0.792092
O O7 0.943473 0.150328 0.723705
O O8 0.252773 0.188621 0.124373
O O9 0.388606 0.186590 0.275666
O O10 0.335062 0.222857 0.989441
O O11 0.314003 0.105426 0.037876
O O12 0.911324 0.000000 0.005346
O O13 0.807904 0.932065 0.995670
O O14 0.932326 0.883789 0.086915
O O15 0.456003 0.727630 0.211950
O O16 0.500000 0.700124 0.000000
O O17 0.736946 0.000000 0.108191
O O18 0.500000 0.767015 0.500000
#
# Coordination Sequence:
#
# PCOD8090863 Si02
#       8
#     8   8   8   8   8   8   8   8
#     4  10  20  31  50  71 101 129 150 203 247 293
#     4  11  19  30  46  71 101 127 160 200 240 286
#     4   9  17  31  53  71  93 127 161 206 239 285
#     4   9  17  30  49  74  96 124 161 193 250 290
#     4  10  20  33  47  63  92 133 176 204 223 271
#     4  10  20  30  47  67  97 132 163 197 232 286
#     4  10  19  34  53  70  91 129 174 202 231 278
#     4  11  19  33  49  74 102 124 157 192 257 297
#
# _framework density 16.213592999999999
#
# number of rings (size 3 to 8) (size 9 to 14) (size 15 to 20)
#    0.000    2.000    3.750    2.625    0.000    2.750 
#    0.000    0.000    0.000    2.625    0.000    0.000 
#    0.000   12.500    0.000    0.000    0.000    0.000 
#
# Total GULP energy -396609.639141 kJ/mol
# GULP energy per Si atom -12394.051223 kJ/mol
# Density = 1.617669 g / cm^3
# Si number density = 16.213593 Si / 1000 Ang^3
#
#
#
# Elastic Constant Matrix: (Units=GPa)
#
#
# Indices 1 2 3 4 5 6 
#
# 1 46.5657 29.5390 26.7195 0.0000 3.1834 0.0000
# 2 29.5390 84.0061 43.6503 0.0000 12.5312 0.0000
# 3 26.7195 43.6503 99.5860 0.0000 10.5716 0.0000
# 4 0.0000 0.0000 0.0000 18.2095 0.0000 0.9331
# 5 3.1834 12.5312 10.5716 0.0000 25.2347 0.0000
# 6 0.0000 0.0000 0.0000 0.9331 0.0000 17.7000
#
#
#
# Elastic Compliance Matrix: (Units=1/GPa)
#
#
# Indices 1 2 3 4 5 6 
#
# 1 0.029109 -0.008278 -0.004425 0.000000 0.002293 0.000000
# 2 -0.008278 0.018409 -0.005220 0.000000 -0.005910 0.000000
# 3 -0.004425 -0.005220 0.013796 0.000000 -0.002629 0.000000
# 4 0.000000 0.000000 0.000000 0.055065 0.000000 -0.002903
# 5 0.002293 -0.005910 -0.002629 0.000000 0.043375 0.000000
# 6 0.000000 0.000000 0.000000 -0.002903 0.000000 0.056650
#
#
# Mechanical properties :
#
#
# Convention : Reuss Voigt Hill
#
# Bulk Modulus (GPa) = 39.26719 47.77506 43.52112
# Shear Modulus (GPa) = 19.17617 20.91210 20.04413
#
# Velocity S-wave (km/s) = 3.44280 3.59526 3.51986
# Velocity P-wave (km/s) = 6.33049 6.83846 6.58937
#
# Compressibility (1/GPa) = 0.02546656
#
# Stress axis : x y z
#
# Youngs Moduli (GPa) = 34.35413 54.32121 72.48425
#
# Poissons Ratio (x) = 0.44968 0.32073
# Poissons Ratio (y) = 0.28439 0.37840
# Poissons Ratio (z) = 0.15201 0.28358
#
# Static dielectric constant tensor:
#      x y z
#    x 3.015440 0.000000 0.035510 
#    y 0.000000 3.043350 0.000000 
#    z 0.035510 0.000000 3.158760 
# 
# 
# High freq. dielectric constant tensor:
#      x y z
#    x 1.613570 0.000000 -0.003080 
#    y 0.000000 1.596910 0.000000 
#    z -0.003080 0.000000 1.629290 
# 
# From -- ./inp_files/90410.got.cif
#   From: 2010.06.25/outbox.cif.g09.slc.cpg/sg12_46_cif.got.tgz:90410.got - 2010.06.28 00:19:55.
