data_PCOD8090874
_publ_section_title
;
Structure prediction by ZEFSAII (Michael W. Deem and Ramdas Pophale) SiO2 
 PCOD8090874
Probable space group: C 2/M
;
_chemical_formula_sum "Si O2"
_cell_formula_units_Z 56
_cell_length_a 30.276907
_cell_length_b 13.425157
_cell_length_c 9.198778
_cell_angle_alpha 90.000000
_cell_angle_beta 64.769669
_cell_angle_gamma 90.000000
_cell_volume 3382.348361
_symmetry_space_group_name_H-M "C 2/M"
_symmetry_group_IT_number 12
_symmetry_cell_setting 'monoclinic'
loop_
_space_group_symop_operation_xyz
x,y,z
-x,y,-z
-x,-y,-z
x,-y,z
1/2+x,1/2+y,z
1/2-x,1/2+y,-z
1/2-x,1/2-y,-z
1/2+x,1/2-y,z
loop_
_atom_site_type_symbol
_atom_site_label
_atom_site_fract_x
_atom_site_fract_y
_atom_site_fract_z
Si Si1 0.449784 0.884490 0.487619
Si Si2 0.638966 0.200587 0.217007
Si Si3 0.045913 0.382242 0.847323
Si Si4 0.693726 0.612246 0.212382
Si Si5 0.738532 0.215347 0.676187
Si Si6 0.140003 0.617728 0.897174
Si Si7 0.260296 0.888640 0.847542
O O1 0.500000 0.867945 0.500000
O O2 0.409517 0.820822 0.626291
O O3 0.454613 0.842542 0.317099
O O4 0.434197 0.000000 0.510829
O O5 0.649823 0.318442 0.217608
O O6 0.682761 0.137418 0.225999
O O7 0.631584 0.173559 0.060032
O O8 0.040385 0.500000 0.851731
O O9 0.096029 0.350191 0.853674
O O10 0.000000 0.336203 0.000000
O O11 0.673624 0.500000 0.253715
O O12 0.715418 0.649579 0.335140
O O13 0.739433 0.620225 0.038870
O O14 0.750000 0.250000 0.500000
O O15 0.689626 0.150090 0.748575
O O16 0.731182 0.313419 0.785121
O O17 0.140926 0.500000 0.925330
O O18 0.253791 0.000000 0.794468
#
# Coordination Sequence:
#
# PCOD8090874 Si02
#       7
#     8   8   8   8   8   8   8
#     4  10  20  33  52  79 106 133 171 216 259 309
#     4  11  19  33  54  78 100 134 177 213 258 308
#     4   9  19  33  48  71 104 138 165 200 254 311
#     4  10  20  37  55  73 104 141 180 219 254 303
#     4  11  22  33  48  75 107 140 176 213 256 311
#     4  11  20  32  51  74 106 140 171 208 259 311
#     4  10  19  34  53  73 102 139 178 213 249 302
#
# _framework density 16.556543000000001
#
# number of rings (size 3 to 8) (size 9 to 14) (size 15 to 20)
#    0.000    1.714    2.857    3.429    4.000    3.429 
#    0.000    0.000    0.000    0.429    0.000    0.000 
#    0.000    2.857    0.000    0.000    0.000    0.000 
#
# Total GULP energy -347267.779156 kJ/mol
# GULP energy per Si atom -12402.420684 kJ/mol
# Density = 1.651886 g / cm^3
# Si number density = 16.556543 Si / 1000 Ang^3
#
#
#
# Elastic Constant Matrix: (Units=GPa)
#
#
# Indices 1 2 3 4 5 6 
#
# 1 98.7933 44.2181 50.0953 0.0000 9.4234 0.0000
# 2 44.2181 106.3110 36.8539 0.0000 3.6164 0.0000
# 3 50.0953 36.8539 114.6033 0.0000 8.1002 0.0000
# 4 0.0000 0.0000 0.0000 19.7415 0.0000 -0.5249
# 5 9.4234 3.6164 8.1002 0.0000 31.8201 0.0000
# 6 0.0000 0.0000 0.0000 -0.5249 0.0000 20.5882
#
#
#
# Elastic Compliance Matrix: (Units=1/GPa)
#
#
# Indices 1 2 3 4 5 6 
#
# 1 0.014807 -0.004378 -0.004878 0.000000 -0.002646 0.000000
# 2 -0.004378 0.011885 -0.001939 0.000000 0.000439 0.000000
# 3 -0.004878 -0.001939 0.011572 0.000000 -0.001281 0.000000
# 4 0.000000 0.000000 0.000000 0.050689 0.000000 0.001292
# 5 -0.002646 0.000439 -0.001281 0.000000 0.032486 0.000000
# 6 0.000000 0.000000 0.000000 0.001292 0.000000 0.048605
#
#
# Mechanical properties :
#
#
# Convention : Reuss Voigt Hill
#
# Bulk Modulus (GPa) = 62.99500 64.67134 63.83317
# Shear Modulus (GPa) = 25.28765 26.99932 26.14349
#
# Velocity S-wave (km/s) = 3.91237 4.04262 3.97803
# Velocity P-wave (km/s) = 7.65114 7.80615 7.72903
#
# Compressibility (1/GPa) = 0.01587427
#
# Stress axis : x y z
#
# Youngs Moduli (GPa) = 67.53404 84.14266 86.41520
#
# Poissons Ratio (x) = 0.36837 0.42151
# Poissons Ratio (y) = 0.29566 0.16758
# Poissons Ratio (z) = 0.32941 0.16317
#
# Static dielectric constant tensor:
#      x y z
#    x 3.146860 0.000000 0.086480 
#    y 0.000000 3.098570 0.000000 
#    z 0.086480 0.000000 3.179650 
# 
# 
# High freq. dielectric constant tensor:
#      x y z
#    x 1.635010 0.000000 0.008580 
#    y 0.000000 1.614390 0.000000 
#    z 0.008580 0.000000 1.640180 
# 
# From -- ./inp_files/104102.got.cif
#   From: 2010.06.25/outbox.cif.g09.slc.cpg/sg12_53_cif.got.tgz:104102.got - 2010.06.28 00:19:55.
