data_PCOD8090367
_publ_section_title
;
Structure prediction by ZEFSAII (Michael W. Deem and Ramdas Pophale) SiO2 
 PCOD8090367
Probable space group: C 2/M
;
_chemical_formula_sum "Si O2"
_cell_formula_units_Z 64
_cell_length_a 29.731628
_cell_length_b 8.888522
_cell_length_c 19.718273
_cell_angle_alpha 90.000000
_cell_angle_beta 142.630242
_cell_angle_gamma 90.000000
_cell_volume 3162.821225
_symmetry_space_group_name_H-M "C 2/M"
_symmetry_group_IT_number 12
_symmetry_cell_setting 'monoclinic'
loop_
_space_group_symop_operation_xyz
x,y,z
-x,y,-z
-x,-y,-z
x,-y,z
1/2+x,1/2+y,z
1/2-x,1/2+y,-z
1/2-x,1/2-y,-z
1/2+x,1/2-y,z
loop_
_atom_site_type_symbol
_atom_site_label
_atom_site_fract_x
_atom_site_fract_y
_atom_site_fract_z
Si Si1 0.864317 0.329611 0.204597
Si Si2 0.104370 0.671412 0.907936
Si Si3 0.629264 0.323117 0.479823
Si Si4 0.271330 0.676319 0.865223
Si Si5 0.995695 0.822351 0.570504
Si Si6 0.272323 0.823332 0.728018
Si Si7 0.566323 0.822331 0.128219
Si Si8 0.953275 0.822260 0.749672
O O1 0.885937 0.500000 0.251224
O O2 0.849629 0.318516 0.106688
O O3 0.790633 0.277881 0.154715
O O4 0.929631 0.217466 0.301235
O O5 0.082529 0.500000 0.899763
O O6 0.031524 0.771504 0.813324
O O7 0.153568 0.735616 0.027697
O O8 0.616680 0.500000 0.465787
O O9 0.574192 0.254272 0.471340
O O10 0.714494 0.281332 0.598652
O O11 0.608374 0.266284 0.379043
O O12 0.287633 0.500000 0.885058
O O13 0.244928 0.730837 0.760148
O O14 0.000000 0.752087 0.500000
O O15 0.988180 0.000000 0.556512
O O16 0.354737 0.771289 0.807109
O O17 0.269183 0.000000 0.740758
O O18 0.560479 0.752878 0.195016
O O19 0.561586 0.000000 0.130142
O O20 0.500000 0.763445 0.000000
O O21 0.952105 0.000000 0.757967
#
# Coordination Sequence:
#
# PCOD8090367 Si02
#       8
#     8   8   8   8   8   8   8   8
#     4  10  22  37  54  82 118 154 195 244 296 351
#     4  11  22  38  59  84 116 157 202 241 293 360
#     4   9  19  36  57  86 119 154 199 245 293 346
#     4  11  23  38  57  86 121 154 194 247 301 349
#     4  10  19  33  56  82 113 157 206 247 287 346
#     4  10  21  40  63  85 117 159 199 241 292 354
#     4  10  22  40  62  89 119 152 196 247 299 361
#     4  11  22  38  62  89 120 155 194 250 304 351
#
# _framework density 20.235097
#
# number of rings (size 3 to 8) (size 9 to 14) (size 15 to 20)
#    0.000    1.750    1.250    3.000    0.000    5.000 
#    0.000    1.875    0.000    0.000    0.000    0.000 
#    0.000    0.000    0.000    0.000    0.000    0.000 
#
# Total GULP energy -396846.424405 kJ/mol
# GULP energy per Si atom -12401.450763 kJ/mol
# Density = 2.018904 g / cm^3
# Si number density = 20.235097 Si / 1000 Ang^3
#
#
#
# Elastic Constant Matrix: (Units=GPa)
#
#
# Indices 1 2 3 4 5 6 
#
# 1 112.1324 24.8000 56.3566 0.0000 -10.7169 0.0000
# 2 24.8000 11.7781 19.9546 0.0000 -4.8968 0.0000
# 3 56.3566 19.9546 150.1196 0.0000 -3.7899 0.0000
# 4 0.0000 0.0000 0.0000 26.0241 0.0000 -2.8679
# 5 -10.7169 -4.8968 -3.7899 0.0000 37.0897 0.0000
# 6 0.0000 0.0000 0.0000 -2.8679 0.0000 27.4331
#
#
#
# Elastic Compliance Matrix: (Units=1/GPa)
#
#
# Indices 1 2 3 4 5 6 
#
# 1 0.017206 -0.032407 -0.002140 0.000000 0.000474 0.000000
# 2 -0.032407 0.177263 -0.011071 0.000000 0.012908 0.000000
# 3 -0.002140 -0.011071 0.008907 0.000000 -0.001170 0.000000
# 4 0.000000 0.000000 0.000000 0.038874 0.000000 0.004064
# 5 0.000474 0.012908 -0.001170 0.000000 0.028683 0.000000
# 6 0.000000 0.000000 0.000000 0.004064 0.000000 0.036877
#
#
# Mechanical properties :
#
#
# Convention : Reuss Voigt Hill
#
# Bulk Modulus (GPa) = 8.91737 52.91694 30.91716
# Shear Modulus (GPa) = 11.45672 29.63730 20.54701
#
# Velocity S-wave (km/s) = 2.38204 3.83122 3.19001
# Velocity P-wave (km/s) = 3.46149 6.76601 5.37405
#
# Compressibility (1/GPa) = 0.11214065
#
# Stress axis : x y z
#
# Youngs Moduli (GPa) = 58.11886 5.64135 112.27534
#
# Poissons Ratio (x) = 0.18282 0.24024
# Poissons Ratio (y) = 1.88345 1.24298
# Poissons Ratio (z) = 0.12436 0.06245
#
# Static dielectric constant tensor:
#      x y z
#    x 3.774540 0.000000 -0.056380 
#    y 0.000000 3.448860 0.000000 
#    z -0.056380 0.000000 3.810010 
# 
# 
# High freq. dielectric constant tensor:
#      x y z
#    x 1.793770 0.000000 -0.005490 
#    y 0.000000 1.770380 0.000000 
#    z -0.005490 0.000000 1.800970 
# 
# From -- ./inp_files/295619.got.cif
#   From: 2010.06.25/outbox.cif.g09.slc.cpg/sg12_148_cif.got.tgz:295619.got - 2010.06.28 00:19:55.
