data_PCOD8090040
_publ_section_title
;
Structure prediction by ZEFSAII (Michael W. Deem and Ramdas Pophale) SiO2 
 PCOD8090040
Probable space group: C 2/M
;
_chemical_formula_sum "Si O2"
_cell_formula_units_Z 48
_cell_length_a 18.230937
_cell_length_b 8.744761
_cell_length_c 20.896148
_cell_angle_alpha 90.000000
_cell_angle_beta 130.764248
_cell_angle_gamma 90.000000
_cell_volume 2523.190162
_symmetry_space_group_name_H-M "C 2/M"
_symmetry_group_IT_number 12
_symmetry_cell_setting 'monoclinic'
loop_
_space_group_symop_operation_xyz
x,y,z
-x,y,-z
-x,-y,-z
x,-y,z
1/2+x,1/2+y,z
1/2-x,1/2+y,-z
1/2-x,1/2-y,-z
1/2+x,1/2-y,z
loop_
_atom_site_type_symbol
_atom_site_label
_atom_site_fract_x
_atom_site_fract_y
_atom_site_fract_z
Si Si1 0.851305 0.321393 0.576107
Si Si2 0.482038 0.319925 0.093460
Si Si3 0.986505 0.179387 0.419381
Si Si4 0.215320 0.680933 0.730806
Si Si5 0.645179 0.320827 0.085818
Si Si6 0.880540 0.321205 0.738906
O O1 0.841357 0.500000 0.561557
O O2 0.750000 0.250000 0.500000
O O3 0.934036 0.263260 0.576795
O O4 0.879333 0.277435 0.664055
O O5 0.480412 0.500000 0.108562
O O6 0.563862 0.271508 0.089571
O O7 0.511992 0.227567 0.174428
O O8 0.380993 0.261357 0.001569
O O9 0.000000 0.231888 0.500000
O O10 0.880745 0.224608 0.335405
O O11 0.001289 0.000000 0.420170
O O12 0.195680 0.500000 0.714520
O O13 0.251949 0.726605 0.824080
O O14 0.295859 0.725061 0.724545
O O15 0.639021 0.500000 0.075471
O O16 0.862023 0.500000 0.739945
#
# Coordination Sequence:
#
# PCOD8090040 Si02
#       6
#     8   8   8   8   8   8
#     4  11  24  40  58  79 105 138 174 214 259 310
#     4   8  13  25  46  71 101 138 176 211 253 304
#     4  11  24  40  57  79 107 135 168 216 266 311
#     4  10  19  33  55  80 107 141 178 214 257 310
#     4   7  12  24  44  72 103 134 172 215 253 295
#     4  10  20  33  50  78 112 139 171 218 263 301
#
# _framework density 19.023537000000001
#
# number of rings (size 3 to 8) (size 9 to 14) (size 15 to 20)
#    0.000    2.500    0.000    5.000    0.000    8.000 
#    0.000    7.500    0.000    1.000    0.000    0.000 
#    0.000    0.000    0.000    0.000    0.000    0.000 
#
# Total GULP energy -297328.052864 kJ/mol
# GULP energy per Si atom -12388.668869 kJ/mol
# Density = 1.898024 g / cm^3
# Si number density = 19.023537 Si / 1000 Ang^3
#
#
#
# Elastic Constant Matrix: (Units=GPa)
#
#
# Indices 1 2 3 4 5 6 
#
# 1 81.6901 24.7064 78.5058 0.0000 -0.1093 0.0000
# 2 24.7064 45.6248 61.0916 0.0000 -8.9564 0.0000
# 3 78.5058 61.0916 233.8921 0.0000 3.2180 0.0000
# 4 0.0000 0.0000 0.0000 23.5259 0.0000 -6.9452
# 5 -0.1093 -8.9564 3.2180 0.0000 25.0908 0.0000
# 6 0.0000 0.0000 0.0000 -6.9452 0.0000 19.3605
#
#
#
# Elastic Compliance Matrix: (Units=1/GPa)
#
#
# Indices 1 2 3 4 5 6 
#
# 1 0.018267 -0.002641 -0.005439 0.000000 -0.000166 0.000000
# 2 -0.002641 0.039088 -0.009532 0.000000 0.015164 0.000000
# 3 -0.005439 -0.009532 0.008653 0.000000 -0.004536 0.000000
# 4 0.000000 0.000000 0.000000 0.047541 0.000000 0.017054
# 5 -0.000166 0.015164 -0.004536 0.000000 0.045849 0.000000
# 6 0.000000 0.000000 0.000000 0.017054 0.000000 0.057769
#
#
# Mechanical properties :
#
#
# Convention : Reuss Voigt Hill
#
# Bulk Modulus (GPa) = 32.48462 76.64605 54.56533
# Shear Modulus (GPa) = 19.03652 26.72233 22.87943
#
# Velocity S-wave (km/s) = 3.16679 3.75200 3.47175
# Velocity P-wave (km/s) = 5.52128 7.69074 6.69448
#
# Compressibility (1/GPa) = 0.03078380
#
# Stress axis : x y z
#
# Youngs Moduli (GPa) = 54.74305 25.58347 115.56487
#
# Poissons Ratio (x) = 0.06757 0.62858
# Poissons Ratio (y) = 0.14460 1.10152
# Poissons Ratio (z) = 0.29776 0.24385
#
# Static dielectric constant tensor:
#      x y z
#    x 3.055360 0.000000 -0.068780 
#    y 0.000000 3.390750 0.000000 
#    z -0.068780 0.000000 4.327940 
# 
# 
# High freq. dielectric constant tensor:
#      x y z
#    x 1.689890 0.000000 -0.001450 
#    y 0.000000 1.730870 0.000000 
#    z -0.001450 0.000000 1.777310 
# 
# From -- ./inp_files/320317.got.cif
#   From: 2010.06.25/outbox.cif.g09.slc.cpg/sg12_161_cif.got.tgz:320317.got - 2010.06.28 00:19:55.
