data_PCOD8090333
_publ_section_title
;
Structure prediction by ZEFSAII (Michael W. Deem and Ramdas Pophale) SiO2 
 PCOD8090333
Probable space group: C 2/M
;
_chemical_formula_sum "Si O2"
_cell_formula_units_Z 56
_cell_length_a 31.157268
_cell_length_b 9.141859
_cell_length_c 20.024162
_cell_angle_alpha 90.000000
_cell_angle_beta 32.736310
_cell_angle_gamma 90.000000
_cell_volume 3084.349910
_symmetry_space_group_name_H-M "C 2/M"
_symmetry_group_IT_number 12
_symmetry_cell_setting 'monoclinic'
loop_
_space_group_symop_operation_xyz
x,y,z
-x,y,-z
-x,-y,-z
x,-y,z
1/2+x,1/2+y,z
1/2-x,1/2+y,-z
1/2-x,1/2-y,-z
1/2+x,1/2-y,z
loop_
_atom_site_type_symbol
_atom_site_label
_atom_site_fract_x
_atom_site_fract_y
_atom_site_fract_z
Si Si1 0.798459 0.669366 0.028789
Si Si2 0.094687 0.665269 0.872651
Si Si3 0.232804 0.671297 0.592979
Si Si4 0.633771 0.330165 0.180437
Si Si5 0.828362 0.664797 0.580033
Si Si6 0.491534 0.828207 0.434265
Si Si7 0.683834 0.663573 0.862729
O O1 0.818477 0.500000 0.993682
O O2 0.706742 0.703908 0.134129
O O3 0.820152 0.719260 0.073835
O O4 0.853734 0.760203 0.907727
O O5 0.119051 0.500000 0.861808
O O6 0.142108 0.698479 0.740172
O O7 0.121092 0.786702 0.890077
O O8 0.000000 0.679200 0.000000
O O9 0.247914 0.500000 0.562391
O O10 0.250000 0.750000 0.500000
O O11 0.297205 0.729708 0.562291
O O12 0.620318 0.500000 0.187680
O O13 0.556919 0.259453 0.310286
O O14 0.836226 0.500000 0.540461
O O15 0.910105 0.720821 0.505378
O O16 0.770830 0.665193 0.718389
O O17 0.500000 0.780568 0.500000
O O18 0.505703 0.000000 0.408215
O O19 0.662073 0.500000 0.915973
#
# Coordination Sequence:
#
# PCOD8090333 Si02
#       7
#     8   8   8   8   8   8   8
#     4  10  20  35  54  75 103 142 180 217 268 324
#     4   9  19  37  58  81 109 142 182 225 273 333
#     4  10  20  36  59  83 109 145 186 231 282 337
#     4  10  21  35  52  76 106 138 179 227 269 312
#     4   9  19  35  55  80 110 144 182 221 266 326
#     4  10  20  35  55  79 109 146 183 219 267 324
#     4  10  19  33  56  82 107 137 176 223 267 314
#
# _framework density 18.156177
#
# number of rings (size 3 to 8) (size 9 to 14) (size 15 to 20)
#    0.000    2.286    0.000    2.571    0.000    5.143 
#    2.571    0.000    0.000    0.000    0.000    0.000 
#    0.000    0.000    0.000    0.000    0.000    0.000 
#
# Total GULP energy -347069.763796 kJ/mol
# GULP energy per Si atom -12395.348707 kJ/mol
# Density = 1.811485 g / cm^3
# Si number density = 18.156177 Si / 1000 Ang^3
#
#
#
# Elastic Constant Matrix: (Units=GPa)
#
#
# Indices 1 2 3 4 5 6 
#
# 1 94.4157 50.5370 69.5757 -0.0004 7.2802 -0.0002
# 2 50.5370 76.8211 62.8966 -0.0046 4.9389 0.0025
# 3 69.5757 62.8966 124.4571 -0.0013 -9.3855 0.0016
# 4 -0.0004 -0.0046 -0.0013 33.9183 0.0029 5.2725
# 5 7.2802 4.9389 -9.3855 0.0029 26.3817 -0.0013
# 6 -0.0002 0.0025 0.0016 5.2725 -0.0013 32.2632
#
#
#
# Elastic Compliance Matrix: (Units=1/GPa)
#
#
# Indices 1 2 3 4 5 6 
#
# 1 0.021429 -0.005515 -0.009824 0.000000 -0.008376 0.000001
# 2 -0.005515 0.025584 -0.010370 0.000004 -0.006957 -0.000002
# 3 -0.009824 -0.010370 0.019645 -0.000002 0.011641 0.000001
# 4 0.000000 0.000004 -0.000002 0.030251 -0.000005 -0.004944
# 5 -0.008376 -0.006957 0.011641 -0.000005 0.045660 0.000002
# 6 0.000001 -0.000002 0.000001 -0.004944 0.000002 0.031803
#
#
# Mechanical properties :
#
#
# Convention : Reuss Voigt Hill
#
# Bulk Modulus (GPa) = 65.62263 73.52361 69.57312
# Shear Modulus (GPa) = 21.65719 26.02495 23.84107
#
# Velocity S-wave (km/s) = 3.45748 3.79013 3.62762
# Velocity P-wave (km/s) = 7.22224 7.72893 7.47988
#
# Compressibility (1/GPa) = 0.01523865
#
# Stress axis : x y z
#
# Youngs Moduli (GPa) = 46.66668 39.08768 50.90242
#
# Poissons Ratio (x) = 0.21558 0.50005
# Poissons Ratio (y) = 0.25738 0.52788
# Poissons Ratio (z) = 0.45844 0.40536
#
# Static dielectric constant tensor:
#      x y z
#    x 3.088530 -0.000020 -0.260650 
#    y -0.000020 3.495200 0.000010 
#    z -0.260650 0.000010 3.139760 
# 
# 
# High freq. dielectric constant tensor:
#      x y z
#    x 1.694950 0.000000 0.002930 
#    y 0.000000 1.714740 0.000000 
#    z 0.002930 0.000000 1.705250 
# 
# From -- ./inp_files/281617.got.cif
#   From: 2010.06.25/outbox.cif.g09.slc.cpg/sg12_141_cif.got.tgz:281617.got - 2010.06.28 00:19:55.
