data_PCOD8090226
_publ_section_title
;
Structure prediction by ZEFSAII (Michael W. Deem and Ramdas Pophale) SiO2 
 PCOD8090226
Probable space group: C 2/M
;
_chemical_formula_sum "Si O2"
_cell_formula_units_Z 56
_cell_length_a 15.839212
_cell_length_b 16.926998
_cell_length_c 21.349336
_cell_angle_alpha 90.000000
_cell_angle_beta 30.113013
_cell_angle_gamma 90.000000
_cell_volume 2871.760617
_symmetry_space_group_name_H-M "C 2/M"
_symmetry_group_IT_number 12
_symmetry_cell_setting 'monoclinic'
loop_
_space_group_symop_operation_xyz
x,y,z
-x,y,-z
-x,-y,-z
x,-y,z
1/2+x,1/2+y,z
1/2-x,1/2+y,-z
1/2-x,1/2-y,-z
1/2+x,1/2-y,z
loop_
_atom_site_type_symbol
_atom_site_label
_atom_site_fract_x
_atom_site_fract_y
_atom_site_fract_z
Si Si1 0.226335 0.089017 0.471333
Si Si2 0.398298 0.091275 0.737687
Si Si3 0.516564 0.245636 0.836559
Si Si4 0.797967 0.411115 0.284398
Si Si5 0.406551 0.673942 0.685027
Si Si6 0.236225 0.262226 0.110117
Si Si7 0.635404 0.825081 0.362890
O O1 0.408860 0.118447 0.376107
O O2 0.200361 0.096519 0.413029
O O3 0.084751 0.141952 0.596302
O O4 0.201254 0.000000 0.510485
O O5 0.289615 0.147126 0.852551
O O6 0.342948 0.104501 0.701285
O O7 0.370123 0.000000 0.774870
O O8 0.552238 0.152066 0.811484
O O9 0.396764 0.267725 0.856110
O O10 0.683713 0.299700 0.724757
O O11 0.424450 0.260304 0.961981
O O12 0.871838 0.500000 0.230577
O O13 0.676814 0.394726 0.303324
O O14 0.282456 0.700953 0.820391
O O15 0.447715 0.749387 0.616288
O O16 0.500000 0.855771 0.500000
#
# Coordination Sequence:
#
# PCOD8090226 Si02
#       7
#     8   8   8   8   8   8   8
#     4  10  19  33  55  84 118 149 186 231 279 337
#     4  10  22  38  59  83 109 150 192 236 283 330
#     4  10  21  40  58  84 113 150 193 231 279 326
#     4  10  19  34  58  83 114 148 180 229 287 339
#     4  10  20  32  54  87 114 147 186 227 279 336
#     4  10  22  38  61  81 112 152 192 235 271 336
#     4  10  22  35  58  87 116 144 183 236 285 336
#
# _framework density 19.500232
#
# number of rings (size 3 to 8) (size 9 to 14) (size 15 to 20)
#    0.000    2.000    1.429    2.571    2.000    7.714 
#    0.000    3.571    0.000    2.571    0.000    0.000 
#    0.000    0.000    0.000    0.000    0.000    0.000 
#
# Total GULP energy -347158.302162 kJ/mol
# GULP energy per Si atom -12398.510791 kJ/mol
# Density = 1.945585 g / cm^3
# Si number density = 19.500232 Si / 1000 Ang^3
#
#
#
# Elastic Constant Matrix: (Units=GPa)
#
#
# Indices 1 2 3 4 5 6 
#
# 1 61.7058 14.2018 16.8937 -0.0186 5.8102 0.0008
# 2 14.2018 63.6973 23.8027 -0.0451 0.5387 0.0027
# 3 16.8937 23.8027 97.6229 -0.0528 6.1308 0.0045
# 4 -0.0186 -0.0451 -0.0528 19.8412 0.0067 -0.2171
# 5 5.8102 0.5387 6.1308 0.0067 28.8104 0.0006
# 6 0.0008 0.0027 0.0045 -0.2171 0.0006 24.1694
#
#
#
# Elastic Compliance Matrix: (Units=1/GPa)
#
#
# Indices 1 2 3 4 5 6 
#
# 1 0.017801 -0.003151 -0.002119 0.000005 -0.003080 0.000000
# 2 -0.003151 0.017840 -0.003875 0.000027 0.001127 -0.000001
# 3 -0.002119 -0.003875 0.011680 0.000021 -0.001986 -0.000001
# 4 0.000005 0.000027 0.000021 0.050405 -0.000018 0.000453
# 5 -0.003080 0.001127 -0.001986 -0.000018 0.035732 -0.000001
# 6 0.000000 -0.000001 -0.000001 0.000453 -0.000001 0.041379
#
#
# Mechanical properties :
#
#
# Convention : Reuss Voigt Hill
#
# Bulk Modulus (GPa) = 34.44591 36.98027 35.71309
# Shear Modulus (GPa) = 24.65418 25.77271 25.21345
#
# Velocity S-wave (km/s) = 3.55956 3.63941 3.59971
# Velocity P-wave (km/s) = 5.88189 6.05521 5.96918
#
# Compressibility (1/GPa) = 0.02903102
#
# Stress axis : x y z
#
# Youngs Moduli (GPa) = 56.17579 56.05238 85.61817
#
# Poissons Ratio (x) = 0.17663 0.18140
# Poissons Ratio (y) = 0.17702 0.33180
# Poissons Ratio (z) = 0.11902 0.21722
#
# Static dielectric constant tensor:
#      x y z
#    x 3.693020 -0.000010 0.006080 
#    y -0.000010 3.460480 0.000040 
#    z 0.006080 0.000040 3.395880 
# 
# 
# High freq. dielectric constant tensor:
#      x y z
#    x 1.762720 0.000000 -0.002490 
#    y 0.000000 1.748290 0.000000 
#    z -0.002490 0.000000 1.744680 
# 
# From -- ./inp_files/177159.got.cif
#   From: 2010.06.25/outbox.cif.g09.slc.cpg/sg12_89_cif.got.tgz:177159.got - 2010.06.28 00:19:55.
