data_PCOD8090361
_publ_section_title
;
Structure prediction by ZEFSAII (Michael W. Deem and Ramdas Pophale) SiO2 
 PCOD8090361
Probable space group: C 2/M
;
_chemical_formula_sum "Si O2"
_cell_formula_units_Z 52
_cell_length_a 19.274090
_cell_length_b 13.323826
_cell_length_c 12.586519
_cell_angle_alpha 90.000000
_cell_angle_beta 59.245242
_cell_angle_gamma 90.000000
_cell_volume 2777.701681
_symmetry_space_group_name_H-M "C 2/M"
_symmetry_group_IT_number 12
_symmetry_cell_setting 'monoclinic'
loop_
_space_group_symop_operation_xyz
x,y,z
-x,y,-z
-x,-y,-z
x,-y,z
1/2+x,1/2+y,z
1/2-x,1/2+y,-z
1/2-x,1/2-y,-z
1/2+x,1/2-y,z
loop_
_atom_site_type_symbol
_atom_site_label
_atom_site_fract_x
_atom_site_fract_y
_atom_site_fract_z
Si Si1 0.000000 0.266979 0.000000
Si Si2 0.874491 0.111308 0.147710
Si Si3 0.351314 0.218903 0.801931
Si Si4 0.673482 0.117071 0.614597
Si Si5 0.227056 0.713623 0.360573
Si Si6 0.486699 0.884060 0.810151
Si Si7 0.297593 0.388643 0.982289
O O1 0.059061 0.196165 0.885039
O O2 0.956954 0.337922 0.946395
O O3 0.797709 0.134914 0.280257
O O4 0.906239 0.000000 0.153862
O O5 0.854323 0.115262 0.039810
O O6 0.333568 0.220924 0.690890
O O7 0.440688 0.173894 0.750907
O O8 0.342926 0.331444 0.851996
O O9 0.290099 0.152892 0.919609
O O10 0.735375 0.176735 0.643050
O O11 0.676529 0.167483 0.496486
O O12 0.582573 0.129530 0.726473
O O13 0.698771 0.000000 0.592186
O O14 0.461917 0.000000 0.825241
O O15 0.284867 0.500000 0.949347
#
# Coordination Sequence:
#
# PCOD8090361 Si02
#       7
#     4   8   8   8   8   8   8
#     4  12  20  36  52  86 118 150 186 228 288 342
#     4  10  19  33  56  82 110 146 187 232 279 334
#     4  10  20  35  54  83 118 151 188 238 286 340
#     4  10  22  40  61  84 110 151 198 240 289 341
#     4  10  21  39  60  83 112 147 196 245 283 335
#     4  11  23  37  57  85 119 153 188 235 291 345
#     4   9  18  32  52  80 113 149 188 228 279 340
#
# _framework density 18.720511999999999
#
# number of rings (size 3 to 8) (size 9 to 14) (size 15 to 20)
#    0.000    1.846    3.077    1.385    0.000    3.077 
#    0.000    1.538    0.000    0.000    0.000    3.231 
#    0.000    0.000    0.000    0.000    0.000    0.000 
#
# Total GULP energy -322394.084944 kJ/mol
# GULP energy per Si atom -12399.772498 kJ/mol
# Density = 1.867790 g / cm^3
# Si number density = 18.720512 Si / 1000 Ang^3
#
#
#
# Elastic Constant Matrix: (Units=GPa)
#
#
# Indices 1 2 3 4 5 6 
#
# 1 78.7948 40.0197 18.9213 0.0000 16.3103 0.0000
# 2 40.0197 143.3616 36.7616 0.0000 10.1165 0.0000
# 3 18.9213 36.7616 61.0381 0.0000 14.5966 0.0000
# 4 0.0000 0.0000 0.0000 24.9543 0.0000 -4.1143
# 5 16.3103 10.1165 14.5966 0.0000 25.2312 0.0000
# 6 0.0000 0.0000 0.0000 -4.1143 0.0000 26.1995
#
#
#
# Elastic Compliance Matrix: (Units=1/GPa)
#
#
# Indices 1 2 3 4 5 6 
#
# 1 0.016636 -0.003832 -0.000748 0.000000 -0.008784 0.000000
# 2 -0.003832 0.009138 -0.004679 0.000000 0.001520 0.000000
# 3 -0.000748 -0.004679 0.021898 0.000000 -0.010309 0.000000
# 4 0.000000 0.000000 0.000000 0.041138 0.000000 0.006460
# 5 -0.008784 0.001520 -0.010309 0.000000 0.050666 0.000000
# 6 0.000000 0.000000 0.000000 0.006460 0.000000 0.039183
#
#
# Mechanical properties :
#
#
# Convention : Reuss Voigt Hill
#
# Bulk Modulus (GPa) = 34.30177 52.73329 43.51753
# Shear Modulus (GPa) = 24.16676 27.77646 25.97161
#
# Velocity S-wave (km/s) = 3.59684 3.85612 3.72873
# Velocity P-wave (km/s) = 5.96763 6.93225 6.46795
#
# Compressibility (1/GPa) = 0.02915301
#
# Stress axis : x y z
#
# Youngs Moduli (GPa) = 60.11225 109.43751 45.66540
#
# Poissons Ratio (x) = 0.41937 0.03417
# Poissons Ratio (y) = 0.23036 0.21367
# Poissons Ratio (z) = 0.04498 0.51206
#
# Static dielectric constant tensor:
#      x y z
#    x 3.285640 0.000000 0.032140 
#    y 0.000000 3.692250 0.000000 
#    z 0.032140 0.000000 3.240560 
# 
# 
# High freq. dielectric constant tensor:
#      x y z
#    x 1.716290 0.000000 0.002860 
#    y 0.000000 1.742860 0.000000 
#    z 0.002860 0.000000 1.710610 
# 
# From -- ./inp_files/165545.got.cif
#   From: 2010.06.25/outbox.cif.g09.slc.cpg/sg12_83_cif.got.tgz:165545.got - 2010.06.28 00:19:55.
