data_PCOD8090488
_publ_section_title
;
Structure prediction by ZEFSAII (Michael W. Deem and Ramdas Pophale) SiO2 
 PCOD8090488
Probable space group: C 2/M
;
_chemical_formula_sum "Si O2"
_cell_formula_units_Z 48
_cell_length_a 10.999219
_cell_length_b 14.804704
_cell_length_c 25.141844
_cell_angle_alpha 90.000000
_cell_angle_beta 151.349027
_cell_angle_gamma 90.000000
_cell_volume 1963.010609
_symmetry_space_group_name_H-M "C 2/M"
_symmetry_group_IT_number 12
_symmetry_cell_setting 'monoclinic'
loop_
_space_group_symop_operation_xyz
x,y,z
-x,y,-z
-x,-y,-z
x,-y,z
1/2+x,1/2+y,z
1/2-x,1/2+y,-z
1/2-x,1/2-y,-z
1/2+x,1/2-y,z
loop_
_atom_site_type_symbol
_atom_site_label
_atom_site_fract_x
_atom_site_fract_y
_atom_site_fract_z
Si Si1 0.112066 0.102671 0.927280
Si Si2 0.586839 0.599927 0.800624
Si Si3 0.824891 0.835595 0.475221
Si Si4 0.699181 0.100047 0.893589
Si Si5 0.019356 0.356630 0.567803
Si Si6 0.863546 0.283752 0.226555
O O1 0.223359 0.110613 0.910635
O O2 0.882191 0.171365 0.843615
O O3 0.013263 0.000000 0.899911
O O4 0.332062 0.125343 0.055443
O O5 0.647892 0.500000 0.800760
O O6 0.689086 0.676905 0.800847
O O7 0.283833 0.610014 0.693398
O O8 0.003156 0.752596 0.563116
O O9 0.712449 0.892268 0.482423
O O10 0.587890 0.791919 0.354153
O O11 0.000000 0.892658 0.500000
O O12 0.561218 0.170978 0.801695
O O13 0.589949 0.000000 0.839625
O O14 0.000000 0.103621 0.000000
O O15 0.000000 0.394541 0.500000
#
# Coordination Sequence:
#
# PCOD8090488 Si02
#       6
#     8   8   8   8   8   8
#     4   9  19  37  61  88 115 146 196 252 302 363
#     4  11  22  35  56  87 116 157 207 246 287 360
#     4  10  19  33  56  89 117 154 195 258 310 350
#     4   8  16  32  58  87 113 145 192 247 303 367
#     4  10  19  36  55  81 114 162 206 247 291 358
#     4  11  18  33  58  84 115 154 193 250 301 353
#
# _framework density 24.452237
#
# number of rings (size 3 to 8) (size 9 to 14) (size 15 to 20)
#    0.000    2.167    5.000    1.500    0.000    1.000 
#    0.000    0.000    0.000   11.000    0.000    0.000 
#    0.000    0.000    0.000    0.000    0.000    0.000 
#
# Total GULP energy -297321.367497 kJ/mol
# GULP energy per Si atom -12388.390312 kJ/mol
# Density = 2.439658 g / cm^3
# Si number density = 24.452237 Si / 1000 Ang^3
#
#
#
# Elastic Constant Matrix: (Units=GPa)
#
#
# Indices 1 2 3 4 5 6 
#
# 1 134.4318 24.0266 20.8621 -0.0004 -11.9588 0.0002
# 2 24.0266 117.5711 26.8869 0.0006 -4.6259 -0.0002
# 3 20.8621 26.8869 39.8343 -0.0019 -29.0188 0.0008
# 4 -0.0004 0.0006 -0.0019 12.4674 -0.0005 4.8730
# 5 -11.9588 -4.6259 -29.0188 -0.0005 39.2759 0.0003
# 6 0.0002 -0.0002 0.0008 4.8730 0.0003 13.3597
#
#
#
# Elastic Compliance Matrix: (Units=1/GPa)
#
#
# Indices 1 2 3 4 5 6 
#
# 1 0.008175 -0.000683 -0.004474 -0.000001 -0.000897 0.000000
# 2 -0.000683 0.011541 -0.014278 -0.000004 -0.009398 0.000003
# 3 -0.004474 -0.014278 0.075509 0.000019 0.052746 -0.000013
# 4 -0.000001 -0.000004 0.000019 0.093545 0.000015 -0.034121
# 5 -0.000897 -0.009398 0.052746 0.000015 0.063052 -0.000010
# 6 0.000000 0.000003 -0.000013 -0.034121 -0.000010 0.087297
#
#
# Mechanical properties :
#
#
# Convention : Reuss Voigt Hill
#
# Bulk Modulus (GPa) = 17.74476 48.37652 33.06064
# Shear Modulus (GPa) = 12.60162 27.69138 20.14650
#
# Velocity S-wave (km/s) = 2.27261 3.36887 2.87350
# Velocity P-wave (km/s) = 3.76284 5.91265 4.95572
#
# Compressibility (1/GPa) = 0.05635465
#
# Stress axis : x y z
#
# Youngs Moduli (GPa) = 122.31984 86.65120 13.24343
#
# Poissons Ratio (x) = 0.05917 0.05925
# Poissons Ratio (y) = 0.08352 0.18909
# Poissons Ratio (z) = 0.54726 1.23723
#
# Static dielectric constant tensor:
#      x y z
#    x 5.044600 0.000000 -0.475700 
#    y 0.000000 4.119400 0.000000 
#    z -0.475700 0.000000 4.332390 
# 
# 
# High freq. dielectric constant tensor:
#      x y z
#    x 1.974530 0.000000 -0.027450 
#    y 0.000000 1.941580 0.000000 
#    z -0.027450 0.000000 1.955720 
# 
# From -- ./inp_files/358500.got.cif
#   From: 2010.06.25/outbox.cif.g09.slc.cpg/sg12_180_cif.got.tgz:358500.got - 2010.06.28 00:19:55.
