data_PCOD8090255
_publ_section_title
;
Structure prediction by ZEFSAII (Michael W. Deem and Ramdas Pophale) SiO2 
 PCOD8090255
Probable space group: C 2/M
;
_chemical_formula_sum "Si O2"
_cell_formula_units_Z 44
_cell_length_a 20.368733
_cell_length_b 10.497749
_cell_length_c 11.287948
_cell_angle_alpha 90.000000
_cell_angle_beta 67.416831
_cell_angle_gamma 90.000000
_cell_volume 2228.583369
_symmetry_space_group_name_H-M "C 2/M"
_symmetry_group_IT_number 12
_symmetry_cell_setting 'monoclinic'
loop_
_space_group_symop_operation_xyz
x,y,z
-x,y,-z
-x,-y,-z
x,-y,z
1/2+x,1/2+y,z
1/2-x,1/2+y,-z
1/2-x,1/2-y,-z
1/2+x,1/2-y,z
loop_
_atom_site_type_symbol
_atom_site_label
_atom_site_fract_x
_atom_site_fract_y
_atom_site_fract_z
Si Si1 0.673609 0.761611 0.611973
Si Si2 0.409475 0.500000 0.325088
Si Si3 0.614142 0.500000 0.918044
Si Si4 0.645832 0.765263 0.148394
Si Si5 0.096626 0.500000 0.551693
Si Si6 0.569981 0.000000 0.304611
Si Si7 0.565830 0.500000 0.195131
Si Si8 0.797323 0.245300 0.140558
O O1 0.750000 0.750000 0.500000
O O2 0.633906 0.627402 0.612603
O O3 0.630276 0.873542 0.581876
O O4 0.680260 0.800887 0.746419
O O5 0.427705 0.500000 0.174257
O O6 0.490630 0.500000 0.319817
O O7 0.671517 0.607810 0.889949
O O8 0.554392 0.500000 0.060886
O O9 0.590340 0.872076 0.223009
O O10 0.609889 0.627504 0.192606
O O11 0.712477 0.760397 0.190822
O O12 0.669657 0.811998 0.999628
O O13 0.109706 0.500000 0.402763
O O14 0.013956 0.500000 0.633307
#
# Coordination Sequence:
#
# PCOD8090255 Si02
#       8
#     8   4   4   8   4   4   4   8
#     4  11  22  39  61  85 114 150 191 239 284 335
#     4  10  20  36  57  81 111 145 184 226 278 339
#     4   8  16  32  55  82 112 147 180 222 275 336
#     4  10  20  36  60  87 117 151 186 232 286 343
#     4  11  25  41  59  83 113 152 200 240 290 357
#     4  11  23  42  60  78 113 160 196 235 294 357
#     4  10  19  33  55  86 115 141 177 227 284 337
#     4   9  19  34  58  89 117 147 192 234 279 337
#
# _framework density 19.743483999999999
#
# number of rings (size 3 to 8) (size 9 to 14) (size 15 to 20)
#    0.000    2.000    0.000    3.545    0.000    5.091 
#    0.000    6.364    0.000    6.545    0.000    0.000 
#    0.000    0.000    0.000    0.000    0.000    0.000 
#
# Total GULP energy -272548.028111 kJ/mol
# GULP energy per Si atom -12388.546732 kJ/mol
# Density = 1.969855 g / cm^3
# Si number density = 19.743484 Si / 1000 Ang^3
#
#
#
# Elastic Constant Matrix: (Units=GPa)
#
#
# Indices 1 2 3 4 5 6 
#
# 1 93.2141 34.7980 43.6141 0.0000 -6.6488 0.0000
# 2 34.7980 117.0699 39.9912 0.0000 -4.3797 0.0000
# 3 43.6141 39.9912 94.5428 0.0000 -1.7355 0.0000
# 4 0.0000 0.0000 0.0000 34.1949 0.0000 -13.8896
# 5 -6.6488 -4.3797 -1.7355 0.0000 34.4191 0.0000
# 6 0.0000 0.0000 0.0000 -13.8896 0.0000 52.2665
#
#
#
# Elastic Compliance Matrix: (Units=1/GPa)
#
#
# Indices 1 2 3 4 5 6 
#
# 1 0.014364 -0.002265 -0.005628 0.000000 0.002203 0.000000
# 2 -0.002265 0.010380 -0.003333 0.000000 0.000715 0.000000
# 3 -0.005628 -0.003333 0.014569 0.000000 -0.000777 0.000000
# 4 0.000000 0.000000 0.000000 0.032783 0.000000 0.008712
# 5 0.002203 0.000715 -0.000777 0.000000 0.029531 0.000000
# 6 0.000000 0.000000 0.000000 0.008712 0.000000 0.021448
#
#
# Mechanical properties :
#
#
# Convention : Reuss Voigt Hill
#
# Bulk Modulus (GPa) = 59.30439 60.18150 59.74294
# Shear Modulus (GPa) = 33.08046 36.60431 34.84239
#
# Velocity S-wave (km/s) = 4.09774 4.31048 4.20545
# Velocity P-wave (km/s) = 7.24509 7.43784 7.34210
#
# Compressibility (1/GPa) = 0.01686216
#
# Stress axis : x y z
#
# Youngs Moduli (GPa) = 69.61971 96.33569 68.63862
#
# Poissons Ratio (x) = 0.21816 0.38629
# Poissons Ratio (y) = 0.15766 0.22877
# Poissons Ratio (z) = 0.39181 0.32109
#
# Static dielectric constant tensor:
#      x y z
#    x 3.636700 0.000000 0.179540 
#    y 0.000000 3.522070 0.000000 
#    z 0.179540 0.000000 3.797980 
# 
# 
# High freq. dielectric constant tensor:
#      x y z
#    x 1.777070 0.000000 -0.007960 
#    y 0.000000 1.770240 0.000000 
#    z -0.007960 0.000000 1.776870 
# 
# From -- ./inp_files/154155.got.cif
#   From: 2010.06.25/outbox.cif.g09.slc.cpg/sg12_78_cif.got.tgz:154155.got - 2010.06.28 00:19:55.
