data_PCOD8090762
_publ_section_title
;
Structure prediction by ZEFSAII (Michael W. Deem and Ramdas Pophale) SiO2 
 PCOD8090762
Probable space group: C 2/M
;
_chemical_formula_sum "Si O2"
_cell_formula_units_Z 48
_cell_length_a 19.455739
_cell_length_b 18.887578
_cell_length_c 8.613189
_cell_angle_alpha 90.000000
_cell_angle_beta 51.174414
_cell_angle_gamma 90.000000
_cell_volume 2465.799787
_symmetry_space_group_name_H-M "C 2/M"
_symmetry_group_IT_number 12
_symmetry_cell_setting 'monoclinic'
loop_
_space_group_symop_operation_xyz
x,y,z
-x,y,-z
-x,-y,-z
x,-y,z
1/2+x,1/2+y,z
1/2-x,1/2+y,-z
1/2-x,1/2-y,-z
1/2+x,1/2-y,z
loop_
_atom_site_type_symbol
_atom_site_label
_atom_site_fract_x
_atom_site_fract_y
_atom_site_fract_z
Si Si1 0.863723 0.167055 0.437490
Si Si2 0.475637 0.418888 0.855411
Si Si3 0.221817 0.081833 0.923562
Si Si4 0.790753 0.582871 0.494169
Si Si5 0.602471 0.801912 0.820444
Si Si6 0.258580 0.809516 0.115332
O O1 0.799434 0.107034 0.459928
O O2 0.868766 0.232881 0.314386
O O3 0.826718 0.194516 0.653292
O O4 0.958345 0.131009 0.335119
O O5 0.485507 0.500000 0.786402
O O6 0.500000 0.410798 0.000000
O O7 0.377080 0.389712 0.969756
O O8 0.283439 0.097426 0.688210
O O9 0.216865 0.000000 0.966967
O O10 0.262873 0.116393 0.018464
O O11 0.805706 0.500000 0.438099
O O12 0.872595 0.627736 0.311844
O O13 0.652196 0.800537 0.914146
O O14 0.500000 0.802203 0.000000
O O15 0.250000 0.750000 0.000000
#
# Coordination Sequence:
#
# PCOD8090762 Si02
#       6
#     8   8   8   8   8   8
#     4  11  21  37  63  88 120 160 204 244 297 363
#     4  10  19  33  60  95 126 156 194 239 298 370
#     4  10  21  38  61  91 125 158 191 244 310 366
#     4  10  20  39  65  89 117 159 207 247 297 359
#     4  11  25  42  63  88 117 162 210 256 291 354
#     4  11  24  40  58  85 123 158 200 248 303 353
#
# _framework density 19.4663
#
# number of rings (size 3 to 8) (size 9 to 14) (size 15 to 20)
#    0.000    1.500    1.667    5.000    2.333    4.333 
#    0.000    4.167    0.000    2.000    0.000    0.000 
#    0.000    0.000    0.000    0.000    0.000    0.000 
#
# Total GULP energy -297664.307558 kJ/mol
# GULP energy per Si atom -12402.679482 kJ/mol
# Density = 1.942199 g / cm^3
# Si number density = 19.466300 Si / 1000 Ang^3
#
#
#
# Elastic Constant Matrix: (Units=GPa)
#
#
# Indices 1 2 3 4 5 6 
#
# 1 88.8965 50.8304 66.7825 0.0000 13.6119 0.0000
# 2 50.8304 91.2291 57.5258 0.0000 8.2718 0.0000
# 3 66.7825 57.5258 127.9213 0.0000 4.9353 0.0000
# 4 0.0000 0.0000 0.0000 39.5770 0.0000 4.8098
# 5 13.6119 8.2718 4.9353 0.0000 24.7675 0.0000
# 6 0.0000 0.0000 0.0000 4.8098 0.0000 26.7663
#
#
#
# Elastic Compliance Matrix: (Units=1/GPa)
#
#
# Indices 1 2 3 4 5 6 
#
# 1 0.022749 -0.006440 -0.008647 0.000000 -0.008628 0.000000
# 2 -0.006440 0.017480 -0.004444 0.000000 -0.001413 0.000000
# 3 -0.008647 -0.004444 0.014199 0.000000 0.003407 0.000000
# 4 0.000000 0.000000 0.000000 0.025831 0.000000 -0.004642
# 5 -0.008628 -0.001413 0.003407 0.000000 0.044911 0.000000
# 6 0.000000 0.000000 0.000000 -0.004642 0.000000 0.038195
#
#
# Mechanical properties :
#
#
# Convention : Reuss Voigt Hill
#
# Bulk Modulus (GPa) = 65.08408 73.14715 69.11562
# Shear Modulus (GPa) = 24.09078 27.08271 25.58675
#
# Velocity S-wave (km/s) = 3.52172 3.73401 3.62942
# Velocity P-wave (km/s) = 7.07414 7.49989 7.29012
#
# Compressibility (1/GPa) = 0.01536474
#
# Stress axis : x y z
#
# Youngs Moduli (GPa) = 43.95851 57.20812 70.42874
#
# Poissons Ratio (x) = 0.36842 0.60902
# Poissons Ratio (y) = 0.28309 0.31300
# Poissons Ratio (z) = 0.38012 0.25424
#
# Static dielectric constant tensor:
#      x y z
#    x 3.647710 0.000000 0.062390 
#    y 0.000000 3.770330 0.000000 
#    z 0.062390 0.000000 3.793320 
# 
# 
# High freq. dielectric constant tensor:
#      x y z
#    x 1.737820 0.000000 0.004230 
#    y 0.000000 1.770790 0.000000 
#    z 0.004230 0.000000 1.764700 
# 
# From -- ./inp_files/75121.got.cif
#   From: 2010.06.25/outbox.cif.g09.slc.cpg/sg12_38_cif.got.tgz:75121.got - 2010.06.28 00:19:55.
