data_PCOD8091391
_publ_section_title
;
Structure prediction by ZEFSAII (Michael W. Deem and Ramdas Pophale) SiO2 
 PCOD8091391
Probable space group: C 2/M
;
_chemical_formula_sum "Si O2"
_cell_formula_units_Z 52
_cell_length_a 26.555253
_cell_length_b 18.159257
_cell_length_c 6.604181
_cell_angle_alpha 90.000000
_cell_angle_beta 65.363095
_cell_angle_gamma 90.000000
_cell_volume 2894.782770
_symmetry_space_group_name_H-M "C 2/M"
_symmetry_group_IT_number 12
_symmetry_cell_setting 'monoclinic'
loop_
_space_group_symop_operation_xyz
x,y,z
-x,y,-z
-x,-y,-z
x,-y,z
1/2+x,1/2+y,z
1/2-x,1/2+y,-z
1/2-x,1/2-y,-z
1/2+x,1/2-y,z
loop_
_atom_site_type_symbol
_atom_site_label
_atom_site_fract_x
_atom_site_fract_y
_atom_site_fract_z
Si Si1 0.788320 0.584793 0.018948
Si Si2 0.551990 0.715639 0.033197
Si Si3 0.929075 0.084445 0.283942
Si Si4 0.170684 0.289966 0.797368
Si Si5 0.500000 0.341393 0.500000
Si Si6 0.240915 0.678050 0.311495
Si Si7 0.695699 0.581413 0.480161
O O1 0.808848 0.500000 0.959764
O O2 0.786391 0.625774 0.808390
O O3 0.829771 0.628550 0.101116
O O4 0.726945 0.587992 0.214376
O O5 0.538566 0.710816 0.294859
O O6 0.500000 0.753718 0.000000
O O7 0.557801 0.632849 0.935768
O O8 0.608400 0.760424 0.910231
O O9 0.867194 0.100581 0.461221
O O10 0.964843 0.105950 0.416602
O O11 0.939355 0.000000 0.204910
O O12 0.189628 0.290510 0.529836
O O13 0.217785 0.242340 0.842218
O O14 0.281483 0.634195 0.388857
O O15 0.702228 0.500000 0.560434
#
# Coordination Sequence:
#
# PCOD8091391 Si02
#       7
#     8   8   8   8   4   8   8
#     4  10  21  34  53  83 113 141 175 216 267 325
#     4  10  22  39  55  77 107 143 186 230 268 315
#     4  10  20  34  51  73 107 148 190 228 260 304
#     4  10  21  36  56  81 108 138 180 223 267 321
#     4  10  23  34  52  74 101 144 190 232 271 308
#     4  10  19  34  56  80 108 146 173 218 268 319
#     4   9  18  31  49  77 111 145 182 216 254 313
#
# _framework density 17.963349999999998
#
# number of rings (size 3 to 8) (size 9 to 14) (size 15 to 20)
#    0.000    2.154    1.538    1.154    2.154    6.462 
#    0.000    0.000    0.000    0.462    0.000    1.615 
#    0.000    0.000    0.000    0.000    0.000    0.000 
#
# Total GULP energy -322282.365848 kJ/mol
# GULP energy per Si atom -12395.475610 kJ/mol
# Density = 1.792246 g / cm^3
# Si number density = 17.963350 Si / 1000 Ang^3
#
#
#
# Elastic Constant Matrix: (Units=GPa)
#
#
# Indices 1 2 3 4 5 6 
#
# 1 86.1607 46.1528 51.4750 0.0000 -19.3122 0.0000
# 2 46.1528 92.1171 44.0040 0.0000 -7.5776 0.0000
# 3 51.4750 44.0040 97.9001 0.0000 -9.5957 0.0000
# 4 0.0000 0.0000 0.0000 22.5261 0.0000 -4.0620
# 5 -19.3122 -7.5776 -9.5957 0.0000 30.1712 0.0000
# 6 0.0000 0.0000 0.0000 -4.0620 0.0000 24.2875
#
#
#
# Elastic Compliance Matrix: (Units=1/GPa)
#
#
# Indices 1 2 3 4 5 6 
#
# 1 0.021855 -0.006505 -0.007593 0.000000 0.009941 0.000000
# 2 -0.006505 0.015830 -0.003833 0.000000 -0.001407 0.000000
# 3 -0.007593 -0.003833 0.015853 0.000000 -0.000781 0.000000
# 4 0.000000 0.000000 0.000000 0.045774 0.000000 0.007655
# 5 0.009941 -0.001407 -0.000781 0.000000 0.038905 0.000000
# 6 0.000000 0.000000 0.000000 0.007655 0.000000 0.042454
#
#
# Mechanical properties :
#
#
# Convention : Reuss Voigt Hill
#
# Bulk Modulus (GPa) = 56.57266 62.16015 59.36641
# Shear Modulus (GPa) = 22.47948 24.36669 23.42309
#
# Velocity S-wave (km/s) = 3.54136 3.68702 3.61493
# Velocity P-wave (km/s) = 6.94863 7.26667 7.10943
#
# Compressibility (1/GPa) = 0.01767638
#
# Stress axis : x y z
#
# Youngs Moduli (GPa) = 45.75593 63.17057 63.07913
#
# Poissons Ratio (x) = 0.41093 0.47896
# Poissons Ratio (y) = 0.29764 0.24178
# Poissons Ratio (z) = 0.34743 0.24213
#
# Static dielectric constant tensor:
#      x y z
#    x 3.218860 0.000000 -0.093910 
#    y 0.000000 3.440910 0.000000 
#    z -0.093910 0.000000 3.450930 
# 
# 
# High freq. dielectric constant tensor:
#      x y z
#    x 1.681090 0.000000 -0.001000 
#    y 0.000000 1.688870 0.000000 
#    z -0.001000 0.000000 1.697780 
# 
# From -- ./inp_files/29284.got.cif
#   From: 2010.06.25/outbox.cif.g09.slc.cpg/sg12_15_cif.got.tgz:29284.got - 2010.06.28 00:19:55.
