data_PCOD8091761
_publ_section_title
;
Structure prediction by ZEFSAII (Michael W. Deem and Ramdas Pophale) SiO2 
 PCOD8091761
Probable space group: C 2/M
;
_chemical_formula_sum "Si O2"
_cell_formula_units_Z 56
_cell_length_a 18.905600
_cell_length_b 8.852885
_cell_length_c 27.310469
_cell_angle_alpha 90.000000
_cell_angle_beta 138.769866
_cell_angle_gamma 90.000000
_cell_volume 3012.630957
_symmetry_space_group_name_H-M "C 2/M"
_symmetry_group_IT_number 12
_symmetry_cell_setting 'monoclinic'
loop_
_space_group_symop_operation_xyz
x,y,z
-x,y,-z
-x,-y,-z
x,-y,z
1/2+x,1/2+y,z
1/2-x,1/2+y,-z
1/2-x,1/2-y,-z
1/2+x,1/2-y,z
loop_
_atom_site_type_symbol
_atom_site_label
_atom_site_fract_x
_atom_site_fract_y
_atom_site_fract_z
Si Si1 0.873607 0.828396 0.926934
Si Si2 0.167769 0.321345 0.995960
Si Si3 0.302333 0.177503 0.695715
Si Si4 0.297520 0.672071 0.596872
Si Si5 0.924068 0.326649 0.414227
Si Si6 0.093955 0.171735 0.446445
Si Si7 0.421478 0.822603 0.855164
O O1 0.811182 0.741423 0.938102
O O2 0.853041 0.753829 0.863277
O O3 0.832097 0.000000 0.905091
O O4 0.000000 0.817584 0.000000
O O5 0.184558 0.500000 0.004933
O O6 0.250000 0.250000 0.000000
O O7 0.046503 0.275230 0.918059
O O8 0.351566 0.261649 0.673984
O O9 0.178794 0.221942 0.635799
O O10 0.368409 0.232708 0.777167
O O11 0.313857 0.000000 0.694497
O O12 0.259172 0.500000 0.585266
O O13 0.193678 0.769276 0.529726
O O14 0.385436 0.683311 0.600485
O O15 0.888958 0.500000 0.390751
O O16 0.000000 0.298385 0.500000
O O17 0.989889 0.274146 0.400932
O O18 0.072514 0.000000 0.451512
O O19 0.410462 0.000000 0.857479
#
# Coordination Sequence:
#
# PCOD8091761 Si02
#       7
#     8   8   8   8   8   8   8
#     4   9  17  31  54  82 109 140 179 217 259 315
#     4  10  19  34  57  84 114 145 181 223 265 313
#     4  11  22  36  56  79 106 142 182 222 272 326
#     4  10  20  34  52  77 105 134 172 220 272 323
#     4  11  22  35  53  78 106 136 177 227 273 318
#     4  10  20  34  54  76 100 134 177 223 270 323
#     4   9  20  37  55  79 110 144 180 220 267 321
#
# _framework density 18.588404000000001
#
# number of rings (size 3 to 8) (size 9 to 14) (size 15 to 20)
#    0.000    2.000    1.429    2.571    0.000    5.714 
#    0.000    1.429    0.000    3.429    0.000    0.000 
#    0.000    0.000    0.000    0.000    0.000    0.000 
#
# Total GULP energy -347210.825757 kJ/mol
# GULP energy per Si atom -12400.386634 kJ/mol
# Density = 1.854610 g / cm^3
# Si number density = 18.588404 Si / 1000 Ang^3
#
#
#
# Elastic Constant Matrix: (Units=GPa)
#
#
# Indices 1 2 3 4 5 6 
#
# 1 118.7969 52.4267 44.2062 0.0000 -27.4644 0.0000
# 2 52.4267 75.8749 39.4560 0.0000 -18.7569 0.0000
# 3 44.2062 39.4560 96.8930 0.0000 -29.8026 0.0000
# 4 0.0000 0.0000 0.0000 24.6744 0.0000 -8.0523
# 5 -27.4644 -18.7569 -29.8026 0.0000 29.6103 0.0000
# 6 0.0000 0.0000 0.0000 -8.0523 0.0000 34.9911
#
#
#
# Elastic Compliance Matrix: (Units=1/GPa)
#
#
# Indices 1 2 3 4 5 6 
#
# 1 0.013572 -0.007045 -0.001193 0.000000 0.006924 0.000000
# 2 -0.007045 0.020999 -0.004715 0.000000 0.002022 0.000000
# 3 -0.001193 -0.004715 0.016694 0.000000 0.012709 0.000000
# 4 0.000000 0.000000 0.000000 0.043819 0.000000 0.010084
# 5 0.006924 0.002022 0.012709 0.000000 0.054267 0.000000
# 6 0.000000 0.000000 0.000000 0.010084 0.000000 0.030899
#
#
# Mechanical properties :
#
#
# Convention : Reuss Voigt Hill
#
# Bulk Modulus (GPa) = 39.43489 62.63808 51.03649
# Shear Modulus (GPa) = 23.29812 28.22022 25.75917
#
# Velocity S-wave (km/s) = 3.54414 3.90059 3.72663
# Velocity P-wave (km/s) = 6.16512 7.35232 6.78474
#
# Compressibility (1/GPa) = 0.02535825
#
# Stress axis : x y z
#
# Youngs Moduli (GPa) = 73.68252 47.62067 59.90127
#
# Poissons Ratio (x) = 0.33550 0.07147
# Poissons Ratio (y) = 0.51912 0.28243
# Poissons Ratio (z) = 0.08792 0.22453
#
# Static dielectric constant tensor:
#      x y z
#    x 3.561780 0.000000 -0.310700 
#    y 0.000000 3.528340 0.000000 
#    z -0.310700 0.000000 3.411760 
# 
# 
# High freq. dielectric constant tensor:
#      x y z
#    x 1.725220 0.000000 -0.024240 
#    y 0.000000 1.735310 0.000000 
#    z -0.024240 0.000000 1.694030 
# 
# From -- ./inp_files/342489.got.cif
#   From: 2010.06.25/outbox.cif.g09.slc.cpg/sg12_172_cif.got.tgz:342489.got - 2010.06.28 00:19:55.
