data_PCOD8091397
_publ_section_title
;
Structure prediction by ZEFSAII (Michael W. Deem and Ramdas Pophale) SiO2 
 PCOD8091397
Probable space group: C 2/M
;
_chemical_formula_sum "Si O2"
_cell_formula_units_Z 40
_cell_length_a 13.261413
_cell_length_b 12.960784
_cell_length_c 11.881851
_cell_angle_alpha 90.000000
_cell_angle_beta 107.225373
_cell_angle_gamma 90.000000
_cell_volume 1950.632856
_symmetry_space_group_name_H-M "C 2/M"
_symmetry_group_IT_number 12
_symmetry_cell_setting 'monoclinic'
loop_
_space_group_symop_operation_xyz
x,y,z
-x,y,-z
-x,-y,-z
x,-y,z
1/2+x,1/2+y,z
1/2-x,1/2+y,-z
1/2-x,1/2-y,-z
1/2+x,1/2-y,z
loop_
_atom_site_type_symbol
_atom_site_label
_atom_site_fract_x
_atom_site_fract_y
_atom_site_fract_z
Si Si1 0.266075 0.115335 0.569439
Si Si2 0.795805 0.118309 0.928152
Si Si3 0.212678 0.315012 0.660477
Si Si4 0.416651 0.197358 0.059926
Si Si5 0.993146 0.382058 0.307880
O O1 0.210965 0.191045 0.641142
O O2 0.228112 0.135470 0.428447
O O3 0.391101 0.136058 0.607025
O O4 0.237046 0.000000 0.597928
O O5 0.775264 0.156976 0.794271
O O6 0.690365 0.130089 0.969243
O O7 0.832000 0.000000 0.939648
O O8 0.889072 0.185680 0.013789
O O9 0.093123 0.357625 0.624797
O O10 0.473051 0.197464 0.199378
O O11 0.500000 0.147993 0.000000
O O12 0.977158 0.500000 0.260918
#
# Coordination Sequence:
#
# PCOD8091397 Si02
#       5
#     8   8   8   8   8
#     4  10  20  34  57  83 105 137 177 216 261 311
#     4  10  21  36  54  77 107 142 176 213 263 317
#     4  10  19  34  56  80 110 137 172 219 261 311
#     4  10  20  35  53  76 106 136 176 220 259 303
#     4  10  20  35  55  79 107 140 177 216 261 312
#
# _framework density 20.506166
#
# number of rings (size 3 to 8) (size 9 to 14) (size 15 to 20)
#    0.000    2.000    0.000    5.400    0.000    3.600 
#    0.000   14.000    0.000   13.200    0.000    0.000 
#    0.000    0.000    0.000    0.000    0.000    0.000 
#
# Total GULP energy -247961.394334 kJ/mol
# GULP energy per Si atom -12398.069717 kJ/mol
# Density = 2.045949 g / cm^3
# Si number density = 20.506166 Si / 1000 Ang^3
#
#
#
# Elastic Constant Matrix: (Units=GPa)
#
#
# Indices 1 2 3 4 5 6 
#
# 1 56.4904 25.6752 26.6924 0.0000 -11.2489 0.0000
# 2 25.6752 143.0612 55.3546 0.0000 2.8308 0.0000
# 3 26.6924 55.3546 92.0288 0.0000 -7.5029 0.0000
# 4 0.0000 0.0000 0.0000 27.3226 0.0000 -1.1680
# 5 -11.2489 2.8308 -7.5029 0.0000 23.1682 0.0000
# 6 0.0000 0.0000 0.0000 -1.1680 0.0000 28.8054
#
#
#
# Elastic Compliance Matrix: (Units=1/GPa)
#
#
# Indices 1 2 3 4 5 6 
#
# 1 0.022922 -0.002684 -0.004211 0.000000 0.010093 0.000000
# 2 -0.002684 0.009627 -0.005356 0.000000 -0.004214 0.000000
# 3 -0.004211 -0.005356 0.015608 0.000000 0.003664 0.000000
# 4 0.000000 0.000000 0.000000 0.036663 0.000000 0.001487
# 5 0.010093 -0.004214 0.003664 0.000000 0.049765 0.000000
# 6 0.000000 0.000000 0.000000 0.001487 0.000000 0.034776
#
#
# Mechanical properties :
#
#
# Convention : Reuss Voigt Hill
#
# Bulk Modulus (GPa) = 42.27425 56.33610 49.30517
# Shear Modulus (GPa) = 24.78338 28.11645 26.44992
#
# Velocity S-wave (km/s) = 3.48024 3.70688 3.59535
# Velocity P-wave (km/s) = 6.06709 6.77154 6.42897
#
# Compressibility (1/GPa) = 0.02365506
#
# Stress axis : x y z
#
# Youngs Moduli (GPa) = 43.62673 103.86942 64.07059
#
# Poissons Ratio (x) = 0.27880 0.26980
# Poissons Ratio (y) = 0.11710 0.34315
# Poissons Ratio (z) = 0.18371 0.55631
#
# Static dielectric constant tensor:
#      x y z
#    x 3.638940 0.000000 -0.080150 
#    y 0.000000 3.757450 0.000000 
#    z -0.080150 0.000000 3.643560 
# 
# 
# High freq. dielectric constant tensor:
#      x y z
#    x 1.784690 0.000000 -0.006550 
#    y 0.000000 1.795480 0.000000 
#    z -0.006550 0.000000 1.804810 
# 
# From -- ./inp_files/140254.got.cif
#   From: 2010.06.25/outbox.cif.g09.slc.cpg/sg12_71_cif.got.tgz:140254.got - 2010.06.28 00:19:55.
