data_PCOD8091274
_publ_section_title
;
Structure prediction by ZEFSAII (Michael W. Deem and Ramdas Pophale) SiO2 
 PCOD8091274
Probable space group: C 2/M
;
_chemical_formula_sum "Si O2"
_cell_formula_units_Z 56
_cell_length_a 33.278845
_cell_length_b 8.545549
_cell_length_c 12.465301
_cell_angle_alpha 90.000000
_cell_angle_beta 59.308636
_cell_angle_gamma 90.000000
_cell_volume 3048.412172
_symmetry_space_group_name_H-M "C 2/M"
_symmetry_group_IT_number 12
_symmetry_cell_setting 'monoclinic'
loop_
_space_group_symop_operation_xyz
x,y,z
-x,y,-z
-x,-y,-z
x,-y,z
1/2+x,1/2+y,z
1/2-x,1/2+y,-z
1/2-x,1/2-y,-z
1/2+x,1/2-y,z
loop_
_atom_site_type_symbol
_atom_site_label
_atom_site_fract_x
_atom_site_fract_y
_atom_site_fract_z
Si Si1 0.896798 0.182350 0.096682
Si Si2 0.042030 0.319568 0.162933
Si Si3 0.943964 0.181839 0.253883
Si Si4 0.110409 0.319274 0.475754
Si Si5 0.951122 0.818068 0.619177
Si Si6 0.297109 0.681966 0.318589
Si Si7 0.700695 0.318493 0.438362
O O1 0.925800 0.231569 0.162167
O O2 0.842324 0.222422 0.186724
O O3 0.904021 0.000000 0.062211
O O4 0.914210 0.283583 0.973122
O O5 0.027704 0.500000 0.173112
O O6 0.057202 0.281726 0.262931
O O7 0.999002 0.212238 0.184502
O O8 0.917419 0.283281 0.377923
O O9 0.933263 0.000000 0.291219
O O10 0.104225 0.500000 0.455136
O O11 0.090567 0.216353 0.405799
O O12 0.164913 0.279295 0.414734
O O13 0.000000 0.766220 0.500000
O O14 0.951786 0.000000 0.648622
O O15 0.284249 0.500000 0.331593
O O16 0.307179 0.731229 0.427440
O O17 0.253504 0.778506 0.330709
O O18 0.690303 0.500000 0.434794
#
# Coordination Sequence:
#
# PCOD8091274 Si02
#       7
#     8   8   8   8   8   8   8
#     4  10  21  38  58  80 114 156 193 229 275 336
#     4  12  25  38  55  83 116 149 190 236 281 333
#     4  11  21  37  57  81 113 154 193 227 276 336
#     4  12  23  35  57  86 117 147 183 236 286 330
#     4  11  23  40  62  81 106 149 193 233 278 334
#     4   9  18  34  55  82 113 148 189 232 276 327
#     4  10  19  34  55  83 115 149 186 228 281 338
#
# _framework density 18.370218000000001
#
# number of rings (size 3 to 8) (size 9 to 14) (size 15 to 20)
#    0.000    1.286    2.857    4.286    0.000    4.571 
#    0.000    0.000    0.000    0.857    0.000    0.000 
#    0.000    0.000    0.000    0.000    0.000    0.000 
#
# Total GULP energy -347389.907914 kJ/mol
# GULP energy per Si atom -12406.782425 kJ/mol
# Density = 1.832841 g / cm^3
# Si number density = 18.370218 Si / 1000 Ang^3
#
#
#
# Elastic Constant Matrix: (Units=GPa)
#
#
# Indices 1 2 3 4 5 6 
#
# 1 103.0538 22.1014 48.4586 0.0000 -7.0665 0.0000
# 2 22.1014 56.4035 24.1114 0.0000 1.7639 0.0000
# 3 48.4586 24.1114 93.4600 0.0000 3.0558 0.0000
# 4 0.0000 0.0000 0.0000 27.1643 0.0000 -3.6168
# 5 -7.0665 1.7639 3.0558 0.0000 23.5266 0.0000
# 6 0.0000 0.0000 0.0000 -3.6168 0.0000 26.2369
#
#
#
# Elastic Compliance Matrix: (Units=1/GPa)
#
#
# Indices 1 2 3 4 5 6 
#
# 1 0.013745 -0.002730 -0.006592 0.000000 0.005189 0.000000
# 2 -0.002730 0.020485 -0.003809 0.000000 -0.001861 0.000000
# 3 -0.006592 -0.003809 0.015220 0.000000 -0.003671 0.000000
# 4 0.000000 0.000000 0.000000 0.037501 0.000000 0.005170
# 5 0.005189 -0.001861 -0.003671 0.000000 0.044680 0.000000
# 6 0.000000 0.000000 0.000000 0.005170 0.000000 0.038827
#
#
# Mechanical properties :
#
#
# Convention : Reuss Voigt Hill
#
# Bulk Modulus (GPa) = 43.12352 49.14002 46.13177
# Shear Modulus (GPa) = 24.45589 25.93528 25.19558
#
# Velocity S-wave (km/s) = 3.65263 3.76148 3.70746
# Velocity P-wave (km/s) = 6.42764 6.75817 6.59498
#
# Compressibility (1/GPa) = 0.02318920
#
# Stress axis : x y z
#
# Youngs Moduli (GPa) = 72.75518 48.81510 65.70209
#
# Poissons Ratio (x) = 0.13327 0.43310
# Poissons Ratio (y) = 0.19863 0.25023
# Poissons Ratio (z) = 0.47959 0.18591
#
# Static dielectric constant tensor:
#      x y z
#    x 3.413730 0.000000 -0.083930 
#    y 0.000000 3.359620 0.000000 
#    z -0.083930 0.000000 3.250560 
# 
# 
# High freq. dielectric constant tensor:
#      x y z
#    x 1.712260 0.000000 -0.008480 
#    y 0.000000 1.717610 0.000000 
#    z -0.008480 0.000000 1.693260 
# 
# From -- ./inp_files/181000.got.cif
#   From: 2010.06.25/outbox.cif.g09.slc.cpg/sg12_91_cif.got.tgz:181000.got - 2010.06.28 00:19:55.
