data_PCOD8091241
_publ_section_title
;
Structure prediction by ZEFSAII (Michael W. Deem and Ramdas Pophale) SiO2 
 PCOD8091241
Probable space group: C 2/M
;
_chemical_formula_sum "Si O2"
_cell_formula_units_Z 56
_cell_length_a 29.991368
_cell_length_b 9.268122
_cell_length_c 21.776040
_cell_angle_alpha 90.000000
_cell_angle_beta 27.600008
_cell_angle_gamma 90.000000
_cell_volume 2804.307431
_symmetry_space_group_name_H-M "C 2/M"
_symmetry_group_IT_number 12
_symmetry_cell_setting 'monoclinic'
loop_
_space_group_symop_operation_xyz
x,y,z
-x,y,-z
-x,-y,-z
x,-y,z
1/2+x,1/2+y,z
1/2-x,1/2+y,-z
1/2-x,1/2-y,-z
1/2+x,1/2-y,z
loop_
_atom_site_type_symbol
_atom_site_label
_atom_site_fract_x
_atom_site_fract_y
_atom_site_fract_z
Si Si1 0.746242 0.825807 0.571178
Si Si2 0.202834 0.341738 0.853819
Si Si3 0.618410 0.160819 0.177149
Si Si4 0.395392 0.169837 0.148434
Si Si5 0.201904 0.836594 0.968181
Si Si6 0.604877 0.833914 0.528531
Si Si7 0.410452 0.339436 0.570413
O O1 0.750000 0.750000 0.500000
O O2 0.652072 0.778845 0.728030
O O3 0.841476 0.767892 0.488513
O O4 0.750654 0.000000 0.558887
O O5 0.155110 0.500000 0.919572
O O6 0.178024 0.283591 0.815943
O O7 0.161432 0.240337 0.956968
O O8 0.316666 0.352200 0.727193
O O9 0.683647 0.184294 0.158638
O O10 0.508368 0.181466 0.326275
O O11 0.639266 0.000000 0.125544
O O12 0.643706 0.279524 0.096847
O O13 0.405538 0.000000 0.141741
O O14 0.500000 0.235253 0.000000
O O15 0.173238 0.000000 0.993508
O O16 0.623282 0.775283 0.438464
O O17 0.639391 0.000000 0.492843
O O18 0.500000 0.278989 0.500000
O O19 0.435602 0.500000 0.512899
#
# Coordination Sequence:
#
# PCOD8091241 Si02
#       7
#     8   8   8   8   8   8   8
#     4  11  23  42  65  91 123 156 203 258 316 378
#     4  10  19  34  55  81 112 149 189 231 291 358
#     4   9  20  37  54  77 114 157 198 237 287 360
#     4   9  19  38  63  86 112 152 200 248 298 363
#     4  10  20  34  54  82 114 151 195 244 295 346
#     4  11  22  37  59  85 116 155 198 243 298 357
#     4  10  20  34  55  85 119 154 192 236 291 354
#
# _framework density 19.969280000000001
#
# number of rings (size 3 to 8) (size 9 to 14) (size 15 to 20)
#    0.000    2.000    1.429    2.143    0.000    3.714 
#    0.000    2.857    0.000    3.000    0.000    0.000 
#    0.000    0.000    0.000    0.000    0.000    0.000 
#
# Total GULP energy -346913.906224 kJ/mol
# GULP energy per Si atom -12389.782365 kJ/mol
# Density = 1.992383 g / cm^3
# Si number density = 19.969280 Si / 1000 Ang^3
#
#
#
# Elastic Constant Matrix: (Units=GPa)
#
#
# Indices 1 2 3 4 5 6 
#
# 1 83.3027 41.9231 16.2338 0.0109 24.3817 -0.0032
# 2 41.9231 93.5660 28.9346 0.0195 16.8937 -0.0056
# 3 16.2338 28.9346 66.9850 0.0167 9.6892 -0.0048
# 4 0.0109 0.0195 0.0167 11.2625 -0.0066 7.5908
# 5 24.3817 16.8937 9.6892 -0.0066 29.4142 0.0018
# 6 -0.0032 -0.0056 -0.0048 7.5908 0.0018 34.4139
#
#
#
# Elastic Compliance Matrix: (Units=1/GPa)
#
#
# Indices 1 2 3 4 5 6 
#
# 1 0.018589 -0.006151 -0.000137 -0.000018 -0.011831 0.000005
# 2 -0.006151 0.015315 -0.004820 -0.000018 -0.002110 0.000005
# 3 -0.000137 -0.004820 0.017459 -0.000024 -0.002869 0.000007
# 4 -0.000018 -0.000018 -0.000024 0.104296 0.000058 -0.023005
# 5 -0.011831 -0.002110 -0.002869 0.000058 0.045961 -0.000017
# 6 0.000005 0.000005 0.000007 -0.023005 -0.000017 0.034132
#
#
# Mechanical properties :
#
#
# Convention : Reuss Voigt Hill
#
# Bulk Modulus (GPa) = 34.30674 46.44854 40.37764
# Shear Modulus (GPa) = 18.67882 25.46893 22.07387
#
# Velocity S-wave (km/s) = 3.06171 3.57516 3.32835
# Velocity P-wave (km/s) = 5.45122 6.35239 5.91898
#
# Compressibility (1/GPa) = 0.02914879
#
# Stress axis : x y z
#
# Youngs Moduli (GPa) = 53.79429 65.29608 57.27768
#
# Poissons Ratio (x) = 0.40161 0.00785
# Poissons Ratio (y) = 0.33087 0.27605
# Poissons Ratio (z) = 0.00737 0.31470
#
# Static dielectric constant tensor:
#      x y z
#    x 3.668790 0.000000 -0.106630 
#    y 0.000000 3.683950 0.000000 
#    z -0.106630 0.000000 3.664570 
# 
# 
# High freq. dielectric constant tensor:
#      x y z
#    x 1.776420 0.000000 -0.002680 
#    y 0.000000 1.768170 0.000000 
#    z -0.002680 0.000000 1.773950 
# 
# From -- ./inp_files/329501.got.cif
#   From: 2010.06.25/outbox.cif.g09.slc.cpg/sg12_165_cif.got.tgz:329501.got - 2010.06.28 00:19:55.
