data_PCOD8091557
_publ_section_title
;
Structure prediction by ZEFSAII (Michael W. Deem and Ramdas Pophale) SiO2 
 PCOD8091557
Probable space group: C 2/M
;
_chemical_formula_sum "Si O2"
_cell_formula_units_Z 40
_cell_length_a 7.846824
_cell_length_b 22.710267
_cell_length_c 13.073499
_cell_angle_alpha 90.000000
_cell_angle_beta 124.790450
_cell_angle_gamma 90.000000
_cell_volume 1913.288101
_symmetry_space_group_name_H-M "C 2/M"
_symmetry_group_IT_number 12
_symmetry_cell_setting 'monoclinic'
loop_
_space_group_symop_operation_xyz
x,y,z
-x,y,-z
-x,-y,-z
x,-y,z
1/2+x,1/2+y,z
1/2-x,1/2+y,-z
1/2-x,1/2-y,-z
1/2+x,1/2-y,z
loop_
_atom_site_type_symbol
_atom_site_label
_atom_site_fract_x
_atom_site_fract_y
_atom_site_fract_z
Si Si1 0.000000 0.094805 0.000000
Si Si2 0.282835 0.500000 0.294249
Si Si3 0.669352 0.815769 0.849126
Si Si4 0.927917 0.370064 0.584563
Si Si5 0.000000 0.904016 0.500000
Si Si6 0.000000 0.282149 0.000000
Si Si7 0.563440 0.500000 0.872867
Si Si8 0.428877 0.000000 0.312652
O O1 0.830736 0.132525 0.883676
O O2 0.122727 0.057053 0.958142
O O3 0.396293 0.442544 0.375663
O O4 0.297160 0.500000 0.178409
O O5 0.037710 0.500000 0.237799
O O6 0.513023 0.825678 0.701548
O O7 0.798894 0.754961 0.893441
O O8 0.558028 0.822046 0.921748
O O9 0.678324 0.364826 0.508154
O O10 0.000000 0.344311 0.500000
O O11 0.992382 0.439471 0.608044
O O12 0.316512 0.500000 0.771301
#
# Coordination Sequence:
#
# PCOD8091557 Si02
#       8
#     4   4   8   8   4   4   4   4
#     4  10  22  35  56  90 120 153 204 228 306 360
#     4   9  19  33  51  75 122 171 207 221 271 337
#     4  10  21  42  64  90 110 156 202 247 316 360
#     4  11  21  37  61  92 126 161 200 237 292 361
#     4   9  20  34  52  86 118 166 204 228 276 349
#     4   9  22  45  68  82 114 147 202 269 302 362
#     4  11  19  35  52  87 132 157 183 258 276 342
#     4  10  19  34  56  86 129 167 195 226 284 355
#
# _framework density 20.906417000000001
#
# number of rings (size 3 to 8) (size 9 to 14) (size 15 to 20)
#    0.000    2.000    2.000    2.100    0.000    3.200 
#    7.200    2.000    0.000    0.000    0.000    0.000 
#    0.000    0.000    0.000    0.000    0.000    0.000 
#
# Total GULP energy -247844.260327 kJ/mol
# GULP energy per Si atom -12392.213016 kJ/mol
# Density = 2.085883 g / cm^3
# Si number density = 20.906417 Si / 1000 Ang^3
#
#
#
# Elastic Constant Matrix: (Units=GPa)
#
#
# Indices 1 2 3 4 5 6 
#
# 1 119.0008 12.4609 40.4431 0.0000 -17.2265 0.0000
# 2 12.4609 49.5538 24.4434 0.0000 -10.7013 0.0000
# 3 40.4431 24.4434 88.1406 0.0000 -27.9322 0.0000
# 4 0.0000 0.0000 0.0000 21.6068 0.0000 1.0008
# 5 -17.2265 -10.7013 -27.9322 0.0000 50.0993 0.0000
# 6 0.0000 0.0000 0.0000 1.0008 0.0000 5.1810
#
#
#
# Elastic Compliance Matrix: (Units=1/GPa)
#
#
# Indices 1 2 3 4 5 6 
#
# 1 0.010005 -0.000218 -0.004196 0.000000 0.001054 0.000000
# 2 -0.000218 0.023499 -0.005890 0.000000 0.001660 0.000000
# 3 -0.004196 -0.005890 0.017063 0.000000 0.006812 0.000000
# 4 0.000000 0.000000 0.000000 0.046700 0.000000 -0.009020
# 5 0.001054 0.001660 0.006812 0.000000 0.024476 0.000000
# 6 0.000000 0.000000 0.000000 -0.009020 0.000000 0.194754
#
#
# Mechanical properties :
#
#
# Convention : Reuss Voigt Hill
#
# Bulk Modulus (GPa) = 33.38086 45.70998 39.54542
# Shear Modulus (GPa) = 14.40540 27.33394 20.86967
#
# Velocity S-wave (km/s) = 2.62781 3.61978 3.16293
# Velocity P-wave (km/s) = 5.02082 6.27551 5.68290
#
# Compressibility (1/GPa) = 0.02995729
#
# Stress axis : x y z
#
# Youngs Moduli (GPa) = 99.95185 42.55472 58.60522
#
# Poissons Ratio (x) = 0.00929 0.24591
# Poissons Ratio (y) = 0.02183 0.34521
# Poissons Ratio (z) = 0.41941 0.25067
#
# Static dielectric constant tensor:
#      x y z
#    x 4.077090 0.000000 0.053880 
#    y 0.000000 3.566370 0.000000 
#    z 0.053880 0.000000 3.642080 
# 
# 
# High freq. dielectric constant tensor:
#      x y z
#    x 1.832270 0.000000 -0.002520 
#    y 0.000000 1.789050 0.000000 
#    z -0.002520 0.000000 1.807670 
# 
# From -- ./inp_files/122237.got.cif
#   From: 2010.06.25/outbox.cif.g09.slc.cpg/sg12_62_cif.got.tgz:122237.got - 2010.06.28 00:19:55.
