data_PCOD8091465
_publ_section_title
;
Structure prediction by ZEFSAII (Michael W. Deem and Ramdas Pophale) SiO2 
 PCOD8091465
Probable space group: C 2/M
;
_chemical_formula_sum "Si O2"
_cell_formula_units_Z 64
_cell_length_a 17.412434
_cell_length_b 14.239151
_cell_length_c 14.820771
_cell_angle_alpha 90.000000
_cell_angle_beta 105.957052
_cell_angle_gamma 90.000000
_cell_volume 3533.045479
_symmetry_space_group_name_H-M "C 2/M"
_symmetry_group_IT_number 12
_symmetry_cell_setting 'monoclinic'
loop_
_space_group_symop_operation_xyz
x,y,z
-x,y,-z
-x,-y,-z
x,-y,z
1/2+x,1/2+y,z
1/2-x,1/2+y,-z
1/2-x,1/2-y,-z
1/2+x,1/2-y,z
loop_
_atom_site_type_symbol
_atom_site_label
_atom_site_fract_x
_atom_site_fract_y
_atom_site_fract_z
Si Si1 0.410171 0.202983 0.446583
Si Si2 0.829687 0.391366 0.583766
Si Si3 0.882877 0.610360 0.247282
Si Si4 0.330293 0.223642 0.076681
Si Si5 0.314242 0.602898 0.172956
Si Si6 0.342930 0.605414 0.391750
Si Si7 0.871683 0.392927 0.931737
Si Si8 0.945263 0.389849 0.774133
O O1 0.500000 0.171062 0.500000
O O2 0.347698 0.165070 0.498992
O O3 0.381340 0.159112 0.343353
O O4 0.406525 0.316495 0.443496
O O5 0.851743 0.500000 0.574551
O O6 0.737743 0.378483 0.578641
O O7 0.884491 0.347406 0.680749
O O8 0.869248 0.500000 0.255277
O O9 0.815859 0.653373 0.157926
O O10 0.965635 0.636205 0.224771
O O11 0.363985 0.321287 0.129720
O O12 0.250000 0.250000 0.000000
O O13 0.389107 0.172809 0.024346
O O14 0.345480 0.500000 0.154627
O O15 0.326756 0.620848 0.281741
O O16 0.220371 0.611571 0.125422
O O17 0.376215 0.500000 0.420855
O O18 0.896085 0.500000 0.965056
O O19 0.924967 0.351285 0.867402
O O20 0.929254 0.500000 0.772326
#
# Coordination Sequence:
#
# PCOD8091465 Si02
#       8
#     8   8   8   8   8   8   8   8
#     4  12  23  35  55  84 117 154 187 225 284 343
#     4  10  19  34  56  82 111 147 186 229 281 337
#     4  11  22  35  52  81 118 142 172 222 281 344
#     4  10  20  33  50  75 105 138 175 219 272 328
#     4   9  16  30  52  73  96 131 177 221 260 308
#     4  10  20  36  56  77 105 145 196 241 270 312
#     4   9  16  29  51  77 104 133 166 211 266 324
#     4   9  17  30  51  78 109 142 174 213 270 338
#
# _framework density 18.114682999999999
#
# number of rings (size 3 to 8) (size 9 to 14) (size 15 to 20)
#    0.000    2.000    3.750    1.125    0.000    1.750 
#    0.000    1.875    0.000    0.000    0.000    3.500 
#    0.000    0.000    0.000    0.000    0.000    0.000 
#
# Total GULP energy -396627.523441 kJ/mol
# GULP energy per Si atom -12394.610108 kJ/mol
# Density = 1.807345 g / cm^3
# Si number density = 18.114683 Si / 1000 Ang^3
#
#
#
# Elastic Constant Matrix: (Units=GPa)
#
#
# Indices 1 2 3 4 5 6 
#
# 1 38.2328 30.1826 35.4536 0.0000 -14.3164 0.0000
# 2 30.1826 115.3429 55.4394 0.0000 -19.5319 0.0000
# 3 35.4536 55.4394 119.6261 0.0000 -27.0340 0.0000
# 4 0.0000 0.0000 0.0000 33.4662 0.0000 -1.7131
# 5 -14.3164 -19.5319 -27.0340 0.0000 31.7391 0.0000
# 6 0.0000 0.0000 0.0000 -1.7131 0.0000 14.3537
#
#
#
# Elastic Compliance Matrix: (Units=1/GPa)
#
#
# Indices 1 2 3 4 5 6 
#
# 1 0.040774 -0.005590 -0.007572 0.000000 0.008502 0.000000
# 2 -0.005590 0.012164 -0.003540 0.000000 0.001949 0.000000
# 3 -0.007572 -0.003540 0.013597 0.000000 0.005988 0.000000
# 4 0.000000 0.000000 0.000000 0.030065 0.000000 0.003588
# 5 0.008502 0.001949 0.005988 0.000000 0.041641 0.000000
# 6 0.000000 0.000000 0.000000 0.003588 0.000000 0.070097
#
#
# Mechanical properties :
#
#
# Convention : Reuss Voigt Hill
#
# Bulk Modulus (GPa) = 30.18386 57.26144 43.72265
# Shear Modulus (GPa) = 19.77951 26.05353 22.91652
#
# Velocity S-wave (km/s) = 3.30798 3.79655 3.56065
# Velocity P-wave (km/s) = 5.59367 7.13425 6.41041
#
# Compressibility (1/GPa) = 0.03313029
#
# Stress axis : x y z
#
# Youngs Moduli (GPa) = 24.52533 82.20799 73.54415
#
# Poissons Ratio (x) = 0.45958 0.55688
# Poissons Ratio (y) = 0.13711 0.26036
# Poissons Ratio (z) = 0.18571 0.29103
#
# Static dielectric constant tensor:
#      x y z
#    x 3.118600 0.000000 -0.176200 
#    y 0.000000 3.606350 0.000000 
#    z -0.176200 0.000000 3.585360 
# 
# 
# High freq. dielectric constant tensor:
#      x y z
#    x 1.667350 0.000000 -0.009530 
#    y 0.000000 1.693790 0.000000 
#    z -0.009530 0.000000 1.719580 
# 
# From -- ./inp_files/224827.got.cif
#   From: 2010.06.25/outbox.cif.g09.slc.cpg/sg12_113_cif.got.tgz:224827.got - 2010.06.28 00:19:55.
