data_PCOD8091580
_publ_section_title
;
Structure prediction by ZEFSAII (Michael W. Deem and Ramdas Pophale) SiO2 
 PCOD8091580
Probable space group: C 2/M
;
_chemical_formula_sum "Si O2"
_cell_formula_units_Z 64
_cell_length_a 18.065218
_cell_length_b 9.137036
_cell_length_c 30.545979
_cell_angle_alpha 90.000000
_cell_angle_beta 42.615301
_cell_angle_gamma 90.000000
_cell_volume 3413.797695
_symmetry_space_group_name_H-M "C 2/M"
_symmetry_group_IT_number 12
_symmetry_cell_setting 'monoclinic'
loop_
_space_group_symop_operation_xyz
x,y,z
-x,y,-z
-x,-y,-z
x,-y,z
1/2+x,1/2+y,z
1/2-x,1/2+y,-z
1/2-x,1/2-y,-z
1/2+x,1/2-y,z
loop_
_atom_site_type_symbol
_atom_site_label
_atom_site_fract_x
_atom_site_fract_y
_atom_site_fract_z
Si Si1 0.318794 0.328635 0.814576
Si Si2 0.931903 0.169737 0.313923
Si Si3 0.250075 0.170504 0.932038
Si Si4 0.846224 0.326568 0.188095
Si Si5 0.413634 0.170650 0.938654
Si Si6 0.036306 0.174069 0.437010
Si Si7 0.220946 0.325628 0.687883
Si Si8 0.362990 0.328026 0.441561
O O1 0.301964 0.500000 0.830948
O O2 0.442805 0.290439 0.749317
O O3 0.281633 0.240203 0.872674
O O4 0.245655 0.274439 0.805813
O O5 0.857824 0.266673 0.315084
O O6 0.905304 0.212078 0.375146
O O7 0.908312 0.000000 0.314936
O O8 0.348482 0.202476 0.922511
O O9 0.228960 0.000000 0.934795
O O10 0.138706 0.242380 0.998184
O O11 0.849364 0.500000 0.189844
O O12 0.818089 0.263509 0.248238
O O13 0.964167 0.268388 0.121226
O O14 0.411860 0.000000 0.951499
O O15 0.156933 0.233455 0.373720
O O16 0.000000 0.235722 0.500000
O O17 0.952341 0.231994 0.437021
O O18 0.037248 0.000000 0.436664
O O19 0.217046 0.500000 0.688201
O O20 0.345486 0.500000 0.455042
O O21 0.250000 0.250000 0.500000
#
# Coordination Sequence:
#
# PCOD8091580 Si02
#       8
#     8   8   8   8   8   8   8   8
#     4  10  20  35  54  75 103 138 171 207 257 310
#     4  10  21  35  52  77 108 137 166 208 263 314
#     4  10  20  34  53  78 105 132 168 213 257 304
#     4   9  18  33  54  77  98 129 176 218 249 295
#     4   9  18  34  54  74  99 133 172 212 254 303
#     4   9  17  30  51  78 104 133 173 215 251 293
#     4  10  19  34  57  79 101 134 177 219 254 297
#     4  10  20  35  54  78 108 139 174 215 258 305
#
# _framework density 18.747449
#
# number of rings (size 3 to 8) (size 9 to 14) (size 15 to 20)
#    0.000    2.375    0.000    2.625    0.000    7.000 
#    0.000    5.000    0.000    3.750    0.000    0.000 
#    0.000    0.000    0.000    0.000    0.000    0.000 
#
# Total GULP energy -396880.667945 kJ/mol
# GULP energy per Si atom -12402.520873 kJ/mol
# Density = 1.870478 g / cm^3
# Si number density = 18.747449 Si / 1000 Ang^3
#
#
#
# Elastic Constant Matrix: (Units=GPa)
#
#
# Indices 1 2 3 4 5 6 
#
# 1 144.5084 46.4590 97.3535 0.0003 -3.9410 -0.0018
# 2 46.4590 38.3876 50.4559 0.0004 3.9774 0.0017
# 3 97.3535 50.4559 191.4191 0.0002 -1.0006 0.0008
# 4 0.0003 0.0004 0.0002 20.6645 0.0000 1.9775
# 5 -3.9410 3.9774 -1.0006 0.0000 41.3612 0.0000
# 6 -0.0018 0.0017 0.0008 1.9775 0.0000 28.5259
#
#
#
# Elastic Compliance Matrix: (Units=1/GPa)
#
#
# Indices 1 2 3 4 5 6 
#
# 1 0.013061 -0.011205 -0.003677 0.000000 0.002233 0.000002
# 2 -0.011205 0.050175 -0.007559 0.000000 -0.006075 -0.000003
# 3 -0.003677 -0.007559 0.009090 0.000000 0.000596 0.000000
# 4 0.000000 0.000000 0.000000 0.048715 0.000000 -0.003377
# 5 0.002233 -0.006075 0.000596 0.000000 0.024989 0.000000
# 6 0.000002 -0.000003 0.000000 -0.003377 0.000000 0.035290
#
#
# Mechanical properties :
#
#
# Convention : Reuss Voigt Hill
#
# Bulk Modulus (GPa) = 36.43762 84.76131 60.59947
# Shear Modulus (GPa) = 21.24500 30.11343 25.67921
#
# Velocity S-wave (km/s) = 3.36999 4.01218 3.70502
# Velocity P-wave (km/s) = 5.88393 8.17152 7.12020
#
# Compressibility (1/GPa) = 0.02744416
#
# Stress axis : x y z
#
# Youngs Moduli (GPa) = 76.56655 19.93013 110.01146
#
# Poissons Ratio (x) = 0.22331 0.40455
# Poissons Ratio (y) = 0.85789 0.83156
# Poissons Ratio (z) = 0.28156 0.15065
#
# Static dielectric constant tensor:
#      x y z
#    x 3.575940 0.000000 -0.048700 
#    y 0.000000 3.119170 0.000000 
#    z -0.048700 0.000000 3.764240 
# 
# 
# High freq. dielectric constant tensor:
#      x y z
#    x 1.738250 0.000000 -0.000410 
#    y 0.000000 1.693010 0.000000 
#    z -0.000410 0.000000 1.748420 
# 
# From -- ./inp_files/378117.got.cif
#   From: 2010.06.25/outbox.cif.g09.slc.cpg/sg12_190_cif.got.tgz:378117.got - 2010.06.28 00:19:55.
