data_PCOD8091394
_publ_section_title
;
Structure prediction by ZEFSAII (Michael W. Deem and Ramdas Pophale) SiO2 
 PCOD8091394
Probable space group: C 2/M
;
_chemical_formula_sum "Si O2"
_cell_formula_units_Z 40
_cell_length_a 18.292558
_cell_length_b 7.674667
_cell_length_c 27.306821
_cell_angle_alpha 90.000000
_cell_angle_beta 32.480146
_cell_angle_gamma 90.000000
_cell_volume 2058.663362
_symmetry_space_group_name_H-M "C 2/M"
_symmetry_group_IT_number 12
_symmetry_cell_setting 'monoclinic'
loop_
_space_group_symop_operation_xyz
x,y,z
-x,y,-z
-x,-y,-z
x,-y,z
1/2+x,1/2+y,z
1/2-x,1/2+y,-z
1/2-x,1/2-y,-z
1/2+x,1/2-y,z
loop_
_atom_site_type_symbol
_atom_site_label
_atom_site_fract_x
_atom_site_fract_y
_atom_site_fract_z
Si Si1 0.715498 0.000000 0.395945
Si Si2 0.870709 0.692981 0.268111
Si Si3 0.035516 0.500000 0.401194
Si Si4 0.797537 0.798463 0.732745
Si Si5 0.151838 0.293687 0.914151
Si Si6 0.824508 0.204303 0.908153
O O1 0.810609 0.828855 0.341355
O O2 0.616777 0.000000 0.405674
O O3 0.625961 0.000000 0.496153
O O4 0.825055 0.500000 0.310654
O O5 0.815080 0.732896 0.245325
O O6 0.032535 0.698602 0.174430
O O7 0.071986 0.675426 0.350575
O O8 0.730307 0.735284 0.821113
O O9 0.845795 0.000000 0.707445
O O10 0.141019 0.500000 0.922460
O O11 0.232959 0.223599 0.915386
O O12 0.000000 0.212594 0.000000
O O13 0.850874 0.000000 0.888553
O O14 0.750000 0.250000 0.000000
#
# Coordination Sequence:
#
# PCOD8091394 Si02
#       6
#     4   8   4   8   8   8
#     4   9  18  34  54  82 113 138 175 227 276 322
#     4  10  19  34  56  80 109 144 179 222 269 318
#     4   9  18  32  55  84 110 136 178 229 274 320
#     4   9  18  34  55  79 109 144 180 224 270 319
#     4   9  18  34  54  77 108 148 181 220 267 318
#     4  11  21  34  53  79 112 146 179 224 265 319
#
# _framework density 19.430083
#
# number of rings (size 3 to 8) (size 9 to 14) (size 15 to 20)
#    0.000    2.400    1.000    1.800    0.000    4.000 
#    3.600    4.500    0.000    1.200    0.000    0.000 
#    0.000    0.000    0.000    0.000    0.000    0.000 
#
# Total GULP energy -248003.729699 kJ/mol
# GULP energy per Si atom -12400.186485 kJ/mol
# Density = 1.938586 g / cm^3
# Si number density = 19.430083 Si / 1000 Ang^3
#
#
#
# Elastic Constant Matrix: (Units=GPa)
#
#
# Indices 1 2 3 4 5 6 
#
# 1 89.5180 31.8498 59.3834 -0.0024 5.0614 0.0056
# 2 31.8498 103.3037 63.5125 -0.0112 6.3863 0.0039
# 3 59.3834 63.5125 180.6516 0.0000 10.1635 -0.0004
# 4 -0.0024 -0.0112 0.0000 29.4634 -0.0001 3.1085
# 5 5.0614 6.3863 10.1635 -0.0001 23.4908 -0.0006
# 6 0.0056 0.0039 -0.0004 3.1085 -0.0006 14.5169
#
#
#
# Elastic Compliance Matrix: (Units=1/GPa)
#
#
# Indices 1 2 3 4 5 6 
#
# 1 0.014613 -0.001950 -0.004070 0.000001 -0.000858 -0.000005
# 2 -0.001950 0.012663 -0.003732 0.000005 -0.001408 -0.000004
# 3 -0.004070 -0.003732 0.008280 -0.000002 -0.001691 0.000003
# 4 0.000001 0.000005 -0.000002 0.034725 -0.000001 -0.007436
# 5 -0.000858 -0.001408 -0.001691 -0.000001 0.043869 0.000003
# 6 -0.000005 -0.000004 0.000003 -0.007436 0.000003 0.070478
#
#
# Mechanical properties :
#
#
# Convention : Reuss Voigt Hill
#
# Bulk Modulus (GPa) = 62.29341 75.88498 69.08919
# Shear Modulus (GPa) = 23.86843 28.07606 25.97224
#
# Velocity S-wave (km/s) = 3.50869 3.80541 3.66006
# Velocity P-wave (km/s) = 6.96739 7.64516 7.31413
#
# Compressibility (1/GPa) = 0.01605306
#
# Stress axis : x y z
#
# Youngs Moduli (GPa) = 68.43223 78.97170 120.76755
#
# Poissons Ratio (x) = 0.15402 0.49148
# Poissons Ratio (y) = 0.13346 0.45066
# Poissons Ratio (z) = 0.27849 0.29469
#
# Static dielectric constant tensor:
#      x y z
#    x 3.374140 0.000870 -0.161690 
#    y 0.000870 3.612080 0.002690 
#    z -0.161690 0.002690 3.094040 
# 
# 
# High freq. dielectric constant tensor:
#      x y z
#    x 1.731760 0.000000 0.001640 
#    y 0.000000 1.759950 0.000000 
#    z 0.001640 0.000000 1.752690 
# 
# From -- ./inp_files/250262.got.cif
#   From: 2010.06.25/outbox.cif.g09.slc.cpg/sg12_126_cif.got.tgz:250262.got - 2010.06.28 00:19:55.
