data_PCOD8091335
_publ_section_title
;
Structure prediction by ZEFSAII (Michael W. Deem and Ramdas Pophale) SiO2 
 PCOD8091335
Probable space group: C 2/M
;
_chemical_formula_sum "Si O2"
_cell_formula_units_Z 64
_cell_length_a 25.196318
_cell_length_b 9.064196
_cell_length_c 28.490956
_cell_angle_alpha 90.000000
_cell_angle_beta 149.237757
_cell_angle_gamma 90.000000
_cell_volume 3328.122141
_symmetry_space_group_name_H-M "C 2/M"
_symmetry_group_IT_number 12
_symmetry_cell_setting 'monoclinic'
loop_
_space_group_symop_operation_xyz
x,y,z
-x,y,-z
-x,-y,-z
x,-y,z
1/2+x,1/2+y,z
1/2-x,1/2+y,-z
1/2-x,1/2-y,-z
1/2+x,1/2-y,z
loop_
_atom_site_type_symbol
_atom_site_label
_atom_site_fract_x
_atom_site_fract_y
_atom_site_fract_z
Si Si1 0.675199 0.674472 0.010203
Si Si2 0.245148 0.166011 0.239681
Si Si3 0.190707 0.324491 0.286551
Si Si4 0.921862 0.170582 0.326392
Si Si5 0.494707 0.669858 0.803873
Si Si6 0.908761 0.165794 0.958669
Si Si7 0.421715 0.329270 0.479473
Si Si8 0.383019 0.328855 0.191676
O O1 0.692915 0.500000 0.027941
O O2 0.617404 0.742154 0.012045
O O3 0.787892 0.747798 0.093728
O O4 0.601853 0.717369 0.911090
O O5 0.172414 0.254021 0.221196
O O6 0.352793 0.248246 0.312919
O O7 0.194002 0.164748 0.149970
O O8 0.263650 0.000000 0.272133
O O9 0.183005 0.500000 0.278506
O O10 0.304834 0.264332 0.388777
O O11 0.103087 0.267921 0.255686
O O12 0.911561 0.233728 0.265412
O O13 0.037089 0.192900 0.435609
O O14 0.889510 0.000000 0.301710
O O15 0.469209 0.500000 0.796465
O O16 0.515845 0.693426 0.764474
O O17 0.948915 0.000000 0.000268
O O18 0.000000 0.251399 0.000000
O O19 0.500000 0.257591 0.500000
O O20 0.411797 0.500000 0.459046
O O21 0.353286 0.500000 0.172189
#
# Coordination Sequence:
#
# PCOD8091335 Si02
#       8
#     8   8   8   8   8   8   8   8
#     4  10  19  34  56  78 108 150 189 222 264 328
#     4  11  20  32  53  80 112 143 176 221 273 328
#     4  11  22  37  58  82 108 143 187 229 273 328
#     4  10  19  35  57  80 109 142 180 224 270 325
#     4  10  22  39  56  79 112 150 185 224 280 327
#     4   9  17  29  46  71 104 144 180 208 254 321
#     4   9  17  33  57  81 107 143 181 219 272 338
#     4  10  21  36  57  83 112 145 185 234 276 313
#
# _framework density 19.230065
#
# number of rings (size 3 to 8) (size 9 to 14) (size 15 to 20)
#    0.000    2.000    2.500    1.875    0.000    3.000 
#    0.000    2.500    0.000    1.875    0.000    0.000 
#    0.000    0.000    0.000    0.000    0.000    0.000 
#
# Total GULP energy -396600.805228 kJ/mol
# GULP energy per Si atom -12393.775163 kJ/mol
# Density = 1.918630 g / cm^3
# Si number density = 19.230065 Si / 1000 Ang^3
#
#
#
# Elastic Constant Matrix: (Units=GPa)
#
#
# Indices 1 2 3 4 5 6 
#
# 1 117.4064 36.0875 40.1842 -0.0001 9.4594 -0.0001
# 2 36.0875 57.5467 26.8376 -0.0003 5.0288 -0.0006
# 3 40.1842 26.8376 82.1175 0.0002 0.7043 -0.0001
# 4 -0.0001 -0.0003 0.0002 20.9387 0.0000 5.8334
# 5 9.4594 5.0288 0.7043 0.0000 22.6386 0.0000
# 6 -0.0001 -0.0006 -0.0001 5.8334 0.0000 26.6740
#
#
#
# Elastic Compliance Matrix: (Units=1/GPa)
#
#
# Indices 1 2 3 4 5 6 
#
# 1 0.011790 -0.005190 -0.004042 0.000000 -0.003648 0.000000
# 2 -0.005190 0.023223 -0.005026 0.000000 -0.002834 0.000000
# 3 -0.004042 -0.005026 0.015778 0.000000 0.002314 0.000000
# 4 0.000000 0.000000 0.000000 0.050857 0.000000 -0.011122
# 5 -0.003648 -0.002834 0.002314 0.000000 0.046254 0.000000
# 6 0.000000 0.000000 0.000000 -0.011122 0.000000 0.039922
#
#
# Mechanical properties :
#
#
# Convention : Reuss Voigt Hill
#
# Bulk Modulus (GPa) = 44.89089 51.47659 48.18374
# Shear Modulus (GPa) = 22.34486 24.31435 23.32960
#
# Velocity S-wave (km/s) = 3.41247 3.55969 3.48686
# Velocity P-wave (km/s) = 6.23870 6.61227 6.42820
#
# Compressibility (1/GPa) = 0.02227624
#
# Stress axis : x y z
#
# Youngs Moduli (GPa) = 84.81818 43.06044 63.37793
#
# Poissons Ratio (x) = 0.22347 0.25618
# Poissons Ratio (y) = 0.44018 0.31853
# Poissons Ratio (z) = 0.34284 0.21642
#
# Static dielectric constant tensor:
#      x y z
#    x 3.617020 0.000000 -0.039630 
#    y 0.000000 3.261900 0.000000 
#    z -0.039630 0.000000 3.506060 
# 
# 
# High freq. dielectric constant tensor:
#      x y z
#    x 1.752340 0.000000 -0.004760 
#    y 0.000000 1.716880 0.000000 
#    z -0.004760 0.000000 1.743080 
# 
# From -- ./inp_files/382563.got.cif
#   From: 2010.06.25/outbox.cif.g09.slc.cpg/sg12_192_cif.got.tgz:382563.got - 2010.06.28 00:19:55.
