data_PCOD8091594
_publ_section_title
;
Structure prediction by ZEFSAII (Michael W. Deem and Ramdas Pophale) SiO2 
 PCOD8091594
Probable space group: C 2/M
;
_chemical_formula_sum "Si O2"
_cell_formula_units_Z 56
_cell_length_a 13.483358
_cell_length_b 16.676877
_cell_length_c 14.456789
_cell_angle_alpha 90.000000
_cell_angle_beta 123.005892
_cell_angle_gamma 90.000000
_cell_volume 2726.132937
_symmetry_space_group_name_H-M "C 2/M"
_symmetry_group_IT_number 12
_symmetry_cell_setting 'monoclinic'
loop_
_space_group_symop_operation_xyz
x,y,z
-x,y,-z
-x,-y,-z
x,-y,z
1/2+x,1/2+y,z
1/2-x,1/2+y,-z
1/2-x,1/2-y,-z
1/2+x,1/2-y,z
loop_
_atom_site_type_symbol
_atom_site_label
_atom_site_fract_x
_atom_site_fract_y
_atom_site_fract_z
Si Si1 0.766851 0.907335 0.172906
Si Si2 0.297443 0.905247 0.240074
Si Si3 0.213317 0.339669 0.960312
Si Si4 0.541857 0.092014 0.163926
Si Si5 0.559586 0.909127 0.381331
Si Si6 0.994170 0.904158 0.391771
Si Si7 0.720471 0.594963 0.398620
O O1 0.640669 0.872838 0.144275
O O2 0.876589 0.868011 0.283833
O O3 0.767441 0.000000 0.197825
O O4 0.781117 0.893454 0.070743
O O5 0.244251 0.863740 0.121225
O O6 0.429303 0.870570 0.327752
O O7 0.215650 0.884665 0.286688
O O8 0.304838 0.000000 0.223322
O O9 0.072975 0.352226 0.900300
O O10 0.250000 0.250000 0.000000
O O11 0.599166 0.095494 0.294748
O O12 0.504955 0.000000 0.120930
O O13 0.660971 0.866838 0.494913
O O14 0.548967 0.000000 0.410767
O O15 0.000000 0.873350 0.500000
O O16 0.105413 0.869061 0.390648
O O17 0.994835 0.000000 0.388296
O O18 0.723057 0.500000 0.415336
#
# Coordination Sequence:
#
# PCOD8091594 Si02
#       7
#     8   8   8   8   8   8   8
#     4  10  19  34  57  80 102 134 177 223 267 310
#     4   9  17  30  49  74 104 139 180 218 253 307
#     4  11  22  35  50  73 104 137 172 220 273 317
#     4   9  17  32  57  84 105 129 171 224 269 311
#     4   8  13  23  45  78 108 131 161 208 262 309
#     4   9  17  29  48  77 108 133 164 213 268 315
#     4   9  15  25  44  74 110 140 166 204 259 316
#
# _framework density 20.541917999999999
#
# number of rings (size 3 to 8) (size 9 to 14) (size 15 to 20)
#    0.000    2.714    0.000    3.857    0.000    6.286 
#    0.000    3.571    0.000    6.857    0.000    7.000 
#    0.000    0.000    0.000    0.000    0.000    0.000 
#
# Total GULP energy -347048.344239 kJ/mol
# GULP energy per Si atom -12394.583723 kJ/mol
# Density = 2.049516 g / cm^3
# Si number density = 20.541918 Si / 1000 Ang^3
#
#
#
# Elastic Constant Matrix: (Units=GPa)
#
#
# Indices 1 2 3 4 5 6 
#
# 1 142.2434 27.4099 75.5649 0.0000 -16.4556 0.0000
# 2 27.4099 33.3707 26.6143 0.0000 2.8882 0.0000
# 3 75.5649 26.6143 159.6130 0.0000 -12.4480 0.0000
# 4 0.0000 0.0000 0.0000 4.1057 0.0000 -0.5854
# 5 -16.4556 2.8882 -12.4480 0.0000 34.0771 0.0000
# 6 0.0000 0.0000 0.0000 -0.5854 0.0000 9.6862
#
#
#
# Elastic Compliance Matrix: (Units=1/GPa)
#
#
# Indices 1 2 3 4 5 6 
#
# 1 0.010688 -0.006216 -0.003685 0.000000 0.004342 0.000000
# 2 -0.006216 0.039090 -0.004187 0.000000 -0.007844 0.000000
# 3 -0.003685 -0.004187 0.008849 0.000000 0.001808 0.000000
# 4 0.000000 0.000000 0.000000 0.245680 0.000000 0.014847
# 5 0.004342 -0.007844 0.001808 0.000000 0.032767 0.000000
# 6 0.000000 0.000000 0.000000 0.014847 0.000000 0.104137
#
#
# Mechanical properties :
#
#
# Convention : Reuss Voigt Hill
#
# Bulk Modulus (GPa) = 32.83915 66.04505 49.44210
# Shear Modulus (GPa) = 10.42674 23.28299 16.85486
#
# Velocity S-wave (km/s) = 2.25541 3.37031 2.86756
# Velocity P-wave (km/s) = 4.77531 6.88233 5.92326
#
# Compressibility (1/GPa) = 0.03045146
#
# Stress axis : x y z
#
# Youngs Moduli (GPa) = 93.56507 25.58198 113.00963
#
# Poissons Ratio (x) = 0.15901 0.41642
# Poissons Ratio (y) = 0.58157 0.47318
# Poissons Ratio (z) = 0.34477 0.10711
#
# Static dielectric constant tensor:
#      x y z
#    x 3.862980 0.000000 -0.052600 
#    y 0.000000 2.996440 0.000000 
#    z -0.052600 0.000000 3.954070 
# 
# 
# High freq. dielectric constant tensor:
#      x y z
#    x 1.802750 0.000000 -0.010910 
#    y 0.000000 1.728720 0.000000 
#    z -0.010910 0.000000 1.817670 
# 
# From -- ./inp_files/216441.got.cif
#   From: 2010.06.25/outbox.cif.g09.slc.cpg/sg12_109_cif.got.tgz:216441.got - 2010.06.28 00:19:55.
