data_PCOD8091340
_publ_section_title
;
Structure prediction by ZEFSAII (Michael W. Deem and Ramdas Pophale) SiO2 
 PCOD8091340
Probable space group: C 2/M
;
_chemical_formula_sum "Si O2"
_cell_formula_units_Z 48
_cell_length_a 29.379553
_cell_length_b 9.483681
_cell_length_c 14.806193
_cell_angle_alpha 90.000000
_cell_angle_beta 141.728917
_cell_angle_gamma 90.000000
_cell_volume 2555.198969
_symmetry_space_group_name_H-M "C 2/M"
_symmetry_group_IT_number 12
_symmetry_cell_setting 'monoclinic'
loop_
_space_group_symop_operation_xyz
x,y,z
-x,y,-z
-x,-y,-z
x,-y,z
1/2+x,1/2+y,z
1/2-x,1/2+y,-z
1/2-x,1/2-y,-z
1/2+x,1/2-y,z
loop_
_atom_site_type_symbol
_atom_site_label
_atom_site_fract_x
_atom_site_fract_y
_atom_site_fract_z
Si Si1 0.069962 0.667607 0.053697
Si Si2 0.496742 0.665635 0.599102
Si Si3 0.272553 0.831630 0.624275
Si Si4 0.916897 0.342205 0.126535
Si Si5 0.834146 0.833942 0.385098
Si Si6 0.248802 0.657144 0.085442
O O1 0.070363 0.500000 0.052663
O O2 0.146256 0.718489 0.217851
O O3 0.060628 0.721866 0.936054
O O4 0.000000 0.727065 0.000000
O O5 0.500000 0.715597 0.500000
O O6 0.512395 0.500000 0.628989
O O7 0.558208 0.744477 0.752338
O O8 0.419465 0.707057 0.525239
O O9 0.250000 0.750000 0.500000
O O10 0.212413 0.777628 0.603115
O O11 0.269450 0.000000 0.604086
O O12 0.949495 0.500000 0.190521
O O13 0.829636 0.348509 0.989483
O O14 0.803838 0.772022 0.243575
O O15 0.822494 0.000000 0.361393
O O16 0.274704 0.500000 0.098453
O O17 0.250000 0.750000 0.000000
#
# Coordination Sequence:
#
# PCOD8091340 Si02
#       6
#     8   8   8   8   8   8
#     4   9  18  34  56  80 106 139 176 213 262 322
#     4  10  21  36  54  77 107 145 181 213 259 318
#     4  10  20  36  57  80 106 138 176 218 265 316
#     4  10  20  35  56  81 108 137 175 223 266 307
#     4   9  18  35  55  74 105 143 175 210 261 321
#     4  10  19  34  56  79 103 137 177 217 262 311
#
# _framework density 18.785229000000001
#
# number of rings (size 3 to 8) (size 9 to 14) (size 15 to 20)
#    0.000    2.333    1.667    1.000    2.333    2.333 
#    0.000    2.500    0.000    1.000    0.000    0.000 
#    0.000    0.000    0.000    0.000    0.000    0.000 
#
# Total GULP energy -297547.513276 kJ/mol
# GULP energy per Si atom -12397.813053 kJ/mol
# Density = 1.874247 g / cm^3
# Si number density = 18.785229 Si / 1000 Ang^3
#
#
#
# Elastic Constant Matrix: (Units=GPa)
#
#
# Indices 1 2 3 4 5 6 
#
# 1 101.5436 19.6504 19.5789 0.0000 -10.7753 0.0000
# 2 19.6504 37.5946 27.8037 0.0000 -10.9822 0.0000
# 3 19.5789 27.8037 93.3299 0.0000 -14.9823 0.0000
# 4 0.0000 0.0000 0.0000 28.9154 0.0000 -7.2461
# 5 -10.7753 -10.9822 -14.9823 0.0000 39.9439 0.0000
# 6 0.0000 0.0000 0.0000 -7.2461 0.0000 20.8089
#
#
#
# Elastic Compliance Matrix: (Units=1/GPa)
#
#
# Indices 1 2 3 4 5 6 
#
# 1 0.011068 -0.004907 -0.000636 0.000000 0.001398 0.000000
# 2 -0.004907 0.037662 -0.009301 0.000000 0.005543 0.000000
# 3 -0.000636 -0.009301 0.014025 0.000000 0.002532 0.000000
# 4 0.000000 0.000000 0.000000 0.037890 0.000000 0.013194
# 5 0.001398 0.005543 0.002532 0.000000 0.027886 0.000000
# 6 0.000000 0.000000 0.000000 0.013194 0.000000 0.052651
#
#
# Mechanical properties :
#
#
# Convention : Reuss Voigt Hill
#
# Bulk Modulus (GPa) = 30.23952 40.72601 35.48277
# Shear Modulus (GPa) = 22.53351 28.96266 25.74808
#
# Velocity S-wave (km/s) = 3.46719 3.93081 3.70625
# Velocity P-wave (km/s) = 5.67106 6.50604 6.10285
#
# Compressibility (1/GPa) = 0.03306931
#
# Stress axis : x y z
#
# Youngs Moduli (GPa) = 90.34662 26.55207 71.30005
#
# Poissons Ratio (x) = 0.13028 0.04533
# Poissons Ratio (y) = 0.44331 0.66314
# Poissons Ratio (z) = 0.05744 0.24695
#
# Static dielectric constant tensor:
#      x y z
#    x 3.948270 0.000000 0.176120 
#    y 0.000000 3.047640 0.000000 
#    z 0.176120 0.000000 3.503820 
# 
# 
# High freq. dielectric constant tensor:
#      x y z
#    x 1.746420 0.000000 0.000180 
#    y 0.000000 1.682850 0.000000 
#    z 0.000180 0.000000 1.738890 
# 
# From -- ./inp_files/153644.got.cif
#   From: 2010.06.25/outbox.cif.g09.slc.cpg/sg12_77_cif.got.tgz:153644.got - 2010.06.28 00:19:55.
