data_PCOD8091948
_publ_section_title
;
Structure prediction by ZEFSAII (Michael W. Deem and Ramdas Pophale) SiO2 
 PCOD8091948
Probable space group: C 2/M
;
_chemical_formula_sum "Si O2"
_cell_formula_units_Z 40
_cell_length_a 29.887739
_cell_length_b 9.003624
_cell_length_c 7.926085
_cell_angle_alpha 90.000000
_cell_angle_beta 104.577905
_cell_angle_gamma 90.000000
_cell_volume 2064.227618
_symmetry_space_group_name_H-M "C 2/M"
_symmetry_group_IT_number 12
_symmetry_cell_setting 'monoclinic'
loop_
_space_group_symop_operation_xyz
x,y,z
-x,y,-z
-x,-y,-z
x,-y,z
1/2+x,1/2+y,z
1/2-x,1/2+y,-z
1/2-x,1/2-y,-z
1/2+x,1/2-y,z
loop_
_atom_site_type_symbol
_atom_site_label
_atom_site_fract_x
_atom_site_fract_y
_atom_site_fract_z
Si Si1 0.700488 0.823129 0.944028
Si Si2 0.549763 0.324713 0.982894
Si Si3 0.643903 0.172662 0.574343
Si Si4 0.637986 0.175587 0.198135
Si Si5 0.952372 0.672904 0.369842
O O1 0.674817 0.756236 0.753362
O O2 0.705373 0.000000 0.944856
O O3 0.750000 0.750000 0.000000
O O4 0.672094 0.771957 0.082445
O O5 0.554703 0.500000 0.996740
O O6 0.557280 0.271058 0.801168
O O7 0.500000 0.270100 0.000000
O O8 0.588446 0.252597 0.137135
O O9 0.659045 0.224543 0.400749
O O10 0.589541 0.208018 0.543112
O O11 0.652534 0.000000 0.602169
O O12 0.629692 0.000000 0.183687
O O13 0.953807 0.500000 0.319117
O O14 0.000000 0.723834 0.500000
#
# Coordination Sequence:
#
# PCOD8091948 Si02
#       5
#     8   8   8   8   8
#     4  10  21  38  59  85 116 149 190 238 289 340
#     4  11  23  36  52  81 122 157 188 232 287 343
#     4   9  18  35  58  86 114 143 188 243 283 328
#     4  10  20  38  63  84 110 150 194 240 284 332
#     4  10  19  34  58  85 112 149 197 238 278 336
#
# _framework density 19.377707000000001
#
# number of rings (size 3 to 8) (size 9 to 14) (size 15 to 20)
#    0.000    2.000    2.000    1.800    0.000    5.200 
#    0.000    2.000    0.000    0.000    0.000    0.000 
#    0.000    0.000    0.000    0.000    0.000    0.000 
#
# Total GULP energy -247976.727380 kJ/mol
# GULP energy per Si atom -12398.836369 kJ/mol
# Density = 1.933360 g / cm^3
# Si number density = 19.377707 Si / 1000 Ang^3
#
#
#
# Elastic Constant Matrix: (Units=GPa)
#
#
# Indices 1 2 3 4 5 6 
#
# 1 128.4680 30.7188 82.7973 0.0000 5.6597 0.0000
# 2 30.7188 27.4032 24.8181 0.0000 -1.9086 0.0000
# 3 82.7973 24.8181 173.9858 0.0000 -4.4626 0.0000
# 4 0.0000 0.0000 0.0000 10.7210 0.0000 12.8930
# 5 5.6597 -1.9086 -4.4626 0.0000 38.1262 0.0000
# 6 0.0000 0.0000 0.0000 12.8930 0.0000 25.4782
#
#
#
# Elastic Compliance Matrix: (Units=1/GPa)
#
#
# Indices 1 2 3 4 5 6 
#
# 1 0.013880 -0.011169 -0.005094 0.000000 -0.003216 0.000000
# 2 -0.011169 0.050969 -0.001853 0.000000 0.003993 0.000000
# 3 -0.005094 -0.001853 0.008479 0.000000 0.001656 0.000000
# 4 0.000000 0.000000 0.000000 0.238289 0.000000 -0.120584
# 5 -0.003216 0.003993 0.001656 0.000000 0.027100 0.000000
# 6 0.000000 0.000000 0.000000 -0.120584 0.000000 0.100270
#
#
# Mechanical properties :
#
#
# Convention : Reuss Voigt Hill
#
# Bulk Modulus (GPa) = 26.95826 67.39173 47.17500
# Shear Modulus (GPa) = 10.25465 27.63326 18.94395
#
# Velocity S-wave (km/s) = 2.30293 3.78038 3.13008
# Velocity P-wave (km/s) = 4.58405 7.34224 6.12054
#
# Compressibility (1/GPa) = 0.03709438
#
# Stress axis : x y z
#
# Youngs Moduli (GPa) = 72.04694 19.61988 117.94224
#
# Poissons Ratio (x) = 0.21914 0.60085
# Poissons Ratio (y) = 0.80471 0.21851
# Poissons Ratio (z) = 0.36704 0.03635
#
# Static dielectric constant tensor:
#      x y z
#    x 3.626180 0.000000 -0.102090 
#    y 0.000000 3.206650 0.000000 
#    z -0.102090 0.000000 4.078980 
# 
# 
# High freq. dielectric constant tensor:
#      x y z
#    x 1.756280 0.000000 -0.004400 
#    y 0.000000 1.721250 0.000000 
#    z -0.004400 0.000000 1.770850 
# 
# From -- ./inp_files/101002.got.cif
#   From: 2010.06.25/outbox.cif.g09.slc.cpg/sg12_51_cif.got.tgz:101002.got - 2010.06.28 00:19:55.
