data_PCOD8091139
_publ_section_title
;
Structure prediction by ZEFSAII (Michael W. Deem and Ramdas Pophale) SiO2 
 PCOD8091139
Probable space group: C 2/M
;
_chemical_formula_sum "Si O2"
_cell_formula_units_Z 64
_cell_length_a 26.832631
_cell_length_b 10.009856
_cell_length_c 27.014516
_cell_angle_alpha 90.000000
_cell_angle_beta 153.669269
_cell_angle_gamma 90.000000
_cell_volume 3218.346393
_symmetry_space_group_name_H-M "C 2/M"
_symmetry_group_IT_number 12
_symmetry_cell_setting 'monoclinic'
loop_
_space_group_symop_operation_xyz
x,y,z
-x,y,-z
-x,-y,-z
x,-y,z
1/2+x,1/2+y,z
1/2-x,1/2+y,-z
1/2-x,1/2-y,-z
1/2+x,1/2-y,z
loop_
_atom_site_type_symbol
_atom_site_label
_atom_site_fract_x
_atom_site_fract_y
_atom_site_fract_z
Si Si1 0.386771 0.146724 0.160525
Si Si2 0.697175 0.650331 0.061928
Si Si3 0.871589 0.347719 0.303483
Si Si4 0.029071 0.656009 0.872412
Si Si5 0.848138 0.853045 0.674527
Si Si6 0.940635 0.852597 0.652794
Si Si7 0.121902 0.256881 0.502776
Si Si8 0.367557 0.354435 0.383902
O O1 0.256782 0.157185 0.061076
O O2 0.396920 0.167643 0.111140
O O3 0.456809 0.251132 0.254617
O O4 0.433791 0.000000 0.216858
O O5 0.648392 0.500000 0.027136
O O6 0.791844 0.684822 0.186500
O O7 0.598958 0.762236 0.976512
O O8 0.858996 0.500000 0.309950
O O9 0.826780 0.255908 0.308424
O O10 0.001619 0.324316 0.405411
O O11 0.009223 0.500000 0.869920
O O12 0.911843 0.734234 0.760498
O O13 0.854743 0.823409 0.621437
O O14 0.718253 0.863150 0.574902
O O15 0.901577 0.000000 0.733459
O O16 0.881336 0.843600 0.546689
O O17 0.992023 0.000000 0.703905
O O18 0.167761 0.180626 0.591841
O O19 0.500000 0.362730 0.500000
O O20 0.316276 0.500000 0.324350
#
# Coordination Sequence:
#
# PCOD8091139 Si02
#       8
#     8   8   8   8   8   8   8   8
#     4   9  18  33  51  75 108 144 183 228 274 321
#     4  10  19  34  55  78 108 142 179 229 278 325
#     4  10  21  36  57  85 111 140 180 228 279 329
#     4  10  21  35  53  78 108 146 187 227 270 324
#     4  10  22  37  55  80 112 152 191 228 265 317
#     4  10  20  33  51  80 114 149 188 226 268 321
#     4  11  20  35  58  82 111 147 187 224 273 327
#     4   9  20  36  54  79 112 144 177 224 278 330
#
# _framework density 19.885988000000001
#
# number of rings (size 3 to 8) (size 9 to 14) (size 15 to 20)
#    0.000    2.125    1.250    1.875    0.000    6.250 
#    0.000    2.500    0.000    0.750    0.000    4.375 
#    0.000    0.000    0.000    0.000    0.000    0.000 
#
# Total GULP energy -396563.808212 kJ/mol
# GULP energy per Si atom -12392.619007 kJ/mol
# Density = 1.984073 g / cm^3
# Si number density = 19.885988 Si / 1000 Ang^3
#
#
#
# Elastic Constant Matrix: (Units=GPa)
#
#
# Indices 1 2 3 4 5 6 
#
# 1 69.5105 41.0280 33.0793 -0.0002 -5.6764 0.0000
# 2 41.0280 157.1719 62.2954 0.0000 -6.8701 -0.0001
# 3 33.0793 62.2954 83.7360 -0.0002 -7.2308 -0.0002
# 4 -0.0002 0.0000 -0.0002 30.2854 -0.0001 -6.0153
# 5 -5.6764 -6.8701 -7.2308 -0.0001 14.3092 -0.0001
# 6 0.0000 -0.0001 -0.0002 -6.0153 -0.0001 6.3492
#
#
#
# Elastic Compliance Matrix: (Units=1/GPa)
#
#
# Indices 1 2 3 4 5 6 
#
# 1 0.018686 -0.002720 -0.005051 0.000000 0.003554 0.000000
# 2 -0.002720 0.009432 -0.005902 0.000000 0.000467 0.000000
# 3 -0.005051 -0.005902 0.018728 0.000000 0.004626 0.000001
# 4 0.000000 0.000000 0.000000 0.040673 0.000001 0.038534
# 5 0.003554 0.000467 0.004626 0.000001 0.073857 0.000002
# 6 0.000000 0.000000 0.000001 0.038534 0.000002 0.194007
#
#
# Mechanical properties :
#
#
# Convention : Reuss Voigt Hill
#
# Bulk Modulus (GPa) = 51.28422 64.80267 58.04345
# Shear Modulus (GPa) = 12.84586 21.78982 17.31784
#
# Velocity S-wave (km/s) = 2.54436 3.31378 2.95423
# Velocity P-wave (km/s) = 5.87170 6.87746 6.39438
#
# Compressibility (1/GPa) = 0.01949917
#
# Stress axis : x y z
#
# Youngs Moduli (GPa) = 53.51602 106.01800 53.39581
#
# Poissons Ratio (x) = 0.28842 0.26970
# Poissons Ratio (y) = 0.14559 0.31515
# Poissons Ratio (z) = 0.27031 0.62574
#
# Static dielectric constant tensor:
#      x y z
#    x 3.559460 0.000000 -0.138960 
#    y 0.000000 3.823010 0.000000 
#    z -0.138960 0.000000 3.275730 
# 
# 
# High freq. dielectric constant tensor:
#      x y z
#    x 1.753270 0.000000 -0.009470 
#    y 0.000000 1.788490 0.000000 
#    z -0.009470 0.000000 1.747780 
# 
# From -- ./inp_files/384600.got.cif
#   From: 2010.06.25/outbox.cif.g09.slc.cpg/sg12_193_cif.got.tgz:384600.got - 2010.06.28 00:19:55.
