data_PCOD8091892
_publ_section_title
;
Structure prediction by ZEFSAII (Michael W. Deem and Ramdas Pophale) SiO2 
 PCOD8091892
Probable space group: C 2/M
;
_chemical_formula_sum "Si O2"
_cell_formula_units_Z 48
_cell_length_a 20.572689
_cell_length_b 8.548713
_cell_length_c 14.902992
_cell_angle_alpha 90.000000
_cell_angle_beta 70.653544
_cell_angle_gamma 90.000000
_cell_volume 2472.989102
_symmetry_space_group_name_H-M "C 2/M"
_symmetry_group_IT_number 12
_symmetry_cell_setting 'monoclinic'
loop_
_space_group_symop_operation_xyz
x,y,z
-x,y,-z
-x,-y,-z
x,-y,z
1/2+x,1/2+y,z
1/2-x,1/2+y,-z
1/2-x,1/2-y,-z
1/2+x,1/2-y,z
loop_
_atom_site_type_symbol
_atom_site_label
_atom_site_fract_x
_atom_site_fract_y
_atom_site_fract_z
Si Si1 0.342513 0.685700 0.110516
Si Si2 0.604069 0.682188 0.104491
Si Si3 0.946524 0.182016 0.213261
Si Si4 0.190130 0.683263 0.223904
Si Si5 0.037637 0.318342 0.606592
Si Si6 0.902429 0.817843 0.590466
O O1 0.345867 0.500000 0.107598
O O2 0.393829 0.749115 0.163467
O O3 0.265772 0.747462 0.164984
O O4 0.366353 0.747684 0.002669
O O5 0.621633 0.500000 0.111502
O O6 0.522766 0.711703 0.141317
O O7 0.638136 0.781804 0.167306
O O8 0.931649 0.276656 0.310896
O O9 0.933552 0.000000 0.238681
O O10 0.191401 0.500000 0.242139
O O11 0.166327 0.768758 0.325657
O O12 0.018818 0.500000 0.609155
O O13 0.093571 0.275935 0.504903
O O14 0.968253 0.219351 0.622691
O O15 0.900817 0.000000 0.569338
#
# Coordination Sequence:
#
# PCOD8091892 Si02
#       6
#     8   8   8   8   8   8
#     4   9  20  36  55  81 114 154 191 228 273 328
#     4  10  19  34  58  83 109 148 196 234 272 325
#     4  10  19  35  58  83 113 149 191 229 270 328
#     4  11  21  35  55  82 117 149 185 232 282 326
#     4  11  21  35  57  86 115 140 176 228 286 331
#     4  11  21  36  58  83 109 143 188 228 272 330
#
# _framework density 19.409707999999998
#
# number of rings (size 3 to 8) (size 9 to 14) (size 15 to 20)
#    0.000    1.667    1.667    5.500    0.000    2.000 
#    0.000    4.167    0.000    2.000    0.000    0.000 
#    0.000    0.000    0.000    0.000    0.000    0.000 
#
# Total GULP energy -297708.346730 kJ/mol
# GULP energy per Si atom -12404.514447 kJ/mol
# Density = 1.936553 g / cm^3
# Si number density = 19.409708 Si / 1000 Ang^3
#
#
#
# Elastic Constant Matrix: (Units=GPa)
#
#
# Indices 1 2 3 4 5 6 
#
# 1 72.1660 13.3569 31.9771 0.0000 -11.7230 0.0000
# 2 13.3569 59.8363 19.6820 0.0000 -3.5447 0.0000
# 3 31.9771 19.6820 139.6876 0.0000 -13.0092 0.0000
# 4 0.0000 0.0000 0.0000 22.4636 0.0000 -3.0253
# 5 -11.7230 -3.5447 -13.0092 0.0000 20.3024 0.0000
# 6 0.0000 0.0000 0.0000 -3.0253 0.0000 17.5580
#
#
#
# Elastic Compliance Matrix: (Units=1/GPa)
#
#
# Indices 1 2 3 4 5 6 
#
# 1 0.016751 -0.002375 -0.002805 0.000000 0.007460 0.000000
# 2 -0.002375 0.017908 -0.001931 0.000000 0.000518 0.000000
# 3 -0.002805 -0.001931 0.008392 0.000000 0.003420 0.000000
# 4 0.000000 0.000000 0.000000 0.045574 0.000000 0.007853
# 5 0.007460 0.000518 0.003420 0.000000 0.055845 0.000000
# 6 0.000000 0.000000 0.000000 0.007853 0.000000 0.058307
#
#
# Mechanical properties :
#
#
# Convention : Reuss Voigt Hill
#
# Bulk Modulus (GPa) = 34.68774 44.63578 39.66176
# Shear Modulus (GPa) = 22.06433 25.84304 23.95369
#
# Velocity S-wave (km/s) = 3.37526 3.65286 3.51680
# Velocity P-wave (km/s) = 5.75326 6.39044 6.08020
#
# Compressibility (1/GPa) = 0.02882863
#
# Stress axis : x y z
#
# Youngs Moduli (GPa) = 59.69645 55.83993 119.16558
#
# Poissons Ratio (x) = 0.13260 0.33430
# Poissons Ratio (y) = 0.14176 0.23016
# Poissons Ratio (z) = 0.16747 0.10785
#
# Static dielectric constant tensor:
#      x y z
#    x 3.461380 0.000000 -0.086640 
#    y 0.000000 3.336680 0.000000 
#    z -0.086640 0.000000 3.829640 
# 
# 
# High freq. dielectric constant tensor:
#      x y z
#    x 1.735370 0.000000 -0.004240 
#    y 0.000000 1.740910 0.000000 
#    z -0.004240 0.000000 1.775310 
# 
# From -- ./inp_files/229845.got.cif
#   From: 2010.06.25/outbox.cif.g09.slc.cpg/sg12_115_cif.got.tgz:229845.got - 2010.06.28 00:19:55.
