data_PCOD8091609
_publ_section_title
;
Structure prediction by ZEFSAII (Michael W. Deem and Ramdas Pophale) SiO2 
 PCOD8091609
Probable space group: C 2/M
;
_chemical_formula_sum "Si O2"
_cell_formula_units_Z 64
_cell_length_a 20.114697
_cell_length_b 14.665395
_cell_length_c 12.471859
_cell_angle_alpha 90.000000
_cell_angle_beta 81.856239
_cell_angle_gamma 90.000000
_cell_volume 3641.972710
_symmetry_space_group_name_H-M "C 2/M"
_symmetry_group_IT_number 12
_symmetry_cell_setting 'monoclinic'
loop_
_space_group_symop_operation_xyz
x,y,z
-x,y,-z
-x,-y,-z
x,-y,z
1/2+x,1/2+y,z
1/2-x,1/2+y,-z
1/2-x,1/2-y,-z
1/2+x,1/2-y,z
loop_
_atom_site_type_symbol
_atom_site_label
_atom_site_fract_x
_atom_site_fract_y
_atom_site_fract_z
Si Si1 0.706059 0.597355 0.237654
Si Si2 0.581389 0.893317 0.201702
Si Si3 0.233055 0.601437 0.214418
Si Si4 0.787070 0.256288 0.605095
Si Si5 0.201670 0.833615 0.007233
Si Si6 0.952068 0.102580 0.719757
Si Si7 0.448521 0.277356 0.918649
Si Si8 0.943486 0.273816 0.592519
O O1 0.737147 0.500000 0.264680
O O2 0.733434 0.670855 0.315330
O O3 0.626946 0.595078 0.264453
O O4 0.723224 0.611299 0.108620
O O5 0.661165 0.878715 0.177037
O O6 0.549576 0.828849 0.117817
O O7 0.555643 0.852662 0.319016
O O8 0.560766 0.000000 0.192610
O O9 0.237956 0.500000 0.257915
O O10 0.243223 0.660562 0.319208
O O11 0.287633 0.613914 0.107618
O O12 0.750000 0.250000 0.500000
O O13 0.867175 0.264964 0.564938
O O14 0.250000 0.750000 0.000000
O O15 0.125054 0.803532 0.025746
O O16 0.974495 0.150550 0.824485
O O17 0.971309 0.174058 0.622205
O O18 0.983856 0.000000 0.698875
O O19 0.500000 0.289971 0.000000
O O20 0.000000 0.310896 0.500000
#
# Coordination Sequence:
#
# PCOD8091609 Si02
#       8
#     8   8   8   8   8   8   8   8
#     4   9  17  31  53  76 101 137 174 208 255 311
#     4   9  18  34  54  75 101 136 177 215 253 302
#     4  10  19  34  57  81 103 136 180 218 256 308
#     4  10  20  35  52  74 108 139 166 217 268 310
#     4  11  17  33  57  79 103 135 176 218 250 303
#     4   8  16  32  51  71  99 135 174 207 244 305
#     4  10  20  33  51  77 110 142 163 202 264 315
#     4   9  18  34  54  74  93 131 180 215 253 302
#
# _framework density 17.572893000000001
#
# number of rings (size 3 to 8) (size 9 to 14) (size 15 to 20)
#    0.000    2.500    2.500    1.875    0.000    2.000 
#    4.500    0.000    0.000    1.500    0.000    0.000 
#    0.000    0.000    0.000    0.000    0.000    0.000 
#
# Total GULP energy -396420.862420 kJ/mol
# GULP energy per Si atom -12388.151951 kJ/mol
# Density = 1.753290 g / cm^3
# Si number density = 17.572893 Si / 1000 Ang^3
#
#
#
# Elastic Constant Matrix: (Units=GPa)
#
#
# Indices 1 2 3 4 5 6 
#
# 1 50.4424 18.9878 45.5123 0.0000 3.2694 0.0000
# 2 18.9878 123.2579 46.0088 0.0000 10.0182 0.0000
# 3 45.5123 46.0088 118.6214 0.0000 5.6081 0.0000
# 4 0.0000 0.0000 0.0000 14.2017 0.0000 -5.0268
# 5 3.2694 10.0182 5.6081 0.0000 34.7983 0.0000
# 6 0.0000 0.0000 0.0000 -5.0268 0.0000 31.5218
#
#
#
# Elastic Compliance Matrix: (Units=1/GPa)
#
#
# Indices 1 2 3 4 5 6 
#
# 1 0.030365 -0.000317 -0.011484 0.000000 -0.000911 0.000000
# 2 -0.000317 0.009653 -0.003519 0.000000 -0.002182 0.000000
# 3 -0.011484 -0.003519 0.014211 0.000000 -0.000198 0.000000
# 4 0.000000 0.000000 0.000000 0.074627 0.000000 0.011901
# 5 -0.000911 -0.002182 -0.000198 0.000000 0.029483 0.000000
# 6 0.000000 0.000000 0.000000 0.011901 0.000000 0.033622
#
#
# Mechanical properties :
#
#
# Convention : Reuss Voigt Hill
#
# Bulk Modulus (GPa) = 42.39517 57.03770 49.71643
# Shear Modulus (GPa) = 21.69546 28.22520 24.96033
#
# Velocity S-wave (km/s) = 3.51750 4.01206 3.77289
# Velocity P-wave (km/s) = 6.37767 7.34782 6.87987
#
# Compressibility (1/GPa) = 0.02358759
#
# Stress axis : x y z
#
# Youngs Moduli (GPa) = 32.93294 103.59603 70.36910
#
# Poissons Ratio (x) = 0.03283 0.80814
# Poissons Ratio (y) = 0.01044 0.24765
# Poissons Ratio (z) = 0.37821 0.36458
#
# Static dielectric constant tensor:
#      x y z
#    x 2.823220 0.000000 -0.069210 
#    y 0.000000 3.936670 0.000000 
#    z -0.069210 0.000000 3.157610 
# 
# 
# High freq. dielectric constant tensor:
#      x y z
#    x 1.642420 0.000000 -0.012340 
#    y 0.000000 1.695220 0.000000 
#    z -0.012340 0.000000 1.676120 
# 
# From -- ./inp_files/156631.got.cif
#   From: 2010.06.25/outbox.cif.g09.slc.cpg/sg12_79_cif.got.tgz:156631.got - 2010.06.28 00:19:55.
