data_PCOD8091656
_publ_section_title
;
Structure prediction by ZEFSAII (Michael W. Deem and Ramdas Pophale) SiO2 
 PCOD8091656
Probable space group: C 2/M
;
_chemical_formula_sum "Si O2"
_cell_formula_units_Z 64
_cell_length_a 19.452839
_cell_length_b 9.540999
_cell_length_c 23.988759
_cell_angle_alpha 90.000000
_cell_angle_beta 128.247191
_cell_angle_gamma 90.000000
_cell_volume 3496.603348
_symmetry_space_group_name_H-M "C 2/M"
_symmetry_group_IT_number 12
_symmetry_cell_setting 'monoclinic'
loop_
_space_group_symop_operation_xyz
x,y,z
-x,y,-z
-x,-y,-z
x,-y,z
1/2+x,1/2+y,z
1/2-x,1/2+y,-z
1/2-x,1/2-y,-z
1/2+x,1/2-y,z
loop_
_atom_site_type_symbol
_atom_site_label
_atom_site_fract_x
_atom_site_fract_y
_atom_site_fract_z
Si Si1 0.842299 0.341590 0.307095
Si Si2 0.860128 0.841098 0.793821
Si Si3 0.596205 0.333717 0.061802
Si Si4 0.749606 0.166982 0.942513
Si Si5 0.394649 0.164425 0.214924
Si Si6 0.399666 0.656372 0.433823
Si Si7 0.750108 0.664854 0.557176
Si Si8 0.589349 0.163728 0.283157
O O1 0.878675 0.500000 0.327080
O O2 0.741299 0.337045 0.271577
O O3 0.858678 0.272497 0.254785
O O4 0.894693 0.254768 0.378418
O O5 0.876298 0.778384 0.863459
O O6 0.908406 0.744569 0.773821
O O7 0.896305 0.000000 0.807398
O O8 0.596022 0.500000 0.063111
O O9 0.665453 0.284455 0.050125
O O10 0.500000 0.273339 0.000000
O O11 0.663004 0.219072 0.865869
O O12 0.749781 0.000000 0.953644
O O13 0.750000 0.250000 0.000000
O O14 0.496101 0.204532 0.262198
O O15 0.378602 0.000000 0.208927
O O16 0.500000 0.657998 0.500000
O O17 0.368795 0.500000 0.401706
O O18 0.337543 0.707728 0.453140
O O19 0.752441 0.500000 0.544369
O O20 0.750000 0.750000 0.500000
O O21 0.834758 0.709893 0.635984
O O22 0.596893 0.000000 0.273478
#
# Coordination Sequence:
#
# PCOD8091656 Si02
#       8
#     8   8   8   8   8   8   8   8
#     4  10  19  35  59  81 102 136 183 225 258 306
#     4  10  19  34  57  82 105 135 180 227 262 303
#     4   9  18  33  54  78 106 142 179 217 264 312
#     4  10  20  36  55  77 109 143 176 218 265 315
#     4   9  19  36  56  78 107 142 177 216 266 314
#     4  10  22  39  56  78 110 143 172 214 273 321
#     4  10  22  38  55  77 107 141 176 214 262 318
#     4  10  21  37  56  78 107 143 175 213 268 320
#
# _framework density 18.303477999999998
#
# number of rings (size 3 to 8) (size 9 to 14) (size 15 to 20)
#    0.000    2.250    2.500    0.000    3.500    1.250 
#    0.000    1.875    0.000    0.750    0.000    0.000 
#    0.000    0.000    0.000    0.000    0.000    0.000 
#
# Total GULP energy -396771.691352 kJ/mol
# GULP energy per Si atom -12399.115355 kJ/mol
# Density = 1.826182 g / cm^3
# Si number density = 18.303478 Si / 1000 Ang^3
#
#
#
# Elastic Constant Matrix: (Units=GPa)
#
#
# Indices 1 2 3 4 5 6 
#
# 1 111.9308 33.9397 57.7238 0.0000 -5.1374 0.0000
# 2 33.9397 45.8708 42.2645 0.0000 -12.5928 0.0000
# 3 57.7238 42.2645 120.3105 0.0000 -12.0098 0.0000
# 4 0.0000 0.0000 0.0000 25.5145 0.0000 -9.8875
# 5 -5.1374 -12.5928 -12.0098 0.0000 40.4077 0.0000
# 6 0.0000 0.0000 0.0000 -9.8875 0.0000 20.3923
#
#
#
# Elastic Compliance Matrix: (Units=1/GPa)
#
#
# Indices 1 2 3 4 5 6 
#
# 1 0.012867 -0.006072 -0.004191 0.000000 -0.001502 0.000000
# 2 -0.006072 0.037070 -0.009310 0.000000 0.008014 0.000000
# 3 -0.004191 -0.009310 0.013655 0.000000 0.000624 0.000000
# 4 0.000000 0.000000 0.000000 0.048262 0.000000 0.023400
# 5 -0.001502 0.008014 0.000624 0.000000 0.027240 0.000000
# 6 0.000000 0.000000 0.000000 0.023400 0.000000 0.060384
#
#
# Mechanical properties :
#
#
# Convention : Reuss Voigt Hill
#
# Bulk Modulus (GPa) = 40.90094 60.66313 50.78204
# Shear Modulus (GPa) = 20.26164 26.87517 23.56840
#
# Velocity S-wave (km/s) = 3.33074 3.83601 3.59227
# Velocity P-wave (km/s) = 6.09806 7.26876 6.70899
#
# Compressibility (1/GPa) = 0.02444931
#
# Stress axis : x y z
#
# Youngs Moduli (GPa) = 77.71609 26.97567 73.23215
#
# Poissons Ratio (x) = 0.16379 0.30689
# Poissons Ratio (y) = 0.47186 0.68176
# Poissons Ratio (z) = 0.32568 0.25113
#
# Static dielectric constant tensor:
#      x y z
#    x 3.512350 0.000000 0.065230 
#    y 0.000000 3.140290 0.000000 
#    z 0.065230 0.000000 3.462910 
# 
# 
# High freq. dielectric constant tensor:
#      x y z
#    x 1.721540 0.000000 0.000970 
#    y 0.000000 1.675430 0.000000 
#    z 0.000970 0.000000 1.719000 
# 
# From -- ./inp_files/346249.got.cif
#   From: 2010.06.25/outbox.cif.g09.slc.cpg/sg12_174_cif.got.tgz:346249.got - 2010.06.28 00:19:55.
