data_PCOD8091866
_publ_section_title
;
Structure prediction by ZEFSAII (Michael W. Deem and Ramdas Pophale) SiO2 
 PCOD8091866
Probable space group: C 2/M
;
_chemical_formula_sum "Si O2"
_cell_formula_units_Z 48
_cell_length_a 23.995220
_cell_length_b 12.216722
_cell_length_c 14.153330
_cell_angle_alpha 90.000000
_cell_angle_beta 35.800287
_cell_angle_gamma 90.000000
_cell_volume 2426.976215
_symmetry_space_group_name_H-M "C 2/M"
_symmetry_group_IT_number 12
_symmetry_cell_setting 'monoclinic'
loop_
_space_group_symop_operation_xyz
x,y,z
-x,y,-z
-x,-y,-z
x,-y,z
1/2+x,1/2+y,z
1/2-x,1/2+y,-z
1/2-x,1/2-y,-z
1/2+x,1/2-y,z
loop_
_atom_site_type_symbol
_atom_site_label
_atom_site_fract_x
_atom_site_fract_y
_atom_site_fract_z
Si Si1 0.146572 0.871119 0.395097
Si Si2 0.982965 0.258253 0.718821
Si Si3 0.317441 0.219832 0.822474
Si Si4 0.850738 0.125058 0.042913
Si Si5 0.864904 0.626091 0.371888
Si Si6 0.201774 0.240553 0.703485
O O1 0.160802 0.826863 0.269804
O O2 0.235014 0.837005 0.338785
O O3 0.049736 0.826428 0.572755
O O4 0.140403 0.000000 0.397865
O O5 0.916892 0.321327 0.732017
O O6 0.043023 0.349880 0.690638
O O7 0.918353 0.189634 0.879185
O O8 0.261326 0.131327 0.835058
O O9 0.250000 0.250000 0.000000
O O10 0.861314 0.178844 0.131642
O O11 0.883448 0.000000 0.002344
O O12 0.866718 0.500000 0.339170
O O13 0.869527 0.703234 0.273126
O O14 0.768094 0.650257 0.561935
#
# Coordination Sequence:
#
# PCOD8091866 Si02
#       6
#     8   8   8   8   8   8
#     4  10  19  34  58  82 109 144 178 221 271 314
#     4  10  21  35  53  85 114 136 180 225 263 325
#     4   9  20  35  51  78 111 140 179 221 258 317
#     4  10  20  37  57  76 107 146 180 222 274 318
#     4  10  20  37  59  79 108 144 176 221 274 318
#     4   9  20  37  56  82 108 137 186 225 257 323
#
# _framework density 19.777695999999999
#
# number of rings (size 3 to 8) (size 9 to 14) (size 15 to 20)
#    0.000    2.333    0.000    2.000    0.000    5.333 
#    0.000   11.667    0.000    6.000    0.000    0.000 
#    0.000    0.000    0.000    0.000    0.000    0.000 
#
# Total GULP energy -297549.687614 kJ/mol
# GULP energy per Si atom -12397.903651 kJ/mol
# Density = 1.973268 g / cm^3
# Si number density = 19.777696 Si / 1000 Ang^3
#
#
#
# Elastic Constant Matrix: (Units=GPa)
#
#
# Indices 1 2 3 4 5 6 
#
# 1 93.1205 24.0362 16.6320 0.0000 7.0420 0.0000
# 2 24.0362 95.3130 32.1651 0.0000 4.9231 0.0000
# 3 16.6320 32.1651 81.4613 0.0000 20.9325 0.0000
# 4 0.0000 0.0000 0.0000 16.7357 0.0000 1.8882
# 5 7.0420 4.9231 20.9325 0.0000 34.3908 0.0000
# 6 0.0000 0.0000 0.0000 1.8882 0.0000 14.5773
#
#
#
# Elastic Compliance Matrix: (Units=1/GPa)
#
#
# Indices 1 2 3 4 5 6 
#
# 1 0.011681 -0.002527 -0.001026 0.000000 -0.001406 0.000000
# 2 -0.002527 0.012708 -0.004940 0.000000 0.001705 0.000000
# 3 -0.001026 -0.004940 0.016833 0.000000 -0.009328 0.000000
# 4 0.000000 0.000000 0.000000 0.060639 0.000000 -0.007855
# 5 -0.001406 0.001705 -0.009328 0.000000 0.034799 0.000000
# 6 0.000000 0.000000 0.000000 -0.007855 0.000000 0.069617
#
#
# Mechanical properties :
#
#
# Convention : Reuss Voigt Hill
#
# Bulk Modulus (GPa) = 41.26110 46.17349 43.71729
# Shear Modulus (GPa) = 21.61315 26.27819 23.94567
#
# Velocity S-wave (km/s) = 3.30935 3.64906 3.48335
# Velocity P-wave (km/s) = 5.95903 6.41491 6.19117
#
# Compressibility (1/GPa) = 0.02423590
#
# Stress axis : x y z
#
# Youngs Moduli (GPa) = 85.61265 78.69070 59.40769
#
# Poissons Ratio (x) = 0.19884 0.06095
# Poissons Ratio (y) = 0.21633 0.29347
# Poissons Ratio (z) = 0.08783 0.38873
#
# Static dielectric constant tensor:
#      x y z
#    x 4.115610 0.000000 -0.009210 
#    y 0.000000 3.188550 0.000000 
#    z -0.009210 0.000000 3.677100 
# 
# 
# High freq. dielectric constant tensor:
#      x y z
#    x 1.788000 0.000000 0.009710 
#    y 0.000000 1.745920 0.000000 
#    z 0.009710 0.000000 1.774050 
# 
# From -- ./inp_files/245849.got.cif
#   From: 2010.06.25/outbox.cif.g09.slc.cpg/sg12_123_cif.got.tgz:245849.got - 2010.06.28 00:19:55.
