data_PCOD8091931
_publ_section_title
;
Structure prediction by ZEFSAII (Michael W. Deem and Ramdas Pophale) SiO2 
 PCOD8091931
Probable space group: C 2/M
;
_chemical_formula_sum "Si O2"
_cell_formula_units_Z 52
_cell_length_a 21.097877
_cell_length_b 26.631865
_cell_length_c 6.437052
_cell_angle_alpha 90.000000
_cell_angle_beta 134.331216
_cell_angle_gamma 90.000000
_cell_volume 2587.157898
_symmetry_space_group_name_H-M "C 2/M"
_symmetry_group_IT_number 12
_symmetry_cell_setting 'monoclinic'
loop_
_space_group_symop_operation_xyz
x,y,z
-x,y,-z
-x,-y,-z
x,-y,z
1/2+x,1/2+y,z
1/2-x,1/2+y,-z
1/2-x,1/2-y,-z
1/2+x,1/2-y,z
loop_
_atom_site_type_symbol
_atom_site_label
_atom_site_fract_x
_atom_site_fract_y
_atom_site_fract_z
Si Si1 0.740479 0.305545 0.392914
Si Si2 0.588142 0.862344 0.324235
Si Si3 0.865125 0.443094 0.892982
Si Si4 0.414472 0.555508 0.942980
Si Si5 0.000000 0.594786 0.500000
Si Si6 0.205091 0.887882 0.632996
Si Si7 0.403945 0.645980 0.222609
O O1 0.750000 0.250000 0.500000
O O2 0.833896 0.321019 0.503105
O O3 0.720186 0.335821 0.553121
O O4 0.658506 0.314136 0.042769
O O5 0.625371 0.913329 0.302753
O O6 0.566630 0.870152 0.518596
O O7 0.500000 0.843222 0.000000
O O8 0.838713 0.500000 0.780629
O O9 0.797833 0.414814 0.897278
O O10 0.955909 0.441423 0.228884
O O11 0.395910 0.500000 0.995908
O O12 0.334404 0.570970 0.613022
O O13 0.500000 0.554246 0.000000
O O14 0.427644 0.596261 0.150383
O O15 0.146897 0.875511 0.696690
O O16 0.500000 0.671102 0.500000
#
# Coordination Sequence:
#
# PCOD8091931 Si02
#       7
#     8   8   8   8   4   8   8
#     4  10  23  43  66  87 117 155 202 255 314 375
#     4   9  20  39  59  86 117 152 190 246 301 353
#     4  10  20  33  54  83 118 159 197 236 287 350
#     4  10  20  34  55  85 123 166 204 238 285 348
#     4  10  19  34  58  84 116 148 194 240 295 350
#     4  10  21  39  59  83 124 157 200 251 305 352
#     4  11  22  39  62  90 124 164 203 256 308 360
#
# _framework density 20.099276
#
# number of rings (size 3 to 8) (size 9 to 14) (size 15 to 20)
#    0.000    2.000    1.538    1.615    0.000    5.538 
#    2.769    0.000    6.769    0.000    0.000    0.000 
#    0.000    0.000    0.000    0.000    0.000    0.000 
#
# Total GULP energy -322229.889176 kJ/mol
# GULP energy per Si atom -12393.457276 kJ/mol
# Density = 2.005353 g / cm^3
# Si number density = 20.099276 Si / 1000 Ang^3
#
#
#
# Elastic Constant Matrix: (Units=GPa)
#
#
# Indices 1 2 3 4 5 6 
#
# 1 132.2893 53.0366 35.7866 0.0000 0.6168 0.0000
# 2 53.0366 129.4674 55.0421 0.0000 9.2026 0.0000
# 3 35.7866 55.0421 89.1358 0.0000 13.8839 0.0000
# 4 0.0000 0.0000 0.0000 16.9828 0.0000 -0.9835
# 5 0.6168 9.2026 13.8839 0.0000 34.6422 0.0000
# 6 0.0000 0.0000 0.0000 -0.9835 0.0000 21.2727
#
#
#
# Elastic Compliance Matrix: (Units=1/GPa)
#
#
# Indices 1 2 3 4 5 6 
#
# 1 0.009339 -0.003036 -0.002106 0.000000 0.001484 0.000000
# 2 -0.003036 0.011462 -0.005752 0.000000 -0.000685 0.000000
# 3 -0.002106 -0.005752 0.016396 0.000000 -0.005006 0.000000
# 4 0.000000 0.000000 0.000000 0.059041 0.000000 0.002730
# 5 0.001484 -0.000685 -0.005006 0.000000 0.031028 0.000000
# 6 0.000000 0.000000 0.000000 0.002730 0.000000 0.047135
#
#
# Mechanical properties :
#
#
# Convention : Reuss Voigt Hill
#
# Bulk Modulus (GPa) = 64.89766 70.95811 67.92789
# Shear Modulus (GPa) = 24.83540 28.38137 26.60839
#
# Velocity S-wave (km/s) = 3.51898 3.76181 3.64242
# Velocity P-wave (km/s) = 6.99068 7.36538 7.18047
#
# Compressibility (1/GPa) = 0.01540888
#
# Stress axis : x y z
#
# Youngs Moduli (GPa) = 107.07644 87.24610 60.99038
#
# Poissons Ratio (x) = 0.26487 0.12844
# Poissons Ratio (y) = 0.32508 0.35083
# Poissons Ratio (z) = 0.22550 0.50185
#
# Static dielectric constant tensor:
#      x y z
#    x 3.902580 0.000000 0.173620 
#    y 0.000000 3.464030 0.000000 
#    z 0.173620 0.000000 3.813110 
# 
# 
# High freq. dielectric constant tensor:
#      x y z
#    x 1.801340 0.000000 0.012080 
#    y 0.000000 1.758880 0.000000 
#    z 0.012080 0.000000 1.788990 
# 
# From -- ./inp_files/21827.got.cif
#   From: 2010.06.25/outbox.cif.g09.slc.cpg/sg12_11_cif.got.tgz:21827.got - 2010.06.28 00:19:55.
