data_PCOD8091231
_publ_section_title
;
Structure prediction by ZEFSAII (Michael W. Deem and Ramdas Pophale) SiO2 
 PCOD8091231
Probable space group: C 2/M
;
_chemical_formula_sum "Si O2"
_cell_formula_units_Z 56
_cell_length_a 20.353983
_cell_length_b 9.433228
_cell_length_c 27.746744
_cell_angle_alpha 90.000000
_cell_angle_beta 34.759912
_cell_angle_gamma 90.000000
_cell_volume 3037.403136
_symmetry_space_group_name_H-M "C 2/M"
_symmetry_group_IT_number 12
_symmetry_cell_setting 'monoclinic'
loop_
_space_group_symop_operation_xyz
x,y,z
-x,y,-z
-x,-y,-z
x,-y,z
1/2+x,1/2+y,z
1/2-x,1/2+y,-z
1/2-x,1/2-y,-z
1/2+x,1/2-y,z
loop_
_atom_site_type_symbol
_atom_site_label
_atom_site_fract_x
_atom_site_fract_y
_atom_site_fract_z
Si Si1 0.810804 0.165421 0.505573
Si Si2 0.565961 0.661543 0.326414
Si Si3 0.779127 0.835098 0.029904
Si Si4 0.078241 0.666892 0.222518
Si Si5 0.654939 0.167667 0.685772
Si Si6 0.519026 0.665649 0.933653
Si Si7 0.699354 0.164492 0.765344
O O1 0.750000 0.250000 0.500000
O O2 0.757677 0.216561 0.588447
O O3 0.946323 0.199234 0.424875
O O4 0.785133 0.000000 0.512524
O O5 0.564747 0.500000 0.308426
O O6 0.587305 0.761614 0.268551
O O7 0.665809 0.685732 0.305255
O O8 0.691186 0.790665 0.124769
O O9 0.766088 0.000000 0.025705
O O10 0.750000 0.750000 0.000000
O O11 0.906714 0.796243 0.970286
O O12 0.069206 0.500000 0.236591
O O13 0.966470 0.724598 0.261441
O O14 0.675675 0.229911 0.726627
O O15 0.652620 0.000000 0.691287
O O16 0.548622 0.500000 0.913265
O O17 0.626456 0.751491 0.848636
O O18 0.500000 0.713234 0.000000
O O19 0.663647 0.000000 0.789801
#
# Coordination Sequence:
#
# PCOD8091231 Si02
#       7
#     8   8   8   8   8   8   8
#     4  10  19  34  55  81 109 139 176 217 264 317
#     4  10  21  34  53  82 110 135 173 224 268 310
#     4  10  21  35  54  80 108 139 178 223 270 318
#     4  10  19  34  56  78 102 140 182 216 260 321
#     4   9  18  33  55  79 106 141 177 214 261 317
#     4  10  21  38  57  78 107 144 183 222 266 319
#     4  10  21  37  55  79 109 141 179 222 269 318
#
# _framework density 18.436802
#
# number of rings (size 3 to 8) (size 9 to 14) (size 15 to 20)
#    0.000    2.143    1.429    1.714    0.000    4.857 
#    0.000    4.286    0.000    0.000    0.000    3.000 
#    0.000    0.000    0.000    0.000    0.000    0.000 
#
# Total GULP energy -347275.135268 kJ/mol
# GULP energy per Si atom -12402.683402 kJ/mol
# Density = 1.839484 g / cm^3
# Si number density = 18.436802 Si / 1000 Ang^3
#
#
#
# Elastic Constant Matrix: (Units=GPa)
#
#
# Indices 1 2 3 4 5 6 
#
# 1 97.6235 28.5616 31.0533 0.0048 6.4092 -0.0099
# 2 28.5616 36.3391 34.5877 0.0069 3.3806 -0.0070
# 3 31.0533 34.5877 119.6209 0.0005 -2.0258 -0.0029
# 4 0.0048 0.0069 0.0005 23.4187 -0.0020 2.1850
# 5 6.4092 3.3806 -2.0258 -0.0020 34.1912 0.0055
# 6 -0.0099 -0.0070 -0.0029 2.1850 0.0055 30.0394
#
#
#
# Elastic Compliance Matrix: (Units=1/GPa)
#
#
# Indices 1 2 3 4 5 6 
#
# 1 0.013418 -0.009736 -0.000695 0.000000 -0.001594 0.000002
# 2 -0.009736 0.045708 -0.010745 -0.000012 -0.003331 0.000008
# 3 -0.000695 -0.010745 0.011679 0.000003 0.001885 -0.000002
# 4 0.000000 -0.000012 0.000003 0.042993 0.000005 -0.003127
# 5 -0.001594 -0.003331 0.001885 0.000005 0.029987 -0.000007
# 6 0.000002 0.000008 -0.000002 -0.003127 -0.000007 0.033517
#
#
# Mechanical properties :
#
#
# Convention : Reuss Voigt Hill
#
# Bulk Modulus (GPa) = 35.14681 49.10987 42.12834
# Shear Modulus (GPa) = 21.82086 28.15524 24.98805
#
# Velocity S-wave (km/s) = 3.44401 3.91208 3.68548
# Velocity P-wave (km/s) = 5.90929 6.86298 6.40391
#
# Compressibility (1/GPa) = 0.02845209
#
# Stress axis : x y z
#
# Youngs Moduli (GPa) = 74.52871 21.87790 85.62368
#
# Poissons Ratio (x) = 0.21301 0.05951
# Poissons Ratio (y) = 0.72562 0.92004
# Poissons Ratio (z) = 0.05180 0.23508
#
# Static dielectric constant tensor:
#      x y z
#    x 3.514510 0.000000 -0.052510 
#    y 0.000000 3.214650 -0.000010 
#    z -0.052510 -0.000010 3.843020 
# 
# 
# High freq. dielectric constant tensor:
#      x y z
#    x 1.722640 0.000000 -0.004430 
#    y 0.000000 1.692290 0.000000 
#    z -0.004430 0.000000 1.730400 
# 
# From -- ./inp_files/280402.got.cif
#   From: 2010.06.25/outbox.cif.g09.slc.cpg/sg12_141_cif.got.tgz:280402.got - 2010.06.28 00:19:55.
