data_PCOD8091607
_publ_section_title
;
Structure prediction by ZEFSAII (Michael W. Deem and Ramdas Pophale) SiO2 
 PCOD8091607
Probable space group: C 2/M
;
_chemical_formula_sum "Si O2"
_cell_formula_units_Z 56
_cell_length_a 9.507818
_cell_length_b 20.711165
_cell_length_c 15.420618
_cell_angle_alpha 90.000000
_cell_angle_beta 77.033811
_cell_angle_gamma 90.000000
_cell_volume 2959.171858
_symmetry_space_group_name_H-M "C 2/M"
_symmetry_group_IT_number 12
_symmetry_cell_setting 'monoclinic'
loop_
_space_group_symop_operation_xyz
x,y,z
-x,y,-z
-x,-y,-z
x,-y,z
1/2+x,1/2+y,z
1/2-x,1/2+y,-z
1/2-x,1/2-y,-z
1/2+x,1/2-y,z
loop_
_atom_site_type_symbol
_atom_site_label
_atom_site_fract_x
_atom_site_fract_y
_atom_site_fract_z
Si Si1 0.847186 0.922822 0.984263
Si Si2 0.276728 0.268924 0.360977
Si Si3 0.044884 0.687181 0.267902
Si Si4 0.942980 0.362389 0.918016
Si Si5 0.143969 0.576350 0.657444
Si Si6 0.276812 0.073357 0.171009
Si Si7 0.662027 0.653445 0.485473
O O1 0.831672 0.897061 0.886403
O O2 0.833898 0.000000 0.992110
O O3 0.717320 0.891716 0.056779
O O4 0.000000 0.898407 0.000000
O O5 0.198886 0.293274 0.285040
O O6 0.428913 0.239556 0.313557
O O7 0.300157 0.330010 0.420699
O O8 0.177635 0.216710 0.423631
O O9 0.054271 0.688102 0.161901
O O10 0.004777 0.616564 0.313469
O O11 0.057568 0.419430 0.883296
O O12 0.000000 0.328902 0.000000
O O13 0.109910 0.500000 0.662414
O O14 0.239178 0.600372 0.728677
O O15 0.231298 0.596039 0.559650
O O16 0.235210 0.000000 0.182577
O O17 0.500000 0.627203 0.500000
#
# Coordination Sequence:
#
# PCOD8091607 Si02
#       7
#     8   8   8   8   8   8   8
#     4   9  16  27  46  74 107 140 176 217 259 310
#     4  10  20  36  57  81 104 136 192 228 269 306
#     4  10  20  37  58  81 106 142 182 232 266 312
#     4   9  17  31  50  75 102 138 178 213 262 320
#     4   9  19  33  54  81 112 145 177 214 273 334
#     4   8  14  28  48  69  99 142 182 212 247 312
#     4  10  19  34  57  80 106 141 180 231 264 321
#
# _framework density 18.924212000000001
#
# number of rings (size 3 to 8) (size 9 to 14) (size 15 to 20)
#    0.000    2.714    1.429    0.429    0.000    2.571 
#    2.571    3.571    0.000    0.000    0.000    0.000 
#    0.000    0.000    0.000    0.000    0.000    0.000 
#
# Total GULP energy -346947.157704 kJ/mol
# GULP energy per Si atom -12390.969918 kJ/mol
# Density = 1.888114 g / cm^3
# Si number density = 18.924212 Si / 1000 Ang^3
#
#
#
# Elastic Constant Matrix: (Units=GPa)
#
#
# Indices 1 2 3 4 5 6 
#
# 1 109.1666 23.0567 38.2214 0.0000 11.7331 0.0000
# 2 23.0567 52.9164 29.7984 0.0000 6.7451 0.0000
# 3 38.2214 29.7984 106.5779 0.0000 12.1086 0.0000
# 4 0.0000 0.0000 0.0000 22.8634 0.0000 7.5388
# 5 11.7331 6.7451 12.1086 0.0000 26.9036 0.0000
# 6 0.0000 0.0000 0.0000 7.5388 0.0000 11.4119
#
#
#
# Elastic Compliance Matrix: (Units=1/GPa)
#
#
# Indices 1 2 3 4 5 6 
#
# 1 0.011065 -0.002857 -0.002848 0.000000 -0.002827 0.000000
# 2 -0.002857 0.023391 -0.005260 0.000000 -0.002251 0.000000
# 3 -0.002848 -0.005260 0.012208 0.000000 -0.002934 0.000000
# 4 0.000000 0.000000 0.000000 0.055918 0.000000 -0.036940
# 5 -0.002827 -0.002251 -0.002934 0.000000 0.040288 0.000000
# 6 0.000000 0.000000 0.000000 -0.036940 0.000000 0.112031
#
#
# Mechanical properties :
#
#
# Convention : Reuss Voigt Hill
#
# Bulk Modulus (GPa) = 40.42885 50.09043 45.25964
# Shear Modulus (GPa) = 17.53920 24.07473 20.80696
#
# Velocity S-wave (km/s) = 3.04766 3.57061 3.31945
# Velocity P-wave (km/s) = 5.81328 6.59738 6.21771
#
# Compressibility (1/GPa) = 0.02473481
#
# Stress axis : x y z
#
# Youngs Moduli (GPa) = 90.37695 42.75078 81.91290
#
# Poissons Ratio (x) = 0.12213 0.23330
# Poissons Ratio (y) = 0.25820 0.43084
# Poissons Ratio (z) = 0.25740 0.22486
#
# Static dielectric constant tensor:
#      x y z
#    x 3.424060 0.000000 0.273710 
#    y 0.000000 3.115490 0.000000 
#    z 0.273710 0.000000 3.776170 
# 
# 
# High freq. dielectric constant tensor:
#      x y z
#    x 1.726440 0.000000 0.011280 
#    y 0.000000 1.698380 0.000000 
#    z 0.011280 0.000000 1.742620 
# 
# From -- ./inp_files/198340.got.cif
#   From: 2010.06.25/outbox.cif.g09.slc.cpg/sg12_100_cif.got.tgz:198340.got - 2010.06.28 00:19:55.
