data_PCOD8091741
_publ_section_title
;
Structure prediction by ZEFSAII (Michael W. Deem and Ramdas Pophale) SiO2 
 PCOD8091741
Probable space group: C 2/M
;
_chemical_formula_sum "Si O2"
_cell_formula_units_Z 64
_cell_length_a 28.173205
_cell_length_b 9.007175
_cell_length_c 12.840034
_cell_angle_alpha 90.000000
_cell_angle_beta 93.277971
_cell_angle_gamma 90.000000
_cell_volume 3252.968725
_symmetry_space_group_name_H-M "C 2/M"
_symmetry_group_IT_number 12
_symmetry_cell_setting 'monoclinic'
loop_
_space_group_symop_operation_xyz
x,y,z
-x,y,-z
-x,-y,-z
x,-y,z
1/2+x,1/2+y,z
1/2-x,1/2+y,-z
1/2-x,1/2-y,-z
1/2+x,1/2-y,z
loop_
_atom_site_type_symbol
_atom_site_label
_atom_site_fract_x
_atom_site_fract_y
_atom_site_fract_z
Si Si1 0.948000 0.823910 0.806512
Si Si2 0.393486 0.673639 0.376907
Si Si3 0.397896 0.829947 0.987489
Si Si4 0.194089 0.329739 0.721351
Si Si5 0.884625 0.826304 0.610236
Si Si6 0.720737 0.330464 0.408439
Si Si7 0.296252 0.828388 0.046879
Si Si8 0.451693 0.173228 0.205972
O O1 0.921525 0.781020 0.909276
O O2 0.918822 0.759518 0.703622
O O3 0.999228 0.751144 0.814022
O O4 0.953783 0.000000 0.802394
O O5 0.396890 0.500000 0.352094
O O6 0.339547 0.728553 0.354344
O O7 0.406702 0.706422 0.499136
O O8 0.429998 0.760640 0.308735
O O9 0.409867 0.000000 0.958595
O O10 0.341269 0.800902 0.977553
O O11 0.416241 0.796348 0.106002
O O12 0.175804 0.500000 0.712004
O O13 0.248984 0.317213 0.693601
O O14 0.190760 0.267069 0.837454
O O15 0.831394 0.757485 0.614301
O O16 0.880547 0.000000 0.630670
O O17 0.714398 0.500000 0.443509
O O18 0.750000 0.250000 0.500000
O O19 0.283615 0.000000 0.055145
O O20 0.250000 0.750000 0.000000
O O21 0.460471 0.000000 0.224384
#
# Coordination Sequence:
#
# PCOD8091741 Si02
#       8
#     8   8   8   8   8   8   8   8
#     4  11  24  41  63  90 119 153 200 248 296 355
#     4  11  21  37  63  89 118 155 203 247 291 352
#     4  10  22  42  63  85 120 161 195 239 302 359
#     4  10  20  36  58  84 118 159 198 240 296 353
#     4   9  21  39  57  85 125 161 190 241 304 348
#     4  10  19  34  57  83 114 154 196 232 280 342
#     4  10  22  39  58  86 121 158 196 238 294 352
#     4  11  23  43  66  87 118 154 194 246 308 359
#
# _framework density 19.674334999999999
#
# number of rings (size 3 to 8) (size 9 to 14) (size 15 to 20)
#    0.000    1.750    2.500    1.500    1.750    4.000 
#    0.000    6.250    0.000    0.000    0.000    0.000 
#    0.000    0.000    0.000    0.000    0.000    0.000 
#
# Total GULP energy -396845.653653 kJ/mol
# GULP energy per Si atom -12401.426677 kJ/mol
# Density = 1.962956 g / cm^3
# Si number density = 19.674335 Si / 1000 Ang^3
#
#
#
# Elastic Constant Matrix: (Units=GPa)
#
#
# Indices 1 2 3 4 5 6 
#
# 1 113.6273 42.0131 33.6967 0.0000 -2.7004 0.0000
# 2 42.0131 74.1638 38.7335 0.0000 -2.2069 0.0000
# 3 33.6967 38.7335 86.1535 0.0000 -10.1668 0.0000
# 4 0.0000 0.0000 0.0000 29.3447 0.0000 -1.1333
# 5 -2.7004 -2.2069 -10.1668 0.0000 31.6603 0.0000
# 6 0.0000 0.0000 0.0000 -1.1333 0.0000 32.5067
#
#
#
# Elastic Compliance Matrix: (Units=1/GPa)
#
#
# Indices 1 2 3 4 5 6 
#
# 1 0.011399 -0.005393 -0.002040 0.000000 -0.000059 0.000000
# 2 -0.005393 0.020230 -0.007144 0.000000 -0.001344 0.000000
# 3 -0.002040 -0.007144 0.016150 0.000000 0.004514 0.000000
# 4 0.000000 0.000000 0.000000 0.034124 0.000000 0.001190
# 5 -0.000059 -0.001344 0.004514 0.000000 0.032936 0.000000
# 6 0.000000 0.000000 0.000000 0.001190 0.000000 0.030804
#
#
# Mechanical properties :
#
#
# Convention : Reuss Voigt Hill
#
# Bulk Modulus (GPa) = 53.69858 55.87016 54.78437
# Shear Modulus (GPa) = 27.62328 29.33574 28.47951
#
# Velocity S-wave (km/s) = 3.75110 3.86562 3.80879
# Velocity P-wave (km/s) = 6.79073 6.95580 6.87376
#
# Compressibility (1/GPa) = 0.01862247
#
# Stress axis : x y z
#
# Youngs Moduli (GPa) = 87.73059 49.43105 61.91952
#
# Poissons Ratio (x) = 0.26659 0.12634
# Poissons Ratio (y) = 0.47315 0.44238
# Poissons Ratio (z) = 0.17901 0.35316
#
# Static dielectric constant tensor:
#      x y z
#    x 3.832940 0.000000 -0.074680 
#    y 0.000000 3.468600 0.000000 
#    z -0.074680 0.000000 3.729680 
# 
# 
# High freq. dielectric constant tensor:
#      x y z
#    x 1.776940 0.000000 -0.008760 
#    y 0.000000 1.751890 0.000000 
#    z -0.008760 0.000000 1.772010 
# 
# From -- ./inp_files/187612.got.cif
#   From: 2010.06.25/outbox.cif.g09.slc.cpg/sg12_94_cif.got.tgz:187612.got - 2010.06.28 00:19:55.
