data_PCOD8091669
_publ_section_title
;
Structure prediction by ZEFSAII (Michael W. Deem and Ramdas Pophale) SiO2 
 PCOD8091669
Probable space group: C 2/M
;
_chemical_formula_sum "Si O2"
_cell_formula_units_Z 64
_cell_length_a 30.069411
_cell_length_b 9.078915
_cell_length_c 15.343217
_cell_angle_alpha 90.000000
_cell_angle_beta 128.866417
_cell_angle_gamma 90.000000
_cell_volume 3261.338529
_symmetry_space_group_name_H-M "C 2/M"
_symmetry_group_IT_number 12
_symmetry_cell_setting 'monoclinic'
loop_
_space_group_symop_operation_xyz
x,y,z
-x,y,-z
-x,-y,-z
x,-y,z
1/2+x,1/2+y,z
1/2-x,1/2+y,-z
1/2-x,1/2-y,-z
1/2+x,1/2-y,z
loop_
_atom_site_type_symbol
_atom_site_label
_atom_site_fract_x
_atom_site_fract_y
_atom_site_fract_z
Si Si1 0.872010 0.327379 0.009431
Si Si2 0.956124 0.824249 0.606426
Si Si3 0.764989 0.327222 0.762082
Si Si4 0.591479 0.662318 0.275831
Si Si5 0.065709 0.164953 0.062766
Si Si6 0.784546 0.838295 0.611133
Si Si7 0.863107 0.825563 0.354445
Si Si8 0.912986 0.825725 0.233169
O O1 0.882649 0.500000 0.032111
O O2 0.882001 0.252635 0.114736
O O3 0.807694 0.294244 0.895672
O O4 0.919234 0.263811 0.001413
O O5 0.938047 0.757196 0.678451
O O6 0.911758 0.761008 0.479722
O O7 0.021297 0.775398 0.670079
O O8 0.950481 0.000000 0.600515
O O9 0.763702 0.500000 0.739765
O O10 0.790602 0.244062 0.710490
O O11 0.700859 0.268039 0.702913
O O12 0.562410 0.500000 0.229481
O O13 0.587358 0.745719 0.177870
O O14 0.658001 0.644990 0.373784
O O15 0.092652 0.000000 0.083361
O O16 0.000000 0.151074 0.000000
O O17 0.750000 0.750000 0.500000
O O18 0.758369 0.000000 0.597209
O O19 0.878376 0.775296 0.275743
O O20 0.864349 0.000000 0.361960
O O21 0.910511 0.000000 0.214036
#
# Coordination Sequence:
#
# PCOD8091669 Si02
#       8
#     8   8   8   8   8   8   8   8
#     4  11  23  37  54  79 116 156 189 229 282 340
#     4   9  16  30  55  87 114 135 175 237 292 334
#     4  10  21  38  57  79 112 152 192 232 281 337
#     4   9  17  29  49  79 109 138 171 214 269 322
#     4  10  19  34  57  82 108 141 185 231 271 323
#     4  11  21  34  54  80 112 147 184 226 275 331
#     4   9  18  34  58  85 111 142 187 244 293 331
#     4  10  20  35  59  86 109 142 191 242 290 339
#
# _framework density 19.623844999999999
#
# number of rings (size 3 to 8) (size 9 to 14) (size 15 to 20)
#    0.000    2.125    1.250    2.625    0.000    6.750 
#    0.000    0.625    0.000    6.000    0.000    0.000 
#    0.000    0.000    0.000    0.000    0.000    0.000 
#
# Total GULP energy -396513.065564 kJ/mol
# GULP energy per Si atom -12391.033299 kJ/mol
# Density = 1.957918 g / cm^3
# Si number density = 19.623845 Si / 1000 Ang^3
#
#
#
# Elastic Constant Matrix: (Units=GPa)
#
#
# Indices 1 2 3 4 5 6 
#
# 1 117.2412 26.7560 41.2670 0.0000 -6.8515 0.0000
# 2 26.7560 52.9025 37.4273 0.0000 -2.7224 0.0000
# 3 41.2670 37.4273 125.1574 0.0000 -7.7010 0.0000
# 4 0.0000 0.0000 0.0000 26.4974 0.0000 8.4472
# 5 -6.8515 -2.7224 -7.7010 0.0000 38.7622 0.0000
# 6 0.0000 0.0000 0.0000 8.4472 0.0000 79.8169
#
#
#
# Elastic Compliance Matrix: (Units=1/GPa)
#
#
# Indices 1 2 3 4 5 6 
#
# 1 0.010183 -0.003508 -0.002240 0.000000 0.001108 0.000000
# 2 -0.003508 0.025186 -0.006382 0.000000 -0.000119 0.000000
# 3 -0.002240 -0.006382 0.010716 0.000000 0.001285 0.000000
# 4 0.000000 0.000000 0.000000 0.039057 0.000000 -0.004134
# 5 0.001108 -0.000119 0.001285 0.000000 0.026241 0.000000
# 6 0.000000 0.000000 0.000000 -0.004134 0.000000 0.012966
#
#
# Mechanical properties :
#
#
# Convention : Reuss Voigt Hill
#
# Bulk Modulus (GPa) = 45.82117 56.24462 51.03289
# Shear Modulus (GPa) = 32.07449 41.67202 36.87325
#
# Velocity S-wave (km/s) = 4.04724 4.61319 4.33945
# Velocity P-wave (km/s) = 6.72611 7.55638 7.15330
#
# Compressibility (1/GPa) = 0.02182397
#
# Stress axis : x y z
#
# Youngs Moduli (GPa) = 98.19888 39.70418 93.31613
#
# Poissons Ratio (x) = 0.13930 0.20906
# Poissons Ratio (y) = 0.34451 0.59557
# Poissons Ratio (z) = 0.22000 0.25340
#
# Static dielectric constant tensor:
#      x y z
#    x 3.582520 0.000000 -0.064950 
#    y 0.000000 3.182750 0.000000 
#    z -0.064950 0.000000 3.831940 
# 
# 
# High freq. dielectric constant tensor:
#      x y z
#    x 1.769820 0.000000 0.000240 
#    y 0.000000 1.714480 0.000000 
#    z 0.000240 0.000000 1.783100 
# 
# From -- ./inp_files/250126.got.cif
#   From: 2010.06.25/outbox.cif.g09.slc.cpg/sg12_126_cif.got.tgz:250126.got - 2010.06.28 00:19:55.
