data_PCOD8091272
_publ_section_title
;
Structure prediction by ZEFSAII (Michael W. Deem and Ramdas Pophale) SiO2 
 PCOD8091272
Probable space group: C 2/M
;
_chemical_formula_sum "Si O2"
_cell_formula_units_Z 40
_cell_length_a 12.345975
_cell_length_b 18.862863
_cell_length_c 9.102932
_cell_angle_alpha 90.000000
_cell_angle_beta 90.373190
_cell_angle_gamma 90.000000
_cell_volume 2119.849797
_symmetry_space_group_name_H-M "C 2/M"
_symmetry_group_IT_number 12
_symmetry_cell_setting 'monoclinic'
loop_
_space_group_symop_operation_xyz
x,y,z
-x,y,-z
-x,-y,-z
x,-y,z
1/2+x,1/2+y,z
1/2-x,1/2+y,-z
1/2-x,1/2-y,-z
1/2+x,1/2-y,z
loop_
_atom_site_type_symbol
_atom_site_label
_atom_site_fract_x
_atom_site_fract_y
_atom_site_fract_z
Si Si1 0.228193 0.340621 0.342942
Si Si2 0.027469 0.307808 0.162556
Si Si3 0.106401 0.918672 0.836195
Si Si4 0.808799 0.681461 0.331436
Si Si5 0.609449 0.648051 0.144136
O O1 0.129102 0.350305 0.229198
O O2 0.319555 0.397656 0.301269
O O3 0.188293 0.354163 0.508133
O O4 0.280222 0.263555 0.335189
O O5 0.056821 0.225250 0.159518
O O6 0.926711 0.325579 0.264514
O O7 0.000000 0.335945 0.000000
O O8 0.979679 0.907332 0.795184
O O9 0.126242 0.000000 0.878183
O O10 0.136383 0.868212 0.974368
O O11 0.719806 0.639645 0.235168
#
# Coordination Sequence:
#
# PCOD8091272 Si02
#       5
#     8   8   8   8   8
#     4  10  21  34  53  84 113 149 184 222 291 325
#     4  11  18  32  58  84 114 136 181 239 282 329
#     4  11  21  38  56  80 117 151 190 224 263 333
#     4  10  20  34  55  82 117 141 178 243 279 335
#     4  10  19  34  55  83 111 145 189 222 282 320
#
# _framework density 18.869261000000002
#
# number of rings (size 3 to 8) (size 9 to 14) (size 15 to 20)
#    0.000    1.600    4.000    3.000    0.000    4.000 
#    0.000    3.000    0.000    9.000    0.000    0.000 
#    0.000    0.000    0.000    0.000    0.000    0.000 
#
# Total GULP energy -248009.608131 kJ/mol
# GULP energy per Si atom -12400.480407 kJ/mol
# Density = 1.882631 g / cm^3
# Si number density = 18.869261 Si / 1000 Ang^3
#
#
#
# Elastic Constant Matrix: (Units=GPa)
#
#
# Indices 1 2 3 4 5 6 
#
# 1 98.7639 24.1121 44.9407 0.0000 -14.5468 0.0000
# 2 24.1121 50.0865 25.4469 0.0000 -4.0240 0.0000
# 3 44.9407 25.4469 95.3499 0.0000 -18.2331 0.0000
# 4 0.0000 0.0000 0.0000 9.8959 0.0000 -4.4771
# 5 -14.5468 -4.0240 -18.2331 0.0000 42.3146 0.0000
# 6 0.0000 0.0000 0.0000 -4.4771 0.0000 16.5880
#
#
#
# Elastic Compliance Matrix: (Units=1/GPa)
#
#
# Indices 1 2 3 4 5 6 
#
# 1 0.013661 -0.003866 -0.004990 0.000000 0.002178 0.000000
# 2 -0.003866 0.024201 -0.004850 0.000000 -0.001118 0.000000
# 3 -0.004990 -0.004850 0.014950 0.000000 0.004265 0.000000
# 4 0.000000 0.000000 0.000000 0.115108 0.000000 0.031068
# 5 0.002178 -0.001118 0.004265 0.000000 0.026113 0.000000
# 6 0.000000 0.000000 0.000000 0.031068 0.000000 0.068670
#
#
# Mechanical properties :
#
#
# Convention : Reuss Voigt Hill
#
# Bulk Modulus (GPa) = 39.37287 48.13329 43.75308
# Shear Modulus (GPa) = 16.74585 23.73972 20.24279
#
# Velocity S-wave (km/s) = 2.98227 3.55084 3.27890
# Velocity P-wave (km/s) = 5.72451 6.50965 6.12966
#
# Compressibility (1/GPa) = 0.02539820
#
# Stress axis : x y z
#
# Youngs Moduli (GPa) = 73.20347 41.32050 66.89090
#
# Poissons Ratio (x) = 0.15974 0.33380
# Poissons Ratio (y) = 0.28300 0.32444
# Poissons Ratio (z) = 0.36530 0.20042
#
# Static dielectric constant tensor:
#      x y z
#    x 3.637790 0.000000 0.047360 
#    y 0.000000 3.019710 0.000000 
#    z 0.047360 0.000000 3.644210 
# 
# 
# High freq. dielectric constant tensor:
#      x y z
#    x 1.747840 0.000000 -0.005090 
#    y 0.000000 1.684020 0.000000 
#    z -0.005090 0.000000 1.738150 
# 
# From -- ./inp_files/46929.got.cif
#   From: 2010.06.25/outbox.cif.g09.slc.cpg/sg12_24_cif.got.tgz:46929.got - 2010.06.28 00:19:55.
