data_PCOD8091810
_publ_section_title
;
Structure prediction by ZEFSAII (Michael W. Deem and Ramdas Pophale) SiO2 
 PCOD8091810
Probable space group: C 2/M
;
_chemical_formula_sum "Si O2"
_cell_formula_units_Z 56
_cell_length_a 19.254610
_cell_length_b 9.093292
_cell_length_c 27.666779
_cell_angle_alpha 90.000000
_cell_angle_beta 141.607558
_cell_angle_gamma 90.000000
_cell_volume 3008.410613
_symmetry_space_group_name_H-M "C 2/M"
_symmetry_group_IT_number 12
_symmetry_cell_setting 'monoclinic'
loop_
_space_group_symop_operation_xyz
x,y,z
-x,y,-z
-x,-y,-z
x,-y,z
1/2+x,1/2+y,z
1/2-x,1/2+y,-z
1/2-x,1/2-y,-z
1/2+x,1/2-y,z
loop_
_atom_site_type_symbol
_atom_site_label
_atom_site_fract_x
_atom_site_fract_y
_atom_site_fract_z
Si Si1 0.733882 0.672906 0.138391
Si Si2 0.824151 0.173288 0.999779
Si Si3 0.358002 0.328271 0.539619
Si Si4 0.916593 0.172376 0.854455
Si Si5 0.908132 0.168064 0.292925
Si Si6 0.376050 0.835470 0.451472
Si Si7 0.740813 0.672093 0.697066
O O1 0.744285 0.500000 0.141892
O O2 0.634457 0.718647 0.121092
O O3 0.852929 0.734688 0.221004
O O4 0.709498 0.734107 0.071548
O O5 0.953690 0.213328 0.077364
O O6 0.804540 0.000000 0.992865
O O7 0.750000 0.250000 0.000000
O O8 0.335855 0.500000 0.522534
O O9 0.250000 0.250000 0.500000
O O10 0.460365 0.296383 0.632126
O O11 0.386163 0.265545 0.503221
O O12 0.858310 0.265694 0.780482
O O13 0.895505 0.000000 0.833901
O O14 0.854555 0.203923 0.315568
O O15 0.885862 0.000000 0.266798
O O16 0.500000 0.847022 0.500000
O O17 0.290672 0.759630 0.368105
O O18 0.330888 0.000000 0.438642
O O19 0.752658 0.500000 0.691742
#
# Coordination Sequence:
#
# PCOD8091810 Si02
#       7
#     8   8   8   8   8   8   8
#     4   9  18  34  59  84 105 138 187 230 270 323
#     4  10  21  37  56  81 113 147 180 222 276 333
#     4  11  23  40  58  81 115 154 194 236 285 338
#     4   9  18  35  58  82 109 142 184 233 276 323
#     4   9  19  35  56  82 113 145 181 229 283 330
#     4  11  22  36  59  87 114 148 192 236 282 337
#     4  10  19  34  57  86 115 144 184 234 285 333
#
# _framework density 18.614481000000001
#
# number of rings (size 3 to 8) (size 9 to 14) (size 15 to 20)
#    0.000    2.143    1.429    1.714    0.000    5.143 
#    2.571    0.000    0.000    4.286    0.000    0.000 
#    0.000    0.000    0.000    0.000    0.000    0.000 
#
# Total GULP energy -347220.865262 kJ/mol
# GULP energy per Si atom -12400.745188 kJ/mol
# Density = 1.857211 g / cm^3
# Si number density = 18.614481 Si / 1000 Ang^3
#
#
#
# Elastic Constant Matrix: (Units=GPa)
#
#
# Indices 1 2 3 4 5 6 
#
# 1 79.5617 40.0562 52.2238 0.0000 8.1781 0.0000
# 2 40.0562 80.7174 63.6286 0.0000 2.6343 -0.0001
# 3 52.2238 63.6286 126.4576 0.0000 0.3796 0.0000
# 4 0.0000 0.0000 0.0000 32.6350 0.0000 0.3752
# 5 8.1781 2.6343 0.3796 0.0000 27.7559 0.0000
# 6 0.0000 -0.0001 0.0000 0.3752 0.0000 31.0320
#
#
#
# Elastic Compliance Matrix: (Units=1/GPa)
#
#
# Indices 1 2 3 4 5 6 
#
# 1 0.019175 -0.005170 -0.005302 0.000000 -0.005087 0.000000
# 2 -0.005170 0.022018 -0.008942 0.000000 -0.000444 0.000000
# 3 -0.005302 -0.008942 0.014590 0.000000 0.002211 0.000000
# 4 0.000000 0.000000 0.000000 0.030646 0.000000 -0.000370
# 5 -0.005087 -0.000444 0.002211 0.000000 0.037539 0.000000
# 6 0.000000 0.000000 0.000000 -0.000370 0.000000 0.032229
#
#
# Mechanical properties :
#
#
# Convention : Reuss Voigt Hill
#
# Bulk Modulus (GPa) = 58.98162 66.50600 62.74381
# Shear Modulus (GPa) = 24.91555 27.00645 25.96100
#
# Velocity S-wave (km/s) = 3.66253 3.81311 3.73858
# Velocity P-wave (km/s) = 7.04558 7.42914 7.23990
#
# Compressibility (1/GPa) = 0.01695444
#
# Stress axis : x y z
#
# Youngs Moduli (GPa) = 52.15157 45.41724 68.53912
#
# Poissons Ratio (x) = 0.23480 0.36341
# Poissons Ratio (y) = 0.26962 0.61289
# Poissons Ratio (z) = 0.27652 0.40613
#
# Static dielectric constant tensor:
#      x y z
#    x 3.201740 0.000000 -0.012890 
#    y 0.000000 3.653600 0.000000 
#    z -0.012890 0.000000 3.556640 
# 
# 
# High freq. dielectric constant tensor:
#      x y z
#    x 1.705100 0.000000 -0.000670 
#    y 0.000000 1.724940 0.000000 
#    z -0.000670 0.000000 1.734820 
# 
# From -- ./inp_files/275013.got.cif
#   From: 2010.06.25/outbox.cif.g09.slc.cpg/sg12_138_cif.got.tgz:275013.got - 2010.06.28 00:19:55.
