data_PCOD8091384
_publ_section_title
;
Structure prediction by ZEFSAII (Michael W. Deem and Ramdas Pophale) SiO2 
 PCOD8091384
Probable space group: C 2/M
;
_chemical_formula_sum "Si O2"
_cell_formula_units_Z 56
_cell_length_a 29.960132
_cell_length_b 9.207302
_cell_length_c 18.055500
_cell_angle_alpha 90.000000
_cell_angle_beta 143.474731
_cell_angle_gamma 90.000000
_cell_volume 2964.366891
_symmetry_space_group_name_H-M "C 2/M"
_symmetry_group_IT_number 12
_symmetry_cell_setting 'monoclinic'
loop_
_space_group_symop_operation_xyz
x,y,z
-x,y,-z
-x,-y,-z
x,-y,z
1/2+x,1/2+y,z
1/2-x,1/2+y,-z
1/2-x,1/2-y,-z
1/2+x,1/2-y,z
loop_
_atom_site_type_symbol
_atom_site_label
_atom_site_fract_x
_atom_site_fract_y
_atom_site_fract_z
Si Si1 0.362551 0.666314 0.152974
Si Si2 0.008786 0.172753 0.429007
Si Si3 0.671740 0.332650 0.390910
Si Si4 0.725540 0.833865 0.079863
Si Si5 0.347778 0.666963 0.469886
Si Si6 0.778082 0.168319 0.774133
Si Si7 0.420155 0.668253 0.870277
O O1 0.369216 0.500000 0.135428
O O2 0.440083 0.728825 0.287789
O O3 0.301808 0.681906 0.136341
O O4 0.342779 0.762042 0.055535
O O5 0.085201 0.226148 0.492565
O O6 0.000000 0.237739 0.500000
O O7 0.006081 0.000000 0.429021
O O8 0.689943 0.500000 0.395285
O O9 0.750000 0.250000 0.500000
O O10 0.629388 0.320092 0.413387
O O11 0.616631 0.265415 0.254147
O O12 0.738565 0.752120 0.173222
O O13 0.705123 0.000000 0.068609
O O14 0.328927 0.500000 0.424441
O O15 0.275283 0.766306 0.360306
O O16 0.863729 0.191594 0.863434
O O17 0.759299 0.000000 0.760271
O O18 0.435073 0.500000 0.873824
O O19 0.500000 0.741719 0.000000
#
# Coordination Sequence:
#
# PCOD8091384 Si02
#       7
#     8   8   8   8   8   8   8
#     4   9  18  34  55  78 105 142 184 223 265 319
#     4   9  17  31  52  79 110 141 178 223 267 315
#     4  10  19  34  56  80 107 140 179 226 276 327
#     4  10  20  34  54  78 108 142 178 222 272 326
#     4  10  20  33  55  82 106 142 186 227 275 329
#     4  11  21  34  55  80 106 139 181 225 274 332
#     4   9  19  35  55  80 108 139 180 232 280 323
#
# _framework density 18.89105
#
# number of rings (size 3 to 8) (size 9 to 14) (size 15 to 20)
#    0.000    2.286    1.429    1.714    0.000    4.000 
#    0.000    5.000    0.000    7.286    0.000    0.000 
#    0.000    0.000    0.000    0.000    0.000    0.000 
#
# Total GULP energy -347194.224806 kJ/mol
# GULP energy per Si atom -12399.793743 kJ/mol
# Density = 1.884805 g / cm^3
# Si number density = 18.891050 Si / 1000 Ang^3
#
#
#
# Elastic Constant Matrix: (Units=GPa)
#
#
# Indices 1 2 3 4 5 6 
#
# 1 69.8840 26.6909 34.7149 0.0000 -6.5290 0.0000
# 2 26.6909 70.1399 38.4922 0.0000 -5.2775 0.0000
# 3 34.7149 38.4922 140.1407 0.0000 1.7804 0.0000
# 4 0.0000 0.0000 0.0000 24.9815 0.0000 -5.3601
# 5 -6.5290 -5.2775 1.7804 0.0000 34.0172 0.0000
# 6 0.0000 0.0000 0.0000 -5.3601 0.0000 15.4262
#
#
#
# Elastic Compliance Matrix: (Units=1/GPa)
#
#
# Indices 1 2 3 4 5 6 
#
# 1 0.018018 -0.004912 -0.003150 0.000000 0.002861 0.000000
# 2 -0.004912 0.018407 -0.003866 0.000000 0.002115 0.000000
# 3 -0.003150 -0.003866 0.008999 0.000000 -0.001675 0.000000
# 4 0.000000 0.000000 0.000000 0.043254 0.000000 0.015030
# 5 0.002861 0.002115 -0.001675 0.000000 0.030362 0.000000
# 6 0.000000 0.000000 0.000000 0.015030 0.000000 0.070047
#
#
# Mechanical properties :
#
#
# Convention : Reuss Voigt Hill
#
# Bulk Modulus (GPa) = 46.36685 53.32894 49.84789
# Shear Modulus (GPa) = 22.71343 26.90274 24.80808
#
# Velocity S-wave (km/s) = 3.47124 3.77782 3.62777
# Velocity P-wave (km/s) = 6.37680 6.87897 6.63264
#
# Compressibility (1/GPa) = 0.02156713
#
# Stress axis : x y z
#
# Youngs Moduli (GPa) = 55.50057 54.32629 111.12087
#
# Poissons Ratio (x) = 0.26687 0.35007
# Poissons Ratio (y) = 0.27264 0.42958
# Poissons Ratio (z) = 0.17485 0.21002
#
# Static dielectric constant tensor:
#      x y z
#    x 3.466370 0.000000 -0.093540 
#    y 0.000000 3.236960 0.000000 
#    z -0.093540 0.000000 3.698680 
# 
# 
# High freq. dielectric constant tensor:
#      x y z
#    x 1.737550 0.000000 -0.009590 
#    y 0.000000 1.700750 0.000000 
#    z -0.009590 0.000000 1.741910 
# 
# From -- ./inp_files/280853.got.cif
#   From: 2010.06.25/outbox.cif.g09.slc.cpg/sg12_141_cif.got.tgz:280853.got - 2010.06.28 00:19:55.
