data_PCOD8091123
_publ_section_title
;
Structure prediction by ZEFSAII (Michael W. Deem and Ramdas Pophale) SiO2 
 PCOD8091123
Probable space group: C 2/M
;
_chemical_formula_sum "Si O2"
_cell_formula_units_Z 56
_cell_length_a 14.434737
_cell_length_b 8.702604
_cell_length_c 24.675664
_cell_angle_alpha 90.000000
_cell_angle_beta 73.874739
_cell_angle_gamma 90.000000
_cell_volume 2977.797802
_symmetry_space_group_name_H-M "C 2/M"
_symmetry_group_IT_number 12
_symmetry_cell_setting 'monoclinic'
loop_
_space_group_symop_operation_xyz
x,y,z
-x,y,-z
-x,-y,-z
x,-y,z
1/2+x,1/2+y,z
1/2-x,1/2+y,-z
1/2-x,1/2-y,-z
1/2+x,1/2-y,z
loop_
_atom_site_type_symbol
_atom_site_label
_atom_site_fract_x
_atom_site_fract_y
_atom_site_fract_z
Si Si1 0.692007 0.318737 0.143150
Si Si2 0.124344 0.818089 0.927378
Si Si3 0.408030 0.318278 0.948338
Si Si4 0.579070 0.819034 0.649576
Si Si5 0.286956 0.682573 0.650524
Si Si6 0.385647 0.818383 0.736060
Si Si7 0.466183 0.181797 0.564248
O O1 0.679838 0.500000 0.151494
O O2 0.803819 0.271426 0.124290
O O3 0.648266 0.252398 0.094169
O O4 0.636341 0.236650 0.200335
O O5 0.018583 0.765318 0.926092
O O6 0.139558 0.000000 0.918802
O O7 0.139555 0.762535 0.987367
O O8 0.405219 0.500000 0.948869
O O9 0.682406 0.748941 0.649752
O O10 0.494668 0.764989 0.704324
O O11 0.548173 0.767053 0.594006
O O12 0.588802 0.000000 0.650022
O O13 0.286435 0.500000 0.652022
O O14 0.310209 0.743828 0.706619
O O15 0.364771 0.739131 0.594205
O O16 0.374944 0.000000 0.732819
O O17 0.500000 0.238363 0.500000
O O18 0.449537 0.000000 0.569149
#
# Coordination Sequence:
#
# PCOD8091123 Si02
#       7
#     8   8   8   8   8   8   8
#     4  11  21  33  50  77 105 129 163 212 259 296
#     4   9  17  34  55  74  98 134 170 201 245 304
#     4   8  17  33  53  74 101 133 167 204 246 302
#     4   8  17  34  54  74 101 136 170 207 252 295
#     4  10  19  34  55  78 104 133 168 215 261 293
#     4  10  21  38  54  71  98 135 174 208 250 309
#     4   9  18  34  54  78 110 144 174 202 238 296
#
# _framework density 18.805844
#
# number of rings (size 3 to 8) (size 9 to 14) (size 15 to 20)
#    0.000    2.714    0.000    3.429    0.000    2.000 
#    0.000   13.571    0.000    0.000    0.000    0.000 
#    0.000    0.000    0.000    0.000    0.000    0.000 
#
# Total GULP energy -347131.683003 kJ/mol
# GULP energy per Si atom -12397.560107 kJ/mol
# Density = 1.876304 g / cm^3
# Si number density = 18.805844 Si / 1000 Ang^3
#
#
#
# Elastic Constant Matrix: (Units=GPa)
#
#
# Indices 1 2 3 4 5 6 
#
# 1 125.8225 25.8511 50.9253 0.0000 -11.4102 0.0000
# 2 25.8511 40.4677 25.0029 0.0000 -3.1279 0.0000
# 3 50.9253 25.0029 118.4352 0.0000 -6.5217 0.0000
# 4 0.0000 0.0000 0.0000 26.0207 0.0000 -2.9399
# 5 -11.4102 -3.1279 -6.5217 0.0000 18.5057 0.0000
# 6 0.0000 0.0000 0.0000 -2.9399 0.0000 23.5372
#
#
#
# Elastic Compliance Matrix: (Units=1/GPa)
#
#
# Indices 1 2 3 4 5 6 
#
# 1 0.010635 -0.004333 -0.003403 0.000000 0.004625 0.000000
# 2 -0.004333 0.030321 -0.004490 0.000000 0.000871 0.000000
# 3 -0.003403 -0.004490 0.010909 0.000000 0.000987 0.000000
# 4 0.000000 0.000000 0.000000 0.038981 0.000000 0.004869
# 5 0.004625 0.000871 0.000987 0.000000 0.057384 0.000000
# 6 0.000000 0.000000 0.000000 0.004869 0.000000 0.043094
#
#
# Mechanical properties :
#
#
# Convention : Reuss Voigt Hill
#
# Bulk Modulus (GPa) = 36.48098 54.25379 45.36738
# Shear Modulus (GPa) = 22.23068 25.80912 24.01990
#
# Velocity S-wave (km/s) = 3.44192 3.70861 3.57775
# Velocity P-wave (km/s) = 5.93604 6.87389 6.42211
#
# Compressibility (1/GPa) = 0.02741154
#
# Stress axis : x y z
#
# Youngs Moduli (GPa) = 94.02956 32.98090 91.66738
#
# Poissons Ratio (x) = 0.14292 0.31197
# Poissons Ratio (y) = 0.40747 0.41156
# Poissons Ratio (z) = 0.32001 0.14808
#
# Static dielectric constant tensor:
#      x y z
#    x 3.771680 0.000000 0.083300 
#    y 0.000000 3.141230 0.000000 
#    z 0.083300 0.000000 3.561720 
# 
# 
# High freq. dielectric constant tensor:
#      x y z
#    x 1.735940 0.000000 -0.003460 
#    y 0.000000 1.707000 0.000000 
#    z -0.003460 0.000000 1.733330 
# 
# From -- ./inp_files/359673.got.cif
#   From: 2010.06.25/outbox.cif.g09.slc.cpg/sg12_180_cif.got.tgz:359673.got - 2010.06.28 00:19:55.
