data_PCOD8091478
_publ_section_title
;
Structure prediction by ZEFSAII (Michael W. Deem and Ramdas Pophale) SiO2 
 PCOD8091478
Probable space group: C 2/M
;
_chemical_formula_sum "Si O2"
_cell_formula_units_Z 64
_cell_length_a 12.813566
_cell_length_b 23.606933
_cell_length_c 12.940995
_cell_angle_alpha 90.000000
_cell_angle_beta 59.856878
_cell_angle_gamma 90.000000
_cell_volume 3385.164161
_symmetry_space_group_name_H-M "C 2/M"
_symmetry_group_IT_number 12
_symmetry_cell_setting 'monoclinic'
loop_
_space_group_symop_operation_xyz
x,y,z
-x,y,-z
-x,-y,-z
x,-y,z
1/2+x,1/2+y,z
1/2-x,1/2+y,-z
1/2-x,1/2-y,-z
1/2+x,1/2-y,z
loop_
_atom_site_type_symbol
_atom_site_label
_atom_site_fract_x
_atom_site_fract_y
_atom_site_fract_z
Si Si1 0.308211 0.435709 0.969886
Si Si2 0.633051 0.241575 0.628000
Si Si3 0.521979 0.660536 0.369264
Si Si4 0.584822 0.169494 0.259385
Si Si5 0.385356 0.151984 0.993204
Si Si6 0.229900 0.435008 0.238249
Si Si7 0.252783 0.774859 0.212410
Si Si8 0.046047 0.064978 0.735581
O O1 0.277007 0.500000 0.954969
O O2 0.444521 0.419851 0.870851
O O3 0.214730 0.396923 0.954716
O O4 0.300731 0.426475 0.096059
O O5 0.750000 0.250000 0.500000
O O6 0.558425 0.299080 0.661955
O O7 0.544358 0.190918 0.631112
O O8 0.662076 0.228945 0.731282
O O9 0.500000 0.671266 0.500000
O O10 0.660875 0.673364 0.276623
O O11 0.482600 0.597677 0.356331
O O12 0.572187 0.165014 0.143033
O O13 0.618014 0.109243 0.296351
O O14 0.689631 0.214497 0.230439
O O15 0.500000 0.129399 0.000000
O O16 0.332846 0.209210 0.072553
O O17 0.182165 0.500000 0.272282
O O18 0.322753 0.419899 0.283539
O O19 0.041517 0.000000 0.706134
#
# Coordination Sequence:
#
# PCOD8091478 Si02
#       8
#     8   8   8   8   8   8   8   8
#     4   9  18  32  53  81 113 152 196 229 274 339
#     4  11  22  38  59  81 108 147 192 231 277 335
#     4  11  22  36  57  81 108 144 190 241 278 328
#     4  10  22  35  57  85 113 149 188 230 286 339
#     4  11  20  35  54  80 119 152 179 235 289 340
#     4   9  18  35  57  84 115 148 188 235 281 337
#     4  11  21  38  54  79 115 146 189 231 283 333
#     4  10  19  34  56  82 113 150 188 234 285 331
#
# _framework density 18.906027000000002
#
# number of rings (size 3 to 8) (size 9 to 14) (size 15 to 20)
#    0.000    1.750    3.750    1.500    0.000    2.000 
#    0.000    0.000    0.000    1.500    0.000    2.625 
#    0.000    0.000    0.000    0.000    0.000    0.000 
#
# Total GULP energy -396766.822006 kJ/mol
# GULP energy per Si atom -12398.963188 kJ/mol
# Density = 1.886300 g / cm^3
# Si number density = 18.906027 Si / 1000 Ang^3
#
#
#
# Elastic Constant Matrix: (Units=GPa)
#
#
# Indices 1 2 3 4 5 6 
#
# 1 115.6512 62.0697 23.7759 0.0000 4.7777 0.0000
# 2 62.0697 105.6362 27.7682 0.0000 3.0050 0.0000
# 3 23.7759 27.7682 42.8777 0.0000 -4.4423 0.0000
# 4 0.0000 0.0000 0.0000 23.8544 0.0000 4.0915
# 5 4.7777 3.0050 -4.4423 0.0000 28.7347 0.0000
# 6 0.0000 0.0000 0.0000 4.0915 0.0000 33.3559
#
#
#
# Elastic Compliance Matrix: (Units=1/GPa)
#
#
# Indices 1 2 3 4 5 6 
#
# 1 0.012985 -0.006786 -0.003004 0.000000 -0.001914 0.000000
# 2 -0.006786 0.015116 -0.006172 0.000000 -0.001407 0.000000
# 3 -0.003004 -0.006172 0.029578 0.000000 0.005718 0.000000
# 4 0.000000 0.000000 0.000000 0.042822 0.000000 -0.005253
# 5 -0.001914 -0.001407 0.005718 0.000000 0.036150 0.000000
# 6 0.000000 0.000000 0.000000 -0.005253 0.000000 0.030624
#
#
# Mechanical properties :
#
#
# Convention : Reuss Voigt Hill
#
# Bulk Modulus (GPa) = 38.82824 54.59919 46.71371
# Shear Modulus (GPa) = 24.06335 27.22576 25.64455
#
# Velocity S-wave (km/s) = 3.57148 3.79893 3.68696
# Velocity P-wave (km/s) = 6.13102 6.94150 6.54881
#
# Compressibility (1/GPa) = 0.02575445
#
# Stress axis : x y z
#
# Youngs Moduli (GPa) = 77.01049 66.15429 33.80925
#
# Poissons Ratio (x) = 0.44891 0.10157
# Poissons Ratio (y) = 0.52257 0.20869
# Poissons Ratio (z) = 0.23135 0.40834
#
# Static dielectric constant tensor:
#      x y z
#    x 3.655610 0.000000 0.011950 
#    y 0.000000 3.519230 0.000000 
#    z 0.011950 0.000000 3.265380 
# 
# 
# High freq. dielectric constant tensor:
#      x y z
#    x 1.745500 0.000000 0.005350 
#    y 0.000000 1.732020 0.000000 
#    z 0.005350 0.000000 1.716430 
# 
# From -- ./inp_files/135912.got.cif
#   From: 2010.06.25/outbox.cif.g09.slc.cpg/sg12_68_cif.got.tgz:135912.got - 2010.06.28 00:19:55.
