data_PCOD8091825
_publ_section_title
;
Structure prediction by ZEFSAII (Michael W. Deem and Ramdas Pophale) SiO2 
 PCOD8091825
Probable space group: C 2/M
;
_chemical_formula_sum "Si O2"
_cell_formula_units_Z 48
_cell_length_a 30.778013
_cell_length_b 8.625182
_cell_length_c 8.902346
_cell_angle_alpha 90.000000
_cell_angle_beta 93.607399
_cell_angle_gamma 90.000000
_cell_volume 2358.587305
_symmetry_space_group_name_H-M "C 2/M"
_symmetry_group_IT_number 12
_symmetry_cell_setting 'monoclinic'
loop_
_space_group_symop_operation_xyz
x,y,z
-x,y,-z
-x,-y,-z
x,-y,z
1/2+x,1/2+y,z
1/2-x,1/2+y,-z
1/2-x,1/2-y,-z
1/2+x,1/2-y,z
loop_
_atom_site_type_symbol
_atom_site_label
_atom_site_fract_x
_atom_site_fract_y
_atom_site_fract_z
Si Si1 0.256549 0.679742 0.661468
Si Si2 0.487265 0.820058 0.330415
Si Si3 0.411985 0.320331 0.135713
Si Si4 0.925164 0.321192 0.820841
Si Si5 0.151063 0.819290 0.381613
Si Si6 0.164856 0.682082 0.708889
O O1 0.249801 0.500000 0.640730
O O2 0.250000 0.750000 0.500000
O O3 0.306603 0.719390 0.717510
O O4 0.215504 0.733822 0.755615
O O5 0.500000 0.768169 0.500000
O O6 0.445981 0.717993 0.274792
O O7 0.526706 0.784301 0.226945
O O8 0.473726 0.000000 0.323763
O O9 0.413984 0.500000 0.092972
O O10 0.363759 0.278963 0.180904
O O11 0.424282 0.218117 0.995280
O O12 0.913090 0.500000 0.792819
O O13 0.891345 0.217480 0.722691
O O14 0.151881 0.720714 0.534417
O O15 0.151162 0.000000 0.425967
O O16 0.156746 0.500000 0.733674
#
# Coordination Sequence:
#
# PCOD8091825 Si02
#       6
#     8   8   8   8   8   8
#     4   8  16  30  52  81 112 146 184 230 278 327
#     4  10  22  41  64  87 111 142 183 228 275 336
#     4  12  25  39  57  83 115 149 187 235 286 329
#     4  11  23  39  59  83 114 153 190 224 274 340
#     4  10  19  34  57  87 118 146 185 235 283 328
#     4  10  19  35  58  83 113 151 193 231 276 335
#
# _framework density 20.351165999999999
#
# number of rings (size 3 to 8) (size 9 to 14) (size 15 to 20)
#    0.000    1.833    0.000    4.500    0.000    6.333 
#    0.000    0.833    0.000    0.000    0.000    0.000 
#    0.000    0.000    0.000    0.000    0.000    0.000 
#
# Total GULP energy -297486.641893 kJ/mol
# GULP energy per Si atom -12395.276746 kJ/mol
# Density = 2.030485 g / cm^3
# Si number density = 20.351166 Si / 1000 Ang^3
#
#
#
# Elastic Constant Matrix: (Units=GPa)
#
#
# Indices 1 2 3 4 5 6 
#
# 1 77.8936 31.0358 8.8519 0.0000 -30.9681 0.0000
# 2 31.0358 44.1838 3.9243 0.0000 -8.4525 0.0000
# 3 8.8519 3.9243 61.8277 0.0000 -23.7365 0.0000
# 4 0.0000 0.0000 0.0000 25.0353 0.0000 -0.3591
# 5 -30.9681 -8.4525 -23.7365 0.0000 30.6549 0.0000
# 6 0.0000 0.0000 0.0000 -0.3591 0.0000 28.0762
#
#
#
# Elastic Compliance Matrix: (Units=1/GPa)
#
#
# Indices 1 2 3 4 5 6 
#
# 1 0.033147 -0.017160 0.010506 0.000000 0.036889 0.000000
# 2 -0.017160 0.032867 -0.003992 0.000000 -0.011364 0.000000
# 3 0.010506 -0.003992 0.026433 0.000000 0.029980 0.000000
# 4 0.000000 0.000000 0.000000 0.039951 0.000000 0.000511
# 5 0.036889 -0.011364 0.029980 0.000000 0.089967 0.000000
# 6 0.000000 0.000000 0.000000 0.000511 0.000000 0.035624
#
#
# Mechanical properties :
#
#
# Convention : Reuss Voigt Hill
#
# Bulk Modulus (GPa) = 14.05384 30.16991 22.11188
# Shear Modulus (GPa) = 16.50170 26.09280 21.29725
#
# Velocity S-wave (km/s) = 2.85063 3.58457 3.23846
# Velocity P-wave (km/s) = 4.21372 5.65588 4.98720
#
# Compressibility (1/GPa) = 0.07115493
#
# Stress axis : x y z
#
# Youngs Moduli (GPa) = 30.16854 30.42592 37.83170
#
# Poissons Ratio (x) = 0.52209 -0.39745
# Poissons Ratio (y) = 0.51768 0.15103
# Poissons Ratio (z) = -0.31694 0.12146
#
# Static dielectric constant tensor:
#      x y z
#    x 4.356260 0.000000 -0.204770 
#    y 0.000000 3.570930 0.000000 
#    z -0.204770 0.000000 3.381580 
# 
# 
# High freq. dielectric constant tensor:
#      x y z
#    x 1.821590 0.000000 -0.013190 
#    y 0.000000 1.796130 0.000000 
#    z -0.013190 0.000000 1.766370 
# 
# From -- ./inp_files/108666.got.cif
#   From: 2010.06.25/outbox.cif.g09.slc.cpg/sg12_55_cif.got.tgz:108666.got - 2010.06.28 00:19:55.
