data_PCOD8091987
_publ_section_title
;
Structure prediction by ZEFSAII (Michael W. Deem and Ramdas Pophale) SiO2 
 PCOD8091987
Probable space group: C 2/M
;
_chemical_formula_sum "Si O2"
_cell_formula_units_Z 64
_cell_length_a 29.964406
_cell_length_b 14.836922
_cell_length_c 21.947402
_cell_angle_alpha 90.000000
_cell_angle_beta 160.637961
_cell_angle_gamma 90.000000
_cell_volume 3234.919451
_symmetry_space_group_name_H-M "C 2/M"
_symmetry_group_IT_number 12
_symmetry_cell_setting 'monoclinic'
loop_
_space_group_symop_operation_xyz
x,y,z
-x,y,-z
-x,-y,-z
x,-y,z
1/2+x,1/2+y,z
1/2-x,1/2+y,-z
1/2-x,1/2-y,-z
1/2+x,1/2-y,z
loop_
_atom_site_type_symbol
_atom_site_label
_atom_site_fract_x
_atom_site_fract_y
_atom_site_fract_z
Si Si1 0.079128 0.189567 0.658296
Si Si2 0.561265 0.395646 0.856426
Si Si3 0.783959 0.897034 0.435948
Si Si4 0.823402 0.237086 0.904002
Si Si5 0.270042 0.395437 0.040190
Si Si6 0.470587 0.104345 0.675254
Si Si7 0.162551 0.737146 0.582094
Si Si8 0.480018 0.897044 0.827884
O O1 0.192977 0.254434 0.778260
O O2 0.143808 0.117779 0.787487
O O3 0.000000 0.140594 0.500000
O O4 0.977396 0.254223 0.562728
O O5 0.594750 0.500000 0.911840
O O6 0.406474 0.381199 0.639960
O O7 0.653247 0.354947 0.919860
O O8 0.584343 0.340689 0.948236
O O9 0.796594 0.832671 0.394305
O O10 0.647987 0.873973 0.296074
O O11 0.785270 0.000000 0.413588
O O12 0.780692 0.208223 0.780786
O O13 0.898618 0.332682 0.996575
O O14 0.255672 0.500000 0.011459
O O15 0.119744 0.354949 0.853053
O O16 0.356196 0.159342 0.492124
O O17 0.439091 0.118722 0.705392
O O18 0.460216 0.000000 0.642921
O O19 0.528763 0.000000 0.900305
#
# Coordination Sequence:
#
# PCOD8091987 Si02
#       8
#     8   8   8   8   8   8   8   8
#     4  10  21  34  52  86 124 151 181 227 285 342
#     4  10  21  37  59  86 114 149 194 237 276 328
#     4  10  22  40  61  85 112 145 189 239 288 339
#     4  11  23  37  57  85 118 155 188 227 284 340
#     4  10  19  34  58  86 114 152 194 229 276 335
#     4  10  21  37  59  86 114 149 194 237 276 328
#     4  11  23  37  57  85 118 155 188 227 284 340
#     4  10  22  40  61  85 112 145 189 239 288 339
#
# _framework density 19.784109999999998
#
# number of rings (size 3 to 8) (size 9 to 14) (size 15 to 20)
#    0.000    1.750    2.500    1.500    0.000    4.750 
#    0.000    3.750    0.000    4.500    0.000    5.250 
#    0.000    0.000    0.000    0.000    0.000    0.000 
#
# Total GULP energy -396822.924917 kJ/mol
# GULP energy per Si atom -12400.716404 kJ/mol
# Density = 1.973908 g / cm^3
# Si number density = 19.784110 Si / 1000 Ang^3
#
#
#
# Elastic Constant Matrix: (Units=GPa)
#
#
# Indices 1 2 3 4 5 6 
#
# 1 53.1854 33.4859 49.9131 -0.0013 -2.3989 -0.0014
# 2 33.4859 69.6707 42.8285 -0.0013 -12.1913 -0.0010
# 3 49.9131 42.8285 76.9453 -0.0026 -28.4609 -0.0014
# 4 -0.0013 -0.0013 -0.0026 21.4077 -0.0022 -6.0245
# 5 -2.3989 -12.1913 -28.4609 -0.0022 35.5951 -0.0015
# 6 -0.0014 -0.0010 -0.0014 -6.0245 -0.0015 16.7403
#
#
#
# Elastic Compliance Matrix: (Units=1/GPa)
#
#
# Indices 1 2 3 4 5 6 
#
# 1 0.097423 -0.007236 -0.081871 -0.000013 -0.061375 -0.000010
# 2 -0.007236 0.022612 -0.007395 0.000000 0.001344 0.000000
# 3 -0.081871 -0.007395 0.095482 0.000017 0.068295 0.000013
# 4 -0.000013 0.000000 0.000017 0.051976 0.000017 0.018705
# 5 -0.061375 0.001344 0.068295 0.000017 0.079025 0.000014
# 6 -0.000010 0.000000 0.000013 0.018705 0.000014 0.066468
#
#
# Mechanical properties :
#
#
# Convention : Reuss Voigt Hill
#
# Bulk Modulus (GPa) = 44.41787 50.25072 47.33429
# Shear Modulus (GPa) = 8.15004 19.65355 13.90179
#
# Velocity S-wave (km/s) = 2.03185 3.15525 2.65368
# Velocity P-wave (km/s) = 5.29194 6.22324 5.77639
#
# Compressibility (1/GPa) = 0.02251346
#
# Stress axis : x y z
#
# Youngs Moduli (GPa) = 10.26449 44.22365 10.47319
#
# Poissons Ratio (x) = 0.32000 0.85745
# Poissons Ratio (y) = 0.07427 0.07745
# Poissons Ratio (z) = 0.84036 0.32705
#
# Static dielectric constant tensor:
#      x y z
#    x 3.702820 0.000000 0.040610 
#    y 0.000000 3.408580 0.000000 
#    z 0.040610 0.000000 3.669060 
# 
# 
# High freq. dielectric constant tensor:
#      x y z
#    x 1.771690 0.000000 0.000400 
#    y 0.000000 1.758610 0.000000 
#    z 0.000400 0.000000 1.771250 
# 
# From -- ./inp_files/146175.got.cif
#   From: 2010.06.25/outbox.cif.g09.slc.cpg/sg12_74_cif.got.tgz:146175.got - 2010.06.28 00:19:55.
