data_PCOD8091505
_publ_section_title
;
Structure prediction by ZEFSAII (Michael W. Deem and Ramdas Pophale) SiO2 
 PCOD8091505
Probable space group: C 2/M
;
_chemical_formula_sum "Si O2"
_cell_formula_units_Z 64
_cell_length_a 19.758773
_cell_length_b 8.962568
_cell_length_c 20.112739
_cell_angle_alpha 90.000000
_cell_angle_beta 101.982889
_cell_angle_gamma 90.000000
_cell_volume 3484.139984
_symmetry_space_group_name_H-M "C 2/M"
_symmetry_group_IT_number 12
_symmetry_cell_setting 'monoclinic'
loop_
_space_group_symop_operation_xyz
x,y,z
-x,y,-z
-x,-y,-z
x,-y,z
1/2+x,1/2+y,z
1/2-x,1/2+y,-z
1/2-x,1/2-y,-z
1/2+x,1/2-y,z
loop_
_atom_site_type_symbol
_atom_site_label
_atom_site_fract_x
_atom_site_fract_y
_atom_site_fract_z
Si Si1 0.907383 0.326646 0.657748
Si Si2 0.127671 0.672264 0.675413
Si Si3 0.154358 0.173601 0.152571
Si Si4 0.031469 0.329524 0.188877
Si Si5 0.752498 0.176853 0.072028
Si Si6 0.715351 0.329982 0.306600
Si Si7 0.995448 0.175598 0.423089
Si Si8 0.125175 0.327369 0.826966
O O1 0.907170 0.500000 0.641653
O O2 0.953794 0.287133 0.731477
O O3 0.828691 0.274024 0.653395
O O4 0.938955 0.243504 0.601248
O O5 0.104464 0.500000 0.666808
O O6 0.204285 0.696803 0.661999
O O7 0.076828 0.769336 0.621047
O O8 0.124642 0.726168 0.750791
O O9 0.075380 0.224756 0.148777
O O10 0.185759 0.266991 0.098636
O O11 0.200436 0.209340 0.226736
O O12 0.155310 0.000000 0.134262
O O13 0.054046 0.500000 0.181073
O O14 0.950804 0.305776 0.157157
O O15 0.823173 0.224199 0.122001
O O16 0.749560 0.000000 0.064907
O O17 0.750000 0.250000 0.000000
O O18 0.693480 0.500000 0.315750
O O19 0.000000 0.227679 0.500000
O O20 0.998966 0.000000 0.416439
O O21 0.149489 0.500000 0.836232
#
# Coordination Sequence:
#
# PCOD8091505 Si02
#       8
#     8   8   8   8   8   8   8   8
#     4  10  19  34  56  83 113 148 190 231 280 339
#     4  10  19  36  60  86 114 147 189 234 283 337
#     4  10  19  35  57  83 117 151 186 231 282 335
#     4   9  18  33  56  86 117 146 182 232 283 334
#     4  12  25  40  59  84 116 154 194 233 282 339
#     4   9  18  33  56  85 116 146 180 231 287 333
#     4  11  24  39  55  80 116 153 191 237 287 338
#     4  10  19  37  60  86 118 147 185 236 285 334
#
# _framework density 18.368953000000001
#
# number of rings (size 3 to 8) (size 9 to 14) (size 15 to 20)
#    0.000    1.875    2.500    2.250    0.000    3.500 
#    0.000    1.250    0.000    3.750    0.000    0.000 
#    0.000    0.000    0.000    0.000    0.000    0.000 
#
# Total GULP energy -396932.986260 kJ/mol
# GULP energy per Si atom -12404.155821 kJ/mol
# Density = 1.832714 g / cm^3
# Si number density = 18.368953 Si / 1000 Ang^3
#
#
#
# Elastic Constant Matrix: (Units=GPa)
#
#
# Indices 1 2 3 4 5 6 
#
# 1 100.7064 52.4526 59.0373 0.0000 -12.9668 0.0000
# 2 52.4526 101.9902 67.1880 0.0000 -10.8696 0.0000
# 3 59.0373 67.1880 117.2009 0.0000 -12.6081 0.0000
# 4 0.0000 0.0000 0.0000 28.6931 0.0000 -2.4135
# 5 -12.9668 -10.8696 -12.6081 0.0000 22.5064 0.0000
# 6 0.0000 0.0000 0.0000 -2.4135 0.0000 36.7922
#
#
#
# Elastic Compliance Matrix: (Units=1/GPa)
#
#
# Indices 1 2 3 4 5 6 
#
# 1 0.015615 -0.004340 -0.004932 0.000000 0.004137 0.000000
# 2 -0.004340 0.017118 -0.007456 0.000000 0.001590 0.000000
# 3 -0.004932 -0.007456 0.015534 0.000000 0.002260 0.000000
# 4 0.000000 0.000000 0.000000 0.035045 0.000000 0.002299
# 5 0.004137 0.001590 0.002260 0.000000 0.048849 0.000000
# 6 0.000000 0.000000 0.000000 0.002299 0.000000 0.027330
#
#
# Mechanical properties :
#
#
# Convention : Reuss Voigt Hill
#
# Bulk Modulus (GPa) = 67.52237 75.25037 71.38637
# Shear Modulus (GPa) = 25.26709 27.01298 26.14003
#
# Velocity S-wave (km/s) = 3.71284 3.83897 3.77643
# Velocity P-wave (km/s) = 7.43095 7.79136 7.61329
#
# Compressibility (1/GPa) = 0.01480991
#
# Stress axis : x y z
#
# Youngs Moduli (GPa) = 64.04250 58.41693 64.37352
#
# Poissons Ratio (x) = 0.25355 0.31751
# Poissons Ratio (y) = 0.27797 0.47997
# Poissons Ratio (z) = 0.31588 0.43556
#
# Static dielectric constant tensor:
#      x y z
#    x 3.472630 0.000000 -0.071680 
#    y 0.000000 3.382720 0.000000 
#    z -0.071680 0.000000 3.273780 
# 
# 
# High freq. dielectric constant tensor:
#      x y z
#    x 1.723630 0.000000 -0.013490 
#    y 0.000000 1.714920 0.000000 
#    z -0.013490 0.000000 1.688150 
# 
# From -- ./inp_files/281296.got.cif
#   From: 2010.06.25/outbox.cif.g09.slc.cpg/sg12_141_cif.got.tgz:281296.got - 2010.06.28 00:19:55.
