data_PCOD8091750
_publ_section_title
;
Structure prediction by ZEFSAII (Michael W. Deem and Ramdas Pophale) SiO2 
 PCOD8091750
Probable space group: C 2/M
;
_chemical_formula_sum "Si O2"
_cell_formula_units_Z 56
_cell_length_a 21.395400
_cell_length_b 8.657363
_cell_length_c 15.956003
_cell_angle_alpha 90.000000
_cell_angle_beta 95.295062
_cell_angle_gamma 90.000000
_cell_volume 2942.882331
_symmetry_space_group_name_H-M "C 2/M"
_symmetry_group_IT_number 12
_symmetry_cell_setting 'monoclinic'
loop_
_space_group_symop_operation_xyz
x,y,z
-x,y,-z
-x,-y,-z
x,-y,z
1/2+x,1/2+y,z
1/2-x,1/2+y,-z
1/2-x,1/2-y,-z
1/2+x,1/2-y,z
loop_
_atom_site_type_symbol
_atom_site_label
_atom_site_fract_x
_atom_site_fract_y
_atom_site_fract_z
Si Si1 0.906165 0.818551 0.966872
Si Si2 0.777178 0.317056 0.917377
Si Si3 0.939319 0.322912 0.435482
Si Si4 0.296962 0.819505 0.437199
Si Si5 0.791744 0.823018 0.257368
Si Si6 0.437034 0.326369 0.264801
Si Si7 0.519228 0.178792 0.887008
O O1 0.847740 0.739066 0.915437
O O2 0.964186 0.787976 0.913146
O O3 0.895305 0.000000 0.979459
O O4 0.917632 0.735594 0.057955
O O5 0.771273 0.500000 0.921409
O O6 0.743869 0.255006 0.828474
O O7 0.750000 0.250000 0.000000
O O8 0.934058 0.500000 0.404926
O O9 0.870692 0.275165 0.465496
O O10 0.955608 0.211917 0.361207
O O11 0.000000 0.298680 0.500000
O O12 0.250000 0.750000 0.500000
O O13 0.276362 0.766820 0.341388
O O14 0.287661 0.000000 0.441262
O O15 0.863728 0.804417 0.242461
O O16 0.772755 0.000000 0.271178
O O17 0.458334 0.500000 0.246153
O O18 0.473322 0.206101 0.210385
O O19 0.504884 0.000000 0.904136
#
# Coordination Sequence:
#
# PCOD8091750 Si02
#       7
#     8   8   8   8   8   8   8
#     4  11  22  37  55  78 111 146 184 233 280 328
#     4  11  22  37  57  83 114 151 190 233 283 336
#     4   9  19  37  58  82 111 146 189 234 282 340
#     4  10  20  36  60  85 112 149 190 236 291 348
#     4   9  20  37  57  81 112 147 187 230 276 334
#     4  10  19  34  57  84 111 142 181 228 280 331
#     4  11  21  36  57  80 107 145 188 227 276 337
#
# _framework density 19.028963000000001
#
# number of rings (size 3 to 8) (size 9 to 14) (size 15 to 20)
#    0.000    1.857    0.000    5.571    0.000    3.714 
#    2.571    0.000    0.000    0.000    0.000    0.000 
#    0.000    0.000    0.000    0.000    0.000    0.000 
#
# Total GULP energy -347109.703751 kJ/mol
# GULP energy per Si atom -12396.775134 kJ/mol
# Density = 1.898565 g / cm^3
# Si number density = 19.028963 Si / 1000 Ang^3
#
#
#
# Elastic Constant Matrix: (Units=GPa)
#
#
# Indices 1 2 3 4 5 6 
#
# 1 86.9133 29.2662 66.8580 0.0000 13.8516 0.0000
# 2 29.2662 72.1702 48.4133 0.0000 -1.4115 0.0000
# 3 66.8580 48.4133 129.0194 0.0000 -1.8686 0.0000
# 4 0.0000 0.0000 0.0000 35.3094 0.0000 -3.5629
# 5 13.8516 -1.4115 -1.8686 0.0000 34.3772 0.0000
# 6 0.0000 0.0000 0.0000 -3.5629 0.0000 29.7070
#
#
#
# Elastic Compliance Matrix: (Units=1/GPa)
#
#
# Indices 1 2 3 4 5 6 
#
# 1 0.021978 -0.001826 -0.010842 0.000000 -0.009520 0.000000
# 2 -0.001826 0.018674 -0.006044 0.000000 0.001174 0.000000
# 3 -0.010842 -0.006044 0.015709 0.000000 0.004974 0.000000
# 4 0.000000 0.000000 0.000000 0.028668 0.000000 0.003438
# 5 -0.009520 0.001174 0.004974 0.000000 0.033243 0.000000
# 6 0.000000 0.000000 0.000000 0.003438 0.000000 0.034075
#
#
# Mechanical properties :
#
#
# Convention : Reuss Voigt Hill
#
# Bulk Modulus (GPa) = 52.80497 64.13087 58.46792
# Shear Modulus (GPa) = 25.49955 29.44973 27.47464
#
# Velocity S-wave (km/s) = 3.66463 3.93826 3.80390
# Velocity P-wave (km/s) = 6.76136 7.37934 7.07710
#
# Compressibility (1/GPa) = 0.01893761
#
# Stress axis : x y z
#
# Youngs Moduli (GPa) = 45.50098 53.55035 63.65796
#
# Poissons Ratio (x) = 0.09777 0.69015
# Poissons Ratio (y) = 0.08307 0.38476
# Poissons Ratio (z) = 0.49330 0.32367
#
# Static dielectric constant tensor:
#      x y z
#    x 3.796010 0.000000 0.384800 
#    y 0.000000 3.571500 0.000000 
#    z 0.384800 0.000000 3.825300 
# 
# 
# High freq. dielectric constant tensor:
#      x y z
#    x 1.735960 0.000000 -0.000180 
#    y 0.000000 1.747540 0.000000 
#    z -0.000180 0.000000 1.739780 
# 
# From -- ./inp_files/230896.got.cif
#   From: 2010.06.25/outbox.cif.g09.slc.cpg/sg12_116_cif.got.tgz:230896.got - 2010.06.28 00:19:55.
