data_PCOD8091800
_publ_section_title
;
Structure prediction by ZEFSAII (Michael W. Deem and Ramdas Pophale) SiO2 
 PCOD8091800
Probable space group: C 2/M
;
_chemical_formula_sum "Si O2"
_cell_formula_units_Z 56
_cell_length_a 32.601089
_cell_length_b 8.987028
_cell_length_c 11.053184
_cell_angle_alpha 90.000000
_cell_angle_beta 119.738025
_cell_angle_gamma 90.000000
_cell_volume 2811.943929
_symmetry_space_group_name_H-M "C 2/M"
_symmetry_group_IT_number 12
_symmetry_cell_setting 'monoclinic'
loop_
_space_group_symop_operation_xyz
x,y,z
-x,y,-z
-x,-y,-z
x,-y,z
1/2+x,1/2+y,z
1/2-x,1/2+y,-z
1/2-x,1/2-y,-z
1/2+x,1/2-y,z
loop_
_atom_site_type_symbol
_atom_site_label
_atom_site_fract_x
_atom_site_fract_y
_atom_site_fract_z
Si Si1 0.381108 0.326879 0.821335
Si Si2 0.340828 0.172804 0.128233
Si Si3 0.390573 0.173097 0.591811
Si Si4 0.072956 0.173657 0.858456
Si Si5 0.296572 0.830106 0.808864
Si Si6 0.189174 0.173577 0.674229
Si Si7 0.989331 0.327832 0.620444
O O1 0.380803 0.500000 0.788735
O O2 0.402909 0.235897 0.742048
O O3 0.327388 0.276606 0.768869
O O4 0.413959 0.290171 0.984086
O O5 0.392472 0.241021 0.182443
O O6 0.316189 0.249409 0.204873
O O7 0.347598 0.000000 0.167471
O O8 0.307250 0.202702 0.964956
O O9 0.345461 0.258803 0.475429
O O10 0.434556 0.202156 0.567672
O O11 0.378450 0.000000 0.583330
O O12 0.020084 0.230382 0.758141
O O13 0.077117 0.000000 0.837263
O O14 0.241948 0.797157 0.703257
O O15 0.309994 0.000000 0.797707
O O16 0.178797 0.000000 0.674790
O O17 0.002554 0.500000 0.658530
O O18 0.000000 0.275306 0.500000
#
# Coordination Sequence:
#
# PCOD8091800 Si02
#       7
#     8   8   8   8   8   8   8
#     4  10  22  40  60  84 114 148 190 237 282 334
#     4  10  19  34  57  85 118 152 188 231 280 339
#     4  11  24  40  59  83 113 151 192 234 282 338
#     4  10  21  37  60  87 114 148 188 234 287 335
#     4   9  20  37  58  84 114 151 192 234 281 336
#     4  11  22  36  56  84 117 151 190 237 287 335
#     4  10  22  40  61  86 115 147 185 229 280 341
#
# _framework density 19.915050000000001
#
# number of rings (size 3 to 8) (size 9 to 14) (size 15 to 20)
#    0.000    1.857    0.000    3.429    0.000    7.143 
#    0.000    2.857    0.000    0.000    0.000    0.000 
#    0.000    0.000    0.000    0.000    0.000    0.000 
#
# Total GULP energy -347382.128169 kJ/mol
# GULP energy per Si atom -12406.504577 kJ/mol
# Density = 1.986972 g / cm^3
# Si number density = 19.915050 Si / 1000 Ang^3
#
#
#
# Elastic Constant Matrix: (Units=GPa)
#
#
# Indices 1 2 3 4 5 6 
#
# 1 77.1066 45.8133 49.8064 0.0000 -6.0170 0.0000
# 2 45.8133 103.2792 48.2099 0.0000 -0.0411 0.0000
# 3 49.8064 48.2099 92.0214 0.0000 6.7577 0.0000
# 4 0.0000 0.0000 0.0000 36.3829 0.0000 -0.4453
# 5 -6.0170 -0.0411 6.7577 0.0000 36.0347 0.0000
# 6 0.0000 0.0000 0.0000 -0.4453 0.0000 36.2633
#
#
#
# Elastic Compliance Matrix: (Units=1/GPa)
#
#
# Indices 1 2 3 4 5 6 
#
# 1 0.023261 -0.005614 -0.010072 0.000000 0.005766 0.000000
# 2 -0.005614 0.014232 -0.004410 0.000000 -0.000094 0.000000
# 3 -0.010072 -0.004410 0.019015 0.000000 -0.005253 0.000000
# 4 0.000000 0.000000 0.000000 0.027490 0.000000 0.000338
# 5 0.005766 -0.000094 -0.005253 0.000000 0.029699 0.000000
# 6 0.000000 0.000000 0.000000 0.000338 0.000000 0.027580
#
#
# Mechanical properties :
#
#
# Convention : Reuss Voigt Hill
#
# Bulk Modulus (GPa) = 61.29718 62.22960 61.76339
# Shear Modulus (GPa) = 26.75130 30.30800 28.52965
#
# Velocity S-wave (km/s) = 3.66904 3.90534 3.78903
# Velocity P-wave (km/s) = 6.98536 7.18686 7.08683
#
# Compressibility (1/GPa) = 0.01631396
#
# Stress axis : x y z
#
# Youngs Moduli (GPa) = 42.99090 70.26630 52.59086
#
# Poissons Ratio (x) = 0.39450 0.52969
# Poissons Ratio (y) = 0.24137 0.23194
# Poissons Ratio (z) = 0.43300 0.30989
#
# Static dielectric constant tensor:
#      x y z
#    x 3.543670 0.000000 0.006960 
#    y 0.000000 3.681390 0.000000 
#    z 0.006960 0.000000 3.592250 
# 
# 
# High freq. dielectric constant tensor:
#      x y z
#    x 1.775710 0.000000 0.001370 
#    y 0.000000 1.785880 0.000000 
#    z 0.001370 0.000000 1.779180 
# 
# From -- ./inp_files/187724.got.cif
#   From: 2010.06.25/outbox.cif.g09.slc.cpg/sg12_94_cif.got.tgz:187724.got - 2010.06.28 00:19:55.
