data_PCOD8091914
_publ_section_title
;
Structure prediction by ZEFSAII (Michael W. Deem and Ramdas Pophale) SiO2 
 PCOD8091914
Probable space group: C 2/M
;
_chemical_formula_sum "Si O2"
_cell_formula_units_Z 40
_cell_length_a 17.673121
_cell_length_b 13.279368
_cell_length_c 10.849858
_cell_angle_alpha 90.000000
_cell_angle_beta 58.094908
_cell_angle_gamma 90.000000
_cell_volume 2161.642607
_symmetry_space_group_name_H-M "C 2/M"
_symmetry_group_IT_number 12
_symmetry_cell_setting 'monoclinic'
loop_
_space_group_symop_operation_xyz
x,y,z
-x,y,-z
-x,-y,-z
x,-y,z
1/2+x,1/2+y,z
1/2-x,1/2+y,-z
1/2-x,1/2-y,-z
1/2+x,1/2-y,z
loop_
_atom_site_type_symbol
_atom_site_label
_atom_site_fract_x
_atom_site_fract_y
_atom_site_fract_z
Si Si1 0.756157 0.751419 0.292127
Si Si2 0.831256 0.886882 0.432495
Si Si3 0.902144 0.616619 0.030305
Si Si4 0.158411 0.274409 0.143962
Si Si5 0.475425 0.386703 0.655531
O O1 0.797207 0.840945 0.335031
O O2 0.700722 0.674453 0.422073
O O3 0.833685 0.688103 0.159853
O O4 0.687700 0.806859 0.256739
O O5 0.937698 0.885622 0.333817
O O6 0.794070 0.000000 0.476351
O O7 0.876368 0.500000 0.070745
O O8 0.896671 0.642767 0.887857
O O9 0.000000 0.638057 0.000000
O O10 0.099226 0.174527 0.207637
O O11 0.250000 0.250000 0.000000
O O12 0.500000 0.341006 0.500000
O O13 0.438301 0.500000 0.669178
#
# Coordination Sequence:
#
# PCOD8091914 Si02
#       5
#     8   8   8   8   8
#     4  10  20  35  55  81 112 146 184 232 279 330
#     4  10  20  34  56  83 113 146 184 231 282 333
#     4  10  21  37  56  75 105 149 191 226 271 332
#     4  10  21  35  55  83 112 145 183 230 278 330
#     4  10  19  34  58  84 110 143 187 232 278 331
#
# _framework density 18.504445
#
# number of rings (size 3 to 8) (size 9 to 14) (size 15 to 20)
#    0.000    2.000    2.000    1.800    0.000    4.000 
#    0.000    3.000    0.000   11.400    0.000    0.000 
#    0.000    0.000    0.000    0.000    0.000    0.000 
#
# Total GULP energy -247898.708030 kJ/mol
# GULP energy per Si atom -12394.935401 kJ/mol
# Density = 1.846233 g / cm^3
# Si number density = 18.504445 Si / 1000 Ang^3
#
#
#
# Elastic Constant Matrix: (Units=GPa)
#
#
# Indices 1 2 3 4 5 6 
#
# 1 139.4208 51.5167 49.4716 0.0000 23.8444 0.0000
# 2 51.5167 66.2777 36.9009 0.0000 6.7422 0.0000
# 3 49.4716 36.9009 79.4391 0.0000 8.0764 0.0000
# 4 0.0000 0.0000 0.0000 -102.8502 0.0000 -40.7734
# 5 23.8444 6.7422 8.0764 0.0000 39.3786 0.0000
# 6 0.0000 0.0000 0.0000 -40.7734 0.0000 12.6021
#
#
#
# Elastic Compliance Matrix: (Units=1/GPa)
#
#
# Indices 1 2 3 4 5 6 
#
# 1 0.011843 -0.006557 -0.003794 0.000000 -0.005270 0.000000
# 2 -0.006557 0.024078 -0.007237 0.000000 0.001332 0.000000
# 3 -0.003794 -0.007237 0.018335 0.000000 -0.000224 0.000000
# 4 0.000000 0.000000 0.000000 -0.004259 0.000000 -0.013781
# 5 -0.005270 0.001332 -0.000224 0.000000 0.028404 0.000000
# 6 0.000000 0.000000 0.000000 -0.013781 0.000000 0.034763
#
#
# Mechanical properties :
#
#
# Convention : Reuss Voigt Hill
#
# Bulk Modulus (GPa) = 52.40657 62.32400 57.36528
# Shear Modulus (GPa) = 32.32078 -0.35735 15.98171
#
# Velocity S-wave (km/s) = 4.18383 -0.43993 2.94201
# Velocity P-wave (km/s) = 7.19178 5.78754 6.52753
#
# Compressibility (1/GPa) = 0.01908158
#
# Stress axis : x y z
#
# Youngs Moduli (GPa) = 84.43919 41.53100 54.53990
#
# Poissons Ratio (x) = 0.27232 0.20690
# Poissons Ratio (y) = 0.55367 0.39470
# Poissons Ratio (z) = 0.32033 0.30055
#
# Static dielectric constant tensor:
#      x y z
#    x 3.869700 0.000000 0.281840 
#    y 0.000000 3.313730 0.000000 
#    z 0.281840 0.000000 3.441070 
# 
# 
# High freq. dielectric constant tensor:
#      x y z
#    x 1.741820 0.000000 0.005900 
#    y 0.000000 1.701580 0.000000 
#    z 0.005900 0.000000 1.711860 
# 
# From -- ./inp_files/111847.got.cif
#   From: 2010.06.25/outbox.cif.g09.slc.cpg/sg12_56_cif.got.tgz:111847.got - 2010.06.28 00:19:55.
