data_PCOD8091299
_publ_section_title
;
Structure prediction by ZEFSAII (Michael W. Deem and Ramdas Pophale) SiO2 
 PCOD8091299
Probable space group: C 2/M
;
_chemical_formula_sum "Si O2"
_cell_formula_units_Z 48
_cell_length_a 14.371678
_cell_length_b 27.602383
_cell_length_c 6.365059
_cell_angle_alpha 90.000000
_cell_angle_beta 91.609264
_cell_angle_gamma 90.000000
_cell_volume 2523.975672
_symmetry_space_group_name_H-M "C 2/M"
_symmetry_group_IT_number 12
_symmetry_cell_setting 'monoclinic'
loop_
_space_group_symop_operation_xyz
x,y,z
-x,y,-z
-x,-y,-z
x,-y,z
1/2+x,1/2+y,z
1/2-x,1/2+y,-z
1/2-x,1/2-y,-z
1/2+x,1/2-y,z
loop_
_atom_site_type_symbol
_atom_site_label
_atom_site_fract_x
_atom_site_fract_y
_atom_site_fract_z
Si Si1 0.265890 0.804230 0.568219
Si Si2 0.500000 0.411910 0.000000
Si Si3 0.585749 0.833319 0.122657
Si Si4 0.848724 0.945003 0.682432
Si Si5 0.669889 0.886846 0.744276
Si Si6 0.500000 0.890245 0.500000
Si Si7 0.410097 0.634189 0.371229
O O1 0.250000 0.750000 0.500000
O O2 0.334417 0.799610 0.774331
O O3 0.305878 0.837579 0.382857
O O4 0.167760 0.825002 0.638294
O O5 0.565745 0.444879 0.149104
O O6 0.435015 0.377012 0.133409
O O7 0.536808 0.858877 0.312043
O O8 0.500000 0.805006 0.000000
O O9 0.633638 0.872590 0.972089
O O10 0.757639 0.921585 0.782595
O O11 0.874437 0.915447 0.475670
O O12 0.828104 0.000000 0.614841
O O13 0.590062 0.917455 0.607347
O O14 0.500000 0.654642 0.500000
#
# Coordination Sequence:
#
# PCOD8091299 Si02
#       7
#     8   4   8   8   8   4   8
#     4  10  20  35  55  77 107 138 175 220 265 314
#     4  10  19  34  56  74 106 142 176 212 263 314
#     4   9  17  33  55  76 100 136 176 214 262 315
#     4  10  20  33  53  79 106 138 178 219 262 315
#     4   9  18  34  54  75 104 135 177 218 266 312
#     4   8  16  32  55  74  98 138 166 214 259 312
#     4   9  20  37  53  77 109 141 172 220 267 309
#
# _framework density 19.017614999999999
#
# number of rings (size 3 to 8) (size 9 to 14) (size 15 to 20)
#    0.000    2.667    0.000    1.250    0.000    4.333 
#    9.000    0.417    7.333    4.500    0.000    0.000 
#    0.000    0.000    0.000    0.000    0.000    0.000 
#
# Total GULP energy -297347.307489 kJ/mol
# GULP energy per Si atom -12389.471145 kJ/mol
# Density = 1.897433 g / cm^3
# Si number density = 19.017615 Si / 1000 Ang^3
#
#
#
# Elastic Constant Matrix: (Units=GPa)
#
#
# Indices 1 2 3 4 5 6 
#
# 1 143.3477 59.9346 51.7598 0.0000 9.4378 0.0000
# 2 59.9346 99.5399 37.3113 0.0000 7.9870 0.0000
# 3 51.7598 37.3113 105.3663 0.0000 -8.2711 0.0000
# 4 0.0000 0.0000 0.0000 10.4923 0.0000 4.3368
# 5 9.4378 7.9870 -8.2711 0.0000 42.9314 0.0000
# 6 0.0000 0.0000 0.0000 4.3368 0.0000 1.6417
#
#
#
# Elastic Compliance Matrix: (Units=1/GPa)
#
#
# Indices 1 2 3 4 5 6 
#
# 1 0.010394 -0.004745 -0.003590 0.000000 -0.002094 0.000000
# 2 -0.004745 0.014141 -0.002844 0.000000 -0.002136 0.000000
# 3 -0.003590 -0.002844 0.012555 0.000000 0.003737 0.000000
# 4 0.000000 0.000000 0.000000 -1.037047 0.000000 2.739579
# 5 -0.002094 -0.002136 0.003737 0.000000 0.024871 0.000000
# 6 0.000000 0.000000 0.000000 2.739579 0.000000 -6.628039
#
#
# Mechanical properties :
#
#
# Convention : Reuss Voigt Hill
#
# Bulk Modulus (GPa) = 67.88246 71.80726 69.84486
# Shear Modulus (GPa) = -0.65999 24.29630 11.81815
#
# Velocity S-wave (km/s) = -0.58974 3.57819 2.49556
# Velocity P-wave (km/s) = 5.94208 7.41023 6.71639
#
# Compressibility (1/GPa) = 0.01473135
#
# Stress axis : x y z
#
# Youngs Moduli (GPa) = 96.20928 70.71873 79.65057
#
# Poissons Ratio (x) = 0.33554 0.28596
# Poissons Ratio (y) = 0.45648 0.22654
# Poissons Ratio (z) = 0.34541 0.20114
#
# Static dielectric constant tensor:
#      x y z
#    x 4.165630 0.000000 0.255650 
#    y 0.000000 2.914870 0.000000 
#    z 0.255650 0.000000 3.702400 
# 
# 
# High freq. dielectric constant tensor:
#      x y z
#    x 1.774400 0.000000 0.002540 
#    y 0.000000 1.678630 0.000000 
#    z 0.002540 0.000000 1.752550 
# 
# From -- ./inp_files/12401.got.cif
#   From: 2010.06.25/outbox.cif.g09.slc.cpg/sg12_7_cif.got.tgz:12401.got - 2010.06.28 00:19:55.
