data_PCOD8091042
_publ_section_title
;
Structure prediction by ZEFSAII (Michael W. Deem and Ramdas Pophale) SiO2 
 PCOD8091042
Probable space group: C 2/M
;
_chemical_formula_sum "Si O2"
_cell_formula_units_Z 64
_cell_length_a 29.141832
_cell_length_b 9.287790
_cell_length_c 14.067380
_cell_angle_alpha 90.000000
_cell_angle_beta 119.541837
_cell_angle_gamma 90.000000
_cell_volume 3312.528796
_symmetry_space_group_name_H-M "C 2/M"
_symmetry_group_IT_number 12
_symmetry_cell_setting 'monoclinic'
loop_
_space_group_symop_operation_xyz
x,y,z
-x,y,-z
-x,-y,-z
x,-y,z
1/2+x,1/2+y,z
1/2-x,1/2+y,-z
1/2-x,1/2-y,-z
1/2+x,1/2-y,z
loop_
_atom_site_type_symbol
_atom_site_label
_atom_site_fract_x
_atom_site_fract_y
_atom_site_fract_z
Si Si1 0.797218 0.668017 0.999368
Si Si2 0.963906 0.663483 0.239026
Si Si3 0.850522 0.164513 0.389852
Si Si4 0.951146 0.671576 0.010776
Si Si5 0.247330 0.328327 0.397267
Si Si6 0.372574 0.334880 0.201647
Si Si7 0.337017 0.168097 0.837421
Si Si8 0.455567 0.162908 0.527080
O O1 0.791911 0.500000 0.016635
O O2 0.850304 0.731350 0.097377
O O3 0.750000 0.750000 0.000000
O O4 0.799345 0.697757 0.889303
O O5 0.941681 0.500000 0.221547
O O6 0.931118 0.771333 0.274155
O O7 0.022774 0.668159 0.342336
O O8 0.961840 0.722274 0.129405
O O9 0.798558 0.220868 0.389995
O O10 0.840302 0.180266 0.266537
O O11 0.901698 0.250308 0.473847
O O12 0.861698 0.000000 0.427850
O O13 0.949604 0.500000 0.004930
O O14 0.895642 0.735823 0.912728
O O15 0.000000 0.733046 0.000000
O O16 0.246227 0.500000 0.409891
O O17 0.250000 0.250000 0.500000
O O18 0.194606 0.274055 0.287338
O O19 0.373115 0.500000 0.167893
O O20 0.345471 0.000000 0.833717
O O21 0.500000 0.224652 0.500000
O O22 0.442232 0.000000 0.482088
#
# Coordination Sequence:
#
# PCOD8091042 Si02
#       8
#     8   8   8   8   8   8   8   8
#     4  11  21  35  56  84 116 151 188 232 286 340
#     4  10  19  34  54  81 114 147 186 236 287 334
#     4  10  22  38  56  80 115 156 197 238 284 350
#     4   9  17  31  55  85 111 142 186 230 278 338
#     4  10  22  41  61  82 110 148 195 241 284 334
#     4  11  21  34  55  83 114 151 190 231 282 344
#     4   9  18  35  59  82 111 149 187 230 279 337
#     4  10  20  33  54  84 116 148 189 242 291 340
#
# _framework density 19.320587
#
# number of rings (size 3 to 8) (size 9 to 14) (size 15 to 20)
#    0.000    2.000    2.500    1.500    0.000    4.750 
#    0.000    5.000    0.000    0.375    0.000    0.000 
#    0.000    0.000    0.000    0.000    0.000    0.000 
#
# Total GULP energy -396657.654518 kJ/mol
# GULP energy per Si atom -12395.551704 kJ/mol
# Density = 1.927661 g / cm^3
# Si number density = 19.320587 Si / 1000 Ang^3
#
#
#
# Elastic Constant Matrix: (Units=GPa)
#
#
# Indices 1 2 3 4 5 6 
#
# 1 112.3009 34.3903 51.0235 0.0000 3.6691 0.0000
# 2 34.3903 60.4590 36.0036 0.0000 -2.2402 0.0000
# 3 51.0235 36.0036 137.7737 0.0000 4.4959 0.0000
# 4 0.0000 0.0000 0.0000 28.4639 0.0000 2.3310
# 5 3.6691 -2.2402 4.4959 0.0000 28.9595 0.0000
# 6 0.0000 0.0000 0.0000 2.3310 0.0000 26.8246
#
#
#
# Elastic Compliance Matrix: (Units=1/GPa)
#
#
# Indices 1 2 3 4 5 6 
#
# 1 0.011861 -0.004987 -0.003043 0.000000 -0.001416 0.000000
# 2 -0.004987 0.021842 -0.003957 0.000000 0.002936 0.000000
# 3 -0.003043 -0.003957 0.009465 0.000000 -0.001390 0.000000
# 4 0.000000 0.000000 0.000000 0.035384 0.000000 -0.003075
# 5 -0.001416 0.002936 -0.001390 0.000000 0.035153 0.000000
# 6 0.000000 0.000000 0.000000 -0.003075 0.000000 0.037546
#
#
# Mechanical properties :
#
#
# Convention : Reuss Voigt Hill
#
# Bulk Modulus (GPa) = 52.10058 61.48539 56.79298
# Shear Modulus (GPa) = 27.52967 29.45734 28.49351
#
# Velocity S-wave (km/s) = 3.77886 3.90893 3.84445
# Velocity P-wave (km/s) = 6.78709 7.22951 7.01179
#
# Compressibility (1/GPa) = 0.01919365
#
# Stress axis : x y z
#
# Youngs Moduli (GPa) = 84.31200 45.78373 105.65663
#
# Poissons Ratio (x) = 0.22832 0.32153
# Poissons Ratio (y) = 0.42046 0.41806
# Poissons Ratio (z) = 0.25657 0.18115
#
# Static dielectric constant tensor:
#      x y z
#    x 3.668520 0.000000 0.223130 
#    y 0.000000 3.215700 0.000000 
#    z 0.223130 0.000000 3.904830 
# 
# 
# High freq. dielectric constant tensor:
#      x y z
#    x 1.748470 0.000000 0.007610 
#    y 0.000000 1.717590 0.000000 
#    z 0.007610 0.000000 1.764290 
# 
# From -- ./inp_files/249193.got.cif
#   From: 2010.06.25/outbox.cif.g09.slc.cpg/sg12_125_cif.got.tgz:249193.got - 2010.06.28 00:19:55.
