data_PCOD8091051
_publ_section_title
;
Structure prediction by ZEFSAII (Michael W. Deem and Ramdas Pophale) SiO2 
 PCOD8091051
Probable space group: C 2/M
;
_chemical_formula_sum "Si O2"
_cell_formula_units_Z 56
_cell_length_a 27.486657
_cell_length_b 8.701511
_cell_length_c 20.904707
_cell_angle_alpha 90.000000
_cell_angle_beta 147.431771
_cell_angle_gamma 90.000000
_cell_volume 2691.459998
_symmetry_space_group_name_H-M "C 2/M"
_symmetry_group_IT_number 12
_symmetry_cell_setting 'monoclinic'
loop_
_space_group_symop_operation_xyz
x,y,z
-x,y,-z
-x,-y,-z
x,-y,z
1/2+x,1/2+y,z
1/2-x,1/2+y,-z
1/2-x,1/2-y,-z
1/2+x,1/2-y,z
loop_
_atom_site_type_symbol
_atom_site_label
_atom_site_fract_x
_atom_site_fract_y
_atom_site_fract_z
Si Si1 0.576403 0.826720 0.132347
Si Si2 0.480543 0.322213 0.244166
Si Si3 0.757422 0.824513 0.191237
Si Si4 0.430151 0.830626 0.068629
Si Si5 0.675250 0.817738 0.465226
Si Si6 0.238660 0.677620 0.673370
Si Si7 0.318510 0.818819 0.128272
O O1 0.530273 0.825700 0.150583
O O2 0.655515 0.704257 0.219846
O O3 0.611021 0.000000 0.153475
O O4 0.500000 0.768932 0.000000
O O5 0.495490 0.500000 0.275657
O O6 0.422607 0.298461 0.114851
O O7 0.575671 0.239370 0.337902
O O8 0.420606 0.245391 0.233222
O O9 0.796682 0.766762 0.302775
O O10 0.792912 0.724389 0.171958
O O11 0.787657 0.000000 0.214932
O O12 0.647870 0.805263 0.071403
O O13 0.414155 0.000000 0.082043
O O14 0.750000 0.750000 0.500000
O O15 0.690917 0.762538 0.555832
O O16 0.681390 0.000000 0.466369
O O17 0.218983 0.500000 0.663023
O O18 0.317710 0.000000 0.119217
O O19 0.250000 0.750000 0.000000
#
# Coordination Sequence:
#
# PCOD8091051 Si02
#       7
#     8   8   8   8   8   8   8
#     4  10  19  34  54  82 119 161 205 249 308 379
#     4  12  25  41  65  95 127 168 217 269 324 383
#     4  11  22  39  63  92 127 167 209 257 319 384
#     4  10  20  35  58  87 124 165 206 258 317 379
#     4  11  25  46  69  95 129 172 221 272 324 383
#     4  11  24  40  60  90 127 167 211 266 325 380
#     4  12  24  41  65  96 133 171 213 266 323 384
#
# _framework density 20.806550999999999
#
# number of rings (size 3 to 8) (size 9 to 14) (size 15 to 20)
#    0.000    1.000    2.857    4.714    0.000    6.000 
#    0.000    0.714    0.000    4.286    0.000    0.000 
#    0.000    0.000    0.000    0.000    0.000    0.000 
#
# Total GULP energy -347184.622202 kJ/mol
# GULP energy per Si atom -12399.450793 kJ/mol
# Density = 2.075919 g / cm^3
# Si number density = 20.806551 Si / 1000 Ang^3
#
#
#
# Elastic Constant Matrix: (Units=GPa)
#
#
# Indices 1 2 3 4 5 6 
#
# 1 116.2513 45.4242 37.7639 0.0000 -6.5945 0.0000
# 2 45.4242 100.7422 36.5276 0.0000 -7.3751 0.0000
# 3 37.7639 36.5276 75.5372 0.0000 -12.2194 0.0000
# 4 0.0000 0.0000 0.0000 29.8050 0.0000 -1.6253
# 5 -6.5945 -7.3751 -12.2194 0.0000 39.9145 0.0000
# 6 0.0000 0.0000 0.0000 -1.6253 0.0000 38.6675
#
#
#
# Elastic Compliance Matrix: (Units=1/GPa)
#
#
# Indices 1 2 3 4 5 6 
#
# 1 0.011301 -0.003695 -0.003863 0.000000 0.000002 0.000000
# 2 -0.003695 0.013253 -0.004486 0.000000 0.000465 0.000000
# 3 -0.003863 -0.004486 0.017993 0.000000 0.004041 0.000000
# 4 0.000000 0.000000 0.000000 0.033629 0.000000 0.001414
# 5 0.000002 0.000465 0.004041 0.000000 0.026377 0.000000
# 6 0.000000 0.000000 0.000000 0.001414 0.000000 0.025921
#
#
# Mechanical properties :
#
#
# Convention : Reuss Voigt Hill
#
# Bulk Modulus (GPa) = 54.17459 59.10690 56.64074
# Shear Modulus (GPa) = 31.50333 33.19839 32.35086
#
# Velocity S-wave (km/s) = 3.89537 3.99880 3.94742
# Velocity P-wave (km/s) = 6.80630 7.05620 6.93238
#
# Compressibility (1/GPa) = 0.01845884
#
# Stress axis : x y z
#
# Youngs Moduli (GPa) = 88.49080 75.45455 55.57769
#
# Poissons Ratio (x) = 0.27878 0.21468
# Poissons Ratio (y) = 0.32695 0.24935
# Poissons Ratio (z) = 0.34181 0.33852
#
# Static dielectric constant tensor:
#      x y z
#    x 3.912990 0.000000 -0.058430 
#    y 0.000000 3.684040 0.000000 
#    z -0.058430 0.000000 3.737290 
# 
# 
# High freq. dielectric constant tensor:
#      x y z
#    x 1.826920 0.000000 -0.008660 
#    y 0.000000 1.813420 0.000000 
#    z -0.008660 0.000000 1.796700 
# 
# From -- ./inp_files/329709.got.cif
#   From: 2010.06.25/outbox.cif.g09.slc.cpg/sg12_165_cif.got.tgz:329709.got - 2010.06.28 00:19:55.
