data_PCOD8091787
_publ_section_title
;
Structure prediction by ZEFSAII (Michael W. Deem and Ramdas Pophale) SiO2 
 PCOD8091787
Probable space group: C 2/M
;
_chemical_formula_sum "Si O2"
_cell_formula_units_Z 64
_cell_length_a 32.347530
_cell_length_b 8.916790
_cell_length_c 12.115437
_cell_angle_alpha 90.000000
_cell_angle_beta 91.948542
_cell_angle_gamma 90.000000
_cell_volume 3492.509136
_symmetry_space_group_name_H-M "C 2/M"
_symmetry_group_IT_number 12
_symmetry_cell_setting 'monoclinic'
loop_
_space_group_symop_operation_xyz
x,y,z
-x,y,-z
-x,-y,-z
x,-y,z
1/2+x,1/2+y,z
1/2-x,1/2+y,-z
1/2-x,1/2-y,-z
1/2+x,1/2-y,z
loop_
_atom_site_type_symbol
_atom_site_label
_atom_site_fract_x
_atom_site_fract_y
_atom_site_fract_z
Si Si1 0.494137 0.826858 0.179206
Si Si2 0.066796 0.673019 0.015483
Si Si3 0.815846 0.174025 0.512068
Si Si4 0.770857 0.824584 0.898210
Si Si5 0.137041 0.823055 0.139177
Si Si6 0.760406 0.673173 0.340119
Si Si7 0.524426 0.326575 0.390393
Si Si8 0.610863 0.822548 0.365224
O O1 0.454012 0.783896 0.103012
O O2 0.494901 0.722921 0.286831
O O3 0.492074 0.000000 0.214977
O O4 0.535070 0.797284 0.111753
O O5 0.080501 0.500000 0.016263
O O6 0.106704 0.777519 0.036354
O O7 0.796823 0.225992 0.393764
O O8 0.783345 0.208582 0.606269
O O9 0.857285 0.266197 0.539156
O O10 0.827219 0.000000 0.506580
O O11 0.817399 0.764466 0.887344
O O12 0.743777 0.784594 0.788256
O O13 0.772044 0.000000 0.918775
O O14 0.750000 0.750000 0.000000
O O15 0.122057 0.744349 0.248329
O O16 0.136621 0.000000 0.159237
O O17 0.772039 0.500000 0.359356
O O18 0.500000 0.296834 0.500000
O O19 0.536474 0.500000 0.377142
O O20 0.565426 0.227257 0.396906
O O21 0.612383 0.000000 0.357403
#
# Coordination Sequence:
#
# PCOD8091787 Si02
#       8
#     8   8   8   8   8   8   8   8
#     4   9  18  34  56  83 116 148 185 229 277 333
#     4   9  18  33  55  86 116 144 183 233 281 329
#     4  10  19  34  57  85 115 144 185 237 284 331
#     4  10  22  39  57  81 116 153 189 232 280 336
#     4  11  21  36  57  85 116 146 187 238 283 327
#     4   9  18  35  55  81 116 149 186 231 284 336
#     4  11  24  40  58  83 116 151 189 233 283 336
#     4  12  23  36  58  86 114 148 191 233 280 336
#
# _framework density 18.324933000000001
#
# number of rings (size 3 to 8) (size 9 to 14) (size 15 to 20)
#    0.000    1.875    2.500    3.000    0.000    3.500 
#    0.000    2.500    0.000    3.000    0.000    0.000 
#    0.000    0.000    0.000    0.000    0.000    0.000 
#
# Total GULP energy -396901.766632 kJ/mol
# GULP energy per Si atom -12403.180207 kJ/mol
# Density = 1.828322 g / cm^3
# Si number density = 18.324933 Si / 1000 Ang^3
#
#
#
# Elastic Constant Matrix: (Units=GPa)
#
#
# Indices 1 2 3 4 5 6 
#
# 1 103.8941 54.2013 54.1583 0.0000 12.4020 0.0000
# 2 54.2013 92.2437 50.5140 0.0000 6.2304 0.0000
# 3 54.1583 50.5140 115.4588 0.0000 8.3482 0.0000
# 4 0.0000 0.0000 0.0000 32.6987 0.0000 5.3982
# 5 12.4020 6.2304 8.3482 0.0000 26.3607 0.0000
# 6 0.0000 0.0000 0.0000 5.3982 0.0000 31.8188
#
#
#
# Elastic Compliance Matrix: (Units=1/GPa)
#
#
# Indices 1 2 3 4 5 6 
#
# 1 0.015846 -0.006724 -0.004162 0.000000 -0.004548 0.000000
# 2 -0.006724 0.017163 -0.004391 0.000000 0.000498 0.000000
# 3 -0.004162 -0.004391 0.012606 0.000000 -0.000996 0.000000
# 4 0.000000 0.000000 0.000000 0.031464 0.000000 -0.005338
# 5 -0.004548 0.000498 -0.000996 0.000000 0.040273 0.000000
# 6 0.000000 0.000000 0.000000 -0.005338 0.000000 0.032334
#
#
# Mechanical properties :
#
#
# Convention : Reuss Voigt Hill
#
# Bulk Modulus (GPa) = 66.39732 69.92708 68.16220
# Shear Modulus (GPa) = 26.98925 28.35717 27.67321
#
# Velocity S-wave (km/s) = 3.84189 3.93805 3.89027
# Velocity P-wave (km/s) = 7.48279 7.67594 7.57998
#
# Compressibility (1/GPa) = 0.01506085
#
# Stress axis : x y z
#
# Youngs Moduli (GPa) = 63.10847 58.26560 79.32543
#
# Poissons Ratio (x) = 0.39180 0.33015
# Poissons Ratio (y) = 0.42437 0.34828
# Poissons Ratio (z) = 0.26265 0.25582
#
# Static dielectric constant tensor:
#      x y z
#    x 3.693750 0.000000 0.173220 
#    y 0.000000 3.375940 0.000000 
#    z 0.173220 0.000000 3.403490 
# 
# 
# High freq. dielectric constant tensor:
#      x y z
#    x 1.704770 0.000000 0.024300 
#    y 0.000000 1.713240 0.000000 
#    z 0.024300 0.000000 1.704410 
# 
# From -- ./inp_files/187454.got.cif
#   From: 2010.06.25/outbox.cif.g09.slc.cpg/sg12_94_cif.got.tgz:187454.got - 2010.06.28 00:19:55.
