data_PCOD8091363
_publ_section_title
;
Structure prediction by ZEFSAII (Michael W. Deem and Ramdas Pophale) SiO2 
 PCOD8091363
Probable space group: C 2/M
;
_chemical_formula_sum "Si O2"
_cell_formula_units_Z 56
_cell_length_a 29.417558
_cell_length_b 9.706080
_cell_length_c 11.086424
_cell_angle_alpha 90.000000
_cell_angle_beta 65.471391
_cell_angle_gamma 90.000000
_cell_volume 2879.824267
_symmetry_space_group_name_H-M "C 2/M"
_symmetry_group_IT_number 12
_symmetry_cell_setting 'monoclinic'
loop_
_space_group_symop_operation_xyz
x,y,z
-x,y,-z
-x,-y,-z
x,-y,z
1/2+x,1/2+y,z
1/2-x,1/2+y,-z
1/2-x,1/2-y,-z
1/2+x,1/2-y,z
loop_
_atom_site_type_symbol
_atom_site_label
_atom_site_fract_x
_atom_site_fract_y
_atom_site_fract_z
Si Si1 0.623665 0.346149 0.338971
Si Si2 0.292658 0.846927 0.327547
Si Si3 0.029026 0.658060 0.082557
Si Si4 0.818441 0.840653 0.499544
Si Si5 0.035545 0.663436 0.348810
Si Si6 0.357458 0.847305 0.024490
Si Si7 0.202109 0.845250 0.065351
O O1 0.599769 0.500000 0.354616
O O2 0.634811 0.305624 0.465041
O O3 0.588575 0.234830 0.314304
O O4 0.680323 0.351147 0.223932
O O5 0.235217 0.796931 0.384714
O O6 0.326901 0.747144 0.370039
O O7 0.314800 0.844185 0.170941
O O8 0.295917 0.000000 0.379486
O O9 0.012645 0.500000 0.101961
O O10 0.017043 0.712271 0.234187
O O11 0.087145 0.678869 0.986724
O O12 0.000000 0.730016 0.000000
O O13 0.818847 0.000000 0.464164
O O14 0.044142 0.500000 0.338849
O O15 0.000000 0.707718 0.500000
O O16 0.356049 0.000000 0.963633
O O17 0.344717 0.721615 0.951849
O O18 0.214591 0.000000 0.004782
O O19 0.250000 0.750000 0.000000
#
# Coordination Sequence:
#
# PCOD8091363 Si02
#       7
#     8   8   8   8   8   8   8
#     4  10  21  37  56  79 111 149 186 228 283 343
#     4   9  18  32  51  76 106 143 186 228 272 329
#     4   9  18  34  56  81 111 147 186 235 295 349
#     4   9  18  33  50  72 107 145 182 224 274 333
#     4  10  21  37  59  86 112 142 190 247 291 341
#     4  10  19  34  56  79 108 145 187 232 282 340
#     4  11  22  35  55  83 115 149 187 229 279 339
#
# _framework density 19.445630999999999
#
# number of rings (size 3 to 8) (size 9 to 14) (size 15 to 20)
#    0.000    2.286    1.429    1.286    0.000    5.429 
#    0.000    5.714    0.000    1.714    0.000    0.000 
#    0.000    0.000    0.000    0.000    0.000    0.000 
#
# Total GULP energy -346878.360164 kJ/mol
# GULP energy per Si atom -12388.512863 kJ/mol
# Density = 1.940137 g / cm^3
# Si number density = 19.445631 Si / 1000 Ang^3
#
#
#
# Elastic Constant Matrix: (Units=GPa)
#
#
# Indices 1 2 3 4 5 6 
#
# 1 91.8955 43.9361 22.2894 0.0000 16.7802 0.0000
# 2 43.9361 77.6312 16.2641 0.0000 9.4862 0.0000
# 3 22.2894 16.2641 68.9913 0.0000 4.0204 0.0000
# 4 0.0000 0.0000 0.0000 17.2650 0.0000 1.3085
# 5 16.7802 9.4862 4.0204 0.0000 33.4155 0.0000
# 6 0.0000 0.0000 0.0000 1.3085 0.0000 28.8173
#
#
#
# Elastic Compliance Matrix: (Units=1/GPa)
#
#
# Indices 1 2 3 4 5 6 
#
# 1 0.016486 -0.007989 -0.003114 0.000000 -0.005636 0.000000
# 2 -0.007989 0.017838 -0.001574 0.000000 -0.000863 0.000000
# 3 -0.003114 -0.001574 0.015866 0.000000 0.000102 0.000000
# 4 0.000000 0.000000 0.000000 0.058121 0.000000 -0.002639
# 5 -0.005636 -0.000863 0.000102 0.000000 0.032989 0.000000
# 6 0.000000 0.000000 0.000000 -0.002639 0.000000 0.034821
#
#
# Mechanical properties :
#
#
# Convention : Reuss Voigt Hill
#
# Bulk Modulus (GPa) = 40.26548 44.83302 42.54925
# Shear Modulus (GPa) = 23.83734 26.30145 25.06939
#
# Velocity S-wave (km/s) = 3.50501 3.68171 3.59444
# Velocity P-wave (km/s) = 6.09358 6.41708 6.25742
#
# Compressibility (1/GPa) = 0.02483517
#
# Stress axis : x y z
#
# Youngs Moduli (GPa) = 60.65657 56.05953 63.02841
#
# Poissons Ratio (x) = 0.44788 0.19630
# Poissons Ratio (y) = 0.48461 0.09919
# Poissons Ratio (z) = 0.18891 0.08823
#
# Static dielectric constant tensor:
#      x y z
#    x 3.505680 0.000000 0.181170 
#    y 0.000000 3.550680 0.000000 
#    z 0.181170 0.000000 3.700710 
# 
# 
# High freq. dielectric constant tensor:
#      x y z
#    x 1.749060 0.000000 0.005690 
#    y 0.000000 1.740000 0.000000 
#    z 0.005690 0.000000 1.755650 
# 
# From -- ./inp_files/187198.got.cif
#   From: 2010.06.25/outbox.cif.g09.slc.cpg/sg12_94_cif.got.tgz:187198.got - 2010.06.28 00:19:55.
