data_PCOD8091859
_publ_section_title
;
Structure prediction by ZEFSAII (Michael W. Deem and Ramdas Pophale) SiO2 
 PCOD8091859
Probable space group: C 2/M
;
_chemical_formula_sum "Si O2"
_cell_formula_units_Z 56
_cell_length_a 28.483242
_cell_length_b 9.118885
_cell_length_c 13.356145
_cell_angle_alpha 90.000000
_cell_angle_beta 57.094122
_cell_angle_gamma 90.000000
_cell_volume 2912.501529
_symmetry_space_group_name_H-M "C 2/M"
_symmetry_group_IT_number 12
_symmetry_cell_setting 'monoclinic'
loop_
_space_group_symop_operation_xyz
x,y,z
-x,y,-z
-x,-y,-z
x,-y,z
1/2+x,1/2+y,z
1/2-x,1/2+y,-z
1/2-x,1/2-y,-z
1/2+x,1/2-y,z
loop_
_atom_site_type_symbol
_atom_site_label
_atom_site_fract_x
_atom_site_fract_y
_atom_site_fract_z
Si Si1 0.444016 0.673259 0.507172
Si Si2 0.659207 0.830997 0.279883
Si Si3 0.128282 0.328553 0.800140
Si Si4 0.279692 0.669246 0.197675
Si Si5 0.552241 0.827742 0.708596
Si Si6 0.830700 0.665817 0.957409
Si Si7 0.942230 0.665951 0.936154
O O1 0.500000 0.723500 0.500000
O O2 0.441899 0.500000 0.497642
O O3 0.390588 0.725483 0.631032
O O4 0.440923 0.744332 0.402232
O O5 0.713051 0.808271 0.289352
O O6 0.678933 0.787359 0.145607
O O7 0.638717 0.000000 0.306905
O O8 0.136960 0.500000 0.812677
O O9 0.187882 0.251095 0.749873
O O10 0.107551 0.299965 0.711539
O O11 0.082687 0.263978 0.932607
O O12 0.296042 0.500000 0.183389
O O13 0.296743 0.727508 0.068788
O O14 0.499155 0.759599 0.830176
O O15 0.544135 0.000000 0.695467
O O16 0.809975 0.500000 0.001308
O O17 0.896891 0.678051 0.900838
O O18 0.958637 0.500000 0.943084
#
# Coordination Sequence:
#
# PCOD8091859 Si02
#       7
#     8   8   8   8   8   8   8
#     4  11  25  41  56  79 110 139 170 215 270 323
#     4  10  21  37  57  79 103 140 188 225 257 309
#     4   9  18  33  54  81 110 141 180 220 261 313
#     4  10  20  33  52  81 113 141 174 219 268 317
#     4  10  19  34  58  81 104 141 185 224 260 306
#     4   9  17  31  53  80 109 140 175 217 265 317
#     4   8  14  27  51  81 107 133 170 215 259 306
#
# _framework density 19.227457000000001
#
# number of rings (size 3 to 8) (size 9 to 14) (size 15 to 20)
#    0.000    2.429    0.000    3.429    0.000    6.286 
#    0.000    5.000    0.000    4.286    0.000    0.000 
#    0.000    0.000    0.000    0.000    0.000    0.000 
#
# Total GULP energy -347137.748030 kJ/mol
# GULP energy per Si atom -12397.776715 kJ/mol
# Density = 1.918369 g / cm^3
# Si number density = 19.227457 Si / 1000 Ang^3
#
#
#
# Elastic Constant Matrix: (Units=GPa)
#
#
# Indices 1 2 3 4 5 6 
#
# 1 123.8770 54.4493 50.8321 0.0000 6.0898 0.0000
# 2 54.4493 72.3833 35.2463 0.0000 2.1092 0.0000
# 3 50.8321 35.2463 59.3100 0.0000 8.6966 0.0000
# 4 0.0000 0.0000 0.0000 25.4255 0.0000 0.3378
# 5 6.0898 2.1092 8.6966 0.0000 30.5348 0.0000
# 6 0.0000 0.0000 0.0000 0.3378 0.0000 30.6493
#
#
#
# Elastic Compliance Matrix: (Units=1/GPa)
#
#
# Indices 1 2 3 4 5 6 
#
# 1 0.014517 -0.006844 -0.008369 0.000000 -0.000039 0.000000
# 2 -0.006844 0.022789 -0.007980 0.000000 0.002064 0.000000
# 3 -0.008369 -0.007980 0.029690 0.000000 -0.006236 0.000000
# 4 0.000000 0.000000 0.000000 0.039336 0.000000 -0.000434
# 5 -0.000039 0.002064 -0.006236 0.000000 0.034391 0.000000
# 6 0.000000 0.000000 0.000000 -0.000434 0.000000 0.032632
#
#
# Mechanical properties :
#
#
# Convention : Reuss Voigt Hill
#
# Bulk Modulus (GPa) = 48.51947 59.62511 54.07229
# Shear Modulus (GPa) = 22.06435 24.99144 23.52789
#
# Velocity S-wave (km/s) = 3.39122 3.60916 3.50188
# Velocity P-wave (km/s) = 6.37362 6.96030 6.67341
#
# Compressibility (1/GPa) = 0.02061028
#
# Stress axis : x y z
#
# Youngs Moduli (GPa) = 68.88654 43.88066 33.68154
#
# Poissons Ratio (x) = 0.30030 0.28188
# Poissons Ratio (y) = 0.47144 0.26878
# Poissons Ratio (z) = 0.57650 0.35017
#
# Static dielectric constant tensor:
#      x y z
#    x 3.695670 0.000000 0.008520 
#    y 0.000000 3.288700 0.000000 
#    z 0.008520 0.000000 3.326900 
# 
# 
# High freq. dielectric constant tensor:
#      x y z
#    x 1.764270 0.000000 0.004350 
#    y 0.000000 1.723060 0.000000 
#    z 0.004350 0.000000 1.727680 
# 
# From -- ./inp_files/187174.got.cif
#   From: 2010.06.25/outbox.cif.g09.slc.cpg/sg12_94_cif.got.tgz:187174.got - 2010.06.28 00:19:55.
