data_PCOD8091789
_publ_section_title
;
Structure prediction by ZEFSAII (Michael W. Deem and Ramdas Pophale) SiO2 
 PCOD8091789
Probable space group: C 2/M
;
_chemical_formula_sum "Si O2"
_cell_formula_units_Z 64
_cell_length_a 20.448305
_cell_length_b 8.879538
_cell_length_c 19.234691
_cell_angle_alpha 90.000000
_cell_angle_beta 109.119003
_cell_angle_gamma 90.000000
_cell_volume 3299.828146
_symmetry_space_group_name_H-M "C 2/M"
_symmetry_group_IT_number 12
_symmetry_cell_setting 'monoclinic'
loop_
_space_group_symop_operation_xyz
x,y,z
-x,y,-z
-x,-y,-z
x,-y,z
1/2+x,1/2+y,z
1/2-x,1/2+y,-z
1/2-x,1/2-y,-z
1/2+x,1/2-y,z
loop_
_atom_site_type_symbol
_atom_site_label
_atom_site_fract_x
_atom_site_fract_y
_atom_site_fract_z
Si Si1 0.313810 0.331172 0.693071
Si Si2 0.522327 0.675409 0.798386
Si Si3 0.573653 0.177017 0.347190
Si Si4 0.153789 0.331017 0.632338
Si Si5 0.162323 0.825171 0.779646
Si Si6 0.571018 0.665350 0.487088
Si Si7 0.454917 0.322231 0.920097
Si Si8 0.682591 0.823637 0.162591
O O1 0.340196 0.500000 0.720592
O O2 0.354729 0.262837 0.642655
O O3 0.234645 0.334293 0.645402
O O4 0.330360 0.222118 0.762702
O O5 0.505642 0.500000 0.780836
O O6 0.485794 0.770541 0.725933
O O7 0.605502 0.703450 0.820459
O O8 0.494107 0.730111 0.863275
O O9 0.554884 0.221303 0.418805
O O10 0.583705 0.000000 0.344491
O O11 0.122777 0.500000 0.620749
O O12 0.137887 0.261560 0.702207
O O13 0.124816 0.233870 0.559753
O O14 0.239096 0.771888 0.832169
O O15 0.166854 0.000000 0.760646
O O16 0.500000 0.640608 0.500000
O O17 0.597966 0.500000 0.471383
O O18 0.448182 0.500000 0.920294
O O19 0.377482 0.256346 0.902740
O O20 0.500000 0.261201 0.000000
O O21 0.673149 0.000000 0.149912
#
# Coordination Sequence:
#
# PCOD8091789 Si02
#       8
#     8   8   8   8   8   8   8   8
#     4  10  20  36  57  81 110 146 185 226 279 340
#     4  10  20  37  59  82 113 150 191 233 278 341
#     4  12  24  36  56  84 112 143 186 238 286 329
#     4  10  21  36  56  82 111 144 186 237 285 329
#     4   9  19  35  57  83 112 152 192 230 282 342
#     4  11  24  40  56  75 106 150 191 229 283 344
#     4  10  21  37  59  85 114 152 193 232 279 338
#     4  10  19  34  57  85 115 146 187 234 282 333
#
# _framework density 19.394950000000001
#
# number of rings (size 3 to 8) (size 9 to 14) (size 15 to 20)
#    0.000    1.750    1.250    3.375    0.000    7.250 
#    0.000    0.625    0.000    0.000    0.000    0.000 
#    0.000    0.000    0.000    0.000    0.000    0.000 
#
# Total GULP energy -396763.116489 kJ/mol
# GULP energy per Si atom -12398.847390 kJ/mol
# Density = 1.935081 g / cm^3
# Si number density = 19.394950 Si / 1000 Ang^3
#
#
#
# Elastic Constant Matrix: (Units=GPa)
#
#
# Indices 1 2 3 4 5 6 
#
# 1 102.8454 38.9473 44.8884 0.0000 2.0468 0.0000
# 2 38.9473 62.0893 26.7179 0.0000 13.6517 0.0000
# 3 44.8884 26.7179 110.2933 0.0000 19.2161 0.0000
# 4 0.0000 0.0000 0.0000 30.2114 0.0000 6.0745
# 5 2.0468 13.6517 19.2161 0.0000 19.4354 0.0000
# 6 0.0000 0.0000 0.0000 6.0745 0.0000 25.6985
#
#
#
# Elastic Compliance Matrix: (Units=1/GPa)
#
#
# Indices 1 2 3 4 5 6 
#
# 1 0.015839 -0.009801 -0.006018 0.000000 0.011166 0.000000
# 2 -0.009801 0.025833 0.000861 0.000000 -0.017965 0.000000
# 3 -0.006018 0.000861 0.013654 0.000000 -0.013471 0.000000
# 4 0.000000 0.000000 0.000000 0.034752 0.000000 -0.008214
# 5 0.011166 -0.017965 -0.013471 0.000000 0.076214 0.000000
# 6 0.000000 0.000000 0.000000 -0.008214 0.000000 0.040854
#
#
# Mechanical properties :
#
#
# Convention : Reuss Voigt Hill
#
# Bulk Modulus (GPa) = 39.35266 55.14838 47.25052
# Shear Modulus (GPa) = 20.36379 26.04737 23.20558
#
# Velocity S-wave (km/s) = 3.24381 3.66867 3.46276
# Velocity P-wave (km/s) = 5.86208 6.81481 6.35632
#
# Compressibility (1/GPa) = 0.02541124
#
# Stress axis : x y z
#
# Youngs Moduli (GPa) = 63.13406 38.70953 73.23687
#
# Poissons Ratio (x) = 0.37940 0.44071
# Poissons Ratio (y) = 0.61880 -0.06306
# Poissons Ratio (z) = 0.37991 -0.03333
#
# Static dielectric constant tensor:
#      x y z
#    x 3.549660 0.000000 0.039480 
#    y 0.000000 3.672690 0.000000 
#    z 0.039480 0.000000 3.391350 
# 
# 
# High freq. dielectric constant tensor:
#      x y z
#    x 1.765830 0.000000 0.012530 
#    y 0.000000 1.760330 0.000000 
#    z 0.012530 0.000000 1.732960 
# 
# From -- ./inp_files/320169.got.cif
#   From: 2010.06.25/outbox.cif.g09.slc.cpg/sg12_161_cif.got.tgz:320169.got - 2010.06.28 00:19:55.
