data_PCOD8091546
_publ_section_title
;
Structure prediction by ZEFSAII (Michael W. Deem and Ramdas Pophale) SiO2 
 PCOD8091546
Probable space group: C 2/M
;
_chemical_formula_sum "Si O2"
_cell_formula_units_Z 48
_cell_length_a 20.509052
_cell_length_b 14.286951
_cell_length_c 11.932023
_cell_angle_alpha 90.000000
_cell_angle_beta 133.346964
_cell_angle_gamma 90.000000
_cell_volume 2542.490173
_symmetry_space_group_name_H-M "C 2/M"
_symmetry_group_IT_number 12
_symmetry_cell_setting 'monoclinic'
loop_
_space_group_symop_operation_xyz
x,y,z
-x,y,-z
-x,-y,-z
x,-y,z
1/2+x,1/2+y,z
1/2-x,1/2+y,-z
1/2-x,1/2-y,-z
1/2+x,1/2-y,z
loop_
_atom_site_type_symbol
_atom_site_label
_atom_site_fract_x
_atom_site_fract_y
_atom_site_fract_z
Si Si1 0.651038 0.000000 0.507531
Si Si2 0.770134 0.314453 0.351714
Si Si3 0.517365 0.795263 0.896709
Si Si4 0.274911 0.201833 0.914557
Si Si5 0.282197 0.500000 0.450671
Si Si6 0.992858 0.500000 0.174495
Si Si7 0.133541 0.817178 0.368362
Si Si8 0.784654 0.500000 0.879576
O O1 0.679374 0.088676 0.615480
O O2 0.705421 0.000000 0.453993
O O3 0.543712 0.000000 0.355694
O O4 0.773805 0.255178 0.243381
O O5 0.819948 0.267473 0.513515
O O6 0.669920 0.329727 0.283086
O O7 0.469207 0.718012 0.760368
O O8 0.475803 0.901471 0.844527
O O9 0.500000 0.758198 0.000000
O O10 0.619558 0.796082 0.980434
O O11 0.239138 0.094483 0.873610
O O12 0.250000 0.250000 0.000000
O O13 0.349402 0.411654 0.540818
O O14 0.226658 0.500000 0.268792
O O15 0.885688 0.500000 0.046586
#
# Coordination Sequence:
#
# PCOD8091546 Si02
#       8
#     4   8   8   8   4   4   8   4
#     4  10  20  30  55  93 125 151 189 250 307 352
#     4  10  19  34  56  85 121 156 193 238 294 352
#     4  11  21  36  60  89 123 151 196 251 297 349
#     4  11  24  41  61  87 121 163 199 241 299 360
#     4  10  20  33  57  88 118 155 204 247 293 346
#     4  10  21  28  56  96 120 143 187 249 308 348
#     4  10  19  34  57  87 117 151 197 246 293 338
#     4  10  22  38  61  85 115 158 206 246 287 360
#
# _framework density 18.879128999999999
#
# number of rings (size 3 to 8) (size 9 to 14) (size 15 to 20)
#    0.000    1.667    5.000    0.250    4.667    0.667 
#    0.000    2.917    0.000    3.000    0.000    0.000 
#    0.000    0.000    0.000    0.000    0.000    0.000 
#
# Total GULP energy -297329.223990 kJ/mol
# GULP energy per Si atom -12388.717666 kJ/mol
# Density = 1.883616 g / cm^3
# Si number density = 18.879129 Si / 1000 Ang^3
#
#
#
# Elastic Constant Matrix: (Units=GPa)
#
#
# Indices 1 2 3 4 5 6 
#
# 1 62.1235 31.0316 28.7199 0.0000 -13.2957 0.0000
# 2 31.0316 152.7828 59.4847 0.0000 -2.3435 0.0000
# 3 28.7199 59.4847 92.1448 0.0000 -0.5639 0.0000
# 4 0.0000 0.0000 0.0000 38.0466 0.0000 -1.6027
# 5 -13.2957 -2.3435 -0.5639 0.0000 22.6534 0.0000
# 6 0.0000 0.0000 0.0000 -1.6027 0.0000 16.4444
#
#
#
# Elastic Compliance Matrix: (Units=1/GPa)
#
#
# Indices 1 2 3 4 5 6 
#
# 1 0.022499 -0.002235 -0.005491 0.000000 0.012837 0.000000
# 2 -0.002235 0.008978 -0.005102 0.000000 -0.000510 0.000000
# 3 -0.005491 -0.005102 0.015837 0.000000 -0.003357 0.000000
# 4 0.000000 0.000000 0.000000 0.026392 0.000000 0.002572
# 5 0.012837 -0.000510 -0.003357 0.000000 0.051542 0.000000
# 6 0.000000 0.000000 0.000000 0.002572 0.000000 0.061062
#
#
# Mechanical properties :
#
#
# Convention : Reuss Voigt Hill
#
# Bulk Modulus (GPa) = 46.17324 60.61371 53.39348
# Shear Modulus (GPa) = 22.81167 27.94988 25.38078
#
# Velocity S-wave (km/s) = 3.47983 3.85185 3.67056
# Velocity P-wave (km/s) = 6.37621 7.20821 6.80494
#
# Compressibility (1/GPa) = 0.02165757
#
# Stress axis : x y z
#
# Youngs Moduli (GPa) = 44.44545 111.38506 63.14206
#
# Poissons Ratio (x) = 0.24894 0.34674
# Poissons Ratio (y) = 0.09933 0.32217
# Poissons Ratio (z) = 0.24407 0.56831
#
# Static dielectric constant tensor:
#      x y z
#    x 2.804470 0.000000 -0.011340 
#    y 0.000000 3.929000 0.000000 
#    z -0.011340 0.000000 3.474000 
# 
# 
# High freq. dielectric constant tensor:
#      x y z
#    x 1.670350 0.000000 0.000020 
#    y 0.000000 1.752610 0.000000 
#    z 0.000020 0.000000 1.741030 
# 
# From -- ./inp_files/167684.got.cif
#   From: 2010.06.25/outbox.cif.g09.slc.cpg/sg12_84_cif.got.tgz:167684.got - 2010.06.28 00:19:55.
