data_PCOD8091733
_publ_section_title
;
Structure prediction by ZEFSAII (Michael W. Deem and Ramdas Pophale) SiO2 
 PCOD8091733
Probable space group: C 2/M
;
_chemical_formula_sum "Si O2"
_cell_formula_units_Z 64
_cell_length_a 19.592706
_cell_length_b 8.975207
_cell_length_c 30.796443
_cell_angle_alpha 90.000000
_cell_angle_beta 141.852147
_cell_angle_gamma 90.000000
_cell_volume 3345.122793
_symmetry_space_group_name_H-M "C 2/M"
_symmetry_group_IT_number 12
_symmetry_cell_setting 'monoclinic'
loop_
_space_group_symop_operation_xyz
x,y,z
-x,y,-z
-x,-y,-z
x,-y,z
1/2+x,1/2+y,z
1/2-x,1/2+y,-z
1/2-x,1/2-y,-z
1/2+x,1/2-y,z
loop_
_atom_site_type_symbol
_atom_site_label
_atom_site_fract_x
_atom_site_fract_y
_atom_site_fract_z
Si Si1 0.472266 0.329574 0.536376
Si Si2 0.243132 0.325155 0.951301
Si Si3 0.755770 0.324753 0.456808
Si Si4 0.373940 0.676238 0.809987
Si Si5 0.008984 0.672261 0.803233
Si Si6 0.523407 0.323603 0.964438
Si Si7 0.043130 0.328664 0.321818
Si Si8 0.618592 0.825417 0.680416
O O1 0.500000 0.320151 0.500000
O O2 0.451910 0.500000 0.540671
O O3 0.362297 0.233752 0.485386
O O4 0.569612 0.263251 0.614919
O O5 0.241761 0.500000 0.956997
O O6 0.132238 0.268220 0.873109
O O7 0.250000 0.250000 0.000000
O O8 0.350493 0.274850 0.978812
O O9 0.765243 0.500000 0.466701
O O10 0.750000 0.250000 0.500000
O O11 0.646223 0.281042 0.376538
O O12 0.386366 0.500000 0.813838
O O13 0.420524 0.740070 0.788073
O O14 0.443338 0.739788 0.886128
O O15 0.245794 0.723206 0.751051
O O16 0.994780 0.500000 0.808334
O O17 0.998123 0.699865 0.746979
O O18 0.507087 0.500000 0.957052
O O19 0.500000 0.254170 0.000000
O O20 0.079893 0.500000 0.347352
O O21 0.948717 0.285710 0.309434
O O22 0.610000 0.000000 0.665645
#
# Coordination Sequence:
#
# PCOD8091733 Si02
#       8
#     8   8   8   8   8   8   8   8
#     4  11  25  43  64  90 121 158 199 244 297 355
#     4  10  19  34  57  83 112 149 193 241 291 346
#     4  12  24  41  66  92 120 155 199 249 299 354
#     4  10  21  37  57  85 117 152 196 244 293 346
#     4  10  22  37  57  84 117 156 195 238 294 354
#     4   9  18  32  55  84 113 147 192 243 289 340
#     4  10  22  40  60  86 119 157 198 242 294 352
#     4  10  22  39  60  85 117 155 196 244 294 349
#
# _framework density 19.132332999999999
#
# number of rings (size 3 to 8) (size 9 to 14) (size 15 to 20)
#    0.000    1.750    2.500    1.500    3.500    2.000 
#    0.000    0.000    0.000    1.500    0.000    0.000 
#    0.000    0.000    0.000    0.000    0.000    0.000 
#
# Total GULP energy -396755.242047 kJ/mol
# GULP energy per Si atom -12398.601314 kJ/mol
# Density = 1.908879 g / cm^3
# Si number density = 19.132333 Si / 1000 Ang^3
#
#
#
# Elastic Constant Matrix: (Units=GPa)
#
#
# Indices 1 2 3 4 5 6 
#
# 1 126.8157 46.9412 69.6250 0.0000 3.3862 0.0001
# 2 46.9412 70.4754 50.2655 -0.0001 7.0591 0.0001
# 3 69.6250 50.2655 142.1172 0.0000 11.6911 0.0001
# 4 0.0000 -0.0001 0.0000 25.9021 0.0000 -0.8911
# 5 3.3862 7.0591 11.6911 0.0000 41.3269 0.0000
# 6 0.0001 0.0001 0.0001 -0.8911 0.0000 28.3358
#
#
#
# Elastic Compliance Matrix: (Units=1/GPa)
#
#
# Indices 1 2 3 4 5 6 
#
# 1 0.012057 -0.005165 -0.004168 0.000000 0.001074 0.000000
# 2 -0.005165 0.021266 -0.004840 0.000000 -0.001840 0.000000
# 3 -0.004168 -0.004840 0.010949 0.000000 -0.001929 0.000000
# 4 0.000000 0.000000 0.000000 0.038649 0.000000 0.001215
# 5 0.001074 -0.001840 -0.001929 0.000000 0.024969 0.000000
# 6 0.000000 0.000000 0.000000 0.001215 0.000000 0.035329
#
#
# Mechanical properties :
#
#
# Convention : Reuss Voigt Hill
#
# Bulk Modulus (GPa) = 62.79253 74.78576 68.78914
# Shear Modulus (GPa) = 28.26854 30.61806 29.44330
#
# Velocity S-wave (km/s) = 3.84803 4.00475 3.92717
# Velocity P-wave (km/s) = 7.25496 7.78188 7.52303
#
# Compressibility (1/GPa) = 0.01592546
#
# Stress axis : x y z
#
# Youngs Moduli (GPa) = 82.93687 47.02354 91.33251
#
# Poissons Ratio (x) = 0.24290 0.38071
# Poissons Ratio (y) = 0.42841 0.44201
# Poissons Ratio (z) = 0.34571 0.22757
#
# Static dielectric constant tensor:
#      x y z
#    x 3.607690 0.000000 0.072900 
#    y 0.000000 3.386020 0.000000 
#    z 0.072900 0.000000 3.740100 
# 
# 
# High freq. dielectric constant tensor:
#      x y z
#    x 1.757070 0.000000 0.002490 
#    y 0.000000 1.724970 0.000000 
#    z 0.002490 0.000000 1.759360 
# 
# From -- ./inp_files/378537.got.cif
#   From: 2010.06.25/outbox.cif.g09.slc.cpg/sg12_190_cif.got.tgz:378537.got - 2010.06.28 00:19:55.
