data_PCOD8091341
_publ_section_title
;
Structure prediction by ZEFSAII (Michael W. Deem and Ramdas Pophale) SiO2 
 PCOD8091341
Probable space group: C 2/M
;
_chemical_formula_sum "Si O2"
_cell_formula_units_Z 64
_cell_length_a 14.315641
_cell_length_b 8.836944
_cell_length_c 26.583535
_cell_angle_alpha 90.000000
_cell_angle_beta 89.003996
_cell_angle_gamma 90.000000
_cell_volume 3362.482330
_symmetry_space_group_name_H-M "C 2/M"
_symmetry_group_IT_number 12
_symmetry_cell_setting 'monoclinic'
loop_
_space_group_symop_operation_xyz
x,y,z
-x,y,-z
-x,-y,-z
x,-y,z
1/2+x,1/2+y,z
1/2-x,1/2+y,-z
1/2-x,1/2-y,-z
1/2+x,1/2-y,z
loop_
_atom_site_type_symbol
_atom_site_label
_atom_site_fract_x
_atom_site_fract_y
_atom_site_fract_z
Si Si1 0.505576 0.178775 0.942574
Si Si2 0.651038 0.675766 0.506446
Si Si3 0.009790 0.678672 0.789316
Si Si4 0.811488 0.826167 0.387012
Si Si5 0.144355 0.819810 0.865586
Si Si6 0.614958 0.678019 0.400933
Si Si7 0.146301 0.677815 0.133708
Si Si8 0.521338 0.676798 0.682391
O O1 0.592527 0.261303 0.915812
O O2 0.409162 0.227406 0.916175
O O3 0.522260 0.000000 0.937650
O O4 0.500000 0.232778 0.000000
O O5 0.663506 0.500000 0.496665
O O6 0.750000 0.750000 0.500000
O O7 0.620290 0.707508 0.564555
O O8 0.588328 0.732780 0.459038
O O9 0.024082 0.500000 0.793866
O O10 0.097141 0.758696 0.815240
O O11 0.913784 0.730596 0.817342
O O12 0.003535 0.727190 0.731995
O O13 0.721178 0.721006 0.386350
O O14 0.872307 0.797562 0.336758
O O15 0.777671 0.000000 0.390275
O O16 0.249889 0.752517 0.866188
O O17 0.142167 0.000000 0.864731
O O18 0.603062 0.500000 0.396775
O O19 0.546067 0.747485 0.359956
O O20 0.157673 0.500000 0.134533
O O21 0.502271 0.500000 0.693250
#
# Coordination Sequence:
#
# PCOD8091341 Si02
#       8
#     8   8   8   8   8   8   8   8
#     4   9  18  34  54  79 115 151 178 207 245 293
#     4   8  14  27  47  69  93 125 160 196 240 293
#     4  10  21  38  55  72  98 132 170 211 257 309
#     4   9  18  32  50  71  98 130 163 199 247 304
#     4  10  19  34  56  79 104 135 174 217 256 296
#     4   9  18  32  50  72  99 127 161 204 246 295
#     4   8  17  34  54  75 101 136 173 208 252 298
#     4  10  21  35  50  73 101 128 162 207 256 303
#
# _framework density 19.033557999999999
#
# number of rings (size 3 to 8) (size 9 to 14) (size 15 to 20)
#    0.000    2.875    0.000    1.500    0.000    3.250 
#    0.000   12.500    0.000    0.000    0.000    9.625 
#    0.000    0.000    0.000    0.000    0.000    0.000 
#
# Total GULP energy -396479.094800 kJ/mol
# GULP energy per Si atom -12389.971713 kJ/mol
# Density = 1.899024 g / cm^3
# Si number density = 19.033558 Si / 1000 Ang^3
#
#
#
# Elastic Constant Matrix: (Units=GPa)
#
#
# Indices 1 2 3 4 5 6 
#
# 1 100.4542 16.9871 45.5012 0.0000 1.8764 0.0000
# 2 16.9871 30.4893 24.9259 0.0000 1.5696 0.0000
# 3 45.5012 24.9259 135.9115 0.0000 11.3871 0.0000
# 4 0.0000 0.0000 0.0000 29.4259 0.0000 -0.3275
# 5 1.8764 1.5696 11.3871 0.0000 19.3849 0.0000
# 6 0.0000 0.0000 0.0000 -0.3275 0.0000 21.5470
#
#
#
# Elastic Compliance Matrix: (Units=1/GPa)
#
#
# Indices 1 2 3 4 5 6 
#
# 1 0.012170 -0.004035 -0.003432 0.000000 0.001165 0.000000
# 2 -0.004035 0.039943 -0.006033 0.000000 0.000700 0.000000
# 3 -0.003432 -0.006033 0.010038 0.000000 -0.005076 0.000000
# 4 0.000000 0.000000 0.000000 0.033989 0.000000 0.000517
# 5 0.001165 0.000700 -0.005076 0.000000 0.054399 0.000000
# 6 0.000000 0.000000 0.000000 0.000517 0.000000 0.046418
#
#
# Mechanical properties :
#
#
# Convention : Reuss Voigt Hill
#
# Bulk Modulus (GPa) = 28.44858 49.07593 38.76226
# Shear Modulus (GPa) = 21.21573 26.03429 23.62501
#
# Velocity S-wave (km/s) = 3.34226 3.70240 3.52693
# Velocity P-wave (km/s) = 5.46564 6.64206 6.08236
#
# Compressibility (1/GPa) = 0.03515113
#
# Stress axis : x y z
#
# Youngs Moduli (GPa) = 82.17063 25.03585 99.61683
#
# Poissons Ratio (x) = 0.10101 0.34187
# Poissons Ratio (y) = 0.33153 0.60102
# Poissons Ratio (z) = 0.28200 0.15105
#
# Static dielectric constant tensor:
#      x y z
#    x 3.566530 0.000000 0.134180 
#    y 0.000000 3.249230 0.000000 
#    z 0.134180 0.000000 3.727100 
# 
# 
# High freq. dielectric constant tensor:
#      x y z
#    x 1.735430 0.000000 0.006480 
#    y 0.000000 1.717820 0.000000 
#    z 0.006480 0.000000 1.748230 
# 
# From -- ./inp_files/359735.got.cif
#   From: 2010.06.25/outbox.cif.g09.slc.cpg/sg12_180_cif.got.tgz:359735.got - 2010.06.28 00:19:55.
