data_PCOD8091038
_publ_section_title
;
Structure prediction by ZEFSAII (Michael W. Deem and Ramdas Pophale) SiO2 
 PCOD8091038
Probable space group: C 2/M
;
_chemical_formula_sum "Si O2"
_cell_formula_units_Z 60
_cell_length_a 18.455365
_cell_length_b 10.801283
_cell_length_c 23.687863
_cell_angle_alpha 90.000000
_cell_angle_beta 42.059138
_cell_angle_gamma 90.000000
_cell_volume 3163.239584
_symmetry_space_group_name_H-M "C 2/M"
_symmetry_group_IT_number 12
_symmetry_cell_setting 'monoclinic'
loop_
_space_group_symop_operation_xyz
x,y,z
-x,y,-z
-x,-y,-z
x,-y,z
1/2+x,1/2+y,z
1/2-x,1/2+y,-z
1/2-x,1/2-y,-z
1/2+x,1/2-y,z
loop_
_atom_site_type_symbol
_atom_site_label
_atom_site_fract_x
_atom_site_fract_y
_atom_site_fract_z
Si Si1 0.943410 0.141379 0.408784
Si Si2 0.500000 0.249273 0.000000
Si Si3 0.272613 0.142582 0.153554
Si Si4 0.169275 0.139590 0.324691
Si Si5 0.841850 0.286312 0.876598
Si Si6 0.030610 0.361896 0.691365
Si Si7 0.114763 0.135955 0.040553
Si Si8 0.267276 0.642104 0.594759
O O1 0.980683 0.243662 0.342187
O O2 0.835842 0.194497 0.501922
O O3 0.039819 0.138033 0.397908
O O4 0.927628 0.000000 0.392611
O O5 0.400650 0.164672 0.077254
O O6 0.540574 0.329526 0.029683
O O7 0.222634 0.207055 0.238973
O O8 0.209686 0.183298 0.134127
O O9 0.246688 0.000000 0.173110
O O10 0.202765 0.209096 0.363354
O O11 0.215944 0.000000 0.300104
O O12 0.899473 0.228753 0.898663
O O13 0.932534 0.364991 0.792260
O O14 0.741917 0.373342 0.951473
O O15 0.032456 0.500000 0.661053
O O16 0.141031 0.339705 0.660545
O O17 0.077303 0.000000 0.081481
O O18 0.304197 0.500000 0.576636
#
# Coordination Sequence:
#
# PCOD8091038 Si02
#       8
#     8   4   8   8   8   8   8   8
#     4  10  19  35  59  84 109 146 191 234 277 330
#     4  10  22  34  54  84 110 144 176 220 290 342
#     4  10  19  34  54  81 111 141 183 234 279 322
#     4   9  17  31  55  81 108 142 184 233 274 318
#     4  10  21  36  56  80 106 147 190 225 271 329
#     4  11  22  36  56  84 116 149 181 228 283 336
#     4  10  21  38  57  78 109 146 186 229 275 334
#     4   9  19  33  53  82 113 146 187 233 281 329
#
# _framework density 18.967897000000001
#
# number of rings (size 3 to 8) (size 9 to 14) (size 15 to 20)
#    0.000    2.133    1.333    2.000    1.867    2.133 
#    0.000    1.333    0.000    2.400    0.000    0.000 
#    0.000    0.000    0.000    0.000    0.000    0.000 
#
# Total GULP energy -371724.755204 kJ/mol
# GULP energy per Si atom -12390.825173 kJ/mol
# Density = 1.892473 g / cm^3
# Si number density = 18.967897 Si / 1000 Ang^3
#
#
#
# Elastic Constant Matrix: (Units=GPa)
#
#
# Indices 1 2 3 4 5 6 
#
# 1 94.4349 27.6835 25.8355 0.0000 2.3490 0.0000
# 2 27.6835 70.0980 13.1300 0.0000 8.2798 0.0000
# 3 25.8355 13.1300 95.7438 0.0000 -4.1466 0.0000
# 4 0.0000 0.0000 0.0000 20.2212 0.0000 -0.3218
# 5 2.3490 8.2798 -4.1466 0.0000 31.6285 0.0000
# 6 0.0000 0.0000 0.0000 -0.3218 0.0000 10.1616
#
#
#
# Elastic Compliance Matrix: (Units=1/GPa)
#
#
# Indices 1 2 3 4 5 6 
#
# 1 0.012670 -0.004460 -0.002813 0.000000 -0.000142 0.000000
# 2 -0.004460 0.016766 -0.001279 0.000000 -0.004225 0.000000
# 3 -0.002813 -0.001279 0.011468 0.000000 0.002047 0.000000
# 4 0.000000 0.000000 0.000000 0.049478 0.000000 0.001567
# 5 -0.000142 -0.004225 0.002047 0.000000 0.033002 0.000000
# 6 0.000000 0.000000 0.000000 0.001567 0.000000 0.098459
#
#
# Mechanical properties :
#
#
# Convention : Reuss Voigt Hill
#
# Bulk Modulus (GPa) = 42.01808 43.73053 42.87431
# Shear Modulus (GPa) = 20.25278 25.31079 22.78178
#
# Velocity S-wave (km/s) = 3.27117 3.65691 3.46941
# Velocity P-wave (km/s) = 6.03885 6.39810 6.22107
#
# Compressibility (1/GPa) = 0.02379928
#
# Stress axis : x y z
#
# Youngs Moduli (GPa) = 78.92685 59.64563 87.20119
#
# Poissons Ratio (x) = 0.26601 0.24533
# Poissons Ratio (y) = 0.35201 0.11151
# Poissons Ratio (z) = 0.22205 0.07627
#
# Static dielectric constant tensor:
#      x y z
#    x 3.497290 0.000000 0.084400 
#    y 0.000000 3.178930 0.000000 
#    z 0.084400 0.000000 3.694590 
# 
# 
# High freq. dielectric constant tensor:
#      x y z
#    x 1.739650 0.000000 -0.004060 
#    y 0.000000 1.701640 0.000000 
#    z -0.004060 0.000000 1.748490 
# 
# From -- ./inp_files/343366.got.cif
#   From: 2010.06.25/outbox.cif.g09.slc.cpg/sg12_172_cif.got.tgz:343366.got - 2010.06.28 00:19:55.
