data_PCOD8091602
_publ_section_title
;
Structure prediction by ZEFSAII (Michael W. Deem and Ramdas Pophale) SiO2 
 PCOD8091602
Probable space group: C 2/M
;
_chemical_formula_sum "Si O2"
_cell_formula_units_Z 48
_cell_length_a 27.386927
_cell_length_b 8.802379
_cell_length_c 15.491732
_cell_angle_alpha 90.000000
_cell_angle_beta 139.051793
_cell_angle_gamma 90.000000
_cell_volume 2447.564983
_symmetry_space_group_name_H-M "C 2/M"
_symmetry_group_IT_number 12
_symmetry_cell_setting 'monoclinic'
loop_
_space_group_symop_operation_xyz
x,y,z
-x,y,-z
-x,-y,-z
x,-y,z
1/2+x,1/2+y,z
1/2-x,1/2+y,-z
1/2-x,1/2-y,-z
1/2+x,1/2-y,z
loop_
_atom_site_type_symbol
_atom_site_label
_atom_site_fract_x
_atom_site_fract_y
_atom_site_fract_z
Si Si1 0.463964 0.680620 0.538957
Si Si2 0.542139 0.319463 0.139500
Si Si3 0.210549 0.820129 0.365155
Si Si4 0.212261 0.322647 0.032412
Si Si5 0.051813 0.180465 0.823259
Si Si6 0.205167 0.822352 0.680334
O O1 0.500000 0.748229 0.500000
O O2 0.463985 0.500000 0.535418
O O3 0.513584 0.739346 0.684589
O O4 0.379489 0.737964 0.435940
O O5 0.542078 0.500000 0.136318
O O6 0.626191 0.258113 0.252108
O O7 0.499977 0.261622 0.168200
O O8 0.500000 0.252015 0.000000
O O9 0.250000 0.750000 0.500000
O O10 0.248657 0.770885 0.327590
O O11 0.213029 0.000000 0.376498
O O12 0.204088 0.500000 0.004890
O O13 0.263518 0.287940 0.183159
O O14 0.250000 0.250000 0.000000
O O15 0.132043 0.252539 0.942156
O O16 0.060680 0.000000 0.835022
O O17 0.210061 0.000000 0.663810
#
# Coordination Sequence:
#
# PCOD8091602 Si02
#       6
#     8   8   8   8   8   8
#     4   9  17  32  55  79 104 141 187 228 269 324
#     4   9  18  33  54  79 106 142 187 227 266 322
#     4  11  22  37  59  85 114 148 186 230 279 332
#     4  11  23  38  58  84 115 149 185 229 280 334
#     4  10  19  34  57  80 105 140 183 230 275 323
#     4  10  21  38  59  83 111 146 190 234 276 327
#
# _framework density 19.611326999999999
#
# number of rings (size 3 to 8) (size 9 to 14) (size 15 to 20)
#    0.000    2.000    0.000    4.000    0.000    8.000 
#    0.000    4.167    0.000    6.500    0.000    0.000 
#    0.000    0.000    0.000    0.000    0.000    0.000 
#
# Total GULP energy -297673.114708 kJ/mol
# GULP energy per Si atom -12403.046446 kJ/mol
# Density = 1.956669 g / cm^3
# Si number density = 19.611327 Si / 1000 Ang^3
#
#
#
# Elastic Constant Matrix: (Units=GPa)
#
#
# Indices 1 2 3 4 5 6 
#
# 1 131.9332 31.2792 30.0757 0.0000 3.6747 0.0000
# 2 31.2792 46.2290 30.6841 0.0000 -0.6877 0.0000
# 3 30.0757 30.6841 111.6124 0.0000 6.3917 0.0000
# 4 0.0000 0.0000 0.0000 27.1708 0.0000 2.6069
# 5 3.6747 -0.6877 6.3917 0.0000 46.7536 0.0000
# 6 0.0000 0.0000 0.0000 2.6069 0.0000 28.3287
#
#
#
# Elastic Compliance Matrix: (Units=1/GPa)
#
#
# Indices 1 2 3 4 5 6 
#
# 1 0.009127 -0.005601 -0.000881 0.000000 -0.000679 0.000000
# 2 -0.005601 0.029987 -0.006839 0.000000 0.001816 0.000000
# 3 -0.000881 -0.006839 0.011166 0.000000 -0.001558 0.000000
# 4 0.000000 0.000000 0.000000 0.037132 0.000000 -0.003417
# 5 -0.000679 0.001816 -0.001558 0.000000 0.021682 0.000000
# 6 0.000000 0.000000 0.000000 -0.003417 0.000000 0.035614
#
#
# Mechanical properties :
#
#
# Convention : Reuss Voigt Hill
#
# Bulk Modulus (GPa) = 42.30185 52.65031 47.47608
# Shear Modulus (GPa) = 27.89711 33.63301 30.76506
#
# Velocity S-wave (km/s) = 3.77570 4.14572 3.96503
# Velocity P-wave (km/s) = 6.37376 7.05841 6.72480
#
# Compressibility (1/GPa) = 0.02363963
#
# Stress axis : x y z
#
# Youngs Moduli (GPa) = 109.56227 33.34733 89.55600
#
# Poissons Ratio (x) = 0.18678 0.07887
# Poissons Ratio (y) = 0.61367 0.61245
# Poissons Ratio (z) = 0.09649 0.22805
#
# Static dielectric constant tensor:
#      x y z
#    x 3.770480 0.000000 0.072040 
#    y 0.000000 2.943650 0.000000 
#    z 0.072040 0.000000 3.823290 
# 
# 
# High freq. dielectric constant tensor:
#      x y z
#    x 1.784990 0.000000 0.000070 
#    y 0.000000 1.726740 0.000000 
#    z 0.000070 0.000000 1.785890 
# 
# From -- ./inp_files/244608.got.cif
#   From: 2010.06.25/outbox.cif.g09.slc.cpg/sg12_123_cif.got.tgz:244608.got - 2010.06.28 00:19:55.
