data_PCOD8091758
_publ_section_title
;
Structure prediction by ZEFSAII (Michael W. Deem and Ramdas Pophale) SiO2 
 PCOD8091758
Probable space group: C 2/M
;
_chemical_formula_sum "Si O2"
_cell_formula_units_Z 56
_cell_length_a 18.887777
_cell_length_b 8.955027
_cell_length_c 21.020032
_cell_angle_alpha 90.000000
_cell_angle_beta 120.938890
_cell_angle_gamma 90.000000
_cell_volume 3049.472352
_symmetry_space_group_name_H-M "C 2/M"
_symmetry_group_IT_number 12
_symmetry_cell_setting 'monoclinic'
loop_
_space_group_symop_operation_xyz
x,y,z
-x,y,-z
-x,-y,-z
x,-y,z
1/2+x,1/2+y,z
1/2-x,1/2+y,-z
1/2-x,1/2-y,-z
1/2+x,1/2-y,z
loop_
_atom_site_type_symbol
_atom_site_label
_atom_site_fract_x
_atom_site_fract_y
_atom_site_fract_z
Si Si1 0.777720 0.674487 0.577675
Si Si2 0.170433 0.822909 0.996536
Si Si3 0.410868 0.170135 0.927435
Si Si4 0.631464 0.170644 0.558872
Si Si5 0.056156 0.172990 0.307130
Si Si6 0.503391 0.829663 0.605634
Si Si7 0.504374 0.326983 0.141942
O O1 0.781689 0.500000 0.568303
O O2 0.750000 0.750000 0.500000
O O3 0.709075 0.719273 0.597954
O O4 0.863633 0.728281 0.645268
O O5 0.088937 0.778425 0.918664
O O6 0.183653 0.000000 0.006321
O O7 0.250000 0.750000 0.000000
O O8 0.157077 0.758836 0.061925
O O9 0.423517 0.241315 0.863477
O O10 0.380514 0.000000 0.906849
O O11 0.500000 0.181972 0.000000
O O12 0.585322 0.185904 0.469682
O O13 0.573089 0.221835 0.588990
O O14 0.660194 0.000000 0.581457
O O15 0.990754 0.221089 0.331015
O O16 0.015935 0.210249 0.221071
O O17 0.078866 0.000000 0.324367
O O18 0.517146 0.000000 0.633720
O O19 0.516669 0.500000 0.131796
#
# Coordination Sequence:
#
# PCOD8091758 Si02
#       7
#     8   8   8   8   8   8   8
#     4  12  23  35  53  78 105 137 179 226 271 319
#     4  10  19  34  57  84 113 145 182 222 264 316
#     4   9  17  31  54  82 109 139 178 220 261 312
#     4   9  18  34  54  76 102 133 174 224 273 322
#     4  11  22  36  55  79 108 142 180 224 273 323
#     4   9  18  33  54  77 103 136 173 218 272 323
#     4   9  20  37  55  78 110 146 180 218 268 322
#
# _framework density 18.363833
#
# number of rings (size 3 to 8) (size 9 to 14) (size 15 to 20)
#    0.000    2.143    1.429    3.429    0.000    4.000 
#    0.000    2.857    0.000    3.429    0.000    0.000 
#    0.000    0.000    0.000    0.000    0.000    0.000 
#
# Total GULP energy -347175.188932 kJ/mol
# GULP energy per Si atom -12399.113890 kJ/mol
# Density = 1.832204 g / cm^3
# Si number density = 18.363833 Si / 1000 Ang^3
#
#
#
# Elastic Constant Matrix: (Units=GPa)
#
#
# Indices 1 2 3 4 5 6 
#
# 1 119.2856 62.1582 46.4585 0.0000 -14.6798 0.0000
# 2 62.1582 114.0562 47.2146 0.0000 -10.9247 0.0000
# 3 46.4585 47.2146 79.6415 0.0000 -16.3591 0.0000
# 4 0.0000 0.0000 0.0000 25.1688 0.0000 -4.9898
# 5 -14.6798 -10.9247 -16.3591 0.0000 27.2131 0.0000
# 6 0.0000 0.0000 0.0000 -4.9898 0.0000 39.0992
#
#
#
# Elastic Compliance Matrix: (Units=1/GPa)
#
#
# Indices 1 2 3 4 5 6 
#
# 1 0.012927 -0.005163 -0.003963 0.000000 0.002518 0.000000
# 2 -0.005163 0.013690 -0.005188 0.000000 -0.000408 0.000000
# 3 -0.003963 -0.005188 0.019482 0.000000 0.007491 0.000000
# 4 0.000000 0.000000 0.000000 0.040763 0.000000 0.005202
# 5 0.002518 -0.000408 0.007491 0.000000 0.042445 0.000000
# 6 0.000000 0.000000 0.000000 0.005202 0.000000 0.026240
#
#
# Mechanical properties :
#
#
# Convention : Reuss Voigt Hill
#
# Bulk Modulus (GPa) = 57.23524 69.40509 63.32017
# Shear Modulus (GPa) = 26.31597 28.77300 27.54449
#
# Velocity S-wave (km/s) = 3.78965 3.96261 3.87710
# Velocity P-wave (km/s) = 7.09814 7.66896 7.38906
#
# Compressibility (1/GPa) = 0.01747175
#
# Stress axis : x y z
#
# Youngs Moduli (GPa) = 77.35711 73.04611 51.32919
#
# Poissons Ratio (x) = 0.37717 0.20339
# Poissons Ratio (y) = 0.39943 0.26628
# Poissons Ratio (z) = 0.30653 0.37894
#
# Static dielectric constant tensor:
#      x y z
#    x 3.597960 0.000000 -0.153350 
#    y 0.000000 3.457000 0.000000 
#    z -0.153350 0.000000 3.193330 
# 
# 
# High freq. dielectric constant tensor:
#      x y z
#    x 1.723020 0.000000 -0.017030 
#    y 0.000000 1.716310 0.000000 
#    z -0.017030 0.000000 1.680540 
# 
# From -- ./inp_files/314383.got.cif
#   From: 2010.06.25/outbox.cif.g09.slc.cpg/sg12_158_cif.got.tgz:314383.got - 2010.06.28 00:19:55.
