data_PCOD8091287
_publ_section_title
;
Structure prediction by ZEFSAII (Michael W. Deem and Ramdas Pophale) SiO2 
 PCOD8091287
Probable space group: C 2/M
;
_chemical_formula_sum "Si O2"
_cell_formula_units_Z 48
_cell_length_a 19.847260
_cell_length_b 21.978255
_cell_length_c 5.440783
_cell_angle_alpha 90.000000
_cell_angle_beta 112.721858
_cell_angle_gamma 90.000000
_cell_volume 2189.122855
_symmetry_space_group_name_H-M "C 2/M"
_symmetry_group_IT_number 12
_symmetry_cell_setting 'monoclinic'
loop_
_space_group_symop_operation_xyz
x,y,z
-x,y,-z
-x,-y,-z
x,-y,z
1/2+x,1/2+y,z
1/2-x,1/2+y,-z
1/2-x,1/2-y,-z
1/2+x,1/2-y,z
loop_
_atom_site_type_symbol
_atom_site_label
_atom_site_fract_x
_atom_site_fract_y
_atom_site_fract_z
Si Si1 0.779777 0.431840 0.425470
Si Si2 0.293200 0.669260 0.937408
Si Si3 0.273824 0.813685 0.656931
Si Si4 0.416480 0.933583 0.319937
Si Si5 0.572862 0.821805 0.974675
Si Si6 0.041278 0.807837 0.801683
O O1 0.749019 0.500000 0.425528
O O2 0.765783 0.388074 0.637577
O O3 0.866839 0.433590 0.494012
O O4 0.739277 0.398817 0.137225
O O5 0.263046 0.703876 0.135552
O O6 0.379734 0.661439 0.072682
O O7 0.268513 0.710838 0.655941
O O8 0.360710 0.797816 0.759424
O O9 0.500000 0.921897 0.500000
O O10 0.407146 0.000000 0.174741
O O11 0.390390 0.877111 0.120808
O O12 0.500000 0.847269 0.000000
O O13 0.548757 0.764783 0.774516
O O14 0.000000 0.833237 0.500000
O O15 0.000000 0.822838 0.000000
#
# Coordination Sequence:
#
# PCOD8091287 Si02
#       6
#     8   8   8   8   8   8
#     4   9  20  37  60  89 124 164 206 247 303 359
#     4  10  22  41  62  92 120 162 202 254 314 363
#     4  10  21  37  59  91 120 163 198 252 294 359
#     4  10  19  34  55  84 127 171 211 251 293 350
#     4  11  22  36  58  88 128 166 212 249 297 357
#     4  11  25  43  67  91 119 161 202 259 318 377
#
# _framework density 21.926590999999998
#
# number of rings (size 3 to 8) (size 9 to 14) (size 15 to 20)
#    1.000    0.833    1.667    2.500    0.000    7.000 
#    0.000    0.000    0.000    1.000    0.000    0.000 
#    0.000    0.000    0.000    0.000    0.000    0.000 
#
# Total GULP energy -297355.702486 kJ/mol
# GULP energy per Si atom -12389.820937 kJ/mol
# Density = 2.187668 g / cm^3
# Si number density = 21.926591 Si / 1000 Ang^3
#
#
#
# Elastic Constant Matrix: (Units=GPa)
#
#
# Indices 1 2 3 4 5 6 
#
# 1 131.4494 25.4594 70.8080 0.0000 7.4528 0.0000
# 2 25.4594 63.0742 25.5280 0.0000 -7.5946 0.0000
# 3 70.8080 25.5280 144.6534 0.0000 5.3825 0.0000
# 4 0.0000 0.0000 0.0000 25.2211 0.0000 0.5946
# 5 7.4528 -7.5946 5.3825 0.0000 40.3328 0.0000
# 6 0.0000 0.0000 0.0000 0.5946 0.0000 22.7505
#
#
#
# Elastic Compliance Matrix: (Units=1/GPa)
#
#
# Indices 1 2 3 4 5 6 
#
# 1 0.010780 -0.002657 -0.004739 0.000000 -0.001860 0.000000
# 2 -0.002657 0.018276 -0.002081 0.000000 0.004210 0.000000
# 3 -0.004739 -0.002081 0.009630 0.000000 -0.000801 0.000000
# 4 0.000000 0.000000 0.000000 0.039674 0.000000 -0.001037
# 5 -0.001860 0.004210 -0.000801 0.000000 0.026037 0.000000
# 6 0.000000 0.000000 0.000000 -0.001037 0.000000 0.043982
#
#
# Mechanical properties :
#
#
# Convention : Reuss Voigt Hill
#
# Bulk Modulus (GPa) = 50.68018 64.75199 57.71609
# Shear Modulus (GPa) = 28.75026 32.15297 30.45162
#
# Velocity S-wave (km/s) = 3.62499 3.83350 3.73070
# Velocity P-wave (km/s) = 6.37844 7.01354 6.70351
#
# Compressibility (1/GPa) = 0.01973158
#
# Stress axis : x y z
#
# Youngs Moduli (GPa) = 92.76197 54.71584 103.84411
#
# Poissons Ratio (x) = 0.14540 0.49209
# Poissons Ratio (y) = 0.24651 0.21612
# Poissons Ratio (z) = 0.43958 0.11387
#
# Static dielectric constant tensor:
#      x y z
#    x 3.833210 0.000000 0.096180 
#    y 0.000000 4.089970 0.000000 
#    z 0.096180 0.000000 3.910860 
# 
# 
# High freq. dielectric constant tensor:
#      x y z
#    x 1.853380 0.000000 0.007810 
#    y 0.000000 1.860510 0.000000 
#    z 0.007810 0.000000 1.858010 
# 
# From -- ./inp_files/22726.got.cif
#   From: 2010.06.25/outbox.cif.g09.slc.cpg/sg12_12_cif.got.tgz:22726.got - 2010.06.28 00:19:55.
