data_PCOD8091218
_publ_section_title
;
Structure prediction by ZEFSAII (Michael W. Deem and Ramdas Pophale) SiO2 
 PCOD8091218
Probable space group: C 2/M
;
_chemical_formula_sum "Si O2"
_cell_formula_units_Z 56
_cell_length_a 22.269243
_cell_length_b 8.727502
_cell_length_c 14.959198
_cell_angle_alpha 90.000000
_cell_angle_beta 113.102102
_cell_angle_gamma 90.000000
_cell_volume 2674.240618
_symmetry_space_group_name_H-M "C 2/M"
_symmetry_group_IT_number 12
_symmetry_cell_setting 'monoclinic'
loop_
_space_group_symop_operation_xyz
x,y,z
-x,y,-z
-x,-y,-z
x,-y,z
1/2+x,1/2+y,z
1/2-x,1/2+y,-z
1/2-x,1/2-y,-z
1/2+x,1/2-y,z
loop_
_atom_site_type_symbol
_atom_site_label
_atom_site_fract_x
_atom_site_fract_y
_atom_site_fract_z
Si Si1 0.410897 0.180572 0.246563
Si Si2 0.266523 0.819055 0.416273
Si Si3 0.924685 0.817392 0.956979
Si Si4 0.137626 0.819793 0.258514
Si Si5 0.092814 0.319098 0.551028
Si Si6 0.822949 0.181709 0.051690
Si Si7 0.461824 0.680362 0.652404
O O1 0.416685 0.231368 0.353057
O O2 0.350705 0.264380 0.163579
O O3 0.480591 0.243676 0.253595
O O4 0.402333 0.000000 0.228238
O O5 0.250000 0.750000 0.500000
O O6 0.212909 0.768277 0.311196
O O7 0.335737 0.754517 0.427963
O O8 0.267191 0.000000 0.425149
O O9 0.893263 0.746710 0.848385
O O10 0.925677 0.000000 0.960093
O O11 0.876859 0.759960 0.009749
O O12 0.000000 0.756685 0.000000
O O13 0.102416 0.770838 0.330106
O O14 0.130796 0.000000 0.243089
O O15 0.085684 0.500000 0.535457
O O16 0.042033 0.244675 0.451473
O O17 0.816145 0.000000 0.043567
O O18 0.750000 0.250000 0.000000
O O19 0.472863 0.500000 0.654843
#
# Coordination Sequence:
#
# PCOD8091218 Si02
#       7
#     8   8   8   8   8   8   8
#     4  11  24  41  61  84 117 159 201 243 290 348
#     4  10  19  34  55  80 112 150 193 240 288 345
#     4   9  18  35  62  91 117 151 201 252 296 355
#     4   9  18  32  56  86 115 148 191 239 291 351
#     4  10  22  37  57  83 116 158 201 238 287 352
#     4  11  24  42  66  93 123 159 203 254 308 360
#     4  11  21  36  60  90 121 152 190 241 298 353
#
# _framework density 20.940522999999999
#
# number of rings (size 3 to 8) (size 9 to 14) (size 15 to 20)
#    0.000    1.857    1.429    2.571    2.000    5.143 
#    0.000    0.000    0.000    9.429    0.000    0.000 
#    0.000    0.000    0.000    0.000    0.000    0.000 
#
# Total GULP energy -347003.316521 kJ/mol
# GULP energy per Si atom -12392.975590 kJ/mol
# Density = 2.089286 g / cm^3
# Si number density = 20.940523 Si / 1000 Ang^3
#
#
#
# Elastic Constant Matrix: (Units=GPa)
#
#
# Indices 1 2 3 4 5 6 
#
# 1 114.4723 23.1553 55.1204 0.0000 21.5758 0.0000
# 2 23.1553 42.5933 30.2619 0.0000 2.6059 0.0000
# 3 55.1204 30.2619 148.8965 0.0000 23.1633 0.0000
# 4 0.0000 0.0000 0.0000 30.1609 0.0000 4.6643
# 5 21.5758 2.6059 23.1633 0.0000 41.1922 0.0000
# 6 0.0000 0.0000 0.0000 4.6643 0.0000 25.4547
#
#
#
# Elastic Compliance Matrix: (Units=1/GPa)
#
#
# Indices 1 2 3 4 5 6 
#
# 1 0.011745 -0.004100 -0.002847 0.000000 -0.004291 0.000000
# 2 -0.004100 0.028960 -0.004841 0.000000 0.003037 0.000000
# 3 -0.002847 -0.004841 0.009287 0.000000 -0.003425 0.000000
# 4 0.000000 0.000000 0.000000 0.034122 0.000000 -0.006253
# 5 -0.004291 0.003037 -0.003425 0.000000 0.028258 0.000000
# 6 0.000000 0.000000 0.000000 -0.006253 0.000000 0.040431
#
#
# Mechanical properties :
#
#
# Convention : Reuss Voigt Hill
#
# Bulk Modulus (GPa) = 37.85484 58.11527 47.98506
# Shear Modulus (GPa) = 27.00034 32.52322 29.76178
#
# Velocity S-wave (km/s) = 3.59469 3.94524 3.77404
# Velocity P-wave (km/s) = 5.94522 6.96894 6.47733
#
# Compressibility (1/GPa) = 0.02641670
#
# Stress axis : x y z
#
# Youngs Moduli (GPa) = 85.14465 34.53041 107.68194
#
# Poissons Ratio (x) = 0.14156 0.30657
# Poissons Ratio (y) = 0.34906 0.52126
# Poissons Ratio (z) = 0.24241 0.16715
#
# Static dielectric constant tensor:
#      x y z
#    x 3.838390 0.000000 -0.145850 
#    y 0.000000 3.150510 0.000000 
#    z -0.145850 0.000000 3.737140 
# 
# 
# High freq. dielectric constant tensor:
#      x y z
#    x 1.837370 0.000000 0.012900 
#    y 0.000000 1.782110 0.000000 
#    z 0.012900 0.000000 1.833600 
# 
# From -- ./inp_files/239015.got.cif
#   From: 2010.06.25/outbox.cif.g09.slc.cpg/sg12_120_cif.got.tgz:239015.got - 2010.06.28 00:19:55.
