data_PCOD8091932
_publ_section_title
;
Structure prediction by ZEFSAII (Michael W. Deem and Ramdas Pophale) SiO2 
 PCOD8091932
Probable space group: C 2/M
;
_chemical_formula_sum "Si O2"
_cell_formula_units_Z 56
_cell_length_a 17.907158
_cell_length_b 7.875046
_cell_length_c 29.624140
_cell_angle_alpha 90.000000
_cell_angle_beta 41.252733
_cell_angle_gamma 90.000000
_cell_volume 2754.624406
_symmetry_space_group_name_H-M "C 2/M"
_symmetry_group_IT_number 12
_symmetry_cell_setting 'monoclinic'
loop_
_space_group_symop_operation_xyz
x,y,z
-x,y,-z
-x,-y,-z
x,-y,z
1/2+x,1/2+y,z
1/2-x,1/2+y,-z
1/2-x,1/2-y,-z
1/2+x,1/2-y,z
loop_
_atom_site_type_symbol
_atom_site_label
_atom_site_fract_x
_atom_site_fract_y
_atom_site_fract_z
Si Si1 0.049751 0.307397 0.930795
Si Si2 0.556383 0.197199 0.187929
Si Si3 0.683518 0.000000 0.424928
Si Si4 0.372649 0.688750 0.669094
Si Si5 0.698712 0.193853 0.669447
Si Si6 0.509529 0.000000 0.422287
Si Si7 0.791423 0.692721 0.799054
Si Si8 0.877894 0.808756 0.938106
O O1 0.090374 0.500000 0.919906
O O2 0.157227 0.197576 0.867355
O O3 0.955401 0.306167 0.934803
O O4 0.000000 0.232285 0.000000
O O5 0.431205 0.235585 0.262379
O O6 0.644352 0.260404 0.185815
O O7 0.579618 0.302023 0.132434
O O8 0.573894 0.000000 0.168719
O O9 0.758062 0.828010 0.387644
O O10 0.591502 0.000000 0.427550
O O11 0.620488 0.000000 0.501912
O O12 0.423035 0.500000 0.637155
O O13 0.265575 0.722847 0.685579
O O14 0.469374 0.829775 0.616647
O O15 0.327713 0.693639 0.740385
O O16 0.714792 0.000000 0.644355
O O17 0.827862 0.500000 0.772134
O O18 0.888031 0.000000 0.951188
O O19 0.750000 0.750000 0.000000
#
# Coordination Sequence:
#
# PCOD8091932 Si02
#       8
#     8   8   4   8   8   4   8   8
#     4  11  24  41  60  84 117 154 197 246 293 350
#     4  10  22  39  59  85 116 152 193 245 292 347
#     4   9  18  32  58  86 118 152 184 243 291 355
#     4  10  19  34  58  84 116 154 194 243 293 353
#     4   9  19  35  56  85 116 151 193 241 295 349
#     4   9  18  34  54  88 121 146 191 237 297 351
#     4  11  22  37  59  86 115 153 196 244 294 353
#     4  12  25  40  61  85 116 155 195 244 296 352
#
# _framework density 20.329450999999999
#
# number of rings (size 3 to 8) (size 9 to 14) (size 15 to 20)
#    0.000    1.714    0.714    3.857    1.000    6.286 
#    0.000    2.857    0.000    0.857    0.000    0.000 
#    0.000    0.000    0.000    0.000    0.000    0.000 
#
# Total GULP energy -347309.242380 kJ/mol
# GULP energy per Si atom -12403.901514 kJ/mol
# Density = 2.028318 g / cm^3
# Si number density = 20.329451 Si / 1000 Ang^3
#
#
#
# Elastic Constant Matrix: (Units=GPa)
#
#
# Indices 1 2 3 4 5 6 
#
# 1 96.9573 21.5330 47.4595 -0.0029 -1.7163 -0.0320
# 2 21.5330 107.2015 52.7791 -0.0259 -3.3061 -0.0069
# 3 47.4595 52.7791 143.5689 0.0023 -4.8791 -0.0046
# 4 -0.0029 -0.0259 0.0023 33.2528 -0.0012 -1.0408
# 5 -1.7163 -3.3061 -4.8791 -0.0012 23.9959 -0.0084
# 6 -0.0320 -0.0069 -0.0046 -1.0408 -0.0084 14.8885
#
#
#
# Elastic Compliance Matrix: (Units=1/GPa)
#
#
# Indices 1 2 3 4 5 6 
#
# 1 0.012334 -0.000574 -0.003866 0.000002 0.000017 0.000025
# 2 -0.000574 0.011429 -0.003987 0.000009 0.000723 0.000004
# 3 -0.003866 -0.003987 0.009748 -0.000004 0.001156 -0.000007
# 4 0.000002 0.000009 -0.000004 0.030139 0.000003 0.002107
# 5 0.000017 0.000723 0.001156 0.000003 0.042010 0.000025
# 6 0.000025 0.000004 -0.000007 0.002107 0.000025 0.067313
#
#
# Mechanical properties :
#
#
# Convention : Reuss Voigt Hill
#
# Bulk Modulus (GPa) = 60.03272 65.69676 62.86474
# Shear Modulus (GPa) = 25.59137 29.49118 27.54127
#
# Velocity S-wave (km/s) = 3.55185 3.81289 3.68468
# Velocity P-wave (km/s) = 6.81285 7.19516 7.00661
#
# Compressibility (1/GPa) = 0.01665758
#
# Stress axis : x y z
#
# Youngs Moduli (GPa) = 81.07842 87.49798 102.58214
#
# Poissons Ratio (x) = 0.05019 0.39655
# Poissons Ratio (y) = 0.04651 0.40902
# Poissons Ratio (z) = 0.31342 0.34888
#
# Static dielectric constant tensor:
#      x y z
#    x 3.515450 -0.000010 0.010370 
#    y -0.000010 3.803360 0.000010 
#    z 0.010370 0.000010 3.759450 
# 
# 
# High freq. dielectric constant tensor:
#      x y z
#    x 1.777860 0.000000 -0.001040 
#    y 0.000000 1.804400 0.000000 
#    z -0.001040 0.000000 1.789220 
# 
# From -- ./inp_files/363061.got.cif
#   From: 2010.06.25/outbox.cif.g09.slc.cpg/sg12_182_cif.got.tgz:363061.got - 2010.06.28 00:19:55.
