data_PCOD8091134
_publ_section_title
;
Structure prediction by ZEFSAII (Michael W. Deem and Ramdas Pophale) SiO2 
 PCOD8091134
Probable space group: C 2/M
;
_chemical_formula_sum "Si O2"
_cell_formula_units_Z 64
_cell_length_a 25.373931
_cell_length_b 8.561872
_cell_length_c 15.519570
_cell_angle_alpha 90.000000
_cell_angle_beta 107.066550
_cell_angle_gamma 90.000000
_cell_volume 3223.130886
_symmetry_space_group_name_H-M "C 2/M"
_symmetry_group_IT_number 12
_symmetry_cell_setting 'monoclinic'
loop_
_space_group_symop_operation_xyz
x,y,z
-x,y,-z
-x,-y,-z
x,-y,z
1/2+x,1/2+y,z
1/2-x,1/2+y,-z
1/2-x,1/2-y,-z
1/2+x,1/2-y,z
loop_
_atom_site_type_symbol
_atom_site_label
_atom_site_fract_x
_atom_site_fract_y
_atom_site_fract_z
Si Si1 0.096503 0.316757 0.226660
Si Si2 0.979659 0.180515 0.184024
Si Si3 0.899962 0.178446 0.591947
Si Si4 0.364541 0.319604 0.061703
Si Si5 0.183471 0.683433 0.131162
Si Si6 0.118342 0.182686 0.602755
Si Si7 0.015444 0.680420 0.636072
Si Si8 0.194165 0.185296 0.792463
O O1 0.087882 0.500000 0.210485
O O2 0.116786 0.283981 0.334280
O O3 0.141913 0.247852 0.182979
O O4 0.038768 0.233339 0.175672
O O5 0.930850 0.204732 0.091196
O O6 0.962421 0.283856 0.257671
O O7 0.982747 0.000000 0.213594
O O8 0.863221 0.211281 0.488300
O O9 0.962588 0.211919 0.594202
O O10 0.894132 0.000000 0.618691
O O11 0.349101 0.500000 0.039547
O O12 0.340139 0.258500 0.140762
O O13 0.337801 0.218884 0.974059
O O14 0.187054 0.500000 0.145349
O O15 0.244215 0.756850 0.174138
O O16 0.062480 0.279264 0.590367
O O17 0.165409 0.244730 0.690425
O O18 0.106307 0.000000 0.613364
O O19 0.998644 0.500000 0.619265
O O20 0.196543 0.000000 0.792967
#
# Coordination Sequence:
#
# PCOD8091134 Si02
#       8
#     8   8   8   8   8   8   8   8
#     4  10  21  37  54  77 111 147 180 221 268 318
#     4  10  19  34  56  81 109 144 180 219 267 319
#     4  10  20  33  54  79 104 143 184 221 262 313
#     4  10  20  35  59  84 108 136 175 227 275 317
#     4  10  22  38  58  79 105 145 184 220 271 324
#     4  10  19  34  55  78 107 141 182 221 262 319
#     4  11  20  30  49  79 115 146 172 214 270 323
#     4   9  18  37  59  80 108 141 179 222 267 320
#
# _framework density 19.856470999999999
#
# number of rings (size 3 to 8) (size 9 to 14) (size 15 to 20)
#    0.000    2.000    1.250    4.500    0.000    5.000 
#    0.000    3.750    0.000    0.000    0.000    0.000 
#    0.000    0.000    0.000    0.000    0.000    0.000 
#
# Total GULP energy -396724.287246 kJ/mol
# GULP energy per Si atom -12397.633976 kJ/mol
# Density = 1.981128 g / cm^3
# Si number density = 19.856471 Si / 1000 Ang^3
#
#
#
# Elastic Constant Matrix: (Units=GPa)
#
#
# Indices 1 2 3 4 5 6 
#
# 1 111.7208 11.4657 58.0559 0.0000 -7.7439 0.0000
# 2 11.4657 35.4462 4.3021 0.0000 -2.5877 0.0000
# 3 58.0559 4.3021 125.8738 0.0000 8.3505 0.0000
# 4 0.0000 0.0000 0.0000 28.0607 0.0000 -2.4914
# 5 -7.7439 -2.5877 8.3505 0.0000 12.6948 0.0000
# 6 0.0000 0.0000 0.0000 -2.4914 0.0000 18.2983
#
#
#
# Elastic Compliance Matrix: (Units=1/GPa)
#
#
# Indices 1 2 3 4 5 6 
#
# 1 0.013782 -0.002682 -0.007096 0.000000 0.012528 0.000000
# 2 -0.002682 0.029408 -0.000060 0.000000 0.004398 0.000000
# 3 -0.007096 -0.000060 0.012032 0.000000 -0.012255 0.000000
# 4 0.000000 0.000000 0.000000 0.036073 0.000000 0.004911
# 5 0.012528 0.004398 -0.012255 0.000000 0.095372 0.000000
# 6 0.000000 0.000000 0.000000 0.004911 0.000000 0.055319
#
#
# Mechanical properties :
#
#
# Convention : Reuss Voigt Hill
#
# Bulk Modulus (GPa) = 28.13242 46.74311 37.43777
# Shear Modulus (GPa) = 18.28085 25.09191 21.68638
#
# Velocity S-wave (km/s) = 3.03751 3.55866 3.30836
# Velocity P-wave (km/s) = 5.14787 6.36216 5.78695
#
# Compressibility (1/GPa) = 0.03554618
#
# Stress axis : x y z
#
# Youngs Moduli (GPa) = 72.55859 34.00471 83.10912
#
# Poissons Ratio (x) = 0.09121 0.58974
# Poissons Ratio (y) = 0.19462 0.00496
# Poissons Ratio (z) = 0.51488 0.00203
#
# Static dielectric constant tensor:
#      x y z
#    x 3.706690 0.000000 0.062350 
#    y 0.000000 3.407560 0.000000 
#    z 0.062350 0.000000 3.723800 
# 
# 
# High freq. dielectric constant tensor:
#      x y z
#    x 1.755200 0.000000 0.002840 
#    y 0.000000 1.756470 0.000000 
#    z 0.002840 0.000000 1.781420 
# 
# From -- ./inp_files/244238.got.cif
#   From: 2010.06.25/outbox.cif.g09.slc.cpg/sg12_123_cif.got.tgz:244238.got - 2010.06.28 00:19:55.
