data_PCOD8091757
_publ_section_title
;
Structure prediction by ZEFSAII (Michael W. Deem and Ramdas Pophale) SiO2 
 PCOD8091757
Probable space group: C 2/M
;
_chemical_formula_sum "Si O2"
_cell_formula_units_Z 48
_cell_length_a 16.100777
_cell_length_b 17.253989
_cell_length_c 9.157787
_cell_angle_alpha 90.000000
_cell_angle_beta 106.502838
_cell_angle_gamma 90.000000
_cell_volume 2439.256560
_symmetry_space_group_name_H-M "C 2/M"
_symmetry_group_IT_number 12
_symmetry_cell_setting 'monoclinic'
loop_
_space_group_symop_operation_xyz
x,y,z
-x,y,-z
-x,-y,-z
x,-y,z
1/2+x,1/2+y,z
1/2-x,1/2+y,-z
1/2-x,1/2-y,-z
1/2+x,1/2-y,z
loop_
_atom_site_type_symbol
_atom_site_label
_atom_site_fract_x
_atom_site_fract_y
_atom_site_fract_z
Si Si1 0.093394 0.908148 0.383846
Si Si2 0.246211 0.408224 0.713174
Si Si3 0.082494 0.407892 0.455180
Si Si4 0.910400 0.590639 0.874532
Si Si5 0.754520 0.340021 0.972155
Si Si6 0.899777 0.908224 0.283246
O O1 0.163425 0.874107 0.304949
O O2 0.118176 0.881224 0.559658
O O3 0.997213 0.881503 0.289280
O O4 0.094508 0.000000 0.384742
O O5 0.247182 0.500000 0.703032
O O6 0.168422 0.374823 0.575487
O O7 0.231498 0.385153 0.871251
O O8 0.080445 0.500000 0.462018
O O9 0.079771 0.380571 0.286590
O O10 0.000000 0.373263 0.500000
O O11 0.885577 0.500000 0.871169
O O12 0.834187 0.640349 0.907080
O O13 0.000000 0.607774 0.000000
O O14 0.664510 0.364760 0.855851
O O15 0.750000 0.250000 0.000000
O O16 0.887038 0.000000 0.258533
#
# Coordination Sequence:
#
# PCOD8091757 Si02
#       6
#     8   8   8   8   8   8
#     4   8  16  32  60  91 107 133 185 244 293 335
#     4  10  19  34  57  84 113 143 189 240 281 330
#     4   9  17  31  58  91 114 139 185 248 298 333
#     4  10  20  38  64  87 111 148 196 245 292 338
#     4  12  25  38  51  80 121 160 191 227 284 348
#     4   9  17  35  61  84 110 143 189 239 286 338
#
# _framework density 19.678127
#
# number of rings (size 3 to 8) (size 9 to 14) (size 15 to 20)
#    0.000    2.333    0.000    4.500    0.000    6.000 
#    3.000    5.833    7.333    0.000    0.000    0.000 
#    0.000    0.000    0.000    0.000    0.000    0.000 
#
# Total GULP energy -297592.378146 kJ/mol
# GULP energy per Si atom -12399.682423 kJ/mol
# Density = 1.963334 g / cm^3
# Si number density = 19.678127 Si / 1000 Ang^3
#
#
#
# Elastic Constant Matrix: (Units=GPa)
#
#
# Indices 1 2 3 4 5 6 
#
# 1 175.3167 37.8353 91.9500 0.0000 -7.7824 0.0000
# 2 37.8353 41.9498 28.7401 0.0000 6.4152 0.0000
# 3 91.9500 28.7401 171.6878 0.0000 8.6474 0.0000
# 4 0.0000 0.0000 0.0000 -0.6432 0.0000 -2.7438
# 5 -7.7824 6.4152 8.6474 0.0000 42.2055 0.0000
# 6 0.0000 0.0000 0.0000 -2.7438 0.0000 12.2949
#
#
#
# Elastic Compliance Matrix: (Units=1/GPa)
#
#
# Indices 1 2 3 4 5 6 
#
# 1 0.009370 -0.006132 -0.004169 0.000000 0.003514 0.000000
# 2 -0.006132 0.031375 -0.001688 0.000000 -0.005554 0.000000
# 3 -0.004169 -0.001688 0.008453 0.000000 -0.002244 0.000000
# 4 0.000000 0.000000 0.000000 -0.796483 0.000000 -0.177746
# 5 0.003514 -0.005554 -0.002244 0.000000 0.025645 0.000000
# 6 0.000000 0.000000 0.000000 -0.177746 0.000000 0.041668
#
#
# Mechanical properties :
#
#
# Convention : Reuss Voigt Hill
#
# Bulk Modulus (GPa) = 39.65228 78.44502 59.04865
# Shear Modulus (GPa) = -7.72095 26.13336 9.20620
#
# Velocity S-wave (km/s) = -1.98296 3.64818 2.16531
# Velocity P-wave (km/s) = 3.86669 7.59581 6.02692
#
# Compressibility (1/GPa) = 0.02521923
#
# Stress axis : x y z
#
# Youngs Moduli (GPa) = 106.72790 31.87301 118.30605
#
# Poissons Ratio (x) = 0.19545 0.49316
# Poissons Ratio (y) = 0.65447 0.19972
# Poissons Ratio (z) = 0.44490 0.05381
#
# Static dielectric constant tensor:
#      x y z
#    x 4.012140 0.000000 0.025460 
#    y 0.000000 3.252350 0.000000 
#    z 0.025460 0.000000 3.655380 
# 
# 
# High freq. dielectric constant tensor:
#      x y z
#    x 1.786660 0.000000 0.002510 
#    y 0.000000 1.713240 0.000000 
#    z 0.002510 0.000000 1.779350 
# 
# From -- ./inp_files/63628.got.cif
#   From: 2010.06.25/outbox.cif.g09.slc.cpg/sg12_32_cif.got.tgz:63628.got - 2010.06.28 00:19:55.
