data_PCOD8091267
_publ_section_title
;
Structure prediction by ZEFSAII (Michael W. Deem and Ramdas Pophale) SiO2 
 PCOD8091267
Probable space group: C 2/M
;
_chemical_formula_sum "Si O2"
_cell_formula_units_Z 56
_cell_length_a 29.670428
_cell_length_b 9.346535
_cell_length_c 20.543945
_cell_angle_alpha 90.000000
_cell_angle_beta 26.606563
_cell_angle_gamma 90.000000
_cell_volume 2551.537927
_symmetry_space_group_name_H-M "C 2/M"
_symmetry_group_IT_number 12
_symmetry_cell_setting 'monoclinic'
loop_
_space_group_symop_operation_xyz
x,y,z
-x,y,-z
-x,-y,-z
x,-y,z
1/2+x,1/2+y,z
1/2-x,1/2+y,-z
1/2-x,1/2-y,-z
1/2+x,1/2-y,z
loop_
_atom_site_type_symbol
_atom_site_label
_atom_site_fract_x
_atom_site_fract_y
_atom_site_fract_z
Si Si1 0.175313 0.157320 0.429782
Si Si2 0.905064 0.830714 0.668563
Si Si3 0.507376 0.842809 0.185821
Si Si4 0.041042 0.833376 0.018261
Si Si5 0.548316 0.343726 0.245746
Si Si6 0.727137 0.167318 0.248301
Si Si7 0.284325 0.156068 0.513962
O O1 0.155680 0.243357 0.389149
O O2 0.248229 0.257149 0.379399
O O3 0.071423 0.135628 0.601334
O O4 0.223836 0.000000 0.354467
O O5 0.921383 0.784231 0.722537
O O6 0.805394 0.738538 0.778065
O O7 0.000000 0.789235 0.500000
O O8 0.884344 0.000000 0.689611
O O9 0.579244 0.758379 0.144870
O O10 0.402905 0.867258 0.357246
O O11 0.554536 0.000000 0.109811
O O12 0.487043 0.756471 0.145026
O O13 0.159012 0.801959 0.876735
O O14 0.016741 0.000000 0.060089
O O15 0.000000 0.784242 0.000000
O O16 0.598025 0.500000 0.169117
O O17 0.701405 0.000000 0.282639
O O18 0.250000 0.250000 0.500000
O O19 0.230629 0.000000 0.584793
#
# Coordination Sequence:
#
# PCOD8091267 Si02
#       7
#     8   8   8   8   8   8   8
#     4  10  19  34  55  82 117 156 191 235 290 350
#     4  10  19  36  60  90 124 160 199 236 292 364
#     4  10  22  39  59  86 116 148 197 251 295 345
#     4  10  24  45  64  82 112 160 207 247 298 357
#     4   9  18  35  60  86 118 159 192 227 287 358
#     4  11  23  37  57  89 121 153 200 251 298 352
#     4  10  21  35  53  83 116 148 190 242 300 358
#
# _framework density 21.947547
#
# number of rings (size 3 to 8) (size 9 to 14) (size 15 to 20)
#    0.000    2.000    1.429    1.714    2.000    4.571 
#    0.000    0.714    0.000    0.000    0.000    0.000 
#    0.000    0.000    0.000    0.000    0.000    0.000 
#
# Total GULP energy -346935.871850 kJ/mol
# GULP energy per Si atom -12390.566852 kJ/mol
# Density = 2.189759 g / cm^3
# Si number density = 21.947547 Si / 1000 Ang^3
#
#
#
# Elastic Constant Matrix: (Units=GPa)
#
#
# Indices 1 2 3 4 5 6 
#
# 1 181.3726 86.4843 13.3395 -0.0019 14.9820 0.0013
# 2 86.4843 158.4454 14.9042 -0.0043 10.5279 0.0025
# 3 13.3395 14.9042 26.1040 -0.0052 2.2360 0.0031
# 4 -0.0019 -0.0043 -0.0052 20.2840 0.0024 1.1081
# 5 14.9820 10.5279 2.2360 0.0024 30.9607 -0.0014
# 6 0.0013 0.0025 0.0031 1.1081 -0.0014 38.2475
#
#
#
# Elastic Compliance Matrix: (Units=1/GPa)
#
#
# Indices 1 2 3 4 5 6 
#
# 1 0.007668 -0.003893 -0.001501 0.000000 -0.002279 0.000000
# 2 -0.003893 0.008772 -0.002943 0.000001 -0.000886 0.000000
# 3 -0.001501 -0.002943 0.040860 0.000010 -0.001224 -0.000003
# 4 0.000000 0.000001 0.000010 0.049378 -0.000005 -0.001431
# 5 -0.002279 -0.000886 -0.001224 -0.000005 0.033791 0.000002
# 6 0.000000 0.000000 -0.000003 -0.001431 0.000002 0.026187
#
#
# Mechanical properties :
#
#
# Convention : Reuss Voigt Hill
#
# Bulk Modulus (GPa) = 24.61409 66.15311 45.38360
# Shear Modulus (GPa) = 25.39697 34.64468 30.02083
#
# Velocity S-wave (km/s) = 3.40541 3.97737 3.70245
# Velocity P-wave (km/s) = 5.16737 7.16237 6.24505
#
# Compressibility (1/GPa) = 0.04062713
#
# Stress axis : x y z
#
# Youngs Moduli (GPa) = 130.40416 113.99862 24.47353
#
# Poissons Ratio (x) = 0.44381 0.03673
# Poissons Ratio (y) = 0.50768 0.07203
# Poissons Ratio (z) = 0.19570 0.33551
#
# Static dielectric constant tensor:
#      x y z
#    x 3.724610 0.000020 0.051960 
#    y 0.000020 4.450760 0.000030 
#    z 0.051960 0.000030 3.784820 
# 
# 
# High freq. dielectric constant tensor:
#      x y z
#    x 1.875180 0.000000 0.010960 
#    y 0.000000 1.872600 0.000000 
#    z 0.010960 0.000000 1.817070 
# 
# From -- ./inp_files/329450.got.cif
#   From: 2010.06.25/outbox.cif.g09.slc.cpg/sg12_165_cif.got.tgz:329450.got - 2010.06.28 00:19:55.
