data_PCOD8091681
_publ_section_title
;
Structure prediction by ZEFSAII (Michael W. Deem and Ramdas Pophale) SiO2 
 PCOD8091681
Probable space group: C 2/M
;
_chemical_formula_sum "Si O2"
_cell_formula_units_Z 64
_cell_length_a 30.062270
_cell_length_b 9.195336
_cell_length_c 19.940754
_cell_angle_alpha 90.000000
_cell_angle_beta 142.001523
_cell_angle_gamma 90.000000
_cell_volume 3393.580475
_symmetry_space_group_name_H-M "C 2/M"
_symmetry_group_IT_number 12
_symmetry_cell_setting 'monoclinic'
loop_
_space_group_symop_operation_xyz
x,y,z
-x,y,-z
-x,-y,-z
x,-y,z
1/2+x,1/2+y,z
1/2-x,1/2+y,-z
1/2-x,1/2-y,-z
1/2+x,1/2-y,z
loop_
_atom_site_type_symbol
_atom_site_label
_atom_site_fract_x
_atom_site_fract_y
_atom_site_fract_z
Si Si1 0.092782 0.662189 0.872975
Si Si2 0.774167 0.671951 0.873937
Si Si3 0.648176 0.841803 0.383235
Si Si4 0.290856 0.826707 0.318653
Si Si5 0.963830 0.169066 0.668155
Si Si6 0.280877 0.342738 0.630517
Si Si7 0.557205 0.669978 0.510053
Si Si8 0.299497 0.163951 0.109175
O O1 0.065724 0.500000 0.859888
O O2 0.122237 0.658533 0.831596
O O3 0.027842 0.775428 0.792894
O O4 0.152673 0.711932 0.998745
O O5 0.763605 0.500000 0.855745
O O6 0.772617 0.750900 0.800650
O O7 0.703461 0.742924 0.826213
O O8 0.607235 0.749006 0.390643
O O9 0.654326 0.763108 0.317500
O O10 0.728500 0.866099 0.505491
O O11 0.610783 0.000000 0.328736
O O12 0.266007 0.781596 0.363441
O O13 0.369308 0.761140 0.394654
O O14 0.293948 0.000000 0.311275
O O15 0.976144 0.201529 0.603632
O O16 0.954466 0.000000 0.670314
O O17 0.314702 0.500000 0.690480
O O18 0.500000 0.717572 0.500000
O O19 0.576312 0.500000 0.540596
O O20 0.270471 0.000000 0.087023
O O21 0.250000 0.250000 0.000000
#
# Coordination Sequence:
#
# PCOD8091681 Si02
#       8
#     8   8   8   8   8   8   8   8
#     4   9  20  36  53  75 106 143 185 231 276 322
#     4  10  21  36  54  77 107 146 188 233 278 327
#     4  10  19  34  57  82 110 142 179 224 274 329
#     4  11  22  37  58  84 113 147 184 229 279 332
#     4  11  22  35  56  82 112 148 186 228 276 328
#     4   9  19  35  55  82 112 139 176 224 276 331
#     4  10  23  40  54  77 114 155 192 227 270 327
#     4   9  17  31  50  74 101 136 182 232 277 318
#
# _framework density 18.859137
#
# number of rings (size 3 to 8) (size 9 to 14) (size 15 to 20)
#    0.000    2.125    1.250    2.625    1.750    5.250 
#    0.000    0.000    0.000    0.750    0.000    5.250 
#    0.000    0.000    0.000    0.000    0.000    0.000 
#
# Total GULP energy -396484.804238 kJ/mol
# GULP energy per Si atom -12390.150132 kJ/mol
# Density = 1.881621 g / cm^3
# Si number density = 18.859137 Si / 1000 Ang^3
#
#
#
# Elastic Constant Matrix: (Units=GPa)
#
#
# Indices 1 2 3 4 5 6 
#
# 1 112.4463 58.4530 27.1600 0.0000 -14.3242 0.0000
# 2 58.4530 124.3781 42.8049 0.0000 -4.9986 0.0000
# 3 27.1600 42.8049 74.7759 0.0000 -6.2184 0.0000
# 4 0.0000 0.0000 0.0000 25.4789 0.0000 4.3155
# 5 -14.3242 -4.9986 -6.2184 0.0000 17.2560 0.0000
# 6 0.0000 0.0000 0.0000 4.3155 0.0000 31.0240
#
#
#
# Elastic Compliance Matrix: (Units=1/GPa)
#
#
# Indices 1 2 3 4 5 6 
#
# 1 0.013104 -0.005500 -0.000865 0.000000 0.008973 0.000000
# 2 -0.005500 0.012334 -0.005304 0.000000 -0.002904 0.000000
# 3 -0.000865 -0.005304 0.017047 0.000000 0.003889 0.000000
# 4 0.000000 0.000000 0.000000 0.040195 0.000000 -0.005591
# 5 0.008973 -0.002904 0.003889 0.000000 0.065959 0.000000
# 6 0.000000 0.000000 0.000000 -0.005591 0.000000 0.033011
#
#
# Mechanical properties :
#
#
# Convention : Reuss Voigt Hill
#
# Bulk Modulus (GPa) = 52.22875 63.15956 57.69415
# Shear Modulus (GPa) = 23.65511 26.96394 25.30953
#
# Velocity S-wave (km/s) = 3.54546 3.78531 3.66735
# Velocity P-wave (km/s) = 6.67193 7.25725 6.97073
#
# Compressibility (1/GPa) = 0.01914654
#
# Stress axis : x y z
#
# Youngs Moduli (GPa) = 76.31091 81.07960 58.66113
#
# Poissons Ratio (x) = 0.44596 0.05074
# Poissons Ratio (y) = 0.41973 0.31114
# Poissons Ratio (z) = 0.06601 0.43005
#
# Static dielectric constant tensor:
#      x y z
#    x 3.487740 0.000000 -0.186680 
#    y 0.000000 3.903630 0.000000 
#    z -0.186680 0.000000 3.185070 
# 
# 
# High freq. dielectric constant tensor:
#      x y z
#    x 1.722260 0.000000 -0.011940 
#    y 0.000000 1.747440 0.000000 
#    z -0.011940 0.000000 1.701450 
# 
# From -- ./inp_files/295853.got.cif
#   From: 2010.06.25/outbox.cif.g09.slc.cpg/sg12_148_cif.got.tgz:295853.got - 2010.06.28 00:19:55.
