data_PCOD8091399
_publ_section_title
;
Structure prediction by ZEFSAII (Michael W. Deem and Ramdas Pophale) SiO2 
 PCOD8091399
Probable space group: C 2/M
;
_chemical_formula_sum "Si O2"
_cell_formula_units_Z 64
_cell_length_a 19.944295
_cell_length_b 9.084957
_cell_length_c 24.837854
_cell_angle_alpha 90.000000
_cell_angle_beta 128.361503
_cell_angle_gamma 90.000000
_cell_volume 3528.848197
_symmetry_space_group_name_H-M "C 2/M"
_symmetry_group_IT_number 12
_symmetry_cell_setting 'monoclinic'
loop_
_space_group_symop_operation_xyz
x,y,z
-x,y,-z
-x,-y,-z
x,-y,z
1/2+x,1/2+y,z
1/2-x,1/2+y,-z
1/2-x,1/2-y,-z
1/2+x,1/2-y,z
loop_
_atom_site_type_symbol
_atom_site_label
_atom_site_fract_x
_atom_site_fract_y
_atom_site_fract_z
Si Si1 0.764647 0.168504 0.147262
Si Si2 0.551662 0.325111 0.177149
Si Si3 0.496033 0.172692 0.331073
Si Si4 0.796821 0.671633 0.687047
Si Si5 0.583653 0.826923 0.822720
Si Si6 0.576036 0.829931 0.077929
Si Si7 0.311914 0.171461 0.571804
Si Si8 0.844319 0.830586 0.300564
O O1 0.818421 0.271824 0.133702
O O2 0.664160 0.200014 0.089727
O O3 0.787133 0.206508 0.220147
O O4 0.787596 0.000000 0.145289
O O5 0.546879 0.500000 0.177469
O O6 0.624881 0.268445 0.253487
O O7 0.461163 0.256109 0.150142
O O8 0.571213 0.275417 0.126548
O O9 0.466793 0.217260 0.256613
O O10 0.591749 0.232003 0.388026
O O11 0.433290 0.242575 0.344118
O O12 0.491633 0.000000 0.336062
O O13 0.820068 0.500000 0.708645
O O14 0.780582 0.704562 0.616531
O O15 0.710173 0.716777 0.674585
O O16 0.582832 0.000000 0.833565
O O17 0.572237 0.000000 0.095214
O O18 0.500000 0.789711 0.000000
O O19 0.250000 0.250000 0.500000
O O20 0.309216 0.000000 0.557892
O O21 0.869445 0.000000 0.315559
#
# Coordination Sequence:
#
# PCOD8091399 Si02
#       8
#     8   8   8   8   8   8   8   8
#     4   9  17  32  54  83 112 138 179 229 273 324
#     4  12  23  34  55  86 115 143 185 237 277 320
#     4   9  18  33  53  77 108 142 176 220 274 326
#     4  10  19  37  58  79 109 146 186 227 274 327
#     4  10  19  34  56  80 110 145 183 227 277 331
#     4  10  21  39  61  82 112 154 188 220 275 339
#     4  10  21  37  56  78 108 146 183 224 273 328
#     4   9  17  30  54  81 106 136 175 227 272 315
#
# _framework density 18.136227999999999
#
# number of rings (size 3 to 8) (size 9 to 14) (size 15 to 20)
#    0.000    2.125    2.500    1.500    0.000    2.750 
#    0.000    1.250    0.000    3.750    0.000    0.000 
#    0.000    0.000    0.000    0.000    0.000    0.000 
#
# Total GULP energy -396867.812442 kJ/mol
# GULP energy per Si atom -12402.119139 kJ/mol
# Density = 1.809495 g / cm^3
# Si number density = 18.136228 Si / 1000 Ang^3
#
#
#
# Elastic Constant Matrix: (Units=GPa)
#
#
# Indices 1 2 3 4 5 6 
#
# 1 115.4766 41.3032 18.6291 0.0000 13.7790 0.0000
# 2 41.3032 71.1314 22.0220 0.0000 1.1398 0.0000
# 3 18.6291 22.0220 51.8803 0.0000 13.5167 0.0000
# 4 0.0000 0.0000 0.0000 22.1745 0.0000 1.6456
# 5 13.7790 1.1398 13.5167 0.0000 26.3430 0.0000
# 6 0.0000 0.0000 0.0000 1.6456 0.0000 35.2816
#
#
#
# Elastic Compliance Matrix: (Units=1/GPa)
#
#
# Indices 1 2 3 4 5 6 
#
# 1 0.011772 -0.006808 0.000220 0.000000 -0.005976 0.000000
# 2 -0.006808 0.020369 -0.007964 0.000000 0.006766 0.000000
# 3 0.000220 -0.007964 0.025992 0.000000 -0.013107 0.000000
# 4 0.000000 0.000000 0.000000 0.045253 0.000000 -0.002111
# 5 -0.005976 0.006766 -0.013107 0.000000 0.047519 0.000000
# 6 0.000000 0.000000 0.000000 -0.002111 0.000000 0.028442
#
#
# Mechanical properties :
#
#
# Convention : Reuss Voigt Hill
#
# Bulk Modulus (GPa) = 34.45014 44.71077 39.58045
# Shear Modulus (GPa) = 22.92220 27.19540 25.05880
#
# Velocity S-wave (km/s) = 3.55898 3.87655 3.72115
# Velocity P-wave (km/s) = 5.99374 6.68903 6.35090
#
# Compressibility (1/GPa) = 0.02902746
#
# Stress axis : x y z
#
# Youngs Moduli (GPa) = 84.94398 49.09429 38.47363
#
# Poissons Ratio (x) = 0.33423 -0.00845
# Poissons Ratio (y) = 0.57830 0.30642
# Poissons Ratio (z) = -0.01865 0.39101
#
# Static dielectric constant tensor:
#      x y z
#    x 3.658690 0.000000 0.098540 
#    y 0.000000 3.280840 0.000000 
#    z 0.098540 0.000000 3.097910 
# 
# 
# High freq. dielectric constant tensor:
#      x y z
#    x 1.720130 0.000000 0.007770 
#    y 0.000000 1.696080 0.000000 
#    z 0.007770 0.000000 1.670400 
# 
# From -- ./inp_files/346254.got.cif
#   From: 2010.06.25/outbox.cif.g09.slc.cpg/sg12_174_cif.got.tgz:346254.got - 2010.06.28 00:19:55.
