data_PCOD8091674
_publ_section_title
;
Structure prediction by ZEFSAII (Michael W. Deem and Ramdas Pophale) SiO2 
 PCOD8091674
Probable space group: C 2/M
;
_chemical_formula_sum "Si O2"
_cell_formula_units_Z 64
_cell_length_a 22.660651
_cell_length_b 9.132346
_cell_length_c 28.420802
_cell_angle_alpha 90.000000
_cell_angle_beta 145.427611
_cell_angle_gamma 90.000000
_cell_volume 3337.462376
_symmetry_space_group_name_H-M "C 2/M"
_symmetry_group_IT_number 12
_symmetry_cell_setting 'monoclinic'
loop_
_space_group_symop_operation_xyz
x,y,z
-x,y,-z
-x,-y,-z
x,-y,z
1/2+x,1/2+y,z
1/2-x,1/2+y,-z
1/2-x,1/2-y,-z
1/2+x,1/2-y,z
loop_
_atom_site_type_symbol
_atom_site_label
_atom_site_fract_x
_atom_site_fract_y
_atom_site_fract_z
Si Si1 0.842548 0.668753 0.086814
Si Si2 0.909172 0.326842 0.330193
Si Si3 0.174853 0.829134 0.387280
Si Si4 0.701702 0.169863 0.837441
Si Si5 0.073967 0.328663 0.237135
Si Si6 0.880949 0.828952 0.542902
Si Si7 0.222866 0.669218 0.249956
Si Si8 0.614399 0.830511 0.081670
O O1 0.816019 0.500000 0.062804
O O2 0.849112 0.710650 0.146237
O O3 0.957121 0.706716 0.141551
O O4 0.750000 0.750000 0.000000
O O5 0.922061 0.500000 0.344270
O O6 0.873988 0.279962 0.254526
O O7 0.825623 0.268911 0.313460
O O8 0.017826 0.248503 0.411921
O O9 0.094288 0.767424 0.296535
O O10 0.124830 0.799833 0.405262
O O11 0.282461 0.741943 0.452353
O O12 0.196066 0.000000 0.392901
O O13 0.810987 0.252249 0.906363
O O14 0.725742 0.000000 0.847990
O O15 0.081194 0.500000 0.255165
O O16 0.157915 0.284509 0.253058
O O17 0.883929 0.000000 0.532690
O O18 0.257145 0.500000 0.274508
O O19 0.148508 0.699607 0.157198
O O20 0.615878 0.000000 0.069328
O O21 0.500000 0.764070 0.000000
#
# Coordination Sequence:
#
# PCOD8091674 Si02
#       8
#     8   8   8   8   8   8   8   8
#     4  10  22  37  54  78 107 143 184 225 273 327
#     4  10  19  34  57  82 109 142 181 228 277 322
#     4  10  21  36  57  87 116 145 182 224 271 323
#     4   9  19  34  50  74 106 138 174 218 272 326
#     4  10  21  38  58  77 110 152 185 223 275 333
#     4  10  20  35  58  86 116 145 179 223 272 326
#     4   9  19  35  53  77 107 144 186 225 274 331
#     4   9  18  31  52  77  99 131 179 229 270 315
#
# _framework density 19.176247
#
# number of rings (size 3 to 8) (size 9 to 14) (size 15 to 20)
#    0.000    2.375    0.000    1.875    1.750    4.750 
#    0.000    0.625    0.000    3.750    0.000    0.000 
#    0.000    0.000    0.000    0.000    0.000    0.000 
#
# Total GULP energy -396863.792421 kJ/mol
# GULP energy per Si atom -12401.993513 kJ/mol
# Density = 1.913260 g / cm^3
# Si number density = 19.176247 Si / 1000 Ang^3
#
#
#
# Elastic Constant Matrix: (Units=GPa)
#
#
# Indices 1 2 3 4 5 6 
#
# 1 82.0937 40.4004 36.0817 0.0000 17.8250 0.0000
# 2 40.4004 71.3731 43.1321 0.0000 12.7506 0.0004
# 3 36.0817 43.1321 93.7168 0.0000 22.7770 0.0000
# 4 0.0000 0.0000 0.0000 34.6365 0.0000 3.6596
# 5 17.8250 12.7506 22.7770 0.0000 32.6037 0.0000
# 6 0.0000 0.0004 0.0000 3.6596 0.0000 30.0744
#
#
#
# Elastic Compliance Matrix: (Units=1/GPa)
#
#
# Indices 1 2 3 4 5 6 
#
# 1 0.018237 -0.008184 -0.001939 0.000000 -0.005415 0.000000
# 2 -0.008184 0.023154 -0.007699 0.000000 0.000798 0.000000
# 3 -0.001939 -0.007699 0.016828 0.000000 -0.007685 0.000000
# 4 0.000000 0.000000 0.000000 0.029247 0.000000 -0.003559
# 5 -0.005415 0.000798 -0.007685 0.000000 0.038689 0.000000
# 6 0.000000 0.000000 0.000000 -0.003559 0.000000 0.033684
#
#
# Mechanical properties :
#
#
# Convention : Reuss Voigt Hill
#
# Bulk Modulus (GPa) = 44.29681 54.04579 49.17130
# Shear Modulus (GPa) = 24.62972 27.96753 26.29862
#
# Velocity S-wave (km/s) = 3.58772 3.82310 3.70728
# Velocity P-wave (km/s) = 6.34920 6.90891 6.63496
#
# Compressibility (1/GPa) = 0.02257499
#
# Stress axis : x y z
#
# Youngs Moduli (GPa) = 54.83499 43.18994 59.42407
#
# Poissons Ratio (x) = 0.35346 0.11520
# Poissons Ratio (y) = 0.44876 0.45753
# Poissons Ratio (z) = 0.10630 0.33253
#
# Static dielectric constant tensor:
#      x y z
#    x 3.556240 0.000000 0.180220 
#    y 0.000000 3.454260 0.000000 
#    z 0.180220 0.000000 3.501750 
# 
# 
# High freq. dielectric constant tensor:
#      x y z
#    x 1.741720 0.000000 0.014440 
#    y 0.000000 1.743010 0.000000 
#    z 0.014440 0.000000 1.743600 
# 
# From -- ./inp_files/382536.got.cif
#   From: 2010.06.25/outbox.cif.g09.slc.cpg/sg12_192_cif.got.tgz:382536.got - 2010.06.28 00:19:55.
