data_PCOD8091979
_publ_section_title
;
Structure prediction by ZEFSAII (Michael W. Deem and Ramdas Pophale) SiO2 
 PCOD8091979
Probable space group: C 2/M
;
_chemical_formula_sum "Si O2"
_cell_formula_units_Z 64
_cell_length_a 9.630779
_cell_length_b 15.290326
_cell_length_c 26.351054
_cell_angle_alpha 90.000000
_cell_angle_beta 53.214135
_cell_angle_gamma 90.000000
_cell_volume 3107.728911
_symmetry_space_group_name_H-M "C 2/M"
_symmetry_group_IT_number 12
_symmetry_cell_setting 'monoclinic'
loop_
_space_group_symop_operation_xyz
x,y,z
-x,y,-z
-x,-y,-z
x,-y,z
1/2+x,1/2+y,z
1/2-x,1/2+y,-z
1/2-x,1/2-y,-z
1/2+x,1/2-y,z
loop_
_atom_site_type_symbol
_atom_site_label
_atom_site_fract_x
_atom_site_fract_y
_atom_site_fract_z
Si Si1 0.626318 0.104470 0.428880
Si Si2 0.989605 0.097780 0.661140
Si Si3 0.373283 0.169454 0.278642
Si Si4 0.960465 0.401519 0.854141
Si Si5 0.938295 0.132506 0.242308
Si Si6 0.056881 0.597565 0.332108
Si Si7 0.189562 0.233741 0.956866
Si Si8 0.275729 0.901968 0.115022
O O1 0.500000 0.141685 0.500000
O O2 0.560905 0.138575 0.388206
O O3 0.822981 0.136614 0.397269
O O4 0.627098 0.000000 0.427188
O O5 0.834901 0.158762 0.675016
O O6 0.989310 0.091666 0.721866
O O7 0.960978 0.000000 0.645627
O O8 0.468040 0.103631 0.219088
O O9 0.423275 0.264050 0.248645
O O10 0.439488 0.157032 0.321565
O O11 0.887837 0.500000 0.878083
O O12 0.121625 0.382503 0.855649
O O13 0.811304 0.330718 0.897886
O O14 0.752776 0.092676 0.268199
O O15 0.070286 0.106442 0.169283
O O16 0.977650 0.500000 0.349919
O O17 0.170099 0.329974 0.937284
O O18 0.250000 0.250000 0.000000
O O19 0.000000 0.189632 0.000000
O O20 0.316577 0.000000 0.085535
#
# Coordination Sequence:
#
# PCOD8091979 Si02
#       8
#     8   8   8   8   8   8   8   8
#     4   8  16  34  58  82 116 163 212 254 297 364
#     4  10  19  34  58  86 113 156 206 246 302 375
#     4  12  22  35  58  90 128 152 191 259 326 362
#     4  11  24  42  65  92 126 166 204 252 318 376
#     4  11  21  36  59  86 120 157 198 243 306 380
#     4  10  21  34  54  88 122 153 198 256 311 359
#     4  12  26  45  68  93 127 162 209 258 303 364
#     4  11  23  42  68  93 121 164 212 251 304 378
#
# _framework density 20.593817999999999
#
# number of rings (size 3 to 8) (size 9 to 14) (size 15 to 20)
#    0.000    1.375    3.750    3.750    0.000    2.000 
#    0.000    1.875    0.000   15.000    0.000    0.000 
#    0.000    0.000    0.000    0.000    0.000    0.125 
#
# Total GULP energy -396807.434757 kJ/mol
# GULP energy per Si atom -12400.232336 kJ/mol
# Density = 2.054695 g / cm^3
# Si number density = 20.593818 Si / 1000 Ang^3
#
#
#
# Elastic Constant Matrix: (Units=GPa)
#
#
# Indices 1 2 3 4 5 6 
#
# 1 125.0447 26.6435 47.9476 -0.0001 -6.9728 -0.0002
# 2 26.6435 98.9369 22.9615 -0.0002 -2.0977 -0.0003
# 3 47.9476 22.9615 118.2766 -0.0004 -11.1095 -0.0009
# 4 -0.0001 -0.0002 -0.0004 25.4240 0.0001 3.3174
# 5 -6.9728 -2.0977 -11.1095 0.0001 28.3628 0.0003
# 6 -0.0002 -0.0003 -0.0009 3.3174 0.0003 20.3137
#
#
#
# Elastic Compliance Matrix: (Units=1/GPa)
#
#
# Indices 1 2 3 4 5 6 
#
# 1 0.009785 -0.001796 -0.003534 0.000000 0.000888 0.000000
# 2 -0.001796 0.010914 -0.001408 0.000000 -0.000186 0.000000
# 3 -0.003534 -0.001408 0.010454 0.000000 0.003122 0.000000
# 4 0.000000 0.000000 0.000000 0.040189 0.000000 -0.006563
# 5 0.000888 -0.000186 0.003122 0.000000 0.036685 0.000000
# 6 0.000000 0.000000 0.000000 -0.006563 0.000000 0.050300
#
#
# Mechanical properties :
#
#
# Convention : Reuss Voigt Hill
#
# Bulk Modulus (GPa) = 56.57498 59.70703 58.14100
# Shear Modulus (GPa) = 28.13800 31.13380 29.63590
#
# Velocity S-wave (km/s) = 3.70040 3.89241 3.79762
# Velocity P-wave (km/s) = 6.76674 7.01832 6.89368
#
# Compressibility (1/GPa) = 0.01767566
#
# Stress axis : x y z
#
# Youngs Moduli (GPa) = 102.20161 91.62582 95.65552
#
# Poissons Ratio (x) = 0.16455 0.33809
# Poissons Ratio (y) = 0.18354 0.13470
# Poissons Ratio (z) = 0.36123 0.12903
#
# Static dielectric constant tensor:
#      x y z
#    x 3.738680 0.000000 -0.151310 
#    y 0.000000 3.694770 0.000000 
#    z -0.151310 0.000000 3.732630 
# 
# 
# High freq. dielectric constant tensor:
#      x y z
#    x 1.800880 0.000000 -0.011390 
#    y 0.000000 1.803360 0.000000 
#    z -0.011390 0.000000 1.791500 
# 
# From -- ./inp_files/372577.got.cif
#   From: 2010.06.25/outbox.cif.g09.slc.cpg/sg12_187_cif.got.tgz:372577.got - 2010.06.28 00:19:55.
