data_PCOD8091849
_publ_section_title
;
Structure prediction by ZEFSAII (Michael W. Deem and Ramdas Pophale) SiO2 
 PCOD8091849
Probable space group: C 2/M
;
_chemical_formula_sum "Si O2"
_cell_formula_units_Z 64
_cell_length_a 18.885006
_cell_length_b 17.163077
_cell_length_c 11.516921
_cell_angle_alpha 90.000000
_cell_angle_beta 82.371748
_cell_angle_gamma 90.000000
_cell_volume 3699.884281
_symmetry_space_group_name_H-M "C 2/M"
_symmetry_group_IT_number 12
_symmetry_cell_setting 'monoclinic'
loop_
_space_group_symop_operation_xyz
x,y,z
-x,y,-z
-x,-y,-z
x,-y,z
1/2+x,1/2+y,z
1/2-x,1/2+y,-z
1/2-x,1/2-y,-z
1/2+x,1/2-y,z
loop_
_atom_site_type_symbol
_atom_site_label
_atom_site_fract_x
_atom_site_fract_y
_atom_site_fract_z
Si Si1 0.696665 0.084972 0.313162
Si Si2 0.928364 0.779032 0.716594
Si Si3 0.324067 0.811905 0.886456
Si Si4 0.922115 0.350892 0.522252
Si Si5 0.815447 0.906879 0.690909
Si Si6 0.797069 0.304952 0.148177
Si Si7 0.091368 0.252999 0.687187
Si Si8 0.207672 0.171649 0.540933
O O1 0.671571 0.110072 0.190898
O O2 0.630358 0.083931 0.417416
O O3 0.755584 0.141524 0.350970
O O4 0.729808 0.000000 0.296725
O O5 0.890562 0.742798 0.837896
O O6 0.915986 0.726866 0.604320
O O7 0.891259 0.863675 0.702103
O O8 0.012376 0.781300 0.730013
O O9 0.249926 0.770293 0.870535
O O10 0.328475 0.836950 0.019737
O O11 0.905815 0.330263 0.392537
O O12 0.000000 0.388090 0.500000
O O13 0.751070 0.872410 0.783015
O O14 0.792982 0.890266 0.562913
O O15 0.823444 0.000000 0.709324
O O16 0.864891 0.276357 0.207864
O O17 0.127690 0.186537 0.601010
O O18 0.250000 0.250000 0.500000
#
# Coordination Sequence:
#
# PCOD8091849 Si02
#       8
#     8   8   8   8   8   8   8   8
#     4  11  20  31  49  77 108 137 169 219 282 326
#     4   9  19  34  53  80 106 144 181 219 269 319
#     4   9  19  36  53  76 101 133 190 232 262 312
#     4   9  17  31  52  74 100 137 175 212 259 322
#     4  11  21  34  53  83 119 148 176 218 280 338
#     4  10  19  34  58  78  97 141 191 231 262 307
#     4  11  18  31  58  77 104 136 183 229 264 309
#     4  12  18  33  54  77 108 140 185 229 262 314
#
# _framework density 17.297839
#
# number of rings (size 3 to 8) (size 9 to 14) (size 15 to 20)
#    0.000    1.750    5.000    1.125    0.000    1.250 
#    0.000    1.875    0.000    3.000    0.000   11.375 
#    0.000    0.000    0.000    0.000    0.000    0.000 
#
# Total GULP energy -396538.769061 kJ/mol
# GULP energy per Si atom -12391.836533 kJ/mol
# Density = 1.725847 g / cm^3
# Si number density = 17.297839 Si / 1000 Ang^3
#
#
#
# Elastic Constant Matrix: (Units=GPa)
#
#
# Indices 1 2 3 4 5 6 
#
# 1 114.9861 23.8958 44.0492 0.0000 -1.7806 0.0000
# 2 23.8958 80.4698 20.1384 0.0000 4.1059 0.0000
# 3 44.0492 20.1384 114.7966 0.0000 3.3914 0.0000
# 4 0.0000 0.0000 0.0000 -3.2092 0.0000 -3.5328
# 5 -1.7806 4.1059 3.3914 0.0000 24.0911 0.0000
# 6 0.0000 0.0000 0.0000 -3.5328 0.0000 16.4577
#
#
#
# Elastic Compliance Matrix: (Units=1/GPa)
#
#
# Indices 1 2 3 4 5 6 
#
# 1 0.010630 -0.002312 -0.003724 0.000000 0.001704 0.000000
# 2 -0.002312 0.013588 -0.001429 0.000000 -0.002285 0.000000
# 3 -0.003724 -0.001429 0.010435 0.000000 -0.001501 0.000000
# 4 0.000000 0.000000 0.000000 -0.252043 0.000000 -0.054103
# 5 0.001704 -0.002285 -0.001501 0.000000 0.042236 0.000000
# 6 0.000000 0.000000 0.000000 -0.054103 0.000000 0.049148
#
#
# Mechanical properties :
#
#
# Convention : Reuss Voigt Hill
#
# Bulk Modulus (GPa) = 50.70038 54.04659 52.37348
# Shear Modulus (GPa) = -47.84560 22.27917 -12.78322
#
# Velocity S-wave (km/s) = -5.26497 3.59273 -2.72142
# Velocity P-wave (km/s) = 2.75427 6.96583 4.52420
#
# Compressibility (1/GPa) = 0.01972372
#
# Stress axis : x y z
#
# Youngs Moduli (GPa) = 94.07369 73.59572 95.83196
#
# Poissons Ratio (x) = 0.17013 0.35685
# Poissons Ratio (y) = 0.21747 0.13695
# Poissons Ratio (z) = 0.35030 0.10518
#
# Static dielectric constant tensor:
#      x y z
#    x 3.306020 0.000000 -0.124680 
#    y 0.000000 2.879230 0.000000 
#    z -0.124680 0.000000 3.366330 
# 
# 
# High freq. dielectric constant tensor:
#      x y z
#    x 1.670310 0.000000 -0.003730 
#    y 0.000000 1.634620 0.000000 
#    z -0.003730 0.000000 1.671720 
# 
# From -- ./inp_files/168074.got.cif
#   From: 2010.06.25/outbox.cif.g09.slc.cpg/sg12_85_cif.got.tgz:168074.got - 2010.06.28 00:19:55.
