data_PCOD8091919
_publ_section_title
;
Structure prediction by ZEFSAII (Michael W. Deem and Ramdas Pophale) SiO2 
 PCOD8091919
Probable space group: C 2/M
;
_chemical_formula_sum "Si O2"
_cell_formula_units_Z 64
_cell_length_a 29.833157
_cell_length_b 9.015417
_cell_length_c 23.649034
_cell_angle_alpha 90.000000
_cell_angle_beta 30.151735
_cell_angle_gamma 90.000000
_cell_volume 3194.879303
_symmetry_space_group_name_H-M "C 2/M"
_symmetry_group_IT_number 12
_symmetry_cell_setting 'monoclinic'
loop_
_space_group_symop_operation_xyz
x,y,z
-x,y,-z
-x,-y,-z
x,-y,z
1/2+x,1/2+y,z
1/2-x,1/2+y,-z
1/2-x,1/2-y,-z
1/2+x,1/2-y,z
loop_
_atom_site_type_symbol
_atom_site_label
_atom_site_fract_x
_atom_site_fract_y
_atom_site_fract_z
Si Si1 0.671796 0.176395 0.740805
Si Si2 0.514459 0.662699 0.419086
Si Si3 0.635564 0.674212 0.501010
Si Si4 0.189866 0.663542 0.224405
Si Si5 0.844991 0.675224 0.113984
Si Si6 0.325597 0.833522 0.885126
Si Si7 0.499549 0.823704 0.861270
Si Si8 0.994685 0.823860 0.744729
O O1 0.765667 0.244845 0.615299
O O2 0.647259 0.236743 0.830376
O O3 0.594853 0.226987 0.781807
O O4 0.676749 0.000000 0.738456
O O5 0.500000 0.637753 0.500000
O O6 0.540401 0.500000 0.364410
O O7 0.425913 0.724232 0.484659
O O8 0.588445 0.786149 0.332208
O O9 0.648477 0.500000 0.485387
O O10 0.588700 0.719626 0.611695
O O11 0.196863 0.500000 0.244353
O O12 0.249682 0.776948 0.193946
O O13 0.218366 0.658287 0.128489
O O14 0.848734 0.500000 0.110535
O O15 0.924406 0.735148 0.987223
O O16 0.417318 0.740851 0.788761
O O17 0.342304 0.000000 0.890599
O O18 0.250000 0.750000 0.000000
O O19 0.487200 0.746995 0.814534
O O20 0.493127 0.000000 0.860502
O O21 0.983584 0.000000 0.761759
#
# Coordination Sequence:
#
# PCOD8091919 Si02
#       8
#     8   8   8   8   8   8   8   8
#     4   9  18  36  61  87 113 145 193 248 296 343
#     4  10  19  34  58  84 111 149 194 233 275 335
#     4   9  18  33  55  84 115 149 191 240 286 335
#     4  11  23  36  53  82 117 150 183 227 288 343
#     4  10  20  36  60  87 115 148 192 242 292 351
#     4  11  23  38  57  82 114 153 194 236 286 341
#     4  10  21  37  60  88 115 148 192 246 300 347
#     4  11  22  37  57  82 117 157 196 238 287 346
#
# _framework density 20.032056000000001
#
# number of rings (size 3 to 8) (size 9 to 14) (size 15 to 20)
#    0.000    1.875    1.250    3.000    0.000    8.250 
#    0.000    0.625    0.000    3.750    0.000    0.000 
#    0.000    0.000    0.000    0.000    0.000    0.000 
#
# Total GULP energy -396664.371005 kJ/mol
# GULP energy per Si atom -12395.761594 kJ/mol
# Density = 1.998646 g / cm^3
# Si number density = 20.032056 Si / 1000 Ang^3
#
#
#
# Elastic Constant Matrix: (Units=GPa)
#
#
# Indices 1 2 3 4 5 6 
#
# 1 86.3518 12.1262 20.6190 0.0061 -0.5922 0.0010
# 2 12.1262 42.9935 21.8053 0.0109 7.0120 -0.0124
# 3 20.6190 21.8053 99.3001 -0.0083 -2.6838 -0.0009
# 4 0.0061 0.0109 -0.0083 22.1892 -0.0039 2.1577
# 5 -0.5922 7.0120 -2.6838 -0.0039 34.6336 0.0021
# 6 0.0010 -0.0124 -0.0009 2.1577 0.0021 20.3136
#
#
#
# Elastic Compliance Matrix: (Units=1/GPa)
#
#
# Indices 1 2 3 4 5 6 
#
# 1 0.012424 -0.002587 -0.001996 -0.000003 0.000581 -0.000002
# 2 -0.002587 0.027911 -0.005758 -0.000018 -0.006141 0.000019
# 3 -0.001996 -0.005758 0.011805 0.000009 0.002046 -0.000004
# 4 -0.000003 -0.000018 0.000009 0.045537 0.000010 -0.004837
# 5 0.000581 -0.006141 0.002046 0.000010 0.030286 -0.000008
# 6 -0.000002 0.000019 -0.000004 -0.004837 -0.000008 0.049742
#
#
# Mechanical properties :
#
#
# Convention : Reuss Voigt Hill
#
# Bulk Modulus (GPa) = 31.78790 37.52738 34.65764
# Shear Modulus (GPa) = 23.93814 27.03363 25.48589
#
# Velocity S-wave (km/s) = 3.46062 3.67756 3.57074
# Velocity P-wave (km/s) = 5.64542 6.06688 5.85994
#
# Compressibility (1/GPa) = 0.03145851
#
# Stress axis : x y z
#
# Youngs Moduli (GPa) = 80.48682 35.82853 84.71258
#
# Poissons Ratio (x) = 0.09268 0.16910
# Poissons Ratio (y) = 0.20820 0.48776
# Poissons Ratio (z) = 0.16066 0.20629
#
# Static dielectric constant tensor:
#      x y z
#    x 3.455190 -0.000060 0.042600 
#    y -0.000060 3.461740 0.000050 
#    z 0.042600 0.000050 3.935480 
# 
# 
# High freq. dielectric constant tensor:
#      x y z
#    x 1.786600 0.000000 0.004080 
#    y 0.000000 1.750860 0.000000 
#    z 0.004080 0.000000 1.792320 
# 
# From -- ./inp_files/353278.got.cif
#   From: 2010.06.25/outbox.cif.g09.slc.cpg/sg12_177_cif.got.tgz:353278.got - 2010.06.28 00:19:55.
