data_PCOD8091187
_publ_section_title
;
Structure prediction by ZEFSAII (Michael W. Deem and Ramdas Pophale) SiO2 
 PCOD8091187
Probable space group: C 2/M
;
_chemical_formula_sum "Si O2"
_cell_formula_units_Z 64
_cell_length_a 20.236464
_cell_length_b 8.739714
_cell_length_c 24.678261
_cell_angle_alpha 90.000000
_cell_angle_beta 126.273650
_cell_angle_gamma 90.000000
_cell_volume 3518.758365
_symmetry_space_group_name_H-M "C 2/M"
_symmetry_group_IT_number 12
_symmetry_cell_setting 'monoclinic'
loop_
_space_group_symop_operation_xyz
x,y,z
-x,y,-z
-x,-y,-z
x,-y,z
1/2+x,1/2+y,z
1/2-x,1/2+y,-z
1/2-x,1/2-y,-z
1/2+x,1/2-y,z
loop_
_atom_site_type_symbol
_atom_site_label
_atom_site_fract_x
_atom_site_fract_y
_atom_site_fract_z
Si Si1 0.224056 0.319149 0.148457
Si Si2 0.385596 0.820978 0.810976
Si Si3 0.135086 0.819080 0.702492
Si Si4 0.203247 0.681239 0.426936
Si Si5 0.471433 0.680931 0.676303
Si Si6 0.035485 0.679909 0.816720
Si Si7 0.748010 0.681978 0.665298
Si Si8 0.280993 0.819985 0.070277
O O1 0.225488 0.500000 0.138435
O O2 0.143050 0.265451 0.143129
O O3 0.303702 0.261851 0.220554
O O4 0.221992 0.234457 0.089999
O O5 0.480026 0.782875 0.843128
O O6 0.327117 0.751842 0.735631
O O7 0.368657 0.000000 0.802049
O O8 0.166477 0.761951 0.658395
O O9 0.043121 0.762800 0.669878
O O10 0.138540 0.000000 0.705380
O O11 0.206137 0.500000 0.431765
O O12 0.250000 0.750000 0.500000
O O13 0.109432 0.733234 0.381906
O O14 0.248700 0.743677 0.394615
O O15 0.457426 0.500000 0.666407
O O16 0.497823 0.725501 0.749326
O O17 0.032288 0.500000 0.801014
O O18 0.126564 0.737550 0.873612
O O19 0.751032 0.500000 0.664697
O O20 0.278233 0.000000 0.063683
O O21 0.250000 0.750000 0.000000
#
# Coordination Sequence:
#
# PCOD8091187 Si02
#       8
#     8   8   8   8   8   8   8   8
#     4   9  16  31  55  79 104 134 171 217 263 310
#     4   8  14  28  54  81 101 128 173 220 259 304
#     4   8  15  28  51  81 105 130 172 217 257 305
#     4  11  22  37  56  77 108 144 180 220 263 315
#     4  11  20  32  54  83 110 135 170 218 266 314
#     4  10  19  34  55  80 105 136 179 222 259 306
#     4   8  14  28  52  77 101 135 174 215 255 301
#     4  11  23  36  53  76 109 145 179 216 265 321
#
# _framework density 18.188233
#
# number of rings (size 3 to 8) (size 9 to 14) (size 15 to 20)
#    0.000    2.500    2.500    2.625    0.000    0.500 
#    0.000    1.875    0.000   10.500    0.000    0.000 
#    0.000    0.000    0.000    0.000    0.000    0.000 
#
# Total GULP energy -396581.462258 kJ/mol
# GULP energy per Si atom -12393.170696 kJ/mol
# Density = 1.814684 g / cm^3
# Si number density = 18.188233 Si / 1000 Ang^3
#
#
#
# Elastic Constant Matrix: (Units=GPa)
#
#
# Indices 1 2 3 4 5 6 
#
# 1 147.9713 22.4385 49.9173 0.0000 -16.1891 0.0000
# 2 22.4385 36.9857 20.8049 0.0000 -1.3447 0.0000
# 3 49.9173 20.8049 88.8844 0.0000 -12.1899 0.0000
# 4 0.0000 0.0000 0.0000 26.8269 0.0000 -1.8302
# 5 -16.1891 -1.3447 -12.1899 0.0000 28.2132 0.0000
# 6 0.0000 0.0000 0.0000 -1.8302 0.0000 23.5028
#
#
#
# Elastic Compliance Matrix: (Units=1/GPa)
#
#
# Indices 1 2 3 4 5 6 
#
# 1 0.008875 -0.003127 -0.003800 0.000000 0.003302 0.000000
# 2 -0.003127 0.032322 -0.006212 0.000000 -0.002938 0.000000
# 3 -0.003800 -0.006212 0.015412 0.000000 0.004183 0.000000
# 4 0.000000 0.000000 0.000000 0.037475 0.000000 0.002918
# 5 0.003302 -0.002938 0.004183 0.000000 0.039006 0.000000
# 6 0.000000 0.000000 0.000000 0.002918 0.000000 0.042775
#
#
# Mechanical properties :
#
#
# Convention : Reuss Voigt Hill
#
# Bulk Modulus (GPa) = 32.96875 51.12921 42.04898
# Shear Modulus (GPa) = 23.55656 27.75396 25.65526
#
# Velocity S-wave (km/s) = 3.60273 3.91055 3.75979
# Velocity P-wave (km/s) = 5.95584 6.96865 6.48205
#
# Compressibility (1/GPa) = 0.03033175
#
# Stress axis : x y z
#
# Youngs Moduli (GPa) = 112.67249 30.93838 64.88405
#
# Poissons Ratio (x) = 0.09675 0.24653
# Poissons Ratio (y) = 0.35234 0.40308
# Poissons Ratio (z) = 0.42810 0.19220
#
# Static dielectric constant tensor:
#      x y z
#    x 3.814880 0.000000 -0.155840 
#    y 0.000000 3.072470 0.000000 
#    z -0.155840 0.000000 3.136400 
# 
# 
# High freq. dielectric constant tensor:
#      x y z
#    x 1.728920 0.000000 -0.007340 
#    y 0.000000 1.672070 0.000000 
#    z -0.007340 0.000000 1.674760 
# 
# From -- ./inp_files/365216.got.cif
#   From: 2010.06.25/outbox.cif.g09.slc.cpg/sg12_183_cif.got.tgz:365216.got - 2010.06.28 00:19:55.
