data_PCOD8091112
_publ_section_title
;
Structure prediction by ZEFSAII (Michael W. Deem and Ramdas Pophale) SiO2 
 PCOD8091112
Probable space group: C 2/M
;
_chemical_formula_sum "Si O2"
_cell_formula_units_Z 56
_cell_length_a 24.440694
_cell_length_b 14.695411
_cell_length_c 16.323241
_cell_angle_alpha 90.000000
_cell_angle_beta 30.497770
_cell_angle_gamma 90.000000
_cell_volume 2975.375898
_symmetry_space_group_name_H-M "C 2/M"
_symmetry_group_IT_number 12
_symmetry_cell_setting 'monoclinic'
loop_
_space_group_symop_operation_xyz
x,y,z
-x,y,-z
-x,-y,-z
x,-y,z
1/2+x,1/2+y,z
1/2-x,1/2+y,-z
1/2-x,1/2-y,-z
1/2+x,1/2-y,z
loop_
_atom_site_type_symbol
_atom_site_label
_atom_site_fract_x
_atom_site_fract_y
_atom_site_fract_z
Si Si1 0.904962 0.766901 0.177955
Si Si2 0.310188 0.690636 0.604335
Si Si3 0.815255 0.897361 0.424689
Si Si4 0.677319 0.605600 0.236317
Si Si5 0.885237 0.396165 0.860726
Si Si6 0.527403 0.763901 0.377188
Si Si7 0.427568 0.897599 0.255814
O O1 0.793920 0.756113 0.270699
O O2 0.890602 0.831674 0.274852
O O3 0.947603 0.669164 0.153940
O O4 0.000000 0.809364 0.000000
O O5 0.321898 0.623882 0.512247
O O6 0.297094 0.631022 0.703062
O O7 0.416899 0.752414 0.469677
O O8 0.692417 0.882946 0.553368
O O9 0.854701 0.000000 0.359185
O O10 0.644172 0.500000 0.273239
O O11 0.580107 0.664764 0.324728
O O12 0.782343 0.627563 0.047714
O O13 0.881208 0.500000 0.834726
O O14 0.889748 0.329860 0.776637
O O15 0.991195 0.376747 0.776382
O O16 0.500000 0.809738 0.500000
O O17 0.442708 0.000000 0.202541
#
# Coordination Sequence:
#
# PCOD8091112 Si02
#       7
#     8   8   8   8   8   8   8
#     4  11  21  33  52  78 108 136 166 208 254 304
#     4  10  20  35  55  75 101 135 172 212 257 300
#     4  10  20  34  53  76 104 139 174 205 243 302
#     4  10  21  35  54  80 104 129 167 215 263 302
#     4  10  19  34  55  77 105 136 166 209 258 301
#     4  10  21  35  53  75 103 138 174 210 248 300
#     4   9  18  33  54  78 102 131 169 212 256 299
#
# _framework density 18.821151
#
# number of rings (size 3 to 8) (size 9 to 14) (size 15 to 20)
#    0.000    2.000    0.000    5.143    0.000    4.571 
#    0.000    0.000    0.000    0.857    0.000    0.000 
#    0.000    0.000    0.000    0.000    0.000    0.000 
#
# Total GULP energy -347239.372489 kJ/mol
# GULP energy per Si atom -12401.406160 kJ/mol
# Density = 1.877831 g / cm^3
# Si number density = 18.821151 Si / 1000 Ang^3
#
#
#
# Elastic Constant Matrix: (Units=GPa)
#
#
# Indices 1 2 3 4 5 6 
#
# 1 85.3459 47.1848 51.1060 0.0000 2.1603 0.0000
# 2 47.1848 78.2568 56.9922 0.0000 7.2143 0.0000
# 3 51.1060 56.9922 125.8905 0.0000 16.2343 0.0000
# 4 0.0000 0.0000 0.0000 24.4042 0.0000 4.4000
# 5 2.1603 7.2143 16.2343 0.0000 23.1200 0.0000
# 6 0.0000 0.0000 0.0000 4.4000 0.0000 21.2683
#
#
#
# Elastic Compliance Matrix: (Units=1/GPa)
#
#
# Indices 1 2 3 4 5 6 
#
# 1 0.018987 -0.008695 -0.004281 0.000000 0.003945 0.000000
# 2 -0.008695 0.023045 -0.006686 0.000000 -0.001684 0.000000
# 3 -0.004281 -0.006686 0.013621 0.000000 -0.007078 0.000000
# 4 0.000000 0.000000 0.000000 0.042564 0.000000 -0.008806
# 5 0.003945 -0.001684 -0.007078 0.000000 0.048379 0.000000
# 6 0.000000 0.000000 0.000000 -0.008806 0.000000 0.048840
#
#
# Mechanical properties :
#
#
# Convention : Reuss Voigt Hill
#
# Bulk Modulus (GPa) = 61.23385 66.67326 63.95355
# Shear Modulus (GPa) = 20.81566 22.70583 21.76074
#
# Velocity S-wave (km/s) = 3.32922 3.47709 3.40396
# Velocity P-wave (km/s) = 6.88357 7.18483 7.03581
#
# Compressibility (1/GPa) = 0.01633084
#
# Stress axis : x y z
#
# Youngs Moduli (GPa) = 52.66650 43.39251 73.41719
#
# Poissons Ratio (x) = 0.37728 0.31427
# Poissons Ratio (y) = 0.45792 0.49088
# Poissons Ratio (z) = 0.22544 0.29013
#
# Static dielectric constant tensor:
#      x y z
#    x 3.384780 0.000000 -0.078850 
#    y 0.000000 3.362640 0.000000 
#    z -0.078850 0.000000 3.507160 
# 
# 
# High freq. dielectric constant tensor:
#      x y z
#    x 1.727180 0.000000 -0.002700 
#    y 0.000000 1.723610 0.000000 
#    z -0.002700 0.000000 1.735570 
# 
# From -- ./inp_files/225388.got.cif
#   From: 2010.06.25/outbox.cif.g09.slc.cpg/sg12_113_cif.got.tgz:225388.got - 2010.06.28 00:19:55.
