data_PCOD8091436
_publ_section_title
;
Structure prediction by ZEFSAII (Michael W. Deem and Ramdas Pophale) SiO2 
 PCOD8091436
Probable space group: C 2/M
;
_chemical_formula_sum "Si O2"
_cell_formula_units_Z 64
_cell_length_a 25.564976
_cell_length_b 9.228390
_cell_length_c 31.862097
_cell_angle_alpha 90.000000
_cell_angle_beta 153.830631
_cell_angle_gamma 90.000000
_cell_volume 3315.201890
_symmetry_space_group_name_H-M "C 2/M"
_symmetry_group_IT_number 12
_symmetry_cell_setting 'monoclinic'
loop_
_space_group_symop_operation_xyz
x,y,z
-x,y,-z
-x,-y,-z
x,-y,z
1/2+x,1/2+y,z
1/2-x,1/2+y,-z
1/2-x,1/2-y,-z
1/2+x,1/2-y,z
loop_
_atom_site_type_symbol
_atom_site_label
_atom_site_fract_x
_atom_site_fract_y
_atom_site_fract_z
Si Si1 0.944274 0.666469 0.415958
Si Si2 0.480861 0.338484 0.363959
Si Si3 0.203780 0.661031 0.149725
Si Si4 0.036404 0.333337 0.788609
Si Si5 0.491716 0.830816 0.136670
Si Si6 0.831052 0.167905 0.795341
Si Si7 0.235904 0.669333 0.080353
Si Si8 0.128651 0.667748 0.405106
O O1 0.972078 0.500000 0.424964
O O2 0.010739 0.766928 0.430143
O O3 0.804005 0.694162 0.315529
O O4 0.000000 0.712335 0.500000
O O5 0.537327 0.500000 0.402489
O O6 0.341731 0.346880 0.258432
O O7 0.529278 0.235911 0.362822
O O8 0.147632 0.500000 0.113200
O O9 0.140739 0.763309 0.138603
O O10 0.186936 0.723655 0.090447
O O11 0.076739 0.500000 0.818726
O O12 0.008428 0.278133 0.815270
O O13 0.143123 0.246057 0.844898
O O14 0.916475 0.312997 0.675157
O O15 0.590535 0.741185 0.183755
O O16 0.522660 0.000000 0.154700
O O17 0.362338 0.795929 0.025089
O O18 0.863511 0.000000 0.821511
O O19 0.265209 0.500000 0.105110
O O20 0.145870 0.500000 0.428970
O O21 0.250000 0.750000 0.500000
#
# Coordination Sequence:
#
# PCOD8091436 Si02
#       8
#     8   8   8   8   8   8   8   8
#     4   9  19  36  57  81 110 145 189 235 284 342
#     4  10  19  34  56  81 110 143 184 231 280 336
#     4   9  18  34  57  82 109 144 184 227 277 335
#     4  10  22  39  59  84 115 150 189 237 288 335
#     4  10  22  39  57  81 117 155 188 230 285 343
#     4  10  21  36  55  81 112 148 189 234 286 334
#     4  10  20  36  61  87 111 148 193 231 279 343
#     4  11  23  38  57  83 114 148 188 234 287 339
#
# _framework density 19.305008000000001
#
# number of rings (size 3 to 8) (size 9 to 14) (size 15 to 20)
#    0.000    2.125    1.250    1.500    0.000    4.750 
#    0.000    5.000    0.000    0.000    0.000    0.000 
#    0.000    0.000    0.000    0.000    0.000    0.000 
#
# Total GULP energy -396846.514431 kJ/mol
# GULP energy per Si atom -12401.453576 kJ/mol
# Density = 1.926107 g / cm^3
# Si number density = 19.305008 Si / 1000 Ang^3
#
#
#
# Elastic Constant Matrix: (Units=GPa)
#
#
# Indices 1 2 3 4 5 6 
#
# 1 133.6030 63.4791 50.6685 -0.0023 -23.8166 -0.0003
# 2 63.4791 99.5595 40.0108 -0.0020 -9.7550 -0.0007
# 3 50.6685 40.0108 68.6587 -0.0060 -23.1425 -0.0014
# 4 -0.0023 -0.0020 -0.0060 17.7449 -0.0008 0.9328
# 5 -23.8166 -9.7550 -23.1425 -0.0008 30.5728 -0.0001
# 6 -0.0003 -0.0007 -0.0014 0.9328 -0.0001 38.5231
#
#
#
# Elastic Compliance Matrix: (Units=1/GPa)
#
#
# Indices 1 2 3 4 5 6 
#
# 1 0.012826 -0.005945 -0.004393 0.000000 0.004769 0.000000
# 2 -0.005945 0.015977 -0.006399 -0.000001 -0.004377 0.000000
# 3 -0.004393 -0.006399 0.026440 0.000008 0.014550 0.000001
# 4 0.000000 -0.000001 0.000008 0.056426 0.000007 -0.001366
# 5 0.004769 -0.004377 0.014550 0.000007 0.046041 0.000000
# 6 0.000000 0.000000 0.000001 -0.001366 0.000000 0.025992
#
#
# Mechanical properties :
#
#
# Convention : Reuss Voigt Hill
#
# Bulk Modulus (GPa) = 45.93633 67.79311 56.86472
# Shear Modulus (GPa) = 22.27836 27.21234 24.74535
#
# Velocity S-wave (km/s) = 3.40077 3.75854 3.58412
# Velocity P-wave (km/s) = 6.26634 7.35041 6.82992
#
# Compressibility (1/GPa) = 0.02176926
#
# Stress axis : x y z
#
# Youngs Moduli (GPa) = 77.96831 62.58829 37.82107
#
# Poissons Ratio (x) = 0.37208 0.16616
# Poissons Ratio (y) = 0.46351 0.24202
# Poissons Ratio (z) = 0.34253 0.40050
#
# Static dielectric constant tensor:
#      x y z
#    x 3.759760 0.000000 -0.249320 
#    y 0.000000 3.697350 0.000000 
#    z -0.249320 0.000000 3.488910 
# 
# 
# High freq. dielectric constant tensor:
#      x y z
#    x 1.757310 0.000000 -0.012740 
#    y 0.000000 1.752350 0.000000 
#    z -0.012740 0.000000 1.747060 
# 
# From -- ./inp_files/382280.got.cif
#   From: 2010.06.25/outbox.cif.g09.slc.cpg/sg12_192_cif.got.tgz:382280.got - 2010.06.28 00:19:55.
