data_PCOD8091893
_publ_section_title
;
Structure prediction by ZEFSAII (Michael W. Deem and Ramdas Pophale) SiO2 
 PCOD8091893
Probable space group: C 2/M
;
_chemical_formula_sum "Si O2"
_cell_formula_units_Z 64
_cell_length_a 30.677222
_cell_length_b 9.121318
_cell_length_c 25.163962
_cell_angle_alpha 90.000000
_cell_angle_beta 27.494446
_cell_angle_gamma 90.000000
_cell_volume 3250.703557
_symmetry_space_group_name_H-M "C 2/M"
_symmetry_group_IT_number 12
_symmetry_cell_setting 'monoclinic'
loop_
_space_group_symop_operation_xyz
x,y,z
-x,y,-z
-x,-y,-z
x,-y,z
1/2+x,1/2+y,z
1/2-x,1/2+y,-z
1/2-x,1/2-y,-z
1/2+x,1/2-y,z
loop_
_atom_site_type_symbol
_atom_site_label
_atom_site_fract_x
_atom_site_fract_y
_atom_site_fract_z
Si Si1 0.107262 0.328144 0.894528
Si Si2 0.814109 0.166696 0.389583
Si Si3 0.995580 0.167109 0.256725
Si Si4 0.575944 0.667257 0.551421
Si Si5 0.431767 0.669236 0.618313
Si Si6 0.227262 0.327211 0.864255
Si Si7 0.816900 0.326096 0.969977
Si Si8 0.739050 0.673405 0.668444
O O1 0.118719 0.500000 0.870908
O O2 0.140555 0.288464 0.918557
O O3 0.174163 0.240754 0.783348
O O4 0.000000 0.277127 0.000000
O O5 0.750000 0.250000 0.500000
O O6 0.800658 0.229782 0.345127
O O7 0.923840 0.181863 0.285417
O O8 0.779889 0.000000 0.428619
O O9 0.077019 0.282877 0.158682
O O10 0.941180 0.212044 0.369260
O O11 0.034462 0.000000 0.219548
O O12 0.611541 0.500000 0.508588
O O13 0.478041 0.688904 0.626091
O O14 0.654323 0.770208 0.440104
O O15 0.500000 0.744087 0.500000
O O16 0.420003 0.500000 0.614963
O O17 0.326577 0.740186 0.734679
O O18 0.240030 0.500000 0.855481
O O19 0.205991 0.265505 0.946102
O O20 0.805064 0.500000 0.978884
O O21 0.750000 0.250000 0.000000
O O22 0.736898 0.500000 0.676392
#
# Coordination Sequence:
#
# PCOD8091893 Si02
#       8
#     8   8   8   8   8   8   8   8
#     4  10  22  40  63  87 112 150 203 251 289 342
#     4  10  21  37  57  84 118 156 195 242 294 353
#     4  10  21  37  57  83 114 151 199 244 290 349
#     4  10  19  34  58  83 109 150 193 236 285 344
#     4   9  16  28  53  83 107 135 179 234 287 333
#     4   9  19  37  58  85 117 150 195 246 290 343
#     4  11  23  39  61  87 120 159 197 244 297 352
#     4  11  23  37  56  85 121 155 188 238 302 357
#
# _framework density 19.688046
#
# number of rings (size 3 to 8) (size 9 to 14) (size 15 to 20)
#    0.000    2.000    1.250    2.250    1.750    5.750 
#    0.000    1.250    0.000    3.375    0.000    0.000 
#    0.000    0.000    0.000    0.000    0.000    0.000 
#
# Total GULP energy -396817.303645 kJ/mol
# GULP energy per Si atom -12400.540739 kJ/mol
# Density = 1.964324 g / cm^3
# Si number density = 19.688046 Si / 1000 Ang^3
#
#
#
# Elastic Constant Matrix: (Units=GPa)
#
#
# Indices 1 2 3 4 5 6 
#
# 1 123.5173 32.5657 57.3353 0.0067 0.4956 -0.0027
# 2 32.5657 46.4385 39.7746 -0.0005 2.4783 0.0022
# 3 57.3353 39.7746 129.0024 0.0268 -2.9597 -0.0057
# 4 0.0067 -0.0005 0.0268 32.3140 0.0014 -0.0371
# 5 0.4956 2.4783 -2.9597 0.0014 35.2408 -0.0012
# 6 -0.0027 0.0022 -0.0057 -0.0371 -0.0012 22.0262
#
#
#
# Elastic Compliance Matrix: (Units=1/GPa)
#
#
# Indices 1 2 3 4 5 6 
#
# 1 0.010924 -0.004748 -0.003393 0.000001 -0.000105 0.000001
# 2 -0.004748 0.031608 -0.007699 0.000008 -0.002803 -0.000006
# 3 -0.003393 -0.007699 0.011670 -0.000009 0.001569 0.000003
# 4 0.000001 0.000008 -0.000009 0.030946 -0.000003 0.000052
# 5 -0.000105 -0.002803 0.001569 -0.000003 0.028707 0.000002
# 6 0.000001 -0.000006 0.000003 0.000052 0.000002 0.045401
#
#
# Mechanical properties :
#
#
# Convention : Reuss Voigt Hill
#
# Bulk Modulus (GPa) = 44.40665 62.03438 53.22051
# Shear Modulus (GPa) = 25.19613 29.20170 27.19892
#
# Velocity S-wave (km/s) = 3.58127 3.85544 3.72088
# Velocity P-wave (km/s) = 6.30117 7.16912 6.74911
#
# Compressibility (1/GPa) = 0.02251915
#
# Stress axis : x y z
#
# Youngs Moduli (GPa) = 91.54572 31.63777 85.69067
#
# Poissons Ratio (x) = 0.15023 0.29078
# Poissons Ratio (y) = 0.43469 0.65976
# Poissons Ratio (z) = 0.31065 0.24359
#
# Static dielectric constant tensor:
#      x y z
#    x 3.966800 -0.000050 -0.018830 
#    y -0.000050 3.272760 0.000070 
#    z -0.018830 0.000070 3.647650 
# 
# 
# High freq. dielectric constant tensor:
#      x y z
#    x 1.786370 0.000000 -0.000900 
#    y 0.000000 1.731290 0.000000 
#    z -0.000900 0.000000 1.771060 
# 
# From -- ./inp_files/353358.got.cif
#   From: 2010.06.25/outbox.cif.g09.slc.cpg/sg12_177_cif.got.tgz:353358.got - 2010.06.28 00:19:55.
