data_PCOD8091105
_publ_section_title
;
Structure prediction by ZEFSAII (Michael W. Deem and Ramdas Pophale) SiO2 
 PCOD8091105
Probable space group: C 2/M
;
_chemical_formula_sum "Si O2"
_cell_formula_units_Z 64
_cell_length_a 19.942571
_cell_length_b 9.144411
_cell_length_c 31.218916
_cell_angle_alpha 90.000000
_cell_angle_beta 37.093505
_cell_angle_gamma 90.000000
_cell_volume 3433.655217
_symmetry_space_group_name_H-M "C 2/M"
_symmetry_group_IT_number 12
_symmetry_cell_setting 'monoclinic'
loop_
_space_group_symop_operation_xyz
x,y,z
-x,y,-z
-x,-y,-z
x,-y,z
1/2+x,1/2+y,z
1/2-x,1/2+y,-z
1/2-x,1/2-y,-z
1/2+x,1/2-y,z
loop_
_atom_site_type_symbol
_atom_site_label
_atom_site_fract_x
_atom_site_fract_y
_atom_site_fract_z
Si Si1 0.815005 0.168746 0.143124
Si Si2 0.174397 0.673001 0.427598
Si Si3 0.455855 0.828832 0.830670
Si Si4 0.043277 0.326810 0.412771
Si Si5 0.790883 0.169288 0.055967
Si Si6 0.081315 0.673726 0.298783
Si Si7 0.012462 0.328536 0.089078
Si Si8 0.595968 0.173806 0.680023
O O1 0.826389 0.188814 0.086820
O O2 0.696423 0.229444 0.219639
O O3 0.909908 0.263445 0.116074
O O4 0.831239 0.000000 0.147987
O O5 0.193819 0.500000 0.419679
O O6 0.138195 0.722778 0.398097
O O7 0.284419 0.754737 0.386123
O O8 0.077989 0.723557 0.509463
O O9 0.332027 0.763927 0.888387
O O10 0.505193 0.792016 0.851929
O O11 0.538888 0.764959 0.752544
O O12 0.444457 0.000000 0.827820
O O13 0.044079 0.500000 0.410048
O O14 0.068078 0.259477 0.353290
O O15 0.797203 0.000000 0.038925
O O16 0.872167 0.259950 0.984547
O O17 0.082741 0.500000 0.299252
O O18 0.978880 0.726464 0.321794
O O19 0.018227 0.500000 0.077670
O O20 0.609640 0.000000 0.674035
#
# Coordination Sequence:
#
# PCOD8091105 Si02
#       8
#     8   8   8   8   8   8   8   8
#     4  10  20  35  56  79 100 130 177 221 249 291
#     4   9  18  33  53  79 109 138 166 206 256 302
#     4   9  19  36  54  74 103 136 170 211 259 304
#     4   8  16  32  53  77 107 139 171 206 248 299
#     4  10  19  37  59  75  97 133 177 217 249 296
#     4   9  17  32  55  77  98 135 181 214 244 295
#     4  11  23  35  51  77 107 136 164 206 268 319
#     4  10  19  34  55  77 102 135 173 214 256 298
#
# _framework density 18.639030000000002
#
# number of rings (size 3 to 8) (size 9 to 14) (size 15 to 20)
#    0.000    2.500    1.250    1.875    1.750    2.500 
#    0.000    3.750    0.000    1.500    0.000    0.000 
#    0.000    0.000    0.000    0.000    0.000    0.000 
#
# Total GULP energy -396782.262937 kJ/mol
# GULP energy per Si atom -12399.445717 kJ/mol
# Density = 1.859661 g / cm^3
# Si number density = 18.639030 Si / 1000 Ang^3
#
#
#
# Elastic Constant Matrix: (Units=GPa)
#
#
# Indices 1 2 3 4 5 6 
#
# 1 32.8133 15.5882 -4.4041 -0.0007 -5.4022 -0.0024
# 2 15.5882 34.0642 11.1509 -0.0020 -0.6900 0.0049
# 3 -4.4041 11.1509 62.8750 0.0002 -0.1027 0.0003
# 4 -0.0007 -0.0020 0.0002 24.4481 -0.0005 -4.3443
# 5 -5.4022 -0.6900 -0.1027 -0.0005 39.9466 0.0000
# 6 -0.0024 0.0049 0.0003 -4.3443 0.0000 16.5332
#
#
#
# Elastic Compliance Matrix: (Units=1/GPa)
#
#
# Indices 1 2 3 4 5 6 
#
# 1 0.042533 -0.021586 0.006816 0.000002 0.005397 0.000013
# 2 -0.021586 0.042131 -0.008988 0.000000 -0.002215 -0.000016
# 3 0.006816 -0.008988 0.017977 0.000000 0.000813 0.000003
# 4 0.000002 0.000000 0.000000 0.042906 0.000001 0.011274
# 5 0.005397 -0.002215 0.000813 0.000001 0.025727 0.000002
# 6 0.000013 -0.000016 0.000003 0.011274 0.000002 0.063447
#
#
# Mechanical properties :
#
#
# Convention : Reuss Voigt Hill
#
# Bulk Modulus (GPa) = 18.13964 19.38029 18.75997
# Shear Modulus (GPa) = 16.63272 23.34674 19.98973
#
# Velocity S-wave (km/s) = 2.99048 3.54301 3.27841
# Velocity P-wave (km/s) = 4.65587 5.21128 4.94139
#
# Compressibility (1/GPa) = 0.05512787
#
# Stress axis : x y z
#
# Youngs Moduli (GPa) = 23.51104 23.73526 55.62571
#
# Poissons Ratio (x) = 0.51234 -0.37916
# Poissons Ratio (y) = 0.50750 0.49994
# Poissons Ratio (z) = -0.16026 0.21332
#
# Static dielectric constant tensor:
#      x y z
#    x 3.585570 -0.000010 0.165200 
#    y -0.000010 2.981740 0.000000 
#    z 0.165200 0.000000 3.687930 
# 
# 
# High freq. dielectric constant tensor:
#      x y z
#    x 1.737060 0.000000 0.000870 
#    y 0.000000 1.677310 0.000000 
#    z 0.000870 0.000000 1.734740 
# 
# From -- ./inp_files/378233.got.cif
#   From: 2010.06.25/outbox.cif.g09.slc.cpg/sg12_190_cif.got.tgz:378233.got - 2010.06.28 00:19:55.
