data_PCOD8091655
_publ_section_title
;
Structure prediction by ZEFSAII (Michael W. Deem and Ramdas Pophale) SiO2 
 PCOD8091655
Probable space group: C 2/M
;
_chemical_formula_sum "Si O2"
_cell_formula_units_Z 56
_cell_length_a 14.472672
_cell_length_b 8.799711
_cell_length_c 30.040996
_cell_angle_alpha 90.000000
_cell_angle_beta 127.324811
_cell_angle_gamma 90.000000
_cell_volume 3042.382620
_symmetry_space_group_name_H-M "C 2/M"
_symmetry_group_IT_number 12
_symmetry_cell_setting 'monoclinic'
loop_
_space_group_symop_operation_xyz
x,y,z
-x,y,-z
-x,-y,-z
x,-y,z
1/2+x,1/2+y,z
1/2-x,1/2+y,-z
1/2-x,1/2-y,-z
1/2+x,1/2-y,z
loop_
_atom_site_type_symbol
_atom_site_label
_atom_site_fract_x
_atom_site_fract_y
_atom_site_fract_z
Si Si1 0.158407 0.327160 0.941589
Si Si2 0.442189 0.826318 0.937741
Si Si3 0.451917 0.818857 0.268043
Si Si4 0.331365 0.819427 0.560907
Si Si5 0.797548 0.320726 0.142094
Si Si6 0.422522 0.681606 0.353472
Si Si7 0.787834 0.678488 0.647499
O O1 0.199055 0.500000 0.950061
O O2 0.158679 0.253812 0.892439
O O3 0.030164 0.311426 0.922903
O O4 0.250000 0.250000 0.000000
O O5 0.335265 0.726077 0.890623
O O6 0.402751 0.000000 0.934427
O O7 0.500000 0.762118 0.000000
O O8 0.376468 0.755143 0.204846
O O9 0.401470 0.739678 0.297327
O O10 0.585289 0.768793 0.297973
O O11 0.443206 0.000000 0.271981
O O12 0.250000 0.750000 0.500000
O O13 0.459290 0.750173 0.592175
O O14 0.276803 0.771904 0.592663
O O15 0.339809 0.000000 0.558659
O O16 0.809202 0.500000 0.146677
O O17 0.429662 0.500000 0.356186
O O18 0.316259 0.746061 0.352861
O O19 0.778853 0.500000 0.648751
#
# Coordination Sequence:
#
# PCOD8091655 Si02
#       7
#     8   8   8   8   8   8   8
#     4  10  20  34  52  74 100 133 168 206 255 314
#     4  10  20  34  52  75 102 131 164 210 262 309
#     4   9  19  37  54  74 105 138 174 218 266 314
#     4  10  20  36  55  80 114 149 180 219 262 307
#     4  10  21  35  54  77 102 136 175 213 259 320
#     4  10  19  34  57  82 104 139 184 221 261 311
#     4   8  17  34  56  76 103 143 179 212 259 315
#
# _framework density 18.406627
#
# number of rings (size 3 to 8) (size 9 to 14) (size 15 to 20)
#    0.000    2.429    1.429    1.714    0.000    3.143 
#    0.000   12.857    0.000    0.000    0.000    0.000 
#    0.000    0.000    0.000    0.000    0.000    0.000 
#
# Total GULP energy -347142.584629 kJ/mol
# GULP energy per Si atom -12397.949451 kJ/mol
# Density = 1.836473 g / cm^3
# Si number density = 18.406627 Si / 1000 Ang^3
#
#
#
# Elastic Constant Matrix: (Units=GPa)
#
#
# Indices 1 2 3 4 5 6 
#
# 1 150.3570 30.6839 80.5143 0.0000 -2.3448 0.0000
# 2 30.6839 37.5991 34.5765 0.0000 -1.3927 0.0000
# 3 80.5143 34.5765 187.5845 0.0000 -1.6919 0.0000
# 4 0.0000 0.0000 0.0000 29.7885 0.0000 1.5083
# 5 -2.3448 -1.3927 -1.6919 0.0000 19.9371 0.0000
# 6 0.0000 0.0000 0.0000 1.5083 0.0000 27.1700
#
#
#
# Elastic Compliance Matrix: (Units=1/GPa)
#
#
# Indices 1 2 3 4 5 6 
#
# 1 0.009285 -0.004694 -0.003116 0.000000 0.000500 0.000000
# 2 -0.004694 0.034458 -0.004323 0.000000 0.001488 0.000000
# 3 -0.003116 -0.004323 0.007465 0.000000 -0.000035 0.000000
# 4 0.000000 0.000000 0.000000 0.033665 0.000000 -0.001869
# 5 0.000500 0.001488 -0.000035 0.000000 0.050317 0.000000
# 6 0.000000 0.000000 0.000000 -0.001869 0.000000 0.036909
#
#
# Mechanical properties :
#
#
# Convention : Reuss Voigt Hill
#
# Bulk Modulus (GPa) = 37.11647 74.12111 55.61879
# Shear Modulus (GPa) = 24.34936 30.69685 27.52310
#
# Velocity S-wave (km/s) = 3.64106 4.08819 3.87108
# Velocity P-wave (km/s) = 6.15507 7.91457 7.08962
#
# Compressibility (1/GPa) = 0.02694222
#
# Stress axis : x y z
#
# Youngs Moduli (GPa) = 107.70302 29.02107 133.96254
#
# Poissons Ratio (x) = 0.13621 0.41737
# Poissons Ratio (y) = 0.50551 0.57918
# Poissons Ratio (z) = 0.33555 0.12547
#
# Static dielectric constant tensor:
#      x y z
#    x 3.438380 0.000000 0.001780 
#    y 0.000000 3.240610 0.000000 
#    z 0.001780 0.000000 3.624280 
# 
# 
# High freq. dielectric constant tensor:
#      x y z
#    x 1.721970 0.000000 -0.002900 
#    y 0.000000 1.696060 0.000000 
#    z -0.002900 0.000000 1.718100 
# 
# From -- ./inp_files/338177.got.cif
#   From: 2010.06.25/outbox.cif.g09.slc.cpg/sg12_170_cif.got.tgz:338177.got - 2010.06.28 00:19:55.
