data_PCOD8091292
_publ_section_title
;
Structure prediction by ZEFSAII (Michael W. Deem and Ramdas Pophale) SiO2 
 PCOD8091292
Probable space group: C 2/M
;
_chemical_formula_sum "Si O2"
_cell_formula_units_Z 56
_cell_length_a 11.619255
_cell_length_b 21.043284
_cell_length_c 12.703645
_cell_angle_alpha 90.000000
_cell_angle_beta 69.974177
_cell_angle_gamma 90.000000
_cell_volume 2918.331838
_symmetry_space_group_name_H-M "C 2/M"
_symmetry_group_IT_number 12
_symmetry_cell_setting 'monoclinic'
loop_
_space_group_symop_operation_xyz
x,y,z
-x,y,-z
-x,-y,-z
x,-y,z
1/2+x,1/2+y,z
1/2-x,1/2+y,-z
1/2-x,1/2-y,-z
1/2+x,1/2-y,z
loop_
_atom_site_type_symbol
_atom_site_label
_atom_site_fract_x
_atom_site_fract_y
_atom_site_fract_z
Si Si1 0.032053 0.719312 0.318439
Si Si2 0.359733 0.680686 0.052398
Si Si3 0.249921 0.366482 0.293130
Si Si4 0.659660 0.000000 0.368461
Si Si5 0.151521 0.804218 0.540362
Si Si6 0.195894 0.366040 0.676564
Si Si7 0.726771 0.301424 0.142023
Si Si8 0.399973 0.000000 0.368010
O O1 0.118707 0.668697 0.350532
O O2 0.110015 0.756716 0.206168
O O3 0.983647 0.771499 0.419218
O O4 0.916052 0.682597 0.306134
O O5 0.297418 0.637108 0.159757
O O6 0.342439 0.754546 0.089908
O O7 0.500000 0.663020 0.000000
O O8 0.297918 0.663317 0.960023
O O9 0.242093 0.439671 0.321636
O O10 0.344170 0.336002 0.345670
O O11 0.547193 0.000000 0.320699
O O12 0.628371 0.000000 0.500510
O O13 0.250000 0.750000 0.500000
O O14 0.186611 0.853984 0.437187
O O15 0.243780 0.354505 0.779828
O O16 0.152432 0.438281 0.675237
#
# Coordination Sequence:
#
# PCOD8091292 Si02
#       8
#     8   8   8   4   8   8   8   4
#     4  10  19  34  55  86 120 145 189 237 295 349
#     4  10  20  38  60  87 113 151 196 240 297 340
#     4  11  21  36  58  85 112 151 202 238 279 344
#     4  11  22  40  60  82 115 164 201 234 277 339
#     4  10  20  30  52  85 118 144 181 240 294 340
#     4  11  21  35  54  88 120 153 190 232 292 349
#     4  10  21  35  58  87 120 154 181 241 297 353
#     4  11  22  38  61  79 123 163 191 237 276 348
#
# _framework density 19.189043999999999
#
# number of rings (size 3 to 8) (size 9 to 14) (size 15 to 20)
#    0.000    1.571    2.857    5.143    0.000    5.143 
#    0.000    1.071    0.000    5.143    0.000    0.000 
#    0.000    0.000    0.000    0.000    0.000    0.000 
#
# Total GULP energy -347062.138889 kJ/mol
# GULP energy per Si atom -12395.076389 kJ/mol
# Density = 1.914537 g / cm^3
# Si number density = 19.189044 Si / 1000 Ang^3
#
#
#
# Elastic Constant Matrix: (Units=GPa)
#
#
# Indices 1 2 3 4 5 6 
#
# 1 63.5836 35.7677 39.5763 0.0000 -4.8982 0.0000
# 2 35.7677 110.4355 43.6380 0.0000 6.4353 0.0000
# 3 39.5763 43.6380 109.4639 0.0000 20.1072 0.0000
# 4 0.0000 0.0000 0.0000 27.3442 0.0000 -5.9520
# 5 -4.8982 6.4353 20.1072 0.0000 34.3669 0.0000
# 6 0.0000 0.0000 0.0000 -5.9520 0.0000 59.4336
#
#
#
# Elastic Compliance Matrix: (Units=1/GPa)
#
#
# Indices 1 2 3 4 5 6 
#
# 1 0.024744 -0.005154 -0.008645 0.000000 0.009550 0.000000
# 2 -0.005154 0.011831 -0.002589 0.000000 -0.001435 0.000000
# 3 -0.008645 -0.002589 0.015048 0.000000 -0.009552 0.000000
# 4 0.000000 0.000000 0.000000 0.037386 0.000000 0.003744
# 5 0.009550 -0.001435 -0.009552 0.000000 0.036316 0.000000
# 6 0.000000 0.000000 0.000000 0.003744 0.000000 0.017200
#
#
# Mechanical properties :
#
#
# Convention : Reuss Voigt Hill
#
# Bulk Modulus (GPa) = 53.06576 57.93855 55.50215
# Shear Modulus (GPa) = 27.53535 35.19568 31.36552
#
# Velocity S-wave (km/s) = 3.79219 4.28735 4.04735
# Velocity P-wave (km/s) = 6.84751 7.40051 7.12938
#
# Compressibility (1/GPa) = 0.01884454
#
# Stress axis : x y z
#
# Youngs Moduli (GPa) = 40.41448 84.52203 66.45419
#
# Poissons Ratio (x) = 0.43565 0.57453
# Poissons Ratio (y) = 0.20831 0.17208
# Poissons Ratio (z) = 0.34940 0.21887
#
# Static dielectric constant tensor:
#      x y z
#    x 3.583800 0.000000 -0.132660 
#    y 0.000000 3.331250 0.000000 
#    z -0.132660 0.000000 3.811470 
# 
# 
# High freq. dielectric constant tensor:
#      x y z
#    x 1.743990 0.000000 -0.000070 
#    y 0.000000 1.715400 0.000000 
#    z -0.000070 0.000000 1.755890 
# 
# From -- ./inp_files/133909.got.cif
#   From: 2010.06.25/outbox.cif.g09.slc.cpg/sg12_67_cif.got.tgz:133909.got - 2010.06.28 00:19:55.
