data_PCOD8091489
_publ_section_title
;
Structure prediction by ZEFSAII (Michael W. Deem and Ramdas Pophale) SiO2 
 PCOD8091489
Probable space group: C 2/M
;
_chemical_formula_sum "Si O2"
_cell_formula_units_Z 64
_cell_length_a 19.859240
_cell_length_b 19.163296
_cell_length_c 9.699456
_cell_angle_alpha 90.000000
_cell_angle_beta 76.266474
_cell_angle_gamma 90.000000
_cell_volume 3585.774257
_symmetry_space_group_name_H-M "C 2/M"
_symmetry_group_IT_number 12
_symmetry_cell_setting 'monoclinic'
loop_
_space_group_symop_operation_xyz
x,y,z
-x,y,-z
-x,-y,-z
x,-y,z
1/2+x,1/2+y,z
1/2-x,1/2+y,-z
1/2-x,1/2-y,-z
1/2+x,1/2-y,z
loop_
_atom_site_type_symbol
_atom_site_label
_atom_site_fract_x
_atom_site_fract_y
_atom_site_fract_z
Si Si1 0.692694 0.080818 0.324258
Si Si2 0.428479 0.817912 0.585244
Si Si3 0.058054 0.823411 0.865984
Si Si4 0.258530 0.638976 0.553616
Si Si5 0.150879 0.246958 0.625150
Si Si6 0.334683 0.421164 0.763522
Si Si7 0.534987 0.326260 0.338464
Si Si8 0.177701 0.080563 0.917721
O O1 0.623684 0.125657 0.323122
O O2 0.713213 0.091048 0.473771
O O3 0.755833 0.108893 0.198972
O O4 0.676074 0.000000 0.302887
O O5 0.500000 0.854946 0.500000
O O6 0.395590 0.780866 0.469177
O O7 0.446645 0.756447 0.685773
O O8 0.107035 0.760969 0.787487
O O9 0.105934 0.881736 0.913705
O O10 0.017490 0.853322 0.753125
O O11 0.000000 0.795099 0.000000
O O12 0.216066 0.705275 0.631068
O O13 0.324835 0.670272 0.439782
O O14 0.276500 0.591911 0.676338
O O15 0.362125 0.500000 0.737278
O O16 0.395402 0.368470 0.705815
O O17 0.304070 0.407998 0.930673
O O18 0.500000 0.342559 0.500000
O O19 0.165798 0.000000 0.886453
#
# Coordination Sequence:
#
# PCOD8091489 Si02
#       8
#     8   8   8   8   8   8   8   8
#     4  10  21  37  59  84 106 142 187 226 274 331
#     4  10  19  36  60  80 112 139 173 228 288 322
#     4  12  21  35  55  80 111 146 185 224 267 331
#     4  10  19  35  60  79 106 140 185 232 267 323
#     4  10  19  34  56  83 108 139 178 228 286 310
#     4  11  22  37  53  78 112 149 188 226 266 319
#     4  11  21  36  54  80 110 144 183 226 274 321
#     4  10  23  39  53  75 114 152 183 224 273 320
#
# _framework density 17.848306999999998
#
# number of rings (size 3 to 8) (size 9 to 14) (size 15 to 20)
#    0.000    1.500    6.250    0.375    0.000    1.250 
#    2.250    1.250    0.000    0.000    0.000    0.000 
#    0.000   10.000    0.000    0.000    0.000    0.000 
#
# Total GULP energy -396726.221999 kJ/mol
# GULP energy per Si atom -12397.694437 kJ/mol
# Density = 1.780768 g / cm^3
# Si number density = 17.848307 Si / 1000 Ang^3
#
#
#
# Elastic Constant Matrix: (Units=GPa)
#
#
# Indices 1 2 3 4 5 6 
#
# 1 87.8344 28.3039 30.1121 0.0000 -15.3176 0.0000
# 2 28.3039 62.6330 26.7104 0.0000 -14.0105 0.0000
# 3 30.1121 26.7104 91.3113 0.0000 -13.2753 0.0000
# 4 0.0000 0.0000 0.0000 163.7135 0.0000 91.9659
# 5 -15.3176 -14.0105 -13.2753 0.0000 33.1649 0.0000
# 6 0.0000 0.0000 0.0000 91.9659 0.0000 78.0734
#
#
#
# Elastic Compliance Matrix: (Units=1/GPa)
#
#
# Indices 1 2 3 4 5 6 
#
# 1 0.014464 -0.004476 -0.002935 0.000000 0.003615 0.000000
# 2 -0.004476 0.020789 -0.003853 0.000000 0.005173 0.000000
# 3 -0.002935 -0.003853 0.013392 0.000000 0.002377 0.000000
# 4 0.000000 0.000000 0.000000 0.018056 0.000000 -0.021269
# 5 0.003615 0.005173 0.002377 0.000000 0.034959 0.000000
# 6 0.000000 0.000000 0.000000 -0.021269 0.000000 0.037862
#
#
# Mechanical properties :
#
#
# Convention : Reuss Voigt Hill
#
# Bulk Modulus (GPa) = 38.28941 45.78128 42.03535
# Shear Modulus (GPa) = 29.28156 65.43386 47.35771
#
# Velocity S-wave (km/s) = 4.05480 6.06141 5.15665
# Velocity P-wave (km/s) = 6.58947 8.64254 7.68488
#
# Compressibility (1/GPa) = 0.02611688
#
# Stress axis : x y z
#
# Youngs Moduli (GPa) = 69.13723 48.10229 74.67052
#
# Poissons Ratio (x) = 0.21531 0.21916
# Poissons Ratio (y) = 0.30946 0.28771
# Poissons Ratio (z) = 0.20292 0.18534
#
# Static dielectric constant tensor:
#      x y z
#    x 3.523140 0.000000 -0.090580 
#    y 0.000000 3.254630 0.000000 
#    z -0.090580 0.000000 3.492030 
# 
# 
# High freq. dielectric constant tensor:
#      x y z
#    x 1.699330 0.000000 -0.003770 
#    y 0.000000 1.670230 0.000000 
#    z -0.003770 0.000000 1.686460 
# 
# From -- ./inp_files/89123.got.cif
#   From: 2010.06.25/outbox.cif.g09.slc.cpg/sg12_45_cif.got.tgz:89123.got - 2010.06.28 00:19:55.
