data_PCOD8091957
_publ_section_title
;
Structure prediction by ZEFSAII (Michael W. Deem and Ramdas Pophale) SiO2 
 PCOD8091957
Probable space group: C 2/M
;
_chemical_formula_sum "Si O2"
_cell_formula_units_Z 48
_cell_length_a 24.492681
_cell_length_b 8.862448
_cell_length_c 19.603101
_cell_angle_alpha 90.000000
_cell_angle_beta 145.768220
_cell_angle_gamma 90.000000
_cell_volume 2393.700392
_symmetry_space_group_name_H-M "C 2/M"
_symmetry_group_IT_number 12
_symmetry_cell_setting 'monoclinic'
loop_
_space_group_symop_operation_xyz
x,y,z
-x,y,-z
-x,-y,-z
x,-y,z
1/2+x,1/2+y,z
1/2-x,1/2+y,-z
1/2-x,1/2-y,-z
1/2+x,1/2-y,z
loop_
_atom_site_type_symbol
_atom_site_label
_atom_site_fract_x
_atom_site_fract_y
_atom_site_fract_z
Si Si1 0.915566 0.675107 0.364897
Si Si2 0.798489 0.175822 0.850386
Si Si3 0.295501 0.323022 0.480978
Si Si4 0.447826 0.679112 0.113973
Si Si5 0.641956 0.325580 0.235224
Si Si6 0.999574 0.325205 0.305435
O O1 0.911953 0.500000 0.381059
O O2 0.809182 0.748975 0.269341
O O3 0.000000 0.749970 0.500000
O O4 0.934169 0.699738 0.304221
O O5 0.866356 0.201929 0.854368
O O6 0.783145 0.000000 0.847826
O O7 0.856677 0.240259 0.975760
O O8 0.297995 0.500000 0.493723
O O9 0.250000 0.250000 0.500000
O O10 0.231526 0.277150 0.350452
O O11 0.403110 0.265569 0.580829
O O12 0.444680 0.500000 0.121413
O O13 0.545054 0.725724 0.173745
O O14 0.442891 0.761035 0.181493
O O15 0.665539 0.500000 0.275661
O O16 0.024110 0.500000 0.318739
#
# Coordination Sequence:
#
# PCOD8091957 Si02
#       6
#     8   8   8   8   8   8
#     4   9  18  34  57  83 110 145 193 241 280 327
#     4   9  18  34  57  84 113 151 198 236 274 332
#     4  12  23  36  56  83 114 147 183 229 283 338
#     4  10  20  34  55  84 117 151 189 236 285 336
#     4  10  19  34  58  85 114 149 190 236 282 333
#     4  11  22  36  57  84 114 150 190 236 284 334
#
# _framework density 20.052637000000001
#
# number of rings (size 3 to 8) (size 9 to 14) (size 15 to 20)
#    0.000    1.833    1.667    3.500    0.000    5.333 
#    0.000    0.833    0.000   12.000    0.000    0.000 
#    0.000    0.000    0.000    0.000    0.000    0.000 
#
# Total GULP energy -297570.519353 kJ/mol
# GULP energy per Si atom -12398.771640 kJ/mol
# Density = 2.000700 g / cm^3
# Si number density = 20.052637 Si / 1000 Ang^3
#
#
#
# Elastic Constant Matrix: (Units=GPa)
#
#
# Indices 1 2 3 4 5 6 
#
# 1 88.3637 23.6565 48.4171 0.0000 -8.1486 0.0000
# 2 23.6565 65.2872 27.8729 0.0000 -4.3351 0.0000
# 3 48.4171 27.8729 155.4475 0.0000 -14.9540 0.0000
# 4 0.0000 0.0000 0.0000 25.0294 0.0000 -6.9225
# 5 -8.1486 -4.3351 -14.9540 0.0000 31.2873 0.0000
# 6 0.0000 0.0000 0.0000 -6.9225 0.0000 22.5704
#
#
#
# Elastic Compliance Matrix: (Units=1/GPa)
#
#
# Indices 1 2 3 4 5 6 
#
# 1 0.014441 -0.003546 -0.003719 0.000000 0.001492 0.000000
# 2 -0.003546 0.017483 -0.001977 0.000000 0.000554 0.000000
# 3 -0.003719 -0.001977 0.008203 0.000000 0.002678 0.000000
# 4 0.000000 0.000000 0.000000 0.043656 0.000000 0.013390
# 5 0.001492 0.000554 0.002678 0.000000 0.033708 0.000000
# 6 0.000000 0.000000 0.000000 0.013390 0.000000 0.048412
#
#
# Mechanical properties :
#
#
# Convention : Reuss Voigt Hill
#
# Bulk Modulus (GPa) = 46.20205 56.55461 51.37833
# Shear Modulus (GPa) = 26.09578 29.72087 27.90833
#
# Velocity S-wave (km/s) = 3.61136 3.85404 3.73467
# Velocity P-wave (km/s) = 6.36236 6.93319 6.65390
#
# Compressibility (1/GPa) = 0.02164406
#
# Stress axis : x y z
#
# Youngs Moduli (GPa) = 69.24539 57.19958 121.90019
#
# Poissons Ratio (x) = 0.20283 0.45330
# Poissons Ratio (y) = 0.24555 0.24100
# Poissons Ratio (z) = 0.25750 0.11308
#
# Static dielectric constant tensor:
#      x y z
#    x 3.337460 0.000000 -0.239260 
#    y 0.000000 3.373390 0.000000 
#    z -0.239260 0.000000 3.808820 
# 
# 
# High freq. dielectric constant tensor:
#      x y z
#    x 1.788490 0.000000 -0.005360 
#    y 0.000000 1.737990 0.000000 
#    z -0.005360 0.000000 1.797700 
# 
# From -- ./inp_files/327312.got.cif
#   From: 2010.06.25/outbox.cif.g09.slc.cpg/sg12_164_cif.got.tgz:327312.got - 2010.06.28 00:19:55.
