data_PCOD8091104
_publ_section_title
;
Structure prediction by ZEFSAII (Michael W. Deem and Ramdas Pophale) SiO2 
 PCOD8091104
Probable space group: C 2/M
;
_chemical_formula_sum "Si O2"
_cell_formula_units_Z 56
_cell_length_a 14.337535
_cell_length_b 8.859691
_cell_length_c 24.959002
_cell_angle_alpha 90.000000
_cell_angle_beta 107.389019
_cell_angle_gamma 90.000000
_cell_volume 3025.548537
_symmetry_space_group_name_H-M "C 2/M"
_symmetry_group_IT_number 12
_symmetry_cell_setting 'monoclinic'
loop_
_space_group_symop_operation_xyz
x,y,z
-x,y,-z
-x,-y,-z
x,-y,z
1/2+x,1/2+y,z
1/2-x,1/2+y,-z
1/2-x,1/2-y,-z
1/2+x,1/2-y,z
loop_
_atom_site_type_symbol
_atom_site_label
_atom_site_fract_x
_atom_site_fract_y
_atom_site_fract_z
Si Si1 0.687564 0.323060 0.064550
Si Si2 0.821967 0.823016 0.351881
Si Si3 0.032125 0.819703 0.352327
Si Si4 0.391013 0.176984 0.048841
Si Si5 0.714490 0.179085 0.439195
Si Si6 0.413737 0.822183 0.859590
Si Si7 0.623082 0.179067 0.267162
O O1 0.674032 0.500000 0.064427
O O2 0.795825 0.274369 0.065747
O O3 0.671349 0.254972 0.120541
O O4 0.608876 0.256534 0.009046
O O5 0.794285 0.776465 0.407773
O O6 0.734687 0.769128 0.297595
O O7 0.926060 0.754778 0.352083
O O8 0.831968 0.000000 0.349101
O O9 0.110003 0.748705 0.406364
O O10 0.050377 0.763753 0.295068
O O11 0.038702 0.000000 0.356165
O O12 0.482562 0.232121 0.099326
O O13 0.394313 0.000000 0.038453
O O14 0.750000 0.250000 0.500000
O O15 0.703341 0.000000 0.442409
O O16 0.405396 0.768130 0.797092
O O17 0.400279 0.000000 0.861226
O O18 0.611111 0.000000 0.273735
#
# Coordination Sequence:
#
# PCOD8091104 Si02
#       7
#     8   8   8   8   8   8   8
#     4  10  20  33  50  73 100 128 164 210 255 302
#     4   8  17  34  54  73 101 138 169 201 250 302
#     4  10  19  34  55  77 101 135 173 208 249 295
#     4   9  19  35  51  70  99 133 165 202 255 312
#     4  10  20  36  55  79 110 140 171 209 249 295
#     4  10  20  34  53  73  98 133 168 203 252 309
#     4   9  19  36  53  73 101 134 170 208 251 301
#
# _framework density 18.509041
#
# number of rings (size 3 to 8) (size 9 to 14) (size 15 to 20)
#    0.000    2.571    0.000    2.571    0.000    5.143 
#    0.000   10.000    0.000    0.000    0.000    0.000 
#    0.000    0.000    0.000    0.000    0.000    0.000 
#
# Total GULP energy -347205.354407 kJ/mol
# GULP energy per Si atom -12400.191229 kJ/mol
# Density = 1.846691 g / cm^3
# Si number density = 18.509041 Si / 1000 Ang^3
#
#
#
# Elastic Constant Matrix: (Units=GPa)
#
#
# Indices 1 2 3 4 5 6 
#
# 1 131.1822 31.8919 62.9074 0.0000 -7.2725 0.0000
# 2 31.8919 44.8902 36.9314 0.0000 -3.5875 0.0000
# 3 62.9074 36.9314 149.1695 0.0000 -10.3699 0.0000
# 4 0.0000 0.0000 0.0000 31.3258 0.0000 -5.1990
# 5 -7.2725 -3.5875 -10.3699 0.0000 17.9558 0.0000
# 6 0.0000 0.0000 0.0000 -5.1990 0.0000 26.8774
#
#
#
# Elastic Compliance Matrix: (Units=1/GPa)
#
#
# Indices 1 2 3 4 5 6 
#
# 1 0.010324 -0.004671 -0.003096 0.000000 0.001460 0.000000
# 2 -0.004671 0.030135 -0.005422 0.000000 0.000998 0.000000
# 3 -0.003096 -0.005422 0.009574 0.000000 0.003192 0.000000
# 4 0.000000 0.000000 0.000000 0.032981 0.000000 0.006380
# 5 0.001460 0.000998 0.003192 0.000000 0.058326 0.000000
# 6 0.000000 0.000000 0.000000 0.006380 0.000000 0.038440
#
#
# Mechanical properties :
#
#
# Convention : Reuss Voigt Hill
#
# Bulk Modulus (GPa) = 42.27291 65.41146 53.84219
# Shear Modulus (GPa) = 23.35977 28.13255 25.74616
#
# Velocity S-wave (km/s) = 3.55642 3.90286 3.73366
# Velocity P-wave (km/s) = 6.30498 7.46504 6.90940
#
# Compressibility (1/GPa) = 0.02365581
#
# Stress axis : x y z
#
# Youngs Moduli (GPa) = 96.86047 33.18376 104.45435
#
# Poissons Ratio (x) = 0.15500 0.32338
# Poissons Ratio (y) = 0.45243 0.56632
# Poissons Ratio (z) = 0.29987 0.17991
#
# Static dielectric constant tensor:
#      x y z
#    x 3.682470 0.000000 0.013770 
#    y 0.000000 3.237800 0.000000 
#    z 0.013770 0.000000 3.504990 
# 
# 
# High freq. dielectric constant tensor:
#      x y z
#    x 1.724730 0.000000 -0.002770 
#    y 0.000000 1.705790 0.000000 
#    z -0.002770 0.000000 1.719750 
# 
# From -- ./inp_files/338160.got.cif
#   From: 2010.06.25/outbox.cif.g09.slc.cpg/sg12_170_cif.got.tgz:338160.got - 2010.06.28 00:19:55.
