data_PCOD8091392
_publ_section_title
;
Structure prediction by ZEFSAII (Michael W. Deem and Ramdas Pophale) SiO2 
 PCOD8091392
Probable space group: C 2/M
;
_chemical_formula_sum "Si O2"
_cell_formula_units_Z 64
_cell_length_a 18.525169
_cell_length_b 21.879421
_cell_length_c 8.885225
_cell_angle_alpha 90.000000
_cell_angle_beta 105.735471
_cell_angle_gamma 90.000000
_cell_volume 3466.394743
_symmetry_space_group_name_H-M "C 2/M"
_symmetry_group_IT_number 12
_symmetry_cell_setting 'monoclinic'
loop_
_space_group_symop_operation_xyz
x,y,z
-x,y,-z
-x,-y,-z
x,-y,z
1/2+x,1/2+y,z
1/2-x,1/2+y,-z
1/2-x,1/2-y,-z
1/2+x,1/2-y,z
loop_
_atom_site_type_symbol
_atom_site_label
_atom_site_fract_x
_atom_site_fract_y
_atom_site_fract_z
Si Si1 0.583562 0.777330 0.482298
Si Si2 0.899076 0.927728 0.233100
Si Si3 0.722940 0.768251 0.146188
Si Si4 0.272610 0.843531 0.353648
Si Si5 0.462480 0.376724 0.829658
Si Si6 0.436387 0.765781 0.859669
Si Si7 0.821327 0.928752 0.874363
Si Si8 0.180577 0.842994 0.597257
O O1 0.500000 0.777152 0.500000
O O2 0.638103 0.828600 0.588153
O O3 0.574639 0.798975 0.305249
O O4 0.621644 0.710282 0.518334
O O5 0.863680 0.902322 0.367824
O O6 0.982613 0.898061 0.273252
O O7 0.905849 0.000000 0.249775
O O8 0.849845 0.909128 0.056829
O O9 0.730235 0.717275 0.278742
O O10 0.635222 0.778823 0.078012
O O11 0.769250 0.825885 0.229935
O O12 0.750000 0.750000 0.000000
O O13 0.256639 0.895400 0.217507
O O14 0.236780 0.860969 0.494462
O O15 0.455905 0.304181 0.832322
O O16 0.380210 0.407326 0.777064
O O17 0.500000 0.404279 0.000000
O O18 0.500000 0.795402 0.000000
O O19 0.806662 0.000000 0.856956
#
# Coordination Sequence:
#
# PCOD8091392 Si02
#       8
#     8   8   8   8   8   8   8   8
#     4  11  22  37  54  79 112 145 182 226 285 341
#     4  10  21  35  54  85 116 154 198 230 267 325
#     4  11  21  34  55  81 108 147 188 228 275 329
#     4  11  21  38  54  78 114 145 182 228 286 336
#     4   9  17  30  52  77 113 145 184 226 267 316
#     4  11  21  34  53  83 112 145 187 225 274 337
#     4  10  19  34  56  80 108 146 193 234 271 325
#     4  11  21  36  56  75 116 152 179 233 276 330
#
# _framework density 18.462986999999998
#
# number of rings (size 3 to 8) (size 9 to 14) (size 15 to 20)
#    0.000    1.500    3.750    2.625    7.000    2.000 
#    0.000    0.000    0.000    4.500    0.000    0.000 
#    0.000    3.000    0.000    0.000    0.000    0.000 
#
# Total GULP energy -396582.282097 kJ/mol
# GULP energy per Si atom -12393.196316 kJ/mol
# Density = 1.842096 g / cm^3
# Si number density = 18.462987 Si / 1000 Ang^3
#
#
#
# Elastic Constant Matrix: (Units=GPa)
#
#
# Indices 1 2 3 4 5 6 
#
# 1 103.0430 0.4690 29.7741 0.0000 6.0501 0.0000
# 2 0.4690 30.8706 -1.2294 0.0000 7.0702 0.0000
# 3 29.7741 -1.2294 72.2550 0.0000 7.9156 0.0000
# 4 0.0000 0.0000 0.0000 22.8169 0.0000 -4.1755
# 5 6.0501 7.0702 7.9156 0.0000 39.5378 0.0000
# 6 0.0000 0.0000 0.0000 -4.1755 0.0000 8.2386
#
#
#
# Elastic Compliance Matrix: (Units=1/GPa)
#
#
# Indices 1 2 3 4 5 6 
#
# 1 0.011042 -0.000171 -0.004469 0.000000 -0.000764 0.000000
# 2 -0.000171 0.033893 0.001337 0.000000 -0.006302 0.000000
# 3 -0.004469 0.001337 0.016007 0.000000 -0.002760 0.000000
# 4 0.000000 0.000000 0.000000 0.048308 0.000000 0.024484
# 5 -0.000764 -0.006302 -0.002760 0.000000 0.027089 0.000000
# 6 0.000000 0.000000 0.000000 0.024484 0.000000 0.133789
#
#
# Mechanical properties :
#
#
# Convention : Reuss Voigt Hill
#
# Bulk Modulus (GPa) = 18.40397 29.35509 23.87953
# Shear Modulus (GPa) = 16.95818 25.92898 21.44358
#
# Velocity S-wave (km/s) = 3.03396 3.75157 3.41168
# Velocity P-wave (km/s) = 4.71836 5.89064 5.33678
#
# Compressibility (1/GPa) = 0.05433610
#
# Stress axis : x y z
#
# Youngs Moduli (GPa) = 90.56591 29.50502 62.47435
#
# Poissons Ratio (x) = 0.00504 0.27920
# Poissons Ratio (y) = 0.01546 -0.08355
# Poissons Ratio (z) = 0.40475 -0.03946
#
# Static dielectric constant tensor:
#      x y z
#    x 3.452160 0.000000 0.165230 
#    y 0.000000 3.072790 0.000000 
#    z 0.165230 0.000000 3.604040 
# 
# 
# High freq. dielectric constant tensor:
#      x y z
#    x 1.714320 0.000000 0.004470 
#    y 0.000000 1.667960 0.000000 
#    z 0.004470 0.000000 1.729510 
# 
# From -- ./inp_files/78834.got.cif
#   From: 2010.06.25/outbox.cif.g09.slc.cpg/sg12_40_cif.got.tgz:78834.got - 2010.06.28 00:19:55.
