data_PCOD8091017
_publ_section_title
;
Structure prediction by ZEFSAII (Michael W. Deem and Ramdas Pophale) SiO2 
 PCOD8091017
Probable space group: C 2/M
;
_chemical_formula_sum "Si O2"
_cell_formula_units_Z 56
_cell_length_a 20.644398
_cell_length_b 8.960205
_cell_length_c 17.466415
_cell_angle_alpha 90.000000
_cell_angle_beta 108.618335
_cell_angle_gamma 90.000000
_cell_volume 3061.818039
_symmetry_space_group_name_H-M "C 2/M"
_symmetry_group_IT_number 12
_symmetry_cell_setting 'monoclinic'
loop_
_space_group_symop_operation_xyz
x,y,z
-x,y,-z
-x,-y,-z
x,-y,z
1/2+x,1/2+y,z
1/2-x,1/2+y,-z
1/2-x,1/2-y,-z
1/2+x,1/2-y,z
loop_
_atom_site_type_symbol
_atom_site_label
_atom_site_fract_x
_atom_site_fract_y
_atom_site_fract_z
Si Si1 0.181163 0.672643 0.671189
Si Si2 0.680010 0.174285 0.496593
Si Si3 0.801717 0.826251 0.915318
Si Si4 0.431422 0.824875 0.247364
Si Si5 0.319679 0.823489 0.771386
Si Si6 0.583871 0.823018 0.328010
Si Si7 0.837931 0.825834 0.097998
O O1 0.202574 0.500000 0.688296
O O2 0.160154 0.710355 0.576321
O O3 0.115922 0.712195 0.698028
O O4 0.243892 0.774273 0.719926
O O5 0.750000 0.250000 0.500000
O O6 0.619404 0.235949 0.419292
O O7 0.690354 0.000000 0.486519
O O8 0.841787 0.748065 0.860877
O O9 0.725809 0.760277 0.890071
O O10 0.794142 0.000000 0.895154
O O11 0.842899 0.795323 0.008991
O O12 0.506729 0.762164 0.294700
O O13 0.406084 0.737568 0.162493
O O14 0.432238 0.000000 0.228862
O O15 0.373082 0.764650 0.728446
O O16 0.321453 0.000000 0.779724
O O17 0.582441 0.000000 0.327756
O O18 0.828668 0.000000 0.111890
#
# Coordination Sequence:
#
# PCOD8091017 Si02
#       7
#     8   8   8   8   8   8   8
#     4  10  20  32  54  82 106 139 182 227 270 318
#     4  10  19  34  54  79 109 140 182 228 271 317
#     4  10  20  34  54  81 110 139 179 224 266 319
#     4  10  20  36  55  78 111 146 182 221 270 324
#     4  11  20  33  55  81 109 142 182 224 266 318
#     4   9  20  36  54  78 110 148 182 221 270 322
#     4  10  20  34  54  81 110 141 177 221 272 319
#
# _framework density 18.289785999999999
#
# number of rings (size 3 to 8) (size 9 to 14) (size 15 to 20)
#    0.000    2.000    2.857    1.286    0.000    2.286 
#    0.000    5.714    0.000    4.286    0.000    3.000 
#    0.000    0.000    0.000    0.000    0.000    0.000 
#
# Total GULP energy -347247.271496 kJ/mol
# GULP energy per Si atom -12401.688268 kJ/mol
# Density = 1.824816 g / cm^3
# Si number density = 18.289786 Si / 1000 Ang^3
#
#
#
# Elastic Constant Matrix: (Units=GPa)
#
#
# Indices 1 2 3 4 5 6 
#
# 1 120.5615 37.0590 76.1422 0.0000 1.9924 0.0000
# 2 37.0590 61.7431 47.1388 0.0000 -3.7239 0.0000
# 3 76.1422 47.1388 160.0542 0.0000 -2.0724 0.0000
# 4 0.0000 0.0000 0.0000 28.6702 0.0000 -0.4960
# 5 1.9924 -3.7239 -2.0724 0.0000 33.3404 0.0000
# 6 0.0000 0.0000 0.0000 -0.4960 0.0000 22.6864
#
#
#
# Elastic Compliance Matrix: (Units=1/GPa)
#
#
# Indices 1 2 3 4 5 6 
#
# 1 0.012595 -0.003948 -0.004848 0.000000 -0.001495 0.000000
# 2 -0.003948 0.022260 -0.004646 0.000000 0.002433 0.000000
# 3 -0.004848 -0.004646 0.009928 0.000000 0.000388 0.000000
# 4 0.000000 0.000000 0.000000 0.034893 0.000000 0.000763
# 5 -0.001495 0.002433 0.000388 0.000000 0.030379 0.000000
# 6 0.000000 0.000000 0.000000 0.000763 0.000000 0.044096
#
#
# Mechanical properties :
#
#
# Convention : Reuss Voigt Hill
#
# Bulk Modulus (GPa) = 55.87477 73.67098 64.77288
# Shear Modulus (GPa) = 26.73785 29.07399 27.90592
#
# Velocity S-wave (km/s) = 3.82763 3.99134 3.91034
# Velocity P-wave (km/s) = 7.08169 7.84910 7.47525
#
# Compressibility (1/GPa) = 0.01789716
#
# Stress axis : x y z
#
# Youngs Moduli (GPa) = 79.39753 44.92391 100.72818
#
# Poissons Ratio (x) = 0.17737 0.48835
# Poissons Ratio (y) = 0.31348 0.46799
# Poissons Ratio (z) = 0.38494 0.20872
#
# Static dielectric constant tensor:
#      x y z
#    x 3.370940 0.000000 -0.113570 
#    y 0.000000 3.263720 0.000000 
#    z -0.113570 0.000000 3.763720 
# 
# 
# High freq. dielectric constant tensor:
#      x y z
#    x 1.691410 0.000000 -0.011400 
#    y 0.000000 1.697570 0.000000 
#    z -0.011400 0.000000 1.726040 
# 
# From -- ./inp_files/281743.got.cif
#   From: 2010.06.25/outbox.cif.g09.slc.cpg/sg12_141_cif.got.tgz:281743.got - 2010.06.28 00:19:55.
