data_PCOD8091747
_publ_section_title
;
Structure prediction by ZEFSAII (Michael W. Deem and Ramdas Pophale) SiO2 
 PCOD8091747
Probable space group: C 2/M
;
_chemical_formula_sum "Si O2"
_cell_formula_units_Z 64
_cell_length_a 19.278587
_cell_length_b 13.562285
_cell_length_c 19.606003
_cell_angle_alpha 90.000000
_cell_angle_beta 43.163624
_cell_angle_gamma 90.000000
_cell_volume 3506.765014
_symmetry_space_group_name_H-M "C 2/M"
_symmetry_group_IT_number 12
_symmetry_cell_setting 'monoclinic'
loop_
_space_group_symop_operation_xyz
x,y,z
-x,y,-z
-x,-y,-z
x,-y,z
1/2+x,1/2+y,z
1/2-x,1/2+y,-z
1/2-x,1/2-y,-z
1/2+x,1/2-y,z
loop_
_atom_site_type_symbol
_atom_site_label
_atom_site_fract_x
_atom_site_fract_y
_atom_site_fract_z
Si Si1 0.614654 0.201100 0.939962
Si Si2 0.704897 0.612386 0.929736
Si Si3 0.445774 0.883504 0.259137
Si Si4 0.654876 0.883916 0.055435
Si Si5 0.118865 0.750926 0.426468
Si Si6 0.406790 0.888834 0.435521
Si Si7 0.641626 0.105885 0.296521
Si Si8 0.715176 0.883878 0.737671
O O1 0.619577 0.316515 0.958471
O O2 0.692517 0.173598 0.824140
O O3 0.500000 0.173860 0.000000
O O4 0.654868 0.139877 0.975694
O O5 0.662986 0.500000 0.959740
O O6 0.740917 0.648298 0.979802
O O7 0.806970 0.624761 0.812764
O O8 0.555423 0.836415 0.162964
O O9 0.399709 0.845356 0.363893
O O10 0.373001 0.852339 0.250375
O O11 0.455182 0.000000 0.259556
O O12 0.647185 0.000000 0.069984
O O13 0.143692 0.692975 0.478919
O O14 0.171332 0.686617 0.330012
O O15 0.178975 0.853778 0.375183
O O16 0.000000 0.770925 0.500000
O O17 0.522519 0.896553 0.373089
O O18 0.358489 0.000000 0.477243
O O19 0.677785 0.000000 0.299548
O O20 0.717873 0.000000 0.750391
#
# Coordination Sequence:
#
# PCOD8091747 Si02
#       8
#     8   8   8   8   8   8   8   8
#     4  12  23  36  57  83 110 148 192 228 272 328
#     4  10  20  35  55  80 112 145 179 224 280 333
#     4   9  17  31  52  78 105 133 171 226 281 318
#     4  10  19  34  57  84 111 140 181 235 282 322
#     4  10  20  33  51  77 106 139 175 213 266 332
#     4   9  16  29  53  81 105 129 165 217 271 320
#     4   9  15  28  51  77 103 128 162 211 263 314
#     4  11  23  37  52  75 108 140 182 233 273 318
#
# _framework density 18.250439
#
# number of rings (size 3 to 8) (size 9 to 14) (size 15 to 20)
#    0.000    2.000    3.750    1.125    0.000    3.000 
#    0.000    0.000    0.000    0.000    0.000    0.875 
#    0.000    0.000    0.000    0.000    0.000    0.000 
#
# Total GULP energy -396522.192965 kJ/mol
# GULP energy per Si atom -12391.318530 kJ/mol
# Density = 1.820890 g / cm^3
# Si number density = 18.250439 Si / 1000 Ang^3
#
#
#
# Elastic Constant Matrix: (Units=GPa)
#
#
# Indices 1 2 3 4 5 6 
#
# 1 78.0273 28.3940 27.4759 0.0000 23.8123 0.0000
# 2 28.3940 40.5338 13.6432 0.0000 3.4219 0.0000
# 3 27.4759 13.6432 68.0784 0.0000 14.7456 0.0000
# 4 0.0000 0.0000 0.0000 23.1795 0.0000 1.3276
# 5 23.8123 3.4219 14.7456 0.0000 29.4278 0.0000
# 6 0.0000 0.0000 0.0000 1.3276 0.0000 22.7676
#
#
#
# Elastic Compliance Matrix: (Units=1/GPa)
#
#
# Indices 1 2 3 4 5 6 
#
# 1 0.024214 -0.014461 -0.003359 0.000000 -0.016229 0.000000
# 2 -0.014461 0.035098 -0.003195 0.000000 0.009221 0.000000
# 3 -0.003359 -0.003195 0.017966 0.000000 -0.005912 0.000000
# 4 0.000000 0.000000 0.000000 0.043286 0.000000 -0.002524
# 5 -0.016229 0.009221 -0.005912 0.000000 0.049003 0.000000
# 6 0.000000 0.000000 0.000000 -0.002524 0.000000 0.044069
#
#
# Mechanical properties :
#
#
# Convention : Reuss Voigt Hill
#
# Bulk Modulus (GPa) = 28.37134 36.18506 32.27820
# Shear Modulus (GPa) = 18.69749 22.88341 20.79045
#
# Velocity S-wave (km/s) = 3.20425 3.54482 3.37883
# Velocity P-wave (km/s) = 5.41007 6.05181 5.73992
#
# Compressibility (1/GPa) = 0.03524684
#
# Stress axis : x y z
#
# Youngs Moduli (GPa) = 41.29835 28.49189 55.66197
#
# Poissons Ratio (x) = 0.41203 0.18699
# Poissons Ratio (y) = 0.59722 0.17782
# Poissons Ratio (z) = 0.13874 0.09102
#
# Static dielectric constant tensor:
#      x y z
#    x 3.394130 0.000000 0.293630 
#    y 0.000000 3.340970 0.000000 
#    z 0.293630 0.000000 3.330890 
# 
# 
# High freq. dielectric constant tensor:
#      x y z
#    x 1.701340 0.000000 0.024110 
#    y 0.000000 1.689750 0.000000 
#    z 0.024110 0.000000 1.698020 
# 
# From -- ./inp_files/232449.got.cif
#   From: 2010.06.25/outbox.cif.g09.slc.cpg/sg12_117_cif.got.tgz:232449.got - 2010.06.28 00:19:55.
