data_PCOD8091568
_publ_section_title
;
Structure prediction by ZEFSAII (Michael W. Deem and Ramdas Pophale) SiO2 
 PCOD8091568
Probable space group: C 2/M
;
_chemical_formula_sum "Si O2"
_cell_formula_units_Z 52
_cell_length_a 9.662151
_cell_length_b 25.054253
_cell_length_c 12.172940
_cell_angle_alpha 90.000000
_cell_angle_beta 72.373682
_cell_angle_gamma 90.000000
_cell_volume 2808.453326
_symmetry_space_group_name_H-M "C 2/M"
_symmetry_group_IT_number 12
_symmetry_cell_setting 'monoclinic'
loop_
_space_group_symop_operation_xyz
x,y,z
-x,y,-z
-x,-y,-z
x,-y,z
1/2+x,1/2+y,z
1/2-x,1/2+y,-z
1/2-x,1/2-y,-z
1/2+x,1/2-y,z
loop_
_atom_site_type_symbol
_atom_site_label
_atom_site_fract_x
_atom_site_fract_y
_atom_site_fract_z
Si Si1 0.344739 0.259765 0.583734
Si Si2 0.134563 0.060152 0.221335
Si Si3 0.272484 0.059577 0.959723
Si Si4 0.811073 0.938627 0.260640
Si Si5 0.665605 0.152619 0.753509
Si Si6 0.077787 0.352916 0.367198
Si Si7 0.000000 0.635846 0.000000
O O1 0.500000 0.279822 0.500000
O O2 0.250000 0.250000 0.500000
O O3 0.270160 0.301640 0.683000
O O4 0.354351 0.206294 0.654611
O O5 0.238536 0.099133 0.263744
O O6 0.965802 0.074354 0.279088
O O7 0.167878 0.000000 0.253744
O O8 0.160154 0.065833 0.085544
O O9 0.183487 0.072346 0.870975
O O10 0.406736 0.099444 0.940222
O O11 0.338641 0.000000 0.939696
O O12 0.697500 0.898640 0.341017
O O13 0.766670 0.000000 0.295429
O O14 0.532984 0.139905 0.705568
O O15 0.602501 0.169278 0.890552
O O16 0.000000 0.359299 0.500000
#
# Coordination Sequence:
#
# PCOD8091568 Si02
#       7
#     8   8   8   8   8   8   4
#     4  11  23  43  68  88 108 152 211 253 286 345
#     4   9  20  34  56  89 122 157 197 238 292 351
#     4   9  16  30  55  83 119 162 201 233 275 350
#     4  10  20  35  57  86 123 160 194 241 293 347
#     4  11  22  39  63  91 121 155 196 249 299 355
#     4  11  23  40  62  86 114 152 204 248 290 352
#     4  10  19  34  56  92 130 150 189 240 310 352
#
# _framework density 18.515529000000001
#
# number of rings (size 3 to 8) (size 9 to 14) (size 15 to 20)
#    0.000    1.846    4.615    0.692    2.154    3.385 
#    0.000    0.769    3.385    2.308    0.000    0.000 
#    0.000    0.000    0.000    0.000    0.000    0.000 
#
# Total GULP energy -322308.002481 kJ/mol
# GULP energy per Si atom -12396.461634 kJ/mol
# Density = 1.847339 g / cm^3
# Si number density = 18.515529 Si / 1000 Ang^3
#
#
#
# Elastic Constant Matrix: (Units=GPa)
#
#
# Indices 1 2 3 4 5 6 
#
# 1 117.3179 64.9981 40.3508 0.0000 -0.4731 0.0000
# 2 64.9981 113.7056 57.6139 0.0000 -9.5395 0.0000
# 3 40.3508 57.6139 87.1136 0.0000 -3.8593 0.0000
# 4 0.0000 0.0000 0.0000 34.7858 0.0000 -3.8312
# 5 -0.4731 -9.5395 -3.8593 0.0000 33.9130 0.0000
# 6 0.0000 0.0000 0.0000 -3.8312 0.0000 30.5430
#
#
#
# Elastic Compliance Matrix: (Units=1/GPa)
#
#
# Indices 1 2 3 4 5 6 
#
# 1 0.012739 -0.006628 -0.001600 0.000000 -0.001869 0.000000
# 2 -0.006628 0.016934 -0.007963 0.000000 0.003765 0.000000
# 3 -0.001600 -0.007963 0.017474 0.000000 -0.000274 0.000000
# 4 0.000000 0.000000 0.000000 0.029150 0.000000 0.003656
# 5 -0.001869 0.003765 -0.000274 0.000000 0.030489 0.000000
# 6 0.000000 0.000000 0.000000 0.003656 0.000000 0.033199
#
#
# Mechanical properties :
#
#
# Convention : Reuss Voigt Hill
#
# Bulk Modulus (GPa) = 67.72268 71.56250 69.64259
# Shear Modulus (GPa) = 28.20260 30.19329 29.19795
#
# Velocity S-wave (km/s) = 3.90704 4.04257 3.97538
# Velocity P-wave (km/s) = 7.55042 7.77970 7.66592
#
# Compressibility (1/GPa) = 0.01476610
#
# Stress axis : x y z
#
# Youngs Moduli (GPa) = 78.50071 59.05285 57.22675
#
# Poissons Ratio (x) = 0.39141 0.09155
# Poissons Ratio (y) = 0.52031 0.45568
# Poissons Ratio (z) = 0.12558 0.47022
#
# Static dielectric constant tensor:
#      x y z
#    x 3.825410 0.000000 0.329700 
#    y 0.000000 3.770160 0.000000 
#    z 0.329700 0.000000 3.822580 
# 
# 
# High freq. dielectric constant tensor:
#      x y z
#    x 1.731650 0.000000 -0.000710 
#    y 0.000000 1.705620 0.000000 
#    z -0.000710 0.000000 1.713340 
# 
# From -- ./inp_files/123652.got.cif
#   From: 2010.06.25/outbox.cif.g09.slc.cpg/sg12_62_cif.got.tgz:123652.got - 2010.06.28 00:19:55.
