data_PCOD8091097
_publ_section_title
;
Structure prediction by ZEFSAII (Michael W. Deem and Ramdas Pophale) SiO2 
 PCOD8091097
Probable space group: C 2/M
;
_chemical_formula_sum "Si O2"
_cell_formula_units_Z 36
_cell_length_a 19.213363
_cell_length_b 13.262948
_cell_length_c 7.659439
_cell_angle_alpha 90.000000
_cell_angle_beta 106.533724
_cell_angle_gamma 90.000000
_cell_volume 1871.119738
_symmetry_space_group_name_H-M "C 2/M"
_symmetry_group_IT_number 12
_symmetry_cell_setting 'monoclinic'
loop_
_space_group_symop_operation_xyz
x,y,z
-x,y,-z
-x,-y,-z
x,-y,z
1/2+x,1/2+y,z
1/2-x,1/2+y,-z
1/2-x,1/2-y,-z
1/2+x,1/2-y,z
loop_
_atom_site_type_symbol
_atom_site_label
_atom_site_fract_x
_atom_site_fract_y
_atom_site_fract_z
Si Si1 0.170596 0.212895 0.974577
Si Si2 0.500000 0.806632 0.500000
Si Si3 0.351223 0.285490 0.417377
Si Si4 0.559949 0.887168 0.897507
Si Si5 0.269534 0.615154 0.663548
O O1 0.143487 0.164536 0.772661
O O2 0.122618 0.309185 0.991029
O O3 0.250000 0.250000 0.000000
O O4 0.173864 0.134408 0.136839
O O5 0.566231 0.739819 0.469538
O O6 0.528854 0.873639 0.680335
O O7 0.315011 0.365165 0.520389
O O8 0.302731 0.183166 0.378166
O O9 0.592106 0.000000 0.933046
O O10 0.500000 0.869708 0.000000
O O11 0.243333 0.500000 0.647353
#
# Coordination Sequence:
#
# PCOD8091097 Si02
#       5
#     8   4   8   8   8
#     4   9  19  34  51  75 107 138 172 210 251 304
#     4  10  19  34  55  76 110 140 167 212 263 312
#     4   9  20  36  54  80 107 135 172 216 260 307
#     4  10  20  33  53  81 109 137 169 210 263 316
#     4  10  20  36  56  77 104 138 176 215 258 307
#
# _framework density 19.239818
#
# number of rings (size 3 to 8) (size 9 to 14) (size 15 to 20)
#    0.000    2.444    0.000    1.667    0.000    9.778 
#    0.000   13.889    0.000   12.667    0.000    0.000 
#    0.000    0.000    0.000    0.000    0.000    0.000 
#
# Total GULP energy -223091.334859 kJ/mol
# GULP energy per Si atom -12393.963048 kJ/mol
# Density = 1.919603 g / cm^3
# Si number density = 19.239818 Si / 1000 Ang^3
#
#
#
# Elastic Constant Matrix: (Units=GPa)
#
#
# Indices 1 2 3 4 5 6 
#
# 1 87.6876 27.3994 25.9623 0.0000 6.3334 0.0000
# 2 27.3994 76.7921 37.8878 0.0000 2.1749 0.0000
# 3 25.9623 37.8878 75.8542 0.0000 -9.3713 0.0000
# 4 0.0000 0.0000 0.0000 24.5281 0.0000 7.0610
# 5 6.3334 2.1749 -9.3713 0.0000 29.9094 0.0000
# 6 0.0000 0.0000 0.0000 7.0610 0.0000 17.2763
#
#
#
# Elastic Compliance Matrix: (Units=1/GPa)
#
#
# Indices 1 2 3 4 5 6 
#
# 1 0.013697 -0.002961 -0.003683 0.000000 -0.003839 0.000000
# 2 -0.002961 0.018423 -0.008610 0.000000 -0.003410 0.000000
# 3 -0.003683 -0.008610 0.019680 0.000000 0.007572 0.000000
# 4 0.000000 0.000000 0.000000 0.046206 0.000000 -0.018885
# 5 -0.003839 -0.003410 0.007572 0.000000 0.036868 0.000000
# 6 0.000000 0.000000 0.000000 -0.018885 0.000000 0.065601
#
#
# Mechanical properties :
#
#
# Convention : Reuss Voigt Hill
#
# Bulk Modulus (GPa) = 46.96704 46.98144 46.97424
# Shear Modulus (GPa) = 21.00125 24.28174 22.64149
#
# Velocity S-wave (km/s) = 3.30745 3.55640 3.43418
# Velocity P-wave (km/s) = 6.24900 6.42929 6.33979
#
# Compressibility (1/GPa) = 0.02129153
#
# Stress axis : x y z
#
# Youngs Moduli (GPa) = 73.00745 54.27924 50.81335
#
# Poissons Ratio (x) = 0.16073 0.18716
# Poissons Ratio (y) = 0.21618 0.43750
# Poissons Ratio (z) = 0.26891 0.46734
#
# Static dielectric constant tensor:
#      x y z
#    x 3.613190 0.000000 -0.128330 
#    y 0.000000 3.236990 0.000000 
#    z -0.128330 0.000000 4.565720 
# 
# 
# High freq. dielectric constant tensor:
#      x y z
#    x 1.756210 0.000000 -0.013350 
#    y 0.000000 1.711070 0.000000 
#    z -0.013350 0.000000 1.765330 
# 
# From -- ./inp_files/71504.got.cif
#   From: 2010.06.25/outbox.cif.g09.slc.cpg/sg12_36_cif.got.tgz:71504.got - 2010.06.28 00:19:55.
