data_PCOD8091259
_publ_section_title
;
Structure prediction by ZEFSAII (Michael W. Deem and Ramdas Pophale) SiO2 
 PCOD8091259
Probable space group: C 2/M
;
_chemical_formula_sum "Si O2"
_cell_formula_units_Z 40
_cell_length_a 19.707958
_cell_length_b 12.293379
_cell_length_c 9.755312
_cell_angle_alpha 90.000000
_cell_angle_beta 76.442487
_cell_angle_gamma 90.000000
_cell_volume 2297.633142
_symmetry_space_group_name_H-M "C 2/M"
_symmetry_group_IT_number 12
_symmetry_cell_setting 'monoclinic'
loop_
_space_group_symop_operation_xyz
x,y,z
-x,y,-z
-x,-y,-z
x,-y,z
1/2+x,1/2+y,z
1/2-x,1/2+y,-z
1/2-x,1/2-y,-z
1/2+x,1/2-y,z
loop_
_atom_site_type_symbol
_atom_site_label
_atom_site_fract_x
_atom_site_fract_y
_atom_site_fract_z
Si Si1 0.443867 0.000000 0.411118
Si Si2 0.349117 0.815277 0.861454
Si Si3 0.309406 0.376417 0.063555
Si Si4 0.688707 0.376279 0.626083
Si Si5 0.153725 0.688191 0.455771
Si Si6 0.955791 0.500000 0.885236
O O1 0.500000 0.000000 0.500000
O O2 0.398475 0.892203 0.444948
O O3 0.482547 0.000000 0.251133
O O4 0.273703 0.869212 0.919094
O O5 0.365407 0.794702 0.694107
O O6 0.407605 0.893584 0.896126
O O7 0.351593 0.700454 0.939677
O O8 0.332519 0.500000 0.023076
O O9 0.328877 0.341907 0.209508
O O10 0.666388 0.500000 0.609168
O O11 0.770684 0.364076 0.562221
O O12 0.646880 0.302569 0.538179
O O13 0.000000 0.500000 0.000000
#
# Coordination Sequence:
#
# PCOD8091259 Si02
#       6
#     4   8   8   8   8   4
#     4  12  22  38  60  78 112 158 182 224 280 328
#     4  10  19  36  53  80 113 144 187 225 278 326
#     4   9  18  33  57  79 112 147 176 232 282 324
#     4   9  18  33  55  83 114 139 177 239 275 326
#     4  10  19  34  55  82 111 144 186 222 281 328
#     4  12  26  38  56  82 116 150 188 232 262 337
#
# _framework density 17.409219
#
# number of rings (size 3 to 8) (size 9 to 14) (size 15 to 20)
#    0.000    2.000    4.000    0.000    2.800    0.800 
#    0.000    0.000    0.000    2.400    0.000    0.000 
#    0.000    0.000    0.000    0.000    0.000    0.000 
#
# Total GULP energy -247992.711698 kJ/mol
# GULP energy per Si atom -12399.635585 kJ/mol
# Density = 1.736959 g / cm^3
# Si number density = 17.409219 Si / 1000 Ang^3
#
#
#
# Elastic Constant Matrix: (Units=GPa)
#
#
# Indices 1 2 3 4 5 6 
#
# 1 72.4172 57.2838 58.3498 0.0000 9.7235 0.0000
# 2 57.2838 138.2584 80.5189 0.0000 4.9939 0.0000
# 3 58.3498 80.5189 131.2713 0.0000 5.6015 0.0000
# 4 0.0000 0.0000 0.0000 33.1222 0.0000 7.7059
# 5 9.7235 4.9939 5.6015 0.0000 32.2499 0.0000
# 6 0.0000 0.0000 0.0000 7.7059 0.0000 15.3617
#
#
#
# Elastic Compliance Matrix: (Units=1/GPa)
#
#
# Indices 1 2 3 4 5 6 
#
# 1 0.025118 -0.005980 -0.007267 0.000000 -0.005385 0.000000
# 2 -0.005980 0.012686 -0.005154 0.000000 0.000734 0.000000
# 3 -0.007267 -0.005154 0.013986 0.000000 0.000560 0.000000
# 4 0.000000 0.000000 0.000000 0.034180 0.000000 -0.017146
# 5 -0.005385 0.000734 0.000560 0.000000 0.032421 0.000000
# 6 0.000000 0.000000 0.000000 -0.017146 0.000000 0.073698
#
#
# Mechanical properties :
#
#
# Convention : Reuss Voigt Hill
#
# Bulk Modulus (GPa) = 66.72787 81.58354 74.15570
# Shear Modulus (GPa) = 21.37798 25.86639 23.62218
#
# Velocity S-wave (km/s) = 3.50804 3.85877 3.68758
# Velocity P-wave (km/s) = 7.40410 8.17420 7.79866
#
# Compressibility (1/GPa) = 0.01498624
#
# Stress axis : x y z
#
# Youngs Moduli (GPa) = 39.81267 78.82777 71.50260
#
# Poissons Ratio (x) = 0.47142 0.51959
# Poissons Ratio (y) = 0.23809 0.36855
# Poissons Ratio (z) = 0.28931 0.40630
#
# Static dielectric constant tensor:
#      x y z
#    x 3.039120 0.000000 0.067170 
#    y 0.000000 3.353860 0.000000 
#    z 0.067170 0.000000 3.320300 
# 
# 
# High freq. dielectric constant tensor:
#      x y z
#    x 1.644880 0.000000 0.005300 
#    y 0.000000 1.678190 0.000000 
#    z 0.005300 0.000000 1.681300 
# 
# From -- ./inp_files/83493.got.cif
#   From: 2010.06.25/outbox.cif.g09.slc.cpg/sg12_42_cif.got.tgz:83493.got - 2010.06.28 00:19:55.
