data_PCOD8091716
_publ_section_title
;
Structure prediction by ZEFSAII (Michael W. Deem and Ramdas Pophale) SiO2 
 PCOD8091716
Probable space group: C 2/M
;
_chemical_formula_sum "Si O2"
_cell_formula_units_Z 56
_cell_length_a 16.347000
_cell_length_b 17.120869
_cell_length_c 24.979693
_cell_angle_alpha 90.000000
_cell_angle_beta 157.842335
_cell_angle_gamma 90.000000
_cell_volume 2636.772393
_symmetry_space_group_name_H-M "C 2/M"
_symmetry_group_IT_number 12
_symmetry_cell_setting 'monoclinic'
loop_
_space_group_symop_operation_xyz
x,y,z
-x,y,-z
-x,-y,-z
x,-y,z
1/2+x,1/2+y,z
1/2-x,1/2+y,-z
1/2-x,1/2-y,-z
1/2+x,1/2-y,z
loop_
_atom_site_type_symbol
_atom_site_label
_atom_site_fract_x
_atom_site_fract_y
_atom_site_fract_z
Si Si1 0.407852 0.354712 0.209458
Si Si2 0.871648 0.413319 0.052828
Si Si3 0.017171 0.293916 0.799384
Si Si4 0.789635 0.585923 0.586298
Si Si5 0.827676 0.867936 0.280627
Si Si6 0.114956 0.591330 0.476318
Si Si7 0.150952 0.276664 0.639319
O O1 0.358690 0.263026 0.166522
O O2 0.295681 0.374324 0.197651
O O3 0.665060 0.371484 0.366445
O O4 0.296085 0.408179 0.097367
O O5 0.851028 0.500000 0.064805
O O6 0.819841 0.348580 0.067317
O O7 0.116931 0.400411 0.182014
O O8 0.853489 0.350498 0.668754
O O9 0.895370 0.233210 0.765664
O O10 0.868068 0.500000 0.652629
O O11 0.531093 0.580723 0.422484
O O12 0.898034 0.606561 0.594920
O O13 0.879361 0.778398 0.327378
O O14 0.102213 0.500000 0.482733
O O15 0.911569 0.635023 0.381121
O O16 0.000000 0.246376 0.500000
#
# Coordination Sequence:
#
# PCOD8091716 Si02
#       7
#     8   8   8   8   8   8   8
#     4  11  21  38  56  77 108 146 184 216 256 317
#     4  11  24  38  55  80 110 142 178 221 267 315
#     4  11  22  37  56  82 108 142 178 220 267 316
#     4  10  19  34  57  83 110 137 173 221 270 317
#     4  10  21  35  57  81 108 142 178 217 266 320
#     4  10  21  35  55  82 109 142 178 217 266 315
#     4  11  19  35  53  81 112 140 172 220 268 317
#
# _framework density 21.238088000000001
#
# number of rings (size 3 to 8) (size 9 to 14) (size 15 to 20)
#    0.000    1.429    2.857    3.000    0.000    4.857 
#    0.000    2.143    0.000    0.000    0.000    0.000 
#    0.000   14.857    0.000    0.000    0.000    0.000 
#
# Total GULP energy -347147.766787 kJ/mol
# GULP energy per Si atom -12398.134528 kJ/mol
# Density = 2.118975 g / cm^3
# Si number density = 21.238088 Si / 1000 Ang^3
#
#
#
# Elastic Constant Matrix: (Units=GPa)
#
#
# Indices 1 2 3 4 5 6 
#
# 1 51.9963 30.9781 16.8064 0.0109 -13.8007 -0.0013
# 2 30.9781 125.5657 16.1209 0.0344 -7.3682 -0.0055
# 3 16.8064 16.1209 42.0186 0.0503 -16.1731 0.0015
# 4 0.0109 0.0344 0.0503 23.5867 0.0034 -3.9620
# 5 -13.8007 -7.3682 -16.1731 0.0034 25.6192 -0.0011
# 6 -0.0013 -0.0055 0.0015 -3.9620 -0.0011 25.9107
#
#
#
# Elastic Compliance Matrix: (Units=1/GPa)
#
#
# Indices 1 2 3 4 5 6 
#
# 1 0.026569 -0.005365 -0.004826 0.000005 0.009722 0.000002
# 2 -0.005365 0.009465 -0.002048 -0.000007 -0.001460 0.000001
# 3 -0.004826 -0.002048 0.033404 -0.000071 0.017899 -0.000013
# 4 0.000005 -0.000007 -0.000071 0.043515 -0.000050 0.006654
# 5 0.009722 -0.001460 0.017899 -0.000050 0.055150 -0.000006
# 6 0.000002 0.000001 -0.000013 0.006654 -0.000006 0.039612
#
#
# Mechanical properties :
#
#
# Convention : Reuss Voigt Hill
#
# Bulk Modulus (GPa) = 22.24171 38.59903 30.42037
# Shear Modulus (GPa) = 20.22832 25.40166 22.81499
#
# Velocity S-wave (km/s) = 3.08954 3.46214 3.28113
# Velocity P-wave (km/s) = 4.81895 5.84771 5.35808
#
# Compressibility (1/GPa) = 0.04496056
#
# Stress axis : x y z
#
# Youngs Moduli (GPa) = 37.63818 105.65645 29.93613
#
# Poissons Ratio (x) = 0.56680 0.14449
# Poissons Ratio (y) = 0.20191 0.06130
# Poissons Ratio (z) = 0.18166 0.21634
#
# Static dielectric constant tensor:
#      x y z
#    x 3.876520 -0.000010 -0.255970 
#    y -0.000010 3.908220 -0.000060 
#    z -0.255970 -0.000060 3.589180 
# 
# 
# High freq. dielectric constant tensor:
#      x y z
#    x 1.826650 0.000000 -0.022050 
#    y 0.000000 1.841340 -0.000010 
#    z -0.022050 -0.000010 1.810890 
# 
# From -- ./inp_files/226528.got.cif
#   From: 2010.06.25/outbox.cif.g09.slc.cpg/sg12_114_cif.got.tgz:226528.got - 2010.06.28 00:19:55.
