data_PCOD8091805
_publ_section_title
;
Structure prediction by ZEFSAII (Michael W. Deem and Ramdas Pophale) SiO2 
 PCOD8091805
Probable space group: C 2/M
;
_chemical_formula_sum "Si O2"
_cell_formula_units_Z 64
_cell_length_a 25.236453
_cell_length_b 10.802467
_cell_length_c 20.726291
_cell_angle_alpha 90.000000
_cell_angle_beta 148.630336
_cell_angle_gamma 90.000000
_cell_volume 2941.315929
_symmetry_space_group_name_H-M "C 2/M"
_symmetry_group_IT_number 12
_symmetry_cell_setting 'monoclinic'
loop_
_space_group_symop_operation_xyz
x,y,z
-x,y,-z
-x,-y,-z
x,-y,z
1/2+x,1/2+y,z
1/2-x,1/2+y,-z
1/2-x,1/2-y,-z
1/2+x,1/2-y,z
loop_
_atom_site_type_symbol
_atom_site_label
_atom_site_fract_x
_atom_site_fract_y
_atom_site_fract_z
Si Si1 0.453662 0.288819 0.889090
Si Si2 0.963662 0.638682 0.345594
Si Si3 0.632379 0.138408 0.019298
Si Si4 0.327727 0.861900 0.080071
Si Si5 0.872189 0.868197 0.671244
Si Si6 0.848557 0.144156 0.290213
Si Si7 0.253808 0.862157 0.685397
Si Si8 0.157465 0.283586 0.478457
O O1 0.542620 0.192158 0.968079
O O2 0.435474 0.362538 0.804038
O O3 0.348013 0.226307 0.800050
O O4 0.500000 0.364375 0.000000
O O5 0.945573 0.500000 0.357433
O O6 0.900922 0.654166 0.215619
O O7 0.935376 0.753992 0.362923
O O8 0.081165 0.645392 0.446548
O O9 0.605632 0.149405 0.915844
O O10 0.642812 0.000000 0.055623
O O11 0.745428 0.194216 0.148606
O O12 0.275327 0.000000 0.026911
O O13 0.250000 0.750000 0.000000
O O14 0.897843 0.762505 0.645183
O O15 0.751243 0.872304 0.559017
O O16 0.902358 0.000000 0.672051
O O17 0.833313 0.151593 0.351082
O O18 0.877622 0.000000 0.300839
O O19 0.204311 0.833800 0.564825
O O20 0.297669 0.000000 0.728184
#
# Coordination Sequence:
#
# PCOD8091805 Si02
#       8
#     8   8   8   8   8   8   8   8
#     4  11  21  35  60  91 125 160 198 244 308 382
#     4  11  23  40  62  89 122 164 211 252 302 370
#     4  10  19  34  57  85 120 155 196 247 302 361
#     4  10  20  35  56  83 116 155 198 247 299 357
#     4  10  22  41  62  89 122 158 201 255 311 369
#     4  10  21  37  59  88 123 157 200 256 307 358
#     4  10  21  38  62  92 122 157 205 263 312 359
#     4  10  22  41  65  87 117 158 208 260 306 361
#
# _framework density 21.758967999999999
#
# number of rings (size 3 to 8) (size 9 to 14) (size 15 to 20)
#    0.000    1.750    2.500    1.875    0.000    2.250 
#    0.000   11.250    0.000    0.000    0.000    0.000 
#    0.000    0.000    0.000    0.000    0.000    0.000 
#
# Total GULP energy -396424.140604 kJ/mol
# GULP energy per Si atom -12388.254394 kJ/mol
# Density = 2.170944 g / cm^3
# Si number density = 21.758968 Si / 1000 Ang^3
#
#
#
# Elastic Constant Matrix: (Units=GPa)
#
#
# Indices 1 2 3 4 5 6 
#
# 1 76.4091 29.1662 15.0724 0.0000 0.8536 0.0000
# 2 29.1662 93.4330 20.3277 0.0000 1.0067 0.0000
# 3 15.0724 20.3277 78.3072 0.0000 -17.4141 0.0000
# 4 0.0000 0.0000 0.0000 7.6383 0.0000 -1.8276
# 5 0.8536 1.0067 -17.4141 0.0000 43.2685 0.0000
# 6 0.0000 0.0000 0.0000 -1.8276 0.0000 25.4120
#
#
#
# Elastic Compliance Matrix: (Units=1/GPa)
#
#
# Indices 1 2 3 4 5 6 
#
# 1 0.015129 -0.004270 -0.002029 0.000000 -0.001016 0.000000
# 2 -0.004270 0.012649 -0.002755 0.000000 -0.001319 0.000000
# 3 -0.002029 -0.002755 0.015265 0.000000 0.006248 0.000000
# 4 0.000000 0.000000 0.000000 0.133211 0.000000 0.009580
# 5 -0.001016 -0.001319 0.006248 0.000000 0.025677 0.000000
# 6 0.000000 0.000000 0.000000 0.009580 0.000000 0.040040
#
#
# Mechanical properties :
#
#
# Convention : Reuss Voigt Hill
#
# Bulk Modulus (GPa) = 40.10487 41.92021 41.01254
# Shear Modulus (GPa) = 18.62937 27.50262 23.06600
#
# Velocity S-wave (km/s) = 2.92921 3.55909 3.25940
# Velocity P-wave (km/s) = 5.46917 6.01640 5.74930
#
# Compressibility (1/GPa) = 0.02493463
#
# Stress axis : x y z
#
# Youngs Moduli (GPa) = 66.09769 79.05463 65.50742
#
# Poissons Ratio (x) = 0.33758 0.13294
# Poissons Ratio (y) = 0.28225 0.18047
# Poissons Ratio (z) = 0.13414 0.21780
#
# Static dielectric constant tensor:
#      x y z
#    x 3.951830 0.000000 -0.138060 
#    y 0.000000 3.810350 0.000000 
#    z -0.138060 0.000000 4.118970 
# 
# 
# High freq. dielectric constant tensor:
#      x y z
#    x 1.852210 0.000000 -0.016200 
#    y 0.000000 1.838260 0.000000 
#    z -0.016200 0.000000 1.857690 
# 
# From -- ./inp_files/327843.got.cif
#   From: 2010.06.25/outbox.cif.g09.slc.cpg/sg12_164_cif.got.tgz:327843.got - 2010.06.28 00:19:55.
