data_PCOD8091486
_publ_section_title
;
Structure prediction by ZEFSAII (Michael W. Deem and Ramdas Pophale) SiO2 
 PCOD8091486
Probable space group: C 2/M
;
_chemical_formula_sum "Si O2"
_cell_formula_units_Z 48
_cell_length_a 11.642244
_cell_length_b 26.471726
_cell_length_c 14.794303
_cell_angle_alpha 90.000000
_cell_angle_beta 30.032967
_cell_angle_gamma 90.000000
_cell_volume 2282.001873
_symmetry_space_group_name_H-M "C 2/M"
_symmetry_group_IT_number 12
_symmetry_cell_setting 'monoclinic'
loop_
_space_group_symop_operation_xyz
x,y,z
-x,y,-z
-x,-y,-z
x,-y,z
1/2+x,1/2+y,z
1/2-x,1/2+y,-z
1/2-x,1/2-y,-z
1/2+x,1/2-y,z
loop_
_atom_site_type_symbol
_atom_site_label
_atom_site_fract_x
_atom_site_fract_y
_atom_site_fract_z
Si Si1 0.274054 0.194035 0.595303
Si Si2 0.187903 0.942510 0.447084
Si Si3 0.660670 0.692412 0.305191
Si Si4 0.052046 0.364708 0.134956
Si Si5 0.486012 0.612497 0.735134
Si Si6 0.960970 0.726612 0.746507
O O1 0.500000 0.200319 0.500000
O O2 0.332790 0.200635 0.449495
O O3 0.165740 0.138047 0.683458
O O4 0.079870 0.238058 0.744627
O O5 0.407480 0.906244 0.287978
O O6 0.000000 0.927195 0.500000
O O7 0.081443 0.938006 0.621541
O O8 0.268224 0.000000 0.378320
O O9 0.500000 0.707564 0.500000
O O10 0.901693 0.667992 0.168025
O O11 0.526272 0.651332 0.339208
O O12 0.700117 0.741455 0.212754
O O13 0.169371 0.321388 0.118943
O O14 0.244680 0.396198 0.949495
#
# Coordination Sequence:
#
# PCOD8091486 Si02
#       6
#     8   8   8   8   8   8
#     4  10  19  34  56  82 116 165 208 242 283 352
#     4  11  23  41  66  92 118 155 200 248 311 364
#     4  11  19  35  57  83 121 168 198 233 287 353
#     4  12  21  38  61  87 128 160 195 246 302 352
#     4  11  22  37  60  88 119 159 201 243 304 357
#     4  10  20  33  56  84 120 167 205 235 289 356
#
# _framework density 21.034161999999998
#
# number of rings (size 3 to 8) (size 9 to 14) (size 15 to 20)
#    0.000    1.167    5.000    4.000    0.000    4.000 
#    0.000    9.167    0.000    0.500    0.000    1.167 
#    0.000    0.000    0.000    0.000    0.000    0.000 
#
# Total GULP energy -297340.589758 kJ/mol
# GULP energy per Si atom -12389.191240 kJ/mol
# Density = 2.098629 g / cm^3
# Si number density = 21.034162 Si / 1000 Ang^3
#
#
#
# Elastic Constant Matrix: (Units=GPa)
#
#
# Indices 1 2 3 4 5 6 
#
# 1 58.6538 24.5905 27.2059 0.0043 3.0789 -0.0253
# 2 24.5905 81.6880 36.8284 0.0001 4.8053 -0.0032
# 3 27.2059 36.8284 103.8876 0.0042 7.9428 -0.0351
# 4 0.0043 0.0001 0.0042 19.2086 -0.0040 5.5336
# 5 3.0789 4.8053 7.9428 -0.0040 18.8142 0.0312
# 6 -0.0253 -0.0032 -0.0351 5.5336 0.0312 3.1162
#
#
#
# Elastic Compliance Matrix: (Units=1/GPa)
#
#
# Indices 1 2 3 4 5 6 
#
# 1 0.020723 -0.004494 -0.003784 -0.000083 -0.000646 0.000275
# 2 -0.004494 0.015591 -0.004239 0.000035 -0.001457 -0.000116
# 3 -0.003784 -0.004239 0.012389 -0.000088 -0.003529 0.000296
# 4 -0.000083 0.000035 -0.000088 0.106587 0.000378 -0.189278
# 5 -0.000646 -0.001457 -0.003529 0.000378 0.055121 -0.001270
# 6 0.000275 -0.000116 0.000296 -0.189278 -0.001270 0.657037
#
#
# Mechanical properties :
#
#
# Convention : Reuss Voigt Hill
#
# Bulk Modulus (GPa) = 42.24912 46.83100 44.54006
# Shear Modulus (GPa) = 5.55326 18.60142 12.07734
#
# Velocity S-wave (km/s) = 1.62661 2.97702 2.39880
# Velocity P-wave (km/s) = 4.86388 5.84204 5.37526
#
# Compressibility (1/GPa) = 0.02366913
#
# Stress axis : x y z
#
# Youngs Moduli (GPa) = 48.25653 64.13822 80.71420
#
# Poissons Ratio (x) = 0.28824 0.30543
# Poissons Ratio (y) = 0.21687 0.34214
# Poissons Ratio (z) = 0.18261 0.27188
#
# Static dielectric constant tensor:
#      x y z
#    x 3.843360 0.000000 0.136590 
#    y 0.000000 3.691070 0.000000 
#    z 0.136590 0.000000 3.629520 
# 
# 
# High freq. dielectric constant tensor:
#      x y z
#    x 1.801450 0.000000 0.006940 
#    y 0.000000 1.799120 0.000000 
#    z 0.006940 0.000000 1.812960 
# 
# From -- ./inp_files/209782.got.cif
#   From: 2010.06.25/outbox.cif.g09.slc.cpg/sg12_105_cif.got.tgz:209782.got - 2010.06.28 00:19:55.
