data_PCOD8091281
_publ_section_title
;
Structure prediction by ZEFSAII (Michael W. Deem and Ramdas Pophale) SiO2 
 PCOD8091281
Probable space group: C 2/M
;
_chemical_formula_sum "Si O2"
_cell_formula_units_Z 36
_cell_length_a 13.106480
_cell_length_b 14.230420
_cell_length_c 11.799297
_cell_angle_alpha 90.000000
_cell_angle_beta 121.964298
_cell_angle_gamma 90.000000
_cell_volume 1867.021789
_symmetry_space_group_name_H-M "C 2/M"
_symmetry_group_IT_number 12
_symmetry_cell_setting 'monoclinic'
loop_
_space_group_symop_operation_xyz
x,y,z
-x,y,-z
-x,-y,-z
x,-y,z
1/2+x,1/2+y,z
1/2-x,1/2+y,-z
1/2-x,1/2-y,-z
1/2+x,1/2-y,z
loop_
_atom_site_type_symbol
_atom_site_label
_atom_site_fract_x
_atom_site_fract_y
_atom_site_fract_z
Si Si1 0.200750 0.606998 0.470936
Si Si2 0.244242 0.705385 0.873989
Si Si3 0.472013 0.896471 0.183815
Si Si4 0.000000 0.250258 0.000000
Si Si5 0.642626 0.728231 0.593335
O O1 0.229681 0.500000 0.524405
O O2 0.303364 0.640493 0.443865
O O3 0.197734 0.673572 0.579074
O O4 0.070441 0.614986 0.338460
O O5 0.158507 0.614354 0.832171
O O6 0.185070 0.778350 0.749083
O O7 0.250000 0.750000 0.000000
O O8 0.382546 0.683617 0.919852
O O9 0.493577 0.816889 0.104718
O O10 0.478646 0.000000 0.132171
O O11 0.500000 0.723537 0.500000
#
# Coordination Sequence:
#
# PCOD8091281 Si02
#       5
#     8   8   8   4   8
#     4  10  22  36  57  86 114 147 190 233 282 333
#     4  10  21  35  56  85 111 149 185 227 279 336
#     4  10  19  34  55  84 110 143 190 233 272 330
#     4  10  19  36  57  76 114 152 184 222 277 336
#     4  11  21  38  60  82 117 150 187 234 284 333
#
# _framework density 19.282046999999999
#
# number of rings (size 3 to 8) (size 9 to 14) (size 15 to 20)
#    0.000    1.778    4.444    0.333    0.000    1.778 
#    0.000    0.556    0.000    5.333    0.000    0.000 
#    0.000    0.000    0.000    0.000    0.000    0.000 
#
# Total GULP energy -223097.985713 kJ/mol
# GULP energy per Si atom -12394.332540 kJ/mol
# Density = 1.923816 g / cm^3
# Si number density = 19.282047 Si / 1000 Ang^3
#
#
#
# Elastic Constant Matrix: (Units=GPa)
#
#
# Indices 1 2 3 4 5 6 
#
# 1 126.9640 32.4433 42.2101 0.0000 19.3250 0.0000
# 2 32.4433 83.9663 14.4964 0.0000 0.7222 0.0000
# 3 42.2101 14.4964 93.6625 0.0000 3.3549 0.0000
# 4 0.0000 0.0000 0.0000 6.2402 0.0000 -10.4065
# 5 19.3250 0.7222 3.3549 0.0000 31.2002 0.0000
# 6 0.0000 0.0000 0.0000 -10.4065 0.0000 2.8305
#
#
#
# Elastic Compliance Matrix: (Units=1/GPa)
#
#
# Indices 1 2 3 4 5 6 
#
# 1 0.011162 -0.003523 -0.004257 0.000000 -0.006374 0.000000
# 2 -0.003523 0.013349 -0.000548 0.000000 0.001932 0.000000
# 3 -0.004257 -0.000548 0.012633 0.000000 0.001291 0.000000
# 4 0.000000 0.000000 0.000000 -0.031230 0.000000 -0.114821
# 5 -0.006374 0.001932 0.001291 0.000000 0.035816 0.000000
# 6 0.000000 0.000000 0.000000 -0.114821 0.000000 -0.068852
#
#
# Mechanical properties :
#
#
# Convention : Reuss Voigt Hill
#
# Bulk Modulus (GPa) = 48.80524 53.65471 51.22998
# Shear Modulus (GPa) = -1374.12675 22.41706 -675.85485
#
# Velocity S-wave (km/s) = -26.72439 3.41337 -18.74222
# Velocity P-wave (km/s) = 30.44488 6.58950 21.01749
#
# Compressibility (1/GPa) = 0.02048960
#
# Stress axis : x y z
#
# Youngs Moduli (GPa) = 89.59075 74.91367 79.15503
#
# Poissons Ratio (x) = 0.26393 0.33693
# Poissons Ratio (y) = 0.31563 0.04334
# Poissons Ratio (z) = 0.38135 0.04102
#
# Static dielectric constant tensor:
#      x y z
#    x 4.082220 0.000000 0.169240 
#    y 0.000000 3.371960 0.000000 
#    z 0.169240 0.000000 3.647770 
# 
# 
# High freq. dielectric constant tensor:
#      x y z
#    x 1.767690 0.000000 0.003690 
#    y 0.000000 1.713080 0.000000 
#    z 0.003690 0.000000 1.760080 
# 
# From -- ./inp_files/129020.got.cif
#   From: 2010.06.25/outbox.cif.g09.slc.cpg/sg12_65_cif.got.tgz:129020.got - 2010.06.28 00:19:55.
