data_PCOD8091018
_publ_section_title
;
Structure prediction by ZEFSAII (Michael W. Deem and Ramdas Pophale) SiO2 
 PCOD8091018
Probable space group: C 2/M
;
_chemical_formula_sum "Si O2"
_cell_formula_units_Z 64
_cell_length_a 9.553704
_cell_length_b 19.661678
_cell_length_c 22.050200
_cell_angle_alpha 90.000000
_cell_angle_beta 125.407211
_cell_angle_gamma 90.000000
_cell_volume 3375.916900
_symmetry_space_group_name_H-M "C 2/M"
_symmetry_group_IT_number 12
_symmetry_cell_setting 'monoclinic'
loop_
_space_group_symop_operation_xyz
x,y,z
-x,y,-z
-x,-y,-z
x,-y,z
1/2+x,1/2+y,z
1/2-x,1/2+y,-z
1/2-x,1/2-y,-z
1/2+x,1/2-y,z
loop_
_atom_site_type_symbol
_atom_site_label
_atom_site_fract_x
_atom_site_fract_y
_atom_site_fract_z
Si Si1 0.043860 0.577423 0.838492
Si Si2 0.983661 0.788022 0.336199
Si Si3 0.658355 0.574041 0.712355
Si Si4 0.185745 0.928535 0.575773
Si Si5 0.874385 0.352481 0.020204
Si Si6 0.678887 0.718580 0.576544
Si Si7 0.682017 0.200939 0.805995
Si Si8 0.069918 0.779414 0.894870
O O1 0.088490 0.500000 0.832857
O O2 0.126177 0.595182 0.924163
O O3 0.122116 0.624614 0.805643
O O4 0.839831 0.589700 0.790056
O O5 0.968309 0.863518 0.302380
O O6 0.853862 0.783634 0.359803
O O7 0.935429 0.729349 0.277098
O O8 0.181692 0.775986 0.405404
O O9 0.588809 0.500000 0.718029
O O10 0.677006 0.570095 0.645449
O O11 0.259987 0.854772 0.574722
O O12 0.000000 0.930847 0.500000
O O13 0.282031 0.000000 0.579577
O O14 0.941836 0.278269 0.056659
O O15 0.679945 0.343915 0.946268
O O16 0.000000 0.381633 0.000000
O O17 0.500000 0.737151 0.500000
O O18 0.661956 0.249366 0.858874
O O19 0.877620 0.196743 0.832379
#
# Coordination Sequence:
#
# PCOD8091018 Si02
#       8
#     8   8   8   8   8   8   8   8
#     4  10  22  37  55  79 110 147 186 233 287 339
#     4  11  20  34  56  82 107 145 187 224 279 334
#     4   9  18  33  52  76 104 138 179 225 270 327
#     4   8  14  27  49  76 104 137 178 219 261 312
#     4  10  19  34  54  79 109 143 181 225 285 338
#     4  10  20  33  52  82 118 148 182 231 278 326
#     4  11  20  35  56  83 109 142 188 239 275 333
#     4  10  20  32  54  81 109 137 180 235 282 325
#
# _framework density 18.957812000000001
#
# number of rings (size 3 to 8) (size 9 to 14) (size 15 to 20)
#    0.000    2.125    1.250    4.125    0.000    0.250 
#    0.000    1.250    0.000    4.125    0.000    0.000 
#    0.000    0.000    0.000    0.000    0.000    0.000 
#
# Total GULP energy -396533.780893 kJ/mol
# GULP energy per Si atom -12391.680653 kJ/mol
# Density = 1.891466 g / cm^3
# Si number density = 18.957812 Si / 1000 Ang^3
#
#
#
# Elastic Constant Matrix: (Units=GPa)
#
#
# Indices 1 2 3 4 5 6 
#
# 1 50.0438 35.3663 9.6314 0.0000 14.3274 0.0000
# 2 35.3663 134.2978 36.0415 0.0000 22.6178 0.0000
# 3 9.6314 36.0415 82.5675 0.0000 11.8612 0.0000
# 4 0.0000 0.0000 0.0000 30.0741 0.0000 5.0924
# 5 14.3274 22.6178 11.8612 0.0000 31.2788 0.0000
# 6 0.0000 0.0000 0.0000 5.0924 0.0000 18.4832
#
#
#
# Elastic Compliance Matrix: (Units=1/GPa)
#
#
# Indices 1 2 3 4 5 6 
#
# 1 0.026217 -0.005697 0.000594 0.000000 -0.008115 0.000000
# 2 -0.005697 0.010473 -0.003378 0.000000 -0.003683 0.000000
# 3 0.000594 -0.003378 0.013966 0.000000 -0.003125 0.000000
# 4 0.000000 0.000000 0.000000 0.034878 0.000000 -0.009610
# 5 -0.008115 -0.003683 -0.003125 0.000000 0.039536 0.000000
# 6 0.000000 0.000000 0.000000 -0.009610 0.000000 0.056751
#
#
# Mechanical properties :
#
#
# Convention : Reuss Voigt Hill
#
# Bulk Modulus (GPa) = 29.67832 47.66530 38.67181
# Shear Modulus (GPa) = 23.80792 28.35854 26.08323
#
# Velocity S-wave (km/s) = 3.54762 3.87185 3.71328
# Velocity P-wave (km/s) = 5.69822 6.72203 6.23119
#
# Compressibility (1/GPa) = 0.03369463
#
# Stress axis : x y z
#
# Youngs Moduli (GPa) = 38.14248 95.48193 71.60495
#
# Poissons Ratio (x) = 0.54396 -0.04255
# Poissons Ratio (y) = 0.21730 0.24189
# Poissons Ratio (z) = -0.02267 0.32254
#
# Static dielectric constant tensor:
#      x y z
#    x 3.049200 0.000000 -0.041410 
#    y 0.000000 3.927150 0.000000 
#    z -0.041410 0.000000 3.625280 
# 
# 
# High freq. dielectric constant tensor:
#      x y z
#    x 1.685960 0.000000 -0.003120 
#    y 0.000000 1.733870 0.000000 
#    z -0.003120 0.000000 1.757650 
# 
# From -- ./inp_files/301766.got.cif
#   From: 2010.06.25/outbox.cif.g09.slc.cpg/sg12_151_cif.got.tgz:301766.got - 2010.06.28 00:19:55.
