data_PCOD8091009
_publ_section_title
;
Structure prediction by ZEFSAII (Michael W. Deem and Ramdas Pophale) SiO2 
 PCOD8091009
Probable space group: C 2/M
;
_chemical_formula_sum "Si O2"
_cell_formula_units_Z 40
_cell_length_a 20.596904
_cell_length_b 8.583829
_cell_length_c 12.552436
_cell_angle_alpha 90.000000
_cell_angle_beta 76.626990
_cell_angle_gamma 90.000000
_cell_volume 2159.098710
_symmetry_space_group_name_H-M "C 2/M"
_symmetry_group_IT_number 12
_symmetry_cell_setting 'monoclinic'
loop_
_space_group_symop_operation_xyz
x,y,z
-x,y,-z
-x,-y,-z
x,-y,z
1/2+x,1/2+y,z
1/2-x,1/2+y,-z
1/2-x,1/2-y,-z
1/2+x,1/2-y,z
loop_
_atom_site_type_symbol
_atom_site_label
_atom_site_fract_x
_atom_site_fract_y
_atom_site_fract_z
Si Si1 0.923299 0.172114 0.497474
Si Si2 0.322692 0.182932 0.955440
Si Si3 0.459906 0.820130 0.278620
Si Si4 0.397511 0.683207 0.737733
Si Si5 0.929201 0.817330 0.075518
O O1 0.914007 0.286273 0.400307
O O2 0.884886 0.230580 0.618507
O O3 0.000000 0.163551 0.500000
O O4 0.897955 0.000000 0.474476
O O5 0.345114 0.218768 0.826295
O O6 0.323990 0.000000 0.976654
O O7 0.250000 0.250000 0.000000
O O8 0.371579 0.269476 0.017297
O O9 0.527212 0.719339 0.254286
O O10 0.417860 0.773341 0.190621
O O11 0.479513 0.000000 0.268954
O O12 0.385954 0.500000 0.759877
O O13 0.925897 0.000000 0.098728
O O14 0.000000 0.766594 0.000000
#
# Coordination Sequence:
#
# PCOD8091009 Si02
#       5
#     8   8   8   8   8
#     4   8  16  30  49  74 108 146 182 224 275 329
#     4  12  25  40  59  83 114 149 189 231 279 337
#     4  11  20  30  51  83 115 144 182 231 281 331
#     4  10  19  34  54  78 110 148 188 229 276 328
#     4  11  22  37  59  82 112 150 188 232 282 332
#
# _framework density 18.526250000000001
#
# number of rings (size 3 to 8) (size 9 to 14) (size 15 to 20)
#    0.000    1.600    2.000    6.000    0.000    5.200 
#    0.000    0.000    0.000    1.200    0.000    0.000 
#    0.000    0.000    0.000    0.000    0.000    0.000 
#
# Total GULP energy -248003.576119 kJ/mol
# GULP energy per Si atom -12400.178806 kJ/mol
# Density = 1.848408 g / cm^3
# Si number density = 18.526250 Si / 1000 Ang^3
#
#
#
# Elastic Constant Matrix: (Units=GPa)
#
#
# Indices 1 2 3 4 5 6 
#
# 1 73.8711 11.2107 38.6234 0.0000 -1.4608 0.0000
# 2 11.2107 65.9721 32.1310 0.0000 6.1078 0.0000
# 3 38.6234 32.1310 144.4307 0.0000 2.6232 0.0000
# 4 0.0000 0.0000 0.0000 29.9836 0.0000 -2.2617
# 5 -1.4608 6.1078 2.6232 0.0000 18.4582 0.0000
# 6 0.0000 0.0000 0.0000 -2.2617 0.0000 21.8983
#
#
#
# Elastic Compliance Matrix: (Units=1/GPa)
#
#
# Indices 1 2 3 4 5 6 
#
# 1 0.015847 -0.000906 -0.004075 0.000000 0.002133 0.000000
# 2 -0.000906 0.017545 -0.003563 0.000000 -0.005371 0.000000
# 3 -0.004075 -0.003563 0.008813 0.000000 -0.000396 0.000000
# 4 0.000000 0.000000 0.000000 0.033613 0.000000 0.003472
# 5 0.002133 -0.005371 -0.000396 0.000000 0.056179 0.000000
# 6 0.000000 0.000000 0.000000 0.003472 0.000000 0.046024
#
#
# Mechanical properties :
#
#
# Convention : Reuss Voigt Hill
#
# Bulk Modulus (GPa) = 39.81364 49.80048 44.80706
# Shear Modulus (GPa) = 24.57215 27.55526 26.06371
#
# Velocity S-wave (km/s) = 3.64585 3.86082 3.75487
# Velocity P-wave (km/s) = 6.26578 6.84207 6.56026
#
# Compressibility (1/GPa) = 0.02511702
#
# Stress axis : x y z
#
# Youngs Moduli (GPa) = 63.10185 56.99782 113.46332
#
# Poissons Ratio (x) = 0.05162 0.46238
# Poissons Ratio (y) = 0.05715 0.40431
# Poissons Ratio (z) = 0.25715 0.20310
#
# Static dielectric constant tensor:
#      x y z
#    x 2.753180 0.000000 0.058800 
#    y 0.000000 3.431120 0.000000 
#    z 0.058800 0.000000 3.983960 
# 
# 
# High freq. dielectric constant tensor:
#      x y z
#    x 1.659970 0.000000 0.004170 
#    y 0.000000 1.728070 0.000000 
#    z 0.004170 0.000000 1.742480 
# 
# From -- ./inp_files/151737.got.cif
#   From: 2010.06.25/outbox.cif.g09.slc.cpg/sg12_76_cif.got.tgz:151737.got - 2010.06.28 00:19:55.
