data_PCOD8091039
_publ_section_title
;
Structure prediction by ZEFSAII (Michael W. Deem and Ramdas Pophale) SiO2 
 PCOD8091039
Probable space group: C 2/M
;
_chemical_formula_sum "Si O2"
_cell_formula_units_Z 64
_cell_length_a 23.844179
_cell_length_b 12.743998
_cell_length_c 11.791221
_cell_angle_alpha 90.000000
_cell_angle_beta 114.261246
_cell_angle_gamma 90.000000
_cell_volume 3266.554788
_symmetry_space_group_name_H-M "C 2/M"
_symmetry_group_IT_number 12
_symmetry_cell_setting 'monoclinic'
loop_
_space_group_symop_operation_xyz
x,y,z
-x,y,-z
-x,-y,-z
x,-y,z
1/2+x,1/2+y,z
1/2-x,1/2+y,-z
1/2-x,1/2-y,-z
1/2+x,1/2-y,z
loop_
_atom_site_type_symbol
_atom_site_label
_atom_site_fract_x
_atom_site_fract_y
_atom_site_fract_z
Si Si1 0.581850 0.692202 0.336314
Si Si2 0.686230 0.122858 0.944455
Si Si3 0.058834 0.619011 0.191098
Si Si4 0.074617 0.302502 0.972019
Si Si5 0.750259 0.243117 0.811860
Si Si6 0.370312 0.620663 0.856950
Si Si7 0.150338 0.875331 0.617835
Si Si8 0.033064 0.114796 0.646790
O O1 0.594674 0.815331 0.317769
O O2 0.597423 0.623056 0.238938
O O3 0.624283 0.654519 0.473326
O O4 0.508557 0.684838 0.304467
O O5 0.706869 0.158273 0.836954
O O6 0.694717 0.000000 0.961381
O O7 0.615574 0.157859 0.901656
O O8 0.726655 0.174932 0.076013
O O9 0.050900 0.500000 0.224710
O O10 0.093330 0.627128 0.098729
O O11 0.995133 0.679893 0.119844
O O12 0.087681 0.180118 0.013703
O O13 0.804773 0.180128 0.795257
O O14 0.712422 0.309465 0.687272
O O15 0.362007 0.500000 0.888470
O O16 0.101968 0.842478 0.677813
O O17 0.162917 0.000000 0.631330
O O18 0.000000 0.104613 0.500000
O O19 0.037739 0.000000 0.706939
#
# Coordination Sequence:
#
# PCOD8091039 Si02
#       8
#     8   8   8   8   8   8   8   8
#     4  10  20  34  58  81 110 147 182 220 272 331
#     4  10  19  35  55  75 102 141 183 225 273 320
#     4  10  19  34  54  81 113 143 179 227 270 318
#     4   9  19  34  56  80 105 143 184 223 267 326
#     4  10  22  34  54  80 109 142 184 226 271 325
#     4  10  20  37  55  80 116 145 177 227 277 324
#     4  10  20  37  57  81 111 143 184 231 270 322
#     4   8  15  30  52  76 103 137 174 218 265 311
#
# _framework density 19.592507000000001
#
# number of rings (size 3 to 8) (size 9 to 14) (size 15 to 20)
#    0.000    2.375    0.000    4.125    1.750    0.500 
#    0.000    8.750    0.000    3.375    0.000    0.000 
#    0.000    0.000    0.000    0.000    0.000    0.000 
#
# Total GULP energy -396601.216246 kJ/mol
# GULP energy per Si atom -12393.788008 kJ/mol
# Density = 1.954791 g / cm^3
# Si number density = 19.592507 Si / 1000 Ang^3
#
#
#
# Elastic Constant Matrix: (Units=GPa)
#
#
# Indices 1 2 3 4 5 6 
#
# 1 83.0993 36.0988 9.7226 0.0000 -13.5511 0.0000
# 2 36.0988 147.6075 35.0738 0.0000 1.2459 0.0000
# 3 9.7226 35.0738 27.5883 0.0000 -10.1950 0.0000
# 4 0.0000 0.0000 0.0000 22.0212 0.0000 0.5190
# 5 -13.5511 1.2459 -10.1950 0.0000 26.7720 0.0000
# 6 0.0000 0.0000 0.0000 0.5190 0.0000 20.8799
#
#
#
# Elastic Compliance Matrix: (Units=1/GPa)
#
#
# Indices 1 2 3 4 5 6 
#
# 1 0.015178 -0.004814 0.004297 0.000000 0.009543 0.000000
# 2 -0.004814 0.012137 -0.017274 0.000000 -0.009580 0.000000
# 3 0.004297 -0.017274 0.067260 0.000000 0.028592 0.000000
# 4 0.000000 0.000000 0.000000 0.045437 0.000000 -0.001130
# 5 0.009543 -0.009580 0.028592 0.000000 0.053517 0.000000
# 6 0.000000 0.000000 0.000000 -0.001130 0.000000 0.047921
#
#
# Mechanical properties :
#
#
# Convention : Reuss Voigt Hill
#
# Bulk Modulus (GPa) = 16.95077 46.67614 31.81346
# Shear Modulus (GPa) = 16.85220 25.76128 21.30674
#
# Velocity S-wave (km/s) = 2.93599 3.63002 3.30130
# Velocity P-wave (km/s) = 4.49041 6.43775 5.55015
#
# Compressibility (1/GPa) = 0.05899437
#
# Stress axis : x y z
#
# Youngs Moduli (GPa) = 65.88349 82.38987 14.86769
#
# Poissons Ratio (x) = 0.39659 -0.06389
# Poissons Ratio (y) = 0.31714 0.25683
# Poissons Ratio (z) = -0.28311 1.42322
#
# Static dielectric constant tensor:
#      x y z
#    x 3.920840 0.000000 -0.156750 
#    y 0.000000 3.522670 0.000000 
#    z -0.156750 0.000000 3.235020 
# 
# 
# High freq. dielectric constant tensor:
#      x y z
#    x 1.773670 0.000000 -0.010580 
#    y 0.000000 1.761010 0.000000 
#    z -0.010580 0.000000 1.733630 
# 
# From -- ./inp_files/175328.got.cif
#   From: 2010.06.25/outbox.cif.g09.slc.cpg/sg12_88_cif.got.tgz:175328.got - 2010.06.28 00:19:55.
