data_PCOD8091700
_publ_section_title
;
Structure prediction by ZEFSAII (Michael W. Deem and Ramdas Pophale) SiO2 
 PCOD8091700
Probable space group: C 2/M
;
_chemical_formula_sum "Si O2"
_cell_formula_units_Z 64
_cell_length_a 28.395273
_cell_length_b 8.936441
_cell_length_c 14.687262
_cell_angle_alpha 90.000000
_cell_angle_beta 59.471110
_cell_angle_gamma 90.000000
_cell_volume 3210.279213
_symmetry_space_group_name_H-M "C 2/M"
_symmetry_group_IT_number 12
_symmetry_cell_setting 'monoclinic'
loop_
_space_group_symop_operation_xyz
x,y,z
-x,y,-z
-x,-y,-z
x,-y,z
1/2+x,1/2+y,z
1/2-x,1/2+y,-z
1/2-x,1/2-y,-z
1/2+x,1/2-y,z
loop_
_atom_site_type_symbol
_atom_site_label
_atom_site_fract_x
_atom_site_fract_y
_atom_site_fract_z
Si Si1 0.482920 0.326232 0.419487
Si Si2 0.932960 0.178051 0.812795
Si Si3 0.760373 0.164596 0.081159
Si Si4 0.637059 0.673247 0.432027
Si Si5 0.360313 0.832852 0.752103
Si Si6 0.054058 0.822162 0.994188
Si Si7 0.171026 0.821896 0.823666
Si Si8 0.756881 0.677776 0.590925
O O1 0.500000 0.251247 0.500000
O O2 0.496744 0.500000 0.413581
O O3 0.518327 0.262123 0.300670
O O4 0.419036 0.302109 0.456479
O O5 0.877721 0.256456 0.830545
O O6 0.943492 0.236263 0.904631
O O7 0.925934 0.000000 0.818593
O O8 0.704564 0.155511 0.192156
O O9 0.803795 0.242654 0.106479
O O10 0.781519 0.000000 0.033476
O O11 0.750000 0.250000 0.000000
O O12 0.655178 0.500000 0.414401
O O13 0.620049 0.724299 0.347599
O O14 0.685143 0.773564 0.425027
O O15 0.385493 0.000000 0.718296
O O16 0.050879 0.000000 0.997295
O O17 0.107589 0.770612 0.883502
O O18 0.000000 0.753723 0.000000
O O19 0.206015 0.763885 0.702958
O O20 0.176435 0.000000 0.821719
O O21 0.756127 0.500000 0.582685
O O22 0.750000 0.750000 0.500000
#
# Coordination Sequence:
#
# PCOD8091700 Si02
#       8
#     8   8   8   8   8   8   8   8
#     4   9  17  31  52  82 116 149 189 237 285 339
#     4  10  19  34  57  82 112 149 194 242 284 345
#     4  10  20  34  52  79 112 150 186 228 284 342
#     4  11  21  36  59  84 114 153 195 236 288 343
#     4  11  21  34  53  80 117 151 186 234 290 346
#     4   9  18  32  55  85 109 139 188 238 283 333
#     4   9  18  35  55  77 113 148 179 229 288 335
#     4  11  23  41  61  84 117 154 195 240 290 346
#
# _framework density 19.935960999999999
#
# number of rings (size 3 to 8) (size 9 to 14) (size 15 to 20)
#    0.000    2.000    2.500    1.875    0.000    3.000 
#    0.000    5.625    0.000    1.125    0.000    0.000 
#    0.000    0.000    0.000    0.000    0.000    0.000 
#
# Total GULP energy -396657.528255 kJ/mol
# GULP energy per Si atom -12395.547758 kJ/mol
# Density = 1.989059 g / cm^3
# Si number density = 19.935961 Si / 1000 Ang^3
#
#
#
# Elastic Constant Matrix: (Units=GPa)
#
#
# Indices 1 2 3 4 5 6 
#
# 1 140.6311 23.6800 59.6428 0.0000 1.6651 0.0000
# 2 23.6800 50.8856 20.8670 0.0000 3.3633 0.0000
# 3 59.6428 20.8670 114.6732 0.0000 3.3940 0.0000
# 4 0.0000 0.0000 0.0000 20.5379 0.0000 1.5730
# 5 1.6651 3.3633 3.3940 0.0000 35.8533 0.0000
# 6 0.0000 0.0000 0.0000 1.5730 0.0000 27.0080
#
#
#
# Elastic Compliance Matrix: (Units=1/GPa)
#
#
# Indices 1 2 3 4 5 6 
#
# 1 0.009425 -0.002581 -0.004439 0.000000 0.000225 0.000000
# 2 -0.002581 0.022039 -0.002618 0.000000 -0.001700 0.000000
# 3 -0.004439 -0.002618 0.011525 0.000000 -0.000639 0.000000
# 4 0.000000 0.000000 0.000000 0.048909 0.000000 -0.002849
# 5 0.000225 -0.001700 -0.000639 0.000000 0.028101 0.000000
# 6 0.000000 0.000000 0.000000 -0.002849 0.000000 0.037192
#
#
# Mechanical properties :
#
#
# Convention : Reuss Voigt Hill
#
# Bulk Modulus (GPa) = 42.17055 57.17440 49.67248
# Shear Modulus (GPa) = 27.11934 30.14652 28.63293
#
# Velocity S-wave (km/s) = 3.69226 3.89288 3.79389
# Velocity P-wave (km/s) = 6.27502 6.99623 6.64542
#
# Compressibility (1/GPa) = 0.02371323
#
# Stress axis : x y z
#
# Youngs Moduli (GPa) = 106.09602 45.37470 86.77040
#
# Poissons Ratio (x) = 0.11709 0.38520
# Poissons Ratio (y) = 0.27379 0.22715
# Poissons Ratio (z) = 0.47099 0.11879
#
# Static dielectric constant tensor:
#      x y z
#    x 3.774010 0.000000 -0.129140 
#    y 0.000000 3.276370 0.000000 
#    z -0.129140 0.000000 3.852120 
# 
# 
# High freq. dielectric constant tensor:
#      x y z
#    x 1.782990 0.000000 -0.009380 
#    y 0.000000 1.733270 0.000000 
#    z -0.009380 0.000000 1.784020 
# 
# From -- ./inp_files/249103.got.cif
#   From: 2010.06.25/outbox.cif.g09.slc.cpg/sg12_125_cif.got.tgz:249103.got - 2010.06.28 00:19:55.
