data_PCOD8091702
_publ_section_title
;
Structure prediction by ZEFSAII (Michael W. Deem and Ramdas Pophale) SiO2 
 PCOD8091702
Probable space group: C 2/M
;
_chemical_formula_sum "Si O2"
_cell_formula_units_Z 64
_cell_length_a 15.088560
_cell_length_b 12.419942
_cell_length_c 26.191816
_cell_angle_alpha 90.000000
_cell_angle_beta 39.654548
_cell_angle_gamma 90.000000
_cell_volume 3132.280802
_symmetry_space_group_name_H-M "C 2/M"
_symmetry_group_IT_number 12
_symmetry_cell_setting 'monoclinic'
loop_
_space_group_symop_operation_xyz
x,y,z
-x,y,-z
-x,-y,-z
x,-y,z
1/2+x,1/2+y,z
1/2-x,1/2+y,-z
1/2-x,1/2-y,-z
1/2+x,1/2-y,z
loop_
_atom_site_type_symbol
_atom_site_label
_atom_site_fract_x
_atom_site_fract_y
_atom_site_fract_z
Si Si1 0.835369 0.373779 0.206015
Si Si2 0.582163 0.265349 0.358142
Si Si3 0.813816 0.778236 0.525385
Si Si4 0.676398 0.375501 0.063485
Si Si5 0.492847 0.749425 0.221709
Si Si6 0.457190 0.770780 0.959381
Si Si7 0.256268 0.125504 0.636216
Si Si8 0.954776 0.622941 0.330684
O O1 0.859305 0.500000 0.187512
O O2 0.670113 0.350631 0.285571
O O3 0.907668 0.332108 0.224775
O O4 0.898446 0.308341 0.130143
O O5 0.471202 0.323474 0.445972
O O6 0.683485 0.185916 0.342088
O O7 0.491700 0.186650 0.364424
O O8 0.750000 0.750000 0.500000
O O9 0.823138 0.668133 0.554069
O O10 0.714057 0.861814 0.600823
O O11 0.635627 0.500000 0.086778
O O12 0.617529 0.304226 0.135853
O O13 0.610610 0.335054 0.038384
O O14 0.842599 0.363232 0.997264
O O15 0.407073 0.653117 0.286988
O O16 0.544044 0.827569 0.244379
O O17 0.500000 0.751054 0.000000
O O18 0.284254 0.000000 0.627327
O O19 0.995863 0.500000 0.318049
#
# Coordination Sequence:
#
# PCOD8091702 Si02
#       8
#     8   8   8   8   8   8   8   8
#     4  10  21  38  59  82 115 154 190 237 295 348
#     4  10  21  35  54  85 115 142 193 241 281 348
#     4   9  20  35  50  77 111 144 191 237 278 342
#     4  10  21  40  67  92 124 166 203 249 306 358
#     4   9  20  37  57  84 118 148 198 240 280 350
#     4  10  23  41  63  93 129 156 203 255 299 370
#     4  10  19  34  57  82 113 150 185 236 293 337
#     4  10  20  36  56  78 112 154 190 236 293 342
#
# _framework density 20.432396000000001
#
# number of rings (size 3 to 8) (size 9 to 14) (size 15 to 20)
#    0.000    2.250    0.000    1.875    1.750    4.750 
#    0.000    6.250    0.000    4.500    0.000    0.000 
#    0.000    0.000    0.000    0.000    0.000    0.000 
#
# Total GULP energy -396443.909940 kJ/mol
# GULP energy per Si atom -12388.872186 kJ/mol
# Density = 2.038589 g / cm^3
# Si number density = 20.432396 Si / 1000 Ang^3
#
#
#
# Elastic Constant Matrix: (Units=GPa)
#
#
# Indices 1 2 3 4 5 6 
#
# 1 67.5031 26.1609 28.3521 0.0000 13.4402 0.0000
# 2 26.1609 90.0529 23.9238 0.0000 4.1537 0.0000
# 3 28.3521 23.9238 115.0546 0.0000 5.7365 0.0000
# 4 0.0000 0.0000 0.0000 18.0127 0.0000 -1.2560
# 5 13.4402 4.1537 5.7365 0.0000 32.2524 0.0000
# 6 0.0000 0.0000 0.0000 -1.2560 0.0000 15.9146
#
#
#
# Elastic Compliance Matrix: (Units=1/GPa)
#
#
# Indices 1 2 3 4 5 6 
#
# 1 0.019355 -0.004371 -0.003518 0.000000 -0.006877 0.000000
# 2 -0.004371 0.012779 -0.001603 0.000000 0.000461 0.000000
# 3 -0.003518 -0.001603 0.009896 0.000000 -0.000088 0.000000
# 4 0.000000 0.000000 0.000000 0.055824 0.000000 0.004406
# 5 -0.006877 0.000461 -0.000088 0.000000 0.033827 0.000000
# 6 0.000000 0.000000 0.000000 0.004406 0.000000 0.063183
#
#
# Mechanical properties :
#
#
# Convention : Reuss Voigt Hill
#
# Bulk Modulus (GPa) = 43.39070 47.72045 45.55557
# Shear Modulus (GPa) = 22.57037 26.18088 24.37562
#
# Velocity S-wave (km/s) = 3.32721 3.58347 3.45771
# Velocity P-wave (km/s) = 6.00356 6.36613 6.18750
#
# Compressibility (1/GPa) = 0.02304642
#
# Stress axis : x y z
#
# Youngs Moduli (GPa) = 51.66673 78.25346 101.05008
#
# Poissons Ratio (x) = 0.34204 0.35547
# Poissons Ratio (y) = 0.22583 0.16199
# Poissons Ratio (z) = 0.18175 0.12545
#
# Static dielectric constant tensor:
#      x y z
#    x 3.691160 0.000000 -0.049060 
#    y 0.000000 3.417190 0.000000 
#    z -0.049060 0.000000 4.210540 
# 
# 
# High freq. dielectric constant tensor:
#      x y z
#    x 1.792300 0.000000 0.006780 
#    y 0.000000 1.773350 0.000000 
#    z 0.006780 0.000000 1.817330 
# 
# From -- ./inp_files/361017.got.cif
#   From: 2010.06.25/outbox.cif.g09.slc.cpg/sg12_181_cif.got.tgz:361017.got - 2010.06.28 00:19:55.
