data_PCOD8091827
_publ_section_title
;
Structure prediction by ZEFSAII (Michael W. Deem and Ramdas Pophale) SiO2 
 PCOD8091827
Probable space group: C 2/M
;
_chemical_formula_sum "Si O2"
_cell_formula_units_Z 48
_cell_length_a 24.229960
_cell_length_b 9.181585
_cell_length_c 10.847227
_cell_angle_alpha 90.000000
_cell_angle_beta 101.981070
_cell_angle_gamma 90.000000
_cell_volume 2360.608428
_symmetry_space_group_name_H-M "C 2/M"
_symmetry_group_IT_number 12
_symmetry_cell_setting 'monoclinic'
loop_
_space_group_symop_operation_xyz
x,y,z
-x,y,-z
-x,-y,-z
x,-y,z
1/2+x,1/2+y,z
1/2-x,1/2+y,-z
1/2-x,1/2-y,-z
1/2+x,1/2-y,z
loop_
_atom_site_type_symbol
_atom_site_label
_atom_site_fract_x
_atom_site_fract_y
_atom_site_fract_z
Si Si1 0.193520 0.661405 0.488673
Si Si2 0.015811 0.173177 0.649115
Si Si3 0.871406 0.332855 0.311646
Si Si4 0.838464 0.660495 0.794485
Si Si5 0.964605 0.672177 0.862843
Si Si6 0.755875 0.335530 0.125541
O O1 0.211238 0.500000 0.543938
O O2 0.250000 0.750000 0.500000
O O3 0.152128 0.730627 0.570489
O O4 0.156562 0.652410 0.349802
O O5 0.078716 0.228012 0.707476
O O6 0.000000 0.220589 0.500000
O O7 0.978496 0.244409 0.741177
O O8 0.011802 0.000000 0.660426
O O9 0.893047 0.500000 0.332209
O O10 0.820777 0.320755 0.191930
O O11 0.823567 0.500000 0.841824
O O12 0.899938 0.709384 0.870545
O O13 0.788064 0.771032 0.797344
O O14 0.972997 0.500000 0.842663
O O15 0.000000 0.723126 0.000000
O O16 0.737777 0.500000 0.096242
O O17 0.750000 0.250000 0.000000
#
# Coordination Sequence:
#
# PCOD8091827 Si02
#       6
#     8   8   8   8   8   8
#     4  10  19  34  57  87 119 152 193 241 298 358
#     4  11  25  43  64  94 129 166 210 262 317 369
#     4  10  22  40  63  90 122 162 206 248 300 368
#     4  10  21  38  62  90 122 157 198 250 305 364
#     4  10  23  43  67  93 123 164 212 260 312 375
#     4  11  24  40  60  88 123 162 203 249 304 363
#
# _framework density 20.333739999999999
#
# number of rings (size 3 to 8) (size 9 to 14) (size 15 to 20)
#    0.000    1.667    1.667    2.000    2.333    5.667 
#    0.000    0.000    0.000    0.000    0.000    0.000 
#    0.000    0.000    0.000    0.000    0.000    0.000 
#
# Total GULP energy -297497.543768 kJ/mol
# GULP energy per Si atom -12395.730990 kJ/mol
# Density = 2.028746 g / cm^3
# Si number density = 20.333740 Si / 1000 Ang^3
#
#
#
# Elastic Constant Matrix: (Units=GPa)
#
#
# Indices 1 2 3 4 5 6 
#
# 1 88.6019 42.2462 13.9682 0.0000 7.6739 0.0000
# 2 42.2462 93.6233 34.1878 0.0000 -0.1663 0.0000
# 3 13.9682 34.1878 92.1385 0.0000 -1.3775 0.0000
# 4 0.0000 0.0000 0.0000 31.8942 0.0000 -3.4248
# 5 7.6739 -0.1663 -1.3775 0.0000 34.7424 0.0000
# 6 0.0000 0.0000 0.0000 -3.4248 0.0000 31.6176
#
#
#
# Elastic Compliance Matrix: (Units=1/GPa)
#
#
# Indices 1 2 3 4 5 6 
#
# 1 0.014751 -0.006741 0.000216 0.000000 -0.003282 0.000000
# 2 -0.006741 0.015436 -0.004685 0.000000 0.001377 0.000000
# 3 0.000216 -0.004685 0.012565 0.000000 0.000428 0.000000
# 4 0.000000 0.000000 0.000000 0.031723 0.000000 0.003436
# 5 -0.003282 0.001377 0.000428 0.000000 0.029532 0.000000
# 6 0.000000 0.000000 0.000000 0.003436 0.000000 0.032000
#
#
# Mechanical properties :
#
#
# Convention : Reuss Voigt Hill
#
# Bulk Modulus (GPa) = 49.18301 50.57424 49.87862
# Shear Modulus (GPa) = 30.26570 31.91494 31.09032
#
# Velocity S-wave (km/s) = 3.86223 3.96606 3.91449
# Velocity P-wave (km/s) = 6.64300 6.77487 6.70926
#
# Compressibility (1/GPa) = 0.02033223
#
# Stress axis : x y z
#
# Youngs Moduli (GPa) = 67.79356 64.78376 79.58447
#
# Poissons Ratio (x) = 0.43669 -0.01718
# Poissons Ratio (y) = 0.45697 0.37285
# Poissons Ratio (z) = -0.01463 0.30351
#
# Static dielectric constant tensor:
#      x y z
#    x 4.775500 0.000000 -0.246250 
#    y 0.000000 3.392740 0.000000 
#    z -0.246250 0.000000 3.888180 
# 
# 
# High freq. dielectric constant tensor:
#      x y z
#    x 1.798730 0.000000 0.000390 
#    y 0.000000 1.785420 0.000000 
#    z 0.000390 0.000000 1.806400 
# 
# From -- ./inp_files/172086.got.cif
#   From: 2010.06.25/outbox.cif.g09.slc.cpg/sg12_87_cif.got.tgz:172086.got - 2010.06.28 00:19:55.
