data_PCOD8091634
_publ_section_title
;
Structure prediction by ZEFSAII (Michael W. Deem and Ramdas Pophale) SiO2 
 PCOD8091634
Probable space group: C 2/M
;
_chemical_formula_sum "Si O2"
_cell_formula_units_Z 64
_cell_length_a 20.210585
_cell_length_b 8.794752
_cell_length_c 21.936360
_cell_angle_alpha 90.000000
_cell_angle_beta 120.244308
_cell_angle_gamma 90.000000
_cell_volume 3368.396872
_symmetry_space_group_name_H-M "C 2/M"
_symmetry_group_IT_number 12
_symmetry_cell_setting 'monoclinic'
loop_
_space_group_symop_operation_xyz
x,y,z
-x,y,-z
-x,-y,-z
x,-y,z
1/2+x,1/2+y,z
1/2-x,1/2+y,-z
1/2-x,1/2-y,-z
1/2+x,1/2-y,z
loop_
_atom_site_type_symbol
_atom_site_label
_atom_site_fract_x
_atom_site_fract_y
_atom_site_fract_z
Si Si1 0.382298 0.822675 0.296001
Si Si2 0.652306 0.318543 0.296903
Si Si3 0.272087 0.319822 0.445857
Si Si4 0.142016 0.179345 0.908330
Si Si5 0.202184 0.821523 0.060903
Si Si6 0.517887 0.680025 0.757924
Si Si7 0.413150 0.177323 0.449977
Si Si8 0.212924 0.179098 0.198066
O O1 0.448171 0.736247 0.289935
O O2 0.390608 0.786484 0.370644
O O3 0.299700 0.757694 0.237558
O O4 0.391572 0.000000 0.286291
O O5 0.660384 0.500000 0.306172
O O6 0.714800 0.242338 0.368456
O O7 0.568520 0.259396 0.276737
O O8 0.665552 0.259134 0.233727
O O9 0.266402 0.500000 0.447029
O O10 0.250000 0.250000 0.500000
O O11 0.358612 0.271907 0.469586
O O12 0.216974 0.242400 0.911038
O O13 0.067346 0.242940 0.838569
O O14 0.144596 0.000000 0.903433
O O15 0.141621 0.227672 0.980109
O O16 0.171974 0.776411 0.114707
O O17 0.217846 0.000000 0.064529
O O18 0.517848 0.500000 0.758603
O O19 0.500000 0.231298 0.500000
O O20 0.403345 0.000000 0.461141
O O21 0.218607 0.000000 0.208430
#
# Coordination Sequence:
#
# PCOD8091634 Si02
#       8
#     8   8   8   8   8   8   8   8
#     4  10  19  34  57  81 109 143 184 228 270 326
#     4  10  21  40  59  78 111 150 186 227 281 337
#     4  12  26  43  63  86 115 151 190 230 277 335
#     4   9  17  29  45  74 110 139 176 227 280 326
#     4   9  16  28  49  74 102 141 185 225 270 329
#     4  10  21  34  52  80 114 147 180 231 285 327
#     4  10  22  41  63  88 117 148 183 229 280 334
#     4   9  16  31  55  78 101 140 187 226 268 324
#
# _framework density 19.000136000000001
#
# number of rings (size 3 to 8) (size 9 to 14) (size 15 to 20)
#    0.000    2.125    2.500    1.125    1.750    1.250 
#    0.000    1.250    0.000    3.750    0.000    0.000 
#    0.000    6.000    0.000    0.000    0.000    0.000 
#
# Total GULP energy -396683.631356 kJ/mol
# GULP energy per Si atom -12396.363480 kJ/mol
# Density = 1.895689 g / cm^3
# Si number density = 19.000136 Si / 1000 Ang^3
#
#
#
# Elastic Constant Matrix: (Units=GPa)
#
#
# Indices 1 2 3 4 5 6 
#
# 1 130.0332 28.7476 41.3903 0.0000 -9.8098 0.0000
# 2 28.7476 36.1586 26.3053 0.0000 -0.7706 0.0000
# 3 41.3903 26.3053 86.5338 0.0000 -11.4981 0.0000
# 4 0.0000 0.0000 0.0000 17.9387 0.0000 -0.3074
# 5 -9.8098 -0.7706 -11.4981 0.0000 31.7955 0.0000
# 6 0.0000 0.0000 0.0000 -0.3074 0.0000 25.1404
#
#
#
# Elastic Compliance Matrix: (Units=1/GPa)
#
#
# Indices 1 2 3 4 5 6 
#
# 1 0.010019 -0.005941 -0.002726 0.000000 0.001962 0.000000
# 2 -0.005941 0.039344 -0.009701 0.000000 -0.004388 0.000000
# 3 -0.002726 -0.009701 0.016457 0.000000 0.004875 0.000000
# 4 0.000000 0.000000 0.000000 0.055757 0.000000 0.000682
# 5 0.001962 -0.004388 0.004875 0.000000 0.033713 0.000000
# 6 0.000000 0.000000 0.000000 0.000682 0.000000 0.039785
#
#
# Mechanical properties :
#
#
# Convention : Reuss Voigt Hill
#
# Bulk Modulus (GPa) = 34.38380 49.51246 41.94813
# Shear Modulus (GPa) = 20.70346 25.39374 23.04860
#
# Velocity S-wave (km/s) = 3.30456 3.65979 3.48670
# Velocity P-wave (km/s) = 5.71805 6.63131 6.19154
#
# Compressibility (1/GPa) = 0.02908346
#
# Stress axis : x y z
#
# Youngs Moduli (GPa) = 99.80643 25.41714 60.76506
#
# Poissons Ratio (x) = 0.15100 0.16563
# Poissons Ratio (y) = 0.59296 0.58950
# Poissons Ratio (z) = 0.27205 0.24658
#
# Static dielectric constant tensor:
#      x y z
#    x 3.519050 0.000000 -0.060940 
#    y 0.000000 3.253130 0.000000 
#    z -0.060940 0.000000 3.902790 
# 
# 
# High freq. dielectric constant tensor:
#      x y z
#    x 1.729420 0.000000 -0.009570 
#    y 0.000000 1.712140 0.000000 
#    z -0.009570 0.000000 1.757110 
# 
# From -- ./inp_files/320094.got.cif
#   From: 2010.06.25/outbox.cif.g09.slc.cpg/sg12_161_cif.got.tgz:320094.got - 2010.06.28 00:19:55.
