data_PCOD8091326
_publ_section_title
;
Structure prediction by ZEFSAII (Michael W. Deem and Ramdas Pophale) SiO2 
 PCOD8091326
Probable space group: C 2/M
;
_chemical_formula_sum "Si O2"
_cell_formula_units_Z 56
_cell_length_a 14.514413
_cell_length_b 8.655185
_cell_length_c 29.952373
_cell_angle_alpha 90.000000
_cell_angle_beta 126.886956
_cell_angle_gamma 90.000000
_cell_volume 3009.539508
_symmetry_space_group_name_H-M "C 2/M"
_symmetry_group_IT_number 12
_symmetry_cell_setting 'monoclinic'
loop_
_space_group_symop_operation_xyz
x,y,z
-x,y,-z
-x,-y,-z
x,-y,z
1/2+x,1/2+y,z
1/2-x,1/2+y,-z
1/2-x,1/2-y,-z
1/2+x,1/2-y,z
loop_
_atom_site_type_symbol
_atom_site_label
_atom_site_fract_x
_atom_site_fract_y
_atom_site_fract_z
Si Si1 0.330109 0.816811 0.561275
Si Si2 0.446988 0.322195 0.940127
Si Si3 0.785268 0.317974 0.647437
Si Si4 0.924186 0.816080 0.353413
Si Si5 0.195039 0.317163 0.857533
Si Si6 0.157270 0.822372 0.939966
Si Si7 0.542768 0.816065 0.732018
O O1 0.250000 0.750000 0.500000
O O2 0.275843 0.765002 0.593035
O O3 0.457798 0.749586 0.592005
O O4 0.337778 0.000000 0.560049
O O5 0.423153 0.500000 0.945482
O O6 0.324441 0.248018 0.891149
O O7 0.531122 0.302926 0.923420
O O8 0.500000 0.241542 0.000000
O O9 0.776954 0.500000 0.647964
O O10 0.681576 0.249240 0.647227
O O11 0.910520 0.263750 0.701903
O O12 0.905457 0.758921 0.297548
O O13 0.928522 0.000000 0.355815
O O14 0.192644 0.500000 0.853504
O O15 0.145823 0.266995 0.890605
O O16 0.117057 0.250420 0.794942
O O17 0.190396 0.000000 0.941923
O O18 0.250000 0.750000 0.000000
O O19 0.550558 0.000000 0.728869
#
# Coordination Sequence:
#
# PCOD8091326 Si02
#       7
#     8   8   8   8   8   8   8
#     4  10  20  36  55  80 114 147 182 219 261 310
#     4   9  17  32  52  72 100 135 166 202 261 322
#     4   8  17  34  54  75 105 144 176 213 267 316
#     4  10  19  34  56  78 104 141 180 218 264 310
#     4  10  20  36  56  76 102 138 174 212 263 321
#     4  11  21  34  53  75 101 132 169 210 258 315
#     4   9  19  36  55  76 104 138 176 217 265 318
#
# _framework density 18.607496999999999
#
# number of rings (size 3 to 8) (size 9 to 14) (size 15 to 20)
#    0.000    2.429    1.429    2.143    0.000    2.286 
#    0.000   12.143    0.000    0.000    0.000    0.000 
#    0.000    0.000    0.000    0.000    0.000    0.000 
#
# Total GULP energy -347118.664349 kJ/mol
# GULP energy per Si atom -12397.095155 kJ/mol
# Density = 1.856515 g / cm^3
# Si number density = 18.607497 Si / 1000 Ang^3
#
#
#
# Elastic Constant Matrix: (Units=GPa)
#
#
# Indices 1 2 3 4 5 6 
#
# 1 153.0410 23.5726 86.4383 0.0000 2.3536 0.0000
# 2 23.5726 33.3794 28.0144 0.0000 2.9014 0.0000
# 3 86.4383 28.0144 193.0118 0.0000 10.5871 0.0000
# 4 0.0000 0.0000 0.0000 26.4101 0.0000 -5.3788
# 5 2.3536 2.9014 10.5871 0.0000 21.9755 0.0000
# 6 0.0000 0.0000 0.0000 -5.3788 0.0000 24.7569
#
#
#
# Elastic Compliance Matrix: (Units=1/GPa)
#
#
# Indices 1 2 3 4 5 6 
#
# 1 0.009108 -0.003484 -0.003641 0.000000 0.001239 0.000000
# 2 -0.003484 0.035548 -0.003454 0.000000 -0.002656 0.000000
# 3 -0.003641 -0.003454 0.007464 0.000000 -0.002750 0.000000
# 4 0.000000 0.000000 0.000000 0.039617 0.000000 0.008608
# 5 0.001239 -0.002656 -0.002750 0.000000 0.047048 0.000000
# 6 0.000000 0.000000 0.000000 0.008608 0.000000 0.042263
#
#
# Mechanical properties :
#
#
# Convention : Reuss Voigt Hill
#
# Bulk Modulus (GPa) = 32.29685 72.83143 52.56414
# Shear Modulus (GPa) = 23.52629 30.72228 27.12428
#
# Velocity S-wave (km/s) = 3.55962 4.06774 3.82214
# Velocity P-wave (km/s) = 5.85569 7.82866 6.91292
#
# Compressibility (1/GPa) = 0.03096277
#
# Stress axis : x y z
#
# Youngs Moduli (GPa) = 109.78808 28.13061 133.97809
#
# Poissons Ratio (x) = 0.09801 0.48787
# Poissons Ratio (y) = 0.38250 0.46272
# Poissons Ratio (z) = 0.39978 0.09715
#
# Static dielectric constant tensor:
#      x y z
#    x 3.711250 0.000000 0.077880 
#    y 0.000000 3.199330 0.000000 
#    z 0.077880 0.000000 3.556570 
# 
# 
# High freq. dielectric constant tensor:
#      x y z
#    x 1.731240 0.000000 0.002500 
#    y 0.000000 1.697810 0.000000 
#    z 0.002500 0.000000 1.727440 
# 
# From -- ./inp_files/360024.got.cif
#   From: 2010.06.25/outbox.cif.g09.slc.cpg/sg12_181_cif.got.tgz:360024.got - 2010.06.28 00:19:55.
