data_PCOD8091443
_publ_section_title
;
Structure prediction by ZEFSAII (Michael W. Deem and Ramdas Pophale) SiO2 
 PCOD8091443
Probable space group: C 2/M
;
_chemical_formula_sum "Si O2"
_cell_formula_units_Z 64
_cell_length_a 20.101407
_cell_length_b 8.480673
_cell_length_c 22.641558
_cell_angle_alpha 90.000000
_cell_angle_beta 54.775369
_cell_angle_gamma 90.000000
_cell_volume 3153.046635
_symmetry_space_group_name_H-M "C 2/M"
_symmetry_group_IT_number 12
_symmetry_cell_setting 'monoclinic'
loop_
_space_group_symop_operation_xyz
x,y,z
-x,y,-z
-x,-y,-z
x,-y,z
1/2+x,1/2+y,z
1/2-x,1/2+y,-z
1/2-x,1/2-y,-z
1/2+x,1/2-y,z
loop_
_atom_site_type_symbol
_atom_site_label
_atom_site_fract_x
_atom_site_fract_y
_atom_site_fract_z
Si Si1 0.986002 0.681782 0.263399
Si Si2 0.257017 0.812324 0.866461
Si Si3 0.172861 0.174378 0.468516
Si Si4 0.077256 0.320607 0.424073
Si Si5 0.387414 0.316945 0.717106
Si Si6 0.585949 0.187893 0.985643
Si Si7 0.838519 0.177345 0.396335
Si Si8 0.113359 0.313761 0.104079
O O1 0.960749 0.500000 0.272478
O O2 0.045264 0.706284 0.288107
O O3 0.032719 0.738836 0.180753
O O4 0.906134 0.786685 0.312545
O O5 0.299544 0.736384 0.787144
O O6 0.163720 0.754279 0.910704
O O7 0.305190 0.754823 0.902037
O O8 0.260798 0.000000 0.859683
O O9 0.148867 0.310176 0.435192
O O10 0.125479 0.193047 0.555447
O O11 0.268937 0.192318 0.428334
O O12 0.155637 0.000000 0.451557
O O13 0.063977 0.500000 0.409904
O O14 0.104251 0.210048 0.356718
O O15 0.000000 0.253145 0.500000
O O16 0.402259 0.500000 0.724219
O O17 0.587313 0.000000 0.984038
O O18 0.500000 0.246391 0.000000
O O19 0.600331 0.255125 0.044929
O O20 0.805801 0.000000 0.402927
O O21 0.118698 0.500000 0.097979
#
# Coordination Sequence:
#
# PCOD8091443 Si02
#       8
#     8   8   8   8   8   8   8   8
#     4  10  19  34  56  81 111 145 184 232 284 336
#     4  10  20  37  60  83 113 150 192 240 289 343
#     4  10  21  36  54  77 106 145 189 234 282 337
#     4  11  23  38  57  82 113 148 186 232 286 341
#     4  11  22  37  58  84 113 146 189 234 282 340
#     4  10  20  36  58  85 117 151 189 234 288 349
#     4  10  20  35  55  79 109 144 188 236 283 335
#     4   8  17  34  56  83 111 146 190 234 280 338
#
# _framework density 20.297829
#
# number of rings (size 3 to 8) (size 9 to 14) (size 15 to 20)
#    0.000    2.000    0.000    4.875    0.000    4.750 
#    2.250    3.125    0.000    0.000    0.000    0.000 
#    0.000    0.000    0.000    0.000    0.000    0.000 
#
# Total GULP energy -396617.845768 kJ/mol
# GULP energy per Si atom -12394.307680 kJ/mol
# Density = 2.025163 g / cm^3
# Si number density = 20.297829 Si / 1000 Ang^3
#
#
#
# Elastic Constant Matrix: (Units=GPa)
#
#
# Indices 1 2 3 4 5 6 
#
# 1 78.5579 13.3261 50.3786 -0.0002 0.1629 -0.0003
# 2 13.3261 55.0080 28.3685 -0.0001 1.5007 0.0002
# 3 50.3786 28.3685 127.5912 0.0001 -8.7291 0.0000
# 4 -0.0002 -0.0001 0.0001 28.3665 -0.0002 -3.5576
# 5 0.1629 1.5007 -8.7291 -0.0002 28.4050 0.0002
# 6 -0.0003 0.0002 0.0000 -3.5576 0.0002 25.3091
#
#
#
# Elastic Compliance Matrix: (Units=1/GPa)
#
#
# Indices 1 2 3 4 5 6 
#
# 1 0.017200 -0.000598 -0.006806 0.000000 -0.002159 0.000000
# 2 -0.000598 0.020736 -0.004544 0.000000 -0.002489 0.000000
# 3 -0.006806 -0.004544 0.011803 0.000000 0.003906 0.000000
# 4 0.000000 0.000000 0.000000 0.035885 0.000000 0.005044
# 5 -0.002159 -0.002489 0.003906 0.000000 0.036549 0.000000
# 6 0.000000 0.000000 0.000000 0.005044 0.000000 0.040221
#
#
# Mechanical properties :
#
#
# Convention : Reuss Voigt Hill
#
# Bulk Modulus (GPa) = 38.69801 49.47816 44.08808
# Shear Modulus (GPa) = 25.65363 27.68837 26.67100
#
# Velocity S-wave (km/s) = 3.55894 3.69739 3.62882
# Velocity P-wave (km/s) = 5.99955 6.53120 6.27101
#
# Compressibility (1/GPa) = 0.02584112
#
# Stress axis : x y z
#
# Youngs Moduli (GPa) = 58.13938 48.22629 84.72779
#
# Poissons Ratio (x) = 0.02884 0.57666
# Poissons Ratio (y) = 0.03477 0.38504
# Poissons Ratio (z) = 0.39570 0.21916
#
# Static dielectric constant tensor:
#      x y z
#    x 3.652560 0.000000 0.073980 
#    y 0.000000 3.402120 0.000000 
#    z 0.073980 0.000000 3.931190 
# 
# 
# High freq. dielectric constant tensor:
#      x y z
#    x 1.773510 0.000000 -0.005420 
#    y 0.000000 1.784720 0.000000 
#    z -0.005420 0.000000 1.800060 
# 
# From -- ./inp_files/345929.got.cif
#   From: 2010.06.25/outbox.cif.g09.slc.cpg/sg12_173_cif.got.tgz:345929.got - 2010.06.28 00:19:55.
