data_PCOD8091096
_publ_section_title
;
Structure prediction by ZEFSAII (Michael W. Deem and Ramdas Pophale) SiO2 
 PCOD8091096
Probable space group: C 2/M
;
_chemical_formula_sum "Si O2"
_cell_formula_units_Z 56
_cell_length_a 17.301547
_cell_length_b 14.084927
_cell_length_c 12.426021
_cell_angle_alpha 90.000000
_cell_angle_beta 105.710391
_cell_angle_gamma 90.000000
_cell_volume 2914.987670
_symmetry_space_group_name_H-M "C 2/M"
_symmetry_group_IT_number 12
_symmetry_cell_setting 'monoclinic'
loop_
_space_group_symop_operation_xyz
x,y,z
-x,y,-z
-x,-y,-z
x,-y,z
1/2+x,1/2+y,z
1/2-x,1/2+y,-z
1/2-x,1/2-y,-z
1/2+x,1/2-y,z
loop_
_atom_site_type_symbol
_atom_site_label
_atom_site_fract_x
_atom_site_fract_y
_atom_site_fract_z
Si Si1 0.415219 0.306583 0.425313
Si Si2 0.598278 0.613488 0.216530
Si Si3 0.704255 0.655532 0.453887
Si Si4 0.357140 0.899358 0.409512
Si Si5 0.183501 0.109369 0.029646
Si Si6 0.858616 0.395009 0.162738
Si Si7 0.072842 0.798154 0.819359
O O1 0.500000 0.343243 0.500000
O O2 0.347003 0.370674 0.458445
O O3 0.407024 0.194922 0.458637
O O4 0.408583 0.324511 0.296772
O O5 0.595345 0.500000 0.233175
O O6 0.641012 0.665423 0.332375
O O7 0.644312 0.644095 0.126348
O O8 0.509043 0.655573 0.171486
O O9 0.750000 0.750000 0.500000
O O10 0.775250 0.584665 0.447357
O O11 0.330288 0.890712 0.275683
O O12 0.405354 0.000000 0.445119
O O13 0.278932 0.127082 0.063874
O O14 0.162170 0.000000 0.005960
O O15 0.147338 0.164815 0.915781
O O16 0.892882 0.500000 0.147260
O O17 0.927863 0.316877 0.166767
#
# Coordination Sequence:
#
# PCOD8091096 Si02
#       7
#     8   8   8   8   8   8   8
#     4  10  20  34  50  77 109 140 173 215 274 332
#     4  11  21  36  59  83 110 144 183 228 275 320
#     4  10  19  34  55  76 107 143 178 215 259 326
#     4   9  17  32  55  77  99 135 180 224 261 307
#     4  10  20  36  58  84 107 137 187 234 269 319
#     4   9  18  34  57  82 108 140 181 226 273 321
#     4  11  21  34  54  84 115 143 177 225 282 327
#
# _framework density 19.211058000000001
#
# number of rings (size 3 to 8) (size 9 to 14) (size 15 to 20)
#    0.000    2.000    2.857    1.714    0.000    1.429 
#    0.000    3.571    0.000    1.714    0.000    0.000 
#    0.000    0.000    0.000    0.000    0.000    0.000 
#
# Total GULP energy -346941.476761 kJ/mol
# GULP energy per Si atom -12390.767027 kJ/mol
# Density = 1.916733 g / cm^3
# Si number density = 19.211058 Si / 1000 Ang^3
#
#
#
# Elastic Constant Matrix: (Units=GPa)
#
#
# Indices 1 2 3 4 5 6 
#
# 1 58.4369 18.3176 15.7732 0.0000 2.3113 0.0000
# 2 18.3176 67.1993 31.3659 0.0000 3.9421 0.0000
# 3 15.7732 31.3659 94.0809 0.0000 4.2033 0.0000
# 4 0.0000 0.0000 0.0000 21.7765 0.0000 2.6188
# 5 2.3113 3.9421 4.2033 0.0000 24.6731 0.0000
# 6 0.0000 0.0000 0.0000 2.6188 0.0000 20.4308
#
#
#
# Elastic Compliance Matrix: (Units=1/GPa)
#
#
# Indices 1 2 3 4 5 6 
#
# 1 0.018959 -0.004328 -0.001700 0.000000 -0.000795 0.000000
# 2 -0.004328 0.018694 -0.005433 0.000000 -0.001656 0.000000
# 3 -0.001700 -0.005433 0.012777 0.000000 -0.001149 0.000000
# 4 0.000000 0.000000 0.000000 0.046640 0.000000 -0.005978
# 5 -0.000795 -0.001656 -0.001149 0.000000 0.041065 0.000000
# 6 0.000000 0.000000 0.000000 -0.005978 0.000000 0.049712
#
#
# Mechanical properties :
#
#
# Convention : Reuss Voigt Hill
#
# Bulk Modulus (GPa) = 36.35281 38.95895 37.65588
# Shear Modulus (GPa) = 22.73368 23.66011 23.19689
#
# Velocity S-wave (km/s) = 3.44374 3.51321 3.47865
# Velocity P-wave (km/s) = 5.89715 6.06468 5.98150
#
# Compressibility (1/GPa) = 0.02750819
#
# Stress axis : x y z
#
# Youngs Moduli (GPa) = 52.74414 53.49376 78.26675
#
# Poissons Ratio (x) = 0.23151 0.13308
# Poissons Ratio (y) = 0.22827 0.42521
# Poissons Ratio (z) = 0.08968 0.29062
#
# Static dielectric constant tensor:
#      x y z
#    x 3.656250 0.000000 -0.122490 
#    y 0.000000 3.630500 0.000000 
#    z -0.122490 0.000000 3.506350 
# 
# 
# High freq. dielectric constant tensor:
#      x y z
#    x 1.738920 0.000000 0.003140 
#    y 0.000000 1.741030 0.000000 
#    z 0.003140 0.000000 1.742540 
# 
# From -- ./inp_files/156167.got.cif
#   From: 2010.06.25/outbox.cif.g09.slc.cpg/sg12_79_cif.got.tgz:156167.got - 2010.06.28 00:19:55.
