data_PCOD8091127
_publ_section_title
;
Structure prediction by ZEFSAII (Michael W. Deem and Ramdas Pophale) SiO2 
 PCOD8091127
Probable space group: C 2/M
;
_chemical_formula_sum "Si O2"
_cell_formula_units_Z 48
_cell_length_a 20.250862
_cell_length_b 9.114228
_cell_length_c 14.112568
_cell_angle_alpha 90.000000
_cell_angle_beta 90.124160
_cell_angle_gamma 90.000000
_cell_volume 2604.764298
_symmetry_space_group_name_H-M "C 2/M"
_symmetry_group_IT_number 12
_symmetry_cell_setting 'monoclinic'
loop_
_space_group_symop_operation_xyz
x,y,z
-x,y,-z
-x,-y,-z
x,-y,z
1/2+x,1/2+y,z
1/2-x,1/2+y,-z
1/2-x,1/2-y,-z
1/2+x,1/2-y,z
loop_
_atom_site_type_symbol
_atom_site_label
_atom_site_fract_x
_atom_site_fract_y
_atom_site_fract_z
Si Si1 0.308281 0.827917 0.552097
Si Si2 0.190416 0.326327 0.051718
Si Si3 0.428904 0.330728 0.044062
Si Si4 0.936526 0.326616 0.441178
Si Si5 0.258508 0.827923 0.749854
Si Si6 0.108848 0.827390 0.744462
O O1 0.250000 0.750000 0.500000
O O2 0.376338 0.774950 0.507080
O O3 0.303283 0.779353 0.661443
O O4 0.298917 0.000000 0.540474
O O5 0.194787 0.500000 0.037841
O O6 0.198970 0.276649 0.160440
O O7 0.250000 0.250000 0.000000
O O8 0.121013 0.270371 0.013600
O O9 0.408400 0.500000 0.030094
O O10 0.426544 0.290881 0.155615
O O11 0.500000 0.297756 0.000000
O O12 0.937625 0.500000 0.423889
O O13 0.932707 0.250473 0.338684
O O14 0.000000 0.273787 0.500000
O O15 0.183859 0.762183 0.746593
O O16 0.247599 0.000000 0.753740
O O17 0.108360 0.000000 0.723797
#
# Coordination Sequence:
#
# PCOD8091127 Si02
#       6
#     8   8   8   8   8   8
#     4  10  19  34  55  78 105 139 180 223 268 318
#     4  11  21  36  59  86 115 149 191 234 281 337
#     4  10  22  40  59  82 116 152 188 237 289 336
#     4  10  22  37  54  81 115 145 177 226 281 330
#     4   9  18  33  55  81 109 143 182 227 275 325
#     4  10  19  36  59  80 108 147 186 224 278 338
#
# _framework density 18.427772000000001
#
# number of rings (size 3 to 8) (size 9 to 14) (size 15 to 20)
#    0.000    2.000    3.333    0.500    0.000    2.667 
#    0.000    3.333    0.000    0.000    0.000    0.000 
#    0.000    0.000    0.000    0.000    0.000    0.000 
#
# Total GULP energy -297563.080228 kJ/mol
# GULP energy per Si atom -12398.461676 kJ/mol
# Density = 1.838583 g / cm^3
# Si number density = 18.427772 Si / 1000 Ang^3
#
#
#
# Elastic Constant Matrix: (Units=GPa)
#
#
# Indices 1 2 3 4 5 6 
#
# 1 137.9177 45.0838 87.5574 0.0000 3.8249 0.0000
# 2 45.0838 48.1725 51.7918 0.0000 7.5420 0.0000
# 3 87.5574 51.7918 185.3541 0.0000 6.6234 0.0000
# 4 0.0000 0.0000 0.0000 27.6555 0.0000 6.6760
# 5 3.8249 7.5420 6.6234 0.0000 38.2383 0.0000
# 6 0.0000 0.0000 0.0000 6.6760 0.0000 27.8056
#
#
#
# Elastic Compliance Matrix: (Units=1/GPa)
#
#
# Indices 1 2 3 4 5 6 
#
# 1 0.011943 -0.007458 -0.003590 0.000000 0.000898 0.000000
# 2 -0.007458 0.035101 -0.006102 0.000000 -0.005120 0.000000
# 3 -0.003590 -0.006102 0.008794 0.000000 0.000039 0.000000
# 4 0.000000 0.000000 0.000000 0.038384 0.000000 -0.009216
# 5 0.000898 -0.005120 0.000039 0.000000 0.027065 0.000000
# 6 0.000000 0.000000 0.000000 -0.009216 0.000000 0.038177
#
#
# Mechanical properties :
#
#
# Convention : Reuss Voigt Hill
#
# Bulk Modulus (GPa) = 46.42883 82.25669 64.34276
# Shear Modulus (GPa) = 24.88287 31.20731 28.04509
#
# Velocity S-wave (km/s) = 3.67862 4.11967 3.90538
# Velocity P-wave (km/s) = 6.57972 8.20751 7.43828
#
# Compressibility (1/GPa) = 0.02153834
#
# Stress axis : x y z
#
# Youngs Moduli (GPa) = 83.73339 28.48957 113.71055
#
# Poissons Ratio (x) = 0.21248 0.40817
# Poissons Ratio (y) = 0.62451 0.69383
# Poissons Ratio (z) = 0.30057 0.17384
#
# Static dielectric constant tensor:
#      x y z
#    x 3.313050 0.000000 -0.104880 
#    y 0.000000 3.181110 0.000000 
#    z -0.104880 0.000000 3.565290 
# 
# 
# High freq. dielectric constant tensor:
#      x y z
#    x 1.713790 0.000000 -0.002930 
#    y 0.000000 1.694930 0.000000 
#    z -0.002930 0.000000 1.732920 
# 
# From -- ./inp_files/221640.got.cif
#   From: 2010.06.25/outbox.cif.g09.slc.cpg/sg12_111_cif.got.tgz:221640.got - 2010.06.28 00:19:55.
