data_PCOD8091308
_publ_section_title
;
Structure prediction by ZEFSAII (Michael W. Deem and Ramdas Pophale) SiO2 
 PCOD8091308
Probable space group: C 2/M
;
_chemical_formula_sum "Si O2"
_cell_formula_units_Z 64
_cell_length_a 20.551555
_cell_length_b 9.106217
_cell_length_c 20.338631
_cell_angle_alpha 90.000000
_cell_angle_beta 106.111639
_cell_angle_gamma 90.000000
_cell_volume 3656.810859
_symmetry_space_group_name_H-M "C 2/M"
_symmetry_group_IT_number 12
_symmetry_cell_setting 'monoclinic'
loop_
_space_group_symop_operation_xyz
x,y,z
-x,y,-z
-x,-y,-z
x,-y,z
1/2+x,1/2+y,z
1/2-x,1/2+y,-z
1/2-x,1/2-y,-z
1/2+x,1/2-y,z
loop_
_atom_site_type_symbol
_atom_site_label
_atom_site_fract_x
_atom_site_fract_y
_atom_site_fract_z
Si Si1 0.044676 0.327109 0.356158
Si Si2 0.608138 0.826096 0.650089
Si Si3 0.951340 0.826406 0.774315
Si Si4 0.415486 0.830017 0.140816
Si Si5 0.848005 0.825973 0.857821
Si Si6 0.301560 0.826622 0.209158
Si Si7 0.075949 0.329466 0.008066
Si Si8 0.573502 0.174149 0.503734
O O1 0.050762 0.500000 0.344125
O O2 0.073293 0.239361 0.301986
O O3 0.090550 0.279498 0.433184
O O4 0.966717 0.281102 0.346607
O O5 0.664024 0.758137 0.715187
O O6 0.621882 0.771809 0.577851
O O7 0.613414 0.000000 0.654424
O O8 0.897762 0.774696 0.813869
O O9 0.024543 0.767087 0.813908
O O10 0.954489 0.000000 0.769442
O O11 0.346662 0.785486 0.158536
O O12 0.434430 0.000000 0.158708
O O13 0.403847 0.797950 0.061137
O O14 0.773496 0.761647 0.821020
O O15 0.871710 0.759521 0.933240
O O16 0.847088 0.000000 0.865237
O O17 0.296257 0.000000 0.215490
O O18 0.081202 0.500000 0.028061
O O19 0.000000 0.271886 0.000000
O O20 0.500000 0.238426 0.500000
O O21 0.569966 0.000000 0.504641
#
# Coordination Sequence:
#
# PCOD8091308 Si02
#       8
#     8   8   8   8   8   8   8   8
#     4   9  15  26  47  73  97 124 160 205 245 278
#     4   8  12  22  46  74  96 121 156 203 244 275
#     4  11  21  31  46  71 101 130 162 198 239 288
#     4  10  19  34  56  76  93 122 164 204 241 284
#     4  10  22  36  50  71 100 132 163 196 238 292
#     4   9  17  31  51  74  98 127 164 200 238 284
#     4  10  20  34  54  77  99 123 157 201 247 292
#     4   7  11  19  37  71 101 116 149 204 247 273
#
# _framework density 17.501588000000002
#
# number of rings (size 3 to 8) (size 9 to 14) (size 15 to 20)
#    0.000    2.750    2.500    1.875    0.000    1.750 
#    0.000    0.625    0.000    4.125    0.000    0.000 
#    0.000    0.000    0.000    0.000    0.000    0.125 
#
# Total GULP energy -396516.162284 kJ/mol
# GULP energy per Si atom -12391.130071 kJ/mol
# Density = 1.746175 g / cm^3
# Si number density = 17.501588 Si / 1000 Ang^3
#
#
#
# Elastic Constant Matrix: (Units=GPa)
#
#
# Indices 1 2 3 4 5 6 
#
# 1 74.3530 13.9331 53.0864 0.0000 4.6297 0.0000
# 2 13.9331 24.2069 29.4641 0.0000 -5.0889 0.0000
# 3 53.0864 29.4641 169.0671 0.0000 1.5629 0.0000
# 4 0.0000 0.0000 0.0000 18.3093 0.0000 1.2268
# 5 4.6297 -5.0889 1.5629 0.0000 23.7666 0.0000
# 6 0.0000 0.0000 0.0000 1.2268 0.0000 12.4583
#
#
#
# Elastic Compliance Matrix: (Units=1/GPa)
#
#
# Indices 1 2 3 4 5 6 
#
# 1 0.018117 -0.005696 -0.004655 0.000000 -0.004443 0.000000
# 2 -0.005696 0.057776 -0.008410 0.000000 0.014033 0.000000
# 3 -0.004655 -0.008410 0.008856 0.000000 -0.001476 0.000000
# 4 0.000000 0.000000 0.000000 0.054980 0.000000 -0.005414
# 5 -0.004443 0.014033 -0.001476 0.000000 0.046043 0.000000
# 6 0.000000 0.000000 0.000000 -0.005414 0.000000 0.080801
#
#
# Mechanical properties :
#
#
# Convention : Reuss Voigt Hill
#
# Bulk Modulus (GPa) = 21.17454 51.17713 36.17584
# Shear Modulus (GPa) = 15.63299 22.31638 18.97469
#
# Velocity S-wave (km/s) = 2.99194 3.57474 3.29625
# Velocity P-wave (km/s) = 4.90515 6.80759 5.93312
#
# Compressibility (1/GPa) = 0.04722653
#
# Stress axis : x y z
#
# Youngs Moduli (GPa) = 55.19724 17.30832 112.92116
#
# Poissons Ratio (x) = 0.09859 0.52564
# Poissons Ratio (y) = 0.31440 0.94967
# Poissons Ratio (z) = 0.25694 0.14556
#
# Static dielectric constant tensor:
#      x y z
#    x 3.138990 0.000000 0.029120 
#    y 0.000000 2.827960 0.000000 
#    z 0.029120 0.000000 3.826170 
# 
# 
# High freq. dielectric constant tensor:
#      x y z
#    x 1.642360 0.000000 -0.003470 
#    y 0.000000 1.631880 0.000000 
#    z -0.003470 0.000000 1.704530 
# 
# From -- ./inp_files/319228.got.cif
#   From: 2010.06.25/outbox.cif.g09.slc.cpg/sg12_160_cif.got.tgz:319228.got - 2010.06.28 00:19:55.
