data_PCOD8091467
_publ_section_title
;
Structure prediction by ZEFSAII (Michael W. Deem and Ramdas Pophale) SiO2 
 PCOD8091467
Probable space group: C 2/M
;
_chemical_formula_sum "Si O2"
_cell_formula_units_Z 64
_cell_length_a 19.814550
_cell_length_b 9.017910
_cell_length_c 21.853720
_cell_angle_alpha 90.000000
_cell_angle_beta 63.223287
_cell_angle_gamma 90.000000
_cell_volume 3486.218354
_symmetry_space_group_name_H-M "C 2/M"
_symmetry_group_IT_number 12
_symmetry_cell_setting 'monoclinic'
loop_
_space_group_symop_operation_xyz
x,y,z
-x,y,-z
-x,-y,-z
x,-y,z
1/2+x,1/2+y,z
1/2-x,1/2+y,-z
1/2-x,1/2-y,-z
1/2+x,1/2-y,z
loop_
_atom_site_type_symbol
_atom_site_label
_atom_site_fract_x
_atom_site_fract_y
_atom_site_fract_z
Si Si1 0.247004 0.170791 0.168671
Si Si2 0.019726 0.328368 0.424367
Si Si3 0.170574 0.170435 0.328446
Si Si4 0.896793 0.829567 0.096338
Si Si5 0.063829 0.829532 0.059349
Si Si6 0.141346 0.330580 0.558933
Si Si7 0.692911 0.824346 0.070452
Si Si8 0.252227 0.172715 0.595503
O O1 0.195949 0.192553 0.248777
O O2 0.331924 0.224083 0.149428
O O3 0.211070 0.272370 0.131163
O O4 0.249284 0.000000 0.146521
O O5 0.044167 0.500000 0.418637
O O6 0.087403 0.237033 0.367993
O O7 0.000000 0.269164 0.500000
O O8 0.947968 0.305057 0.409634
O O9 0.230925 0.250158 0.347256
O O10 0.167798 0.000000 0.348733
O O11 0.975798 0.783944 0.095568
O O12 0.877728 0.000000 0.119145
O O13 0.901234 0.806928 0.021886
O O14 0.107569 0.724359 0.088869
O O15 0.073284 0.000000 0.075823
O O16 0.161143 0.500000 0.566383
O O17 0.172808 0.229938 0.600836
O O18 0.180016 0.287104 0.478721
O O19 0.701252 0.000000 0.062959
O O20 0.750000 0.750000 0.000000
O O21 0.245096 0.000000 0.610642
#
# Coordination Sequence:
#
# PCOD8091467 Si02
#       8
#     8   8   8   8   8   8   8   8
#     4  11  24  40  57  81 116 154 193 238 284 339
#     4  10  19  36  59  85 115 148 189 237 288 339
#     4  11  24  39  56  82 116 153 193 237 287 340
#     4   9  18  34  58  85 113 146 183 229 283 336
#     4   9  18  34  57  87 117 142 180 233 284 332
#     4   9  18  33  55  84 115 142 179 234 284 328
#     4  12  23  36  58  87 116 150 192 236 285 339
#     4  10  19  34  56  82 112 146 186 229 279 339
#
# _framework density 18.358000000000001
#
# number of rings (size 3 to 8) (size 9 to 14) (size 15 to 20)
#    0.000    1.875    2.500    3.000    0.000    3.750 
#    0.000    2.500    0.000    0.000    0.000    0.000 
#    0.000    0.000    0.000    0.000    0.000    0.000 
#
# Total GULP energy -396916.302566 kJ/mol
# GULP energy per Si atom -12403.634455 kJ/mol
# Density = 1.831622 g / cm^3
# Si number density = 18.358000 Si / 1000 Ang^3
#
#
#
# Elastic Constant Matrix: (Units=GPa)
#
#
# Indices 1 2 3 4 5 6 
#
# 1 124.1893 69.8545 47.1202 0.0000 0.8284 -0.0002
# 2 69.8545 122.8090 54.6432 -0.0001 2.6404 -0.0014
# 3 47.1202 54.6432 71.0178 0.0000 -4.1098 0.0000
# 4 0.0000 -0.0001 0.0000 26.9590 0.0000 -0.0850
# 5 0.8284 2.6404 -4.1098 0.0000 25.8496 0.0000
# 6 -0.0002 -0.0014 0.0000 -0.0850 0.0000 38.4309
#
#
#
# Elastic Compliance Matrix: (Units=1/GPa)
#
#
# Indices 1 2 3 4 5 6 
#
# 1 0.012675 -0.005232 -0.004418 0.000000 -0.000574 0.000000
# 2 -0.005232 0.014746 -0.008026 0.000000 -0.002615 0.000001
# 3 -0.004418 -0.008026 0.023459 0.000000 0.004691 0.000000
# 4 0.000000 0.000000 0.000000 0.037094 0.000000 0.000082
# 5 -0.000574 -0.002615 0.004691 0.000000 0.039717 0.000000
# 6 0.000000 0.000001 0.000000 0.000082 0.000000 0.026021
#
#
# Mechanical properties :
#
#
# Convention : Reuss Voigt Hill
#
# Bulk Modulus (GPa) = 64.39490 73.47245 68.93368
# Shear Modulus (GPa) = 25.74164 28.00780 26.87472
#
# Velocity S-wave (km/s) = 3.74866 3.91019 3.83028
# Velocity P-wave (km/s) = 7.34099 7.77785 7.56258
#
# Compressibility (1/GPa) = 0.01552918
#
# Stress axis : x y z
#
# Youngs Moduli (GPa) = 78.89612 67.81567 42.62749
#
# Poissons Ratio (x) = 0.35478 0.18831
# Poissons Ratio (y) = 0.41275 0.34213
# Poissons Ratio (z) = 0.34854 0.54429
#
# Static dielectric constant tensor:
#      x y z
#    x 3.553790 0.000000 0.002380 
#    y 0.000000 3.417810 0.000000 
#    z 0.002380 0.000000 3.111710 
# 
# 
# High freq. dielectric constant tensor:
#      x y z
#    x 1.726980 0.000000 0.000530 
#    y 0.000000 1.715580 0.000000 
#    z 0.000530 0.000000 1.681480 
# 
# From -- ./inp_files/319818.got.cif
#   From: 2010.06.25/outbox.cif.g09.slc.cpg/sg12_160_cif.got.tgz:319818.got - 2010.06.28 00:19:55.
