data_PCOD8091408
_publ_section_title
;
Structure prediction by ZEFSAII (Michael W. Deem and Ramdas Pophale) SiO2 
 PCOD8091408
Probable space group: C 2/M
;
_chemical_formula_sum "Si O2"
_cell_formula_units_Z 56
_cell_length_a 23.516717
_cell_length_b 9.228477
_cell_length_c 15.040226
_cell_angle_alpha 90.000000
_cell_angle_beta 119.118107
_cell_angle_gamma 90.000000
_cell_volume 2851.562558
_symmetry_space_group_name_H-M "C 2/M"
_symmetry_group_IT_number 12
_symmetry_cell_setting 'monoclinic'
loop_
_space_group_symop_operation_xyz
x,y,z
-x,y,-z
-x,-y,-z
x,-y,z
1/2+x,1/2+y,z
1/2-x,1/2+y,-z
1/2-x,1/2-y,-z
1/2+x,1/2-y,z
loop_
_atom_site_type_symbol
_atom_site_label
_atom_site_fract_x
_atom_site_fract_y
_atom_site_fract_z
Si Si1 0.767891 0.660525 0.271082
Si Si2 0.377534 0.341558 0.819505
Si Si3 0.935231 0.341568 0.006617
Si Si4 0.935725 0.833988 0.181116
Si Si5 0.425596 0.667932 0.667594
Si Si6 0.308926 0.172248 0.492237
Si Si7 0.789072 0.828489 0.109842
O O1 0.788465 0.500000 0.251728
O O2 0.697579 0.651732 0.263426
O O3 0.810831 0.709737 0.388169
O O4 0.766830 0.772670 0.189042
O O5 0.403994 0.500000 0.867593
O O6 0.416905 0.286403 0.764061
O O7 0.381403 0.238685 0.907573
O O8 0.907506 0.500000 0.008169
O O9 0.950632 0.260395 0.107605
O O10 0.000000 0.350634 0.000000
O O11 0.865896 0.790290 0.167602
O O12 0.996995 0.808513 0.295534
O O13 0.934472 0.000000 0.149633
O O14 0.405315 0.500000 0.637507
O O15 0.379786 0.771252 0.575530
O O16 0.250000 0.250000 0.500000
O O17 0.303159 0.000000 0.504415
O O18 0.776363 0.000000 0.092012
O O19 0.750000 0.750000 0.000000
#
# Coordination Sequence:
#
# PCOD8091408 Si02
#       7
#     8   8   8   8   8   8   8
#     4  10  22  40  60  86 118 155 198 243 292 355
#     4  10  19  34  56  80 112 154 194 231 290 358
#     4  11  22  32  48  82 119 147 187 238 292 353
#     4  10  22  40  60  81 114 158 201 241 296 361
#     4  10  20  37  59  85 116 153 194 243 297 352
#     4  11  22  38  61  91 125 159 199 246 300 358
#     4  11  24  42  64  90 117 157 205 249 294 351
#
# _framework density 19.638356000000002
#
# number of rings (size 3 to 8) (size 9 to 14) (size 15 to 20)
#    0.000    1.571    2.857    2.143    0.000    8.000 
#    0.000    0.714    0.000    4.286    0.000    0.000 
#    0.000    0.000    0.000    0.000    0.000    0.000 
#
# Total GULP energy -347027.721713 kJ/mol
# GULP energy per Si atom -12393.847204 kJ/mol
# Density = 1.959366 g / cm^3
# Si number density = 19.638356 Si / 1000 Ang^3
#
#
#
# Elastic Constant Matrix: (Units=GPa)
#
#
# Indices 1 2 3 4 5 6 
#
# 1 86.9066 35.6538 40.5512 0.0000 13.3855 0.0000
# 2 35.6538 92.5222 64.2355 0.0000 4.2009 0.0000
# 3 40.5512 64.2355 122.4950 0.0000 9.8936 0.0000
# 4 0.0000 0.0000 0.0000 35.2670 0.0000 5.4666
# 5 13.3855 4.2009 9.8936 0.0000 30.7238 0.0000
# 6 0.0000 0.0000 0.0000 5.4666 0.0000 18.4099
#
#
#
# Elastic Compliance Matrix: (Units=1/GPa)
#
#
# Indices 1 2 3 4 5 6 
#
# 1 0.015065 -0.003772 -0.002588 0.000000 -0.005214 0.000000
# 2 -0.003772 0.017950 -0.008315 0.000000 0.001866 0.000000
# 3 -0.002588 -0.008315 0.013550 0.000000 -0.002099 0.000000
# 4 0.000000 0.000000 0.000000 0.029723 0.000000 -0.008826
# 5 -0.005214 0.001866 -0.002099 0.000000 0.035240 0.000000
# 6 0.000000 0.000000 0.000000 -0.008826 0.000000 0.056939
#
#
# Mechanical properties :
#
#
# Convention : Reuss Voigt Hill
#
# Bulk Modulus (GPa) = 58.08794 64.75610 61.42202
# Shear Modulus (GPa) = 24.56342 27.64570 26.10456
#
# Velocity S-wave (km/s) = 3.54048 3.75606 3.64986
# Velocity P-wave (km/s) = 6.80855 7.20115 7.00760
#
# Compressibility (1/GPa) = 0.01721528
#
# Stress axis : x y z
#
# Youngs Moduli (GPa) = 66.38048 55.71150 73.80007
#
# Poissons Ratio (x) = 0.21012 0.19100
# Poissons Ratio (y) = 0.25036 0.61363
# Poissons Ratio (z) = 0.17180 0.46323
#
# Static dielectric constant tensor:
#      x y z
#    x 3.628320 0.000000 0.244370 
#    y 0.000000 3.737120 0.000000 
#    z 0.244370 0.000000 3.598980 
# 
# 
# High freq. dielectric constant tensor:
#      x y z
#    x 1.755990 0.000000 0.018730 
#    y 0.000000 1.768460 0.000000 
#    z 0.018730 0.000000 1.761260 
# 
# From -- ./inp_files/238884.got.cif
#   From: 2010.06.25/outbox.cif.g09.slc.cpg/sg12_120_cif.got.tgz:238884.got - 2010.06.28 00:19:55.
