data_PCOD8091585
_publ_section_title
;
Structure prediction by ZEFSAII (Michael W. Deem and Ramdas Pophale) SiO2 
 PCOD8091585
Probable space group: C 2/M
;
_chemical_formula_sum "Si O2"
_cell_formula_units_Z 48
_cell_length_a 33.890807
_cell_length_b 9.169103
_cell_length_c 8.030143
_cell_angle_alpha 90.000000
_cell_angle_beta 88.830583
_cell_angle_gamma 90.000000
_cell_volume 2494.833554
_symmetry_space_group_name_H-M "C 2/M"
_symmetry_group_IT_number 12
_symmetry_cell_setting 'monoclinic'
loop_
_space_group_symop_operation_xyz
x,y,z
-x,y,-z
-x,-y,-z
x,-y,z
1/2+x,1/2+y,z
1/2-x,1/2+y,-z
1/2-x,1/2-y,-z
1/2+x,1/2-y,z
loop_
_atom_site_type_symbol
_atom_site_label
_atom_site_fract_x
_atom_site_fract_y
_atom_site_fract_z
Si Si1 0.166770 0.828896 0.324092
Si Si2 0.249169 0.329991 0.827408
Si Si3 0.088801 0.667128 0.820963
Si Si4 0.955351 0.673930 0.496052
Si Si5 0.170121 0.667833 0.657733
Si Si6 0.904452 0.673821 0.814745
O O1 0.211882 0.790367 0.278578
O O2 0.157414 0.768192 0.506544
O O3 0.138181 0.748864 0.196884
O O4 0.158536 0.000000 0.318446
O O5 0.245573 0.500000 0.864809
O O6 0.211346 0.275025 0.727602
O O7 0.250000 0.250000 0.000000
O O8 0.076342 0.500000 0.813867
O O9 0.064852 0.741593 0.669652
O O10 0.135863 0.686218 0.797185
O O11 0.077646 0.725084 0.007194
O O12 0.953642 0.500000 0.494088
O O13 0.932788 0.729099 0.663732
O O14 0.000000 0.731747 0.500000
O O15 0.173253 0.500000 0.597394
O O16 0.898515 0.500000 0.811768
#
# Coordination Sequence:
#
# PCOD8091585 Si02
#       6
#     8   8   8   8   8   8
#     4  11  22  35  52  79 110 140 181 228 271 318
#     4  10  22  36  52  77 109 143 183 229 270 318
#     4   9  17  30  52  81 107 137 180 219 264 325
#     4   9  17  30  51  83 115 137 171 226 275 319
#     4  10  19  35  55  75 104 143 186 224 265 324
#     4  10  19  34  57  79 107 148 181 218 272 323
#
# _framework density 19.23976
#
# number of rings (size 3 to 8) (size 9 to 14) (size 15 to 20)
#    0.000    2.167    1.667    2.000    0.000    4.000 
#    0.000    4.167    0.000    0.500    0.000    1.167 
#    0.000    0.000    0.000    0.000    0.000    0.000 
#
# Total GULP energy -297546.042810 kJ/mol
# GULP energy per Si atom -12397.751784 kJ/mol
# Density = 1.919597 g / cm^3
# Si number density = 19.239760 Si / 1000 Ang^3
#
#
#
# Elastic Constant Matrix: (Units=GPa)
#
#
# Indices 1 2 3 4 5 6 
#
# 1 112.6426 17.8055 66.9499 0.0000 15.5272 0.0000
# 2 17.8055 27.9718 25.5547 0.0000 -0.8765 0.0000
# 3 66.9499 25.5547 175.8400 0.0000 0.6663 0.0000
# 4 0.0000 0.0000 0.0000 21.2160 0.0000 1.4889
# 5 15.5272 -0.8765 0.6663 0.0000 27.6126 0.0000
# 6 0.0000 0.0000 0.0000 1.4889 0.0000 18.1236
#
#
#
# Elastic Compliance Matrix: (Units=1/GPa)
#
#
# Indices 1 2 3 4 5 6 
#
# 1 0.013221 -0.004701 -0.004322 0.000000 -0.007479 0.000000
# 2 -0.004701 0.042954 -0.004468 0.000000 0.004115 0.000000
# 3 -0.004322 -0.004468 0.007974 0.000000 0.002096 0.000000
# 4 0.000000 0.000000 0.000000 0.047408 0.000000 -0.003895
# 5 -0.007479 0.004115 0.002096 0.000000 0.040501 0.000000
# 6 0.000000 0.000000 0.000000 -0.003895 0.000000 0.055497
#
#
# Mechanical properties :
#
#
# Convention : Reuss Voigt Hill
#
# Bulk Modulus (GPa) = 26.90669 59.67496 43.29083
# Shear Modulus (GPa) = 20.24905 27.13339 23.69122
#
# Velocity S-wave (km/s) = 3.24768 3.75944 3.51289
# Velocity P-wave (km/s) = 5.29892 7.06600 6.24527
#
# Compressibility (1/GPa) = 0.03716547
#
# Stress axis : x y z
#
# Youngs Moduli (GPa) = 75.63945 23.28083 125.40781
#
# Poissons Ratio (x) = 0.10945 0.54202
# Poissons Ratio (y) = 0.35561 0.56033
# Poissons Ratio (z) = 0.32692 0.10402
#
# Static dielectric constant tensor:
#      x y z
#    x -0.667490 0.000000 2.980780 
#    y 0.000000 3.106140 0.000000 
#    z 2.980780 0.000000 1.907070 
# 
# 
# High freq. dielectric constant tensor:
#      x y z
#    x 1.751450 0.000000 0.001150 
#    y 0.000000 1.698110 0.000000 
#    z 0.001150 0.000000 1.763920 
# 
# From -- ./inp_files/109486.got.cif
#   From: 2010.06.25/outbox.cif.g09.slc.cpg/sg12_55_cif.got.tgz:109486.got - 2010.06.28 00:19:55.
