data_PCOD8091472
_publ_section_title
;
Structure prediction by ZEFSAII (Michael W. Deem and Ramdas Pophale) SiO2 
 PCOD8091472
Probable space group: C 2/M
;
_chemical_formula_sum "Si O2"
_cell_formula_units_Z 40
_cell_length_a 17.304932
_cell_length_b 19.580927
_cell_length_c 10.740123
_cell_angle_alpha 90.000000
_cell_angle_beta 35.631532
_cell_angle_gamma 90.000000
_cell_volume 2120.121677
_symmetry_space_group_name_H-M "C 2/M"
_symmetry_group_IT_number 12
_symmetry_cell_setting 'monoclinic'
loop_
_space_group_symop_operation_xyz
x,y,z
-x,y,-z
-x,-y,-z
x,-y,z
1/2+x,1/2+y,z
1/2-x,1/2+y,-z
1/2-x,1/2-y,-z
1/2+x,1/2-y,z
loop_
_atom_site_type_symbol
_atom_site_label
_atom_site_fract_x
_atom_site_fract_y
_atom_site_fract_z
Si Si1 0.937107 0.845799 0.446644
Si Si2 0.183550 0.421891 0.782614
Si Si3 0.502318 0.847794 0.828012
Si Si4 0.622239 0.198637 0.433985
Si Si5 0.920838 0.192415 0.979191
O O1 0.839679 0.910451 0.568131
O O2 0.856960 0.774642 0.537741
O O3 0.000000 0.849183 0.500000
O O4 0.036697 0.850915 0.198813
O O5 0.150120 0.500000 0.795131
O O6 0.112128 0.369134 0.784152
O O7 0.123282 0.400204 0.997276
O O8 0.576441 0.854455 0.599600
O O9 0.448153 0.771679 0.919838
O O10 0.500000 0.200020 0.500000
O O11 0.763859 0.176070 0.194198
O O12 0.000000 0.168146 0.000000
#
# Coordination Sequence:
#
# PCOD8091472 Si02
#       5
#     8   8   8   8   8
#     4  10  22  34  55  85 117 144 186 226 287 337
#     4  11  21  37  57  79 110 152 195 230 263 324
#     4  10  19  34  56  82 113 140 190 226 280 330
#     4  10  21  33  57  88 117 145 172 232 298 343
#     4  11  19  34  59  86 120 143 177 235 293 338
#
# _framework density 18.866842999999999
#
# number of rings (size 3 to 8) (size 9 to 14) (size 15 to 20)
#    0.000    1.600    4.000    2.400    2.800    6.000 
#    0.000    0.000    0.000    9.000    0.000    0.000 
#    0.000    0.000    0.000    0.000    0.000    0.000 
#
# Total GULP energy -247806.253080 kJ/mol
# GULP energy per Si atom -12390.312654 kJ/mol
# Density = 1.882390 g / cm^3
# Si number density = 18.866843 Si / 1000 Ang^3
#
#
#
# Elastic Constant Matrix: (Units=GPa)
#
#
# Indices 1 2 3 4 5 6 
#
# 1 86.9059 27.0192 67.2954 -0.0002 5.4610 0.0001
# 2 27.0192 57.9551 42.2345 0.0000 0.9486 0.0000
# 3 67.2954 42.2345 188.9851 -0.0005 4.2357 0.0005
# 4 -0.0002 0.0000 -0.0005 17.1027 0.0003 1.2486
# 5 5.4610 0.9486 4.2357 0.0003 35.8700 -0.0003
# 6 0.0001 0.0000 0.0005 1.2486 -0.0003 4.0226
#
#
#
# Elastic Compliance Matrix: (Units=1/GPa)
#
#
# Indices 1 2 3 4 5 6 
#
# 1 0.016793 -0.004147 -0.005012 0.000000 -0.001855 0.000000
# 2 -0.004147 0.021635 -0.003369 0.000000 0.000457 0.000001
# 3 -0.005012 -0.003369 0.007830 0.000000 -0.000073 -0.000001
# 4 0.000000 0.000000 0.000000 0.059826 -0.000001 -0.018569
# 5 -0.001855 0.000457 -0.000073 -0.000001 0.028157 0.000003
# 6 0.000000 0.000001 -0.000001 -0.018569 0.000003 0.254359
#
#
# Mechanical properties :
#
#
# Convention : Reuss Voigt Hill
#
# Bulk Modulus (GPa) = 47.15841 67.43828 57.29834
# Shear Modulus (GPa) = 11.88429 24.55218 18.21823
#
# Velocity S-wave (km/s) = 2.51251 3.61132 3.11082
# Velocity P-wave (km/s) = 5.78503 7.29457 6.58321
#
# Compressibility (1/GPa) = 0.02120513
#
# Stress axis : x y z
#
# Youngs Moduli (GPa) = 59.54800 46.22047 127.70618
#
# Poissons Ratio (x) = 0.19166 0.64001
# Poissons Ratio (y) = 0.24692 0.43021
# Poissons Ratio (z) = 0.29843 0.15571
#
# Static dielectric constant tensor:
#      x y z
#    x 3.416450 0.000000 0.236280 
#    y 0.000000 3.082600 0.000000 
#    z 0.236280 0.000000 3.941160 
# 
# 
# High freq. dielectric constant tensor:
#      x y z
#    x 1.723150 0.000000 0.001390 
#    y 0.000000 1.685260 0.000000 
#    z 0.001390 0.000000 1.755210 
# 
# From -- ./inp_files/130866.got.cif
#   From: 2010.06.25/outbox.cif.g09.slc.cpg/sg12_66_cif.got.tgz:130866.got - 2010.06.28 00:19:55.
