data_PCOD8091871
_publ_section_title
;
Structure prediction by ZEFSAII (Michael W. Deem and Ramdas Pophale) SiO2 
 PCOD8091871
Probable space group: C 2/M
;
_chemical_formula_sum "Si O2"
_cell_formula_units_Z 56
_cell_length_a 9.176845
_cell_length_b 14.893320
_cell_length_c 22.058403
_cell_angle_alpha 90.000000
_cell_angle_beta 64.744724
_cell_angle_gamma 90.000000
_cell_volume 2726.635938
_symmetry_space_group_name_H-M "C 2/M"
_symmetry_group_IT_number 12
_symmetry_cell_setting 'monoclinic'
loop_
_space_group_symop_operation_xyz
x,y,z
-x,y,-z
-x,-y,-z
x,-y,z
1/2+x,1/2+y,z
1/2-x,1/2+y,-z
1/2-x,1/2-y,-z
1/2+x,1/2-y,z
loop_
_atom_site_type_symbol
_atom_site_label
_atom_site_fract_x
_atom_site_fract_y
_atom_site_fract_z
Si Si1 0.614341 0.246360 0.104473
Si Si2 0.856568 0.844754 0.563335
Si Si3 0.294490 0.900400 0.291720
Si Si4 0.174476 0.894932 0.999028
Si Si5 0.266268 0.243862 0.199376
Si Si6 0.129104 0.399822 0.289411
Si Si7 0.990273 0.654268 0.435833
O O1 0.698075 0.154023 0.067559
O O2 0.423749 0.236214 0.128960
O O3 0.625921 0.254961 0.174756
O O4 0.677395 0.336916 0.060433
O O5 0.825316 0.900596 0.629710
O O6 0.695559 0.835843 0.551391
O O7 0.000000 0.893331 0.500000
O O8 0.922786 0.748995 0.572205
O O9 0.231729 0.839806 0.248573
O O10 0.468741 0.867562 0.283137
O O11 0.303684 0.000000 0.263609
O O12 0.222536 0.000000 0.001849
O O13 0.000000 0.889785 0.000000
O O14 0.267889 0.332758 0.241740
O O15 0.181493 0.500000 0.261787
O O16 0.094717 0.398939 0.367492
O O17 0.000000 0.604788 0.500000
#
# Coordination Sequence:
#
# PCOD8091871 Si02
#       7
#     8   8   8   8   8   8   8
#     4  11  24  40  67  98 123 164 198 246 297 349
#     4  10  19  34  58  82 113 155 203 252 310 366
#     4  10  22  39  60  87 121 162 205 252 309 364
#     4  10  22  43  69  97 127 160 202 243 289 354
#     4  12  22  41  64  89 131 160 203 247 298 356
#     4  10  22  39  61  87 119 164 208 248 305 371
#     4  10  19  34  58  83 113 153 203 257 308 359
#
# _framework density 20.538129999999999
#
# number of rings (size 3 to 8) (size 9 to 14) (size 15 to 20)
#    0.000    1.571    4.286    1.714    0.000    2.857 
#    2.571    0.714    0.000    0.000    0.000    0.000 
#    0.000    0.000    0.000    0.000    0.000    0.000 
#
# Total GULP energy -347066.874196 kJ/mol
# GULP energy per Si atom -12395.245507 kJ/mol
# Density = 2.049138 g / cm^3
# Si number density = 20.538130 Si / 1000 Ang^3
#
#
#
# Elastic Constant Matrix: (Units=GPa)
#
#
# Indices 1 2 3 4 5 6 
#
# 1 58.9617 23.5394 29.7516 0.0000 -3.6614 0.0000
# 2 23.5394 122.5378 57.0803 0.0000 0.6881 0.0000
# 3 29.7516 57.0803 119.7479 0.0000 4.1761 0.0000
# 4 0.0000 0.0000 0.0000 2.3534 0.0000 -0.3945
# 5 -3.6614 0.6881 4.1761 0.0000 40.5148 0.0000
# 6 0.0000 0.0000 0.0000 -0.3945 0.0000 23.6880
#
#
#
# Elastic Compliance Matrix: (Units=1/GPa)
#
#
# Indices 1 2 3 4 5 6 
#
# 1 0.019947 -0.001927 -0.004116 0.000000 0.002260 0.000000
# 2 -0.001927 0.010681 -0.004617 0.000000 0.000120 0.000000
# 3 -0.004116 -0.004617 0.011626 0.000000 -0.001492 0.000000
# 4 0.000000 0.000000 0.000000 0.426112 0.000000 0.007097
# 5 0.002260 0.000120 -0.001492 0.000000 0.025038 0.000000
# 6 0.000000 0.000000 0.000000 0.007097 0.000000 0.042334
#
#
# Mechanical properties :
#
#
# Convention : Reuss Voigt Hill
#
# Bulk Modulus (GPa) = 47.76877 57.99888 52.88383
# Shear Modulus (GPa) = 8.86469 26.03631 17.45050
#
# Velocity S-wave (km/s) = 2.07980 3.56435 2.91806
# Velocity P-wave (km/s) = 5.39226 6.72610 6.09577
#
# Compressibility (1/GPa) = 0.02093418
#
# Stress axis : x y z
#
# Youngs Moduli (GPa) = 50.13346 93.62623 86.01310
#
# Poissons Ratio (x) = 0.18043 0.35403
# Poissons Ratio (y) = 0.09661 0.39709
# Poissons Ratio (z) = 0.20635 0.43223
#
# Static dielectric constant tensor:
#      x y z
#    x 3.605970 0.000000 -0.015300 
#    y 0.000000 3.565790 0.000000 
#    z -0.015300 0.000000 3.983580 
# 
# 
# High freq. dielectric constant tensor:
#      x y z
#    x 1.791970 0.000000 -0.000610 
#    y 0.000000 1.793830 0.000000 
#    z -0.000610 0.000000 1.817680 
# 
# From -- ./inp_files/332574.got.cif
#   From: 2010.06.25/outbox.cif.g09.slc.cpg/sg12_167_cif.got.tgz:332574.got - 2010.06.28 00:19:55.
