data_PCOD8091624
_publ_section_title
;
Structure prediction by ZEFSAII (Michael W. Deem and Ramdas Pophale) SiO2 
 PCOD8091624
Probable space group: C 2/M
;
_chemical_formula_sum "Si O2"
_cell_formula_units_Z 64
_cell_length_a 33.067105
_cell_length_b 9.372859
_cell_length_c 18.840775
_cell_angle_alpha 90.000000
_cell_angle_beta 36.463641
_cell_angle_gamma 90.000000
_cell_volume 3470.419095
_symmetry_space_group_name_H-M "C 2/M"
_symmetry_group_IT_number 12
_symmetry_cell_setting 'monoclinic'
loop_
_space_group_symop_operation_xyz
x,y,z
-x,y,-z
-x,-y,-z
x,-y,z
1/2+x,1/2+y,z
1/2-x,1/2+y,-z
1/2-x,1/2-y,-z
1/2+x,1/2-y,z
loop_
_atom_site_type_symbol
_atom_site_label
_atom_site_fract_x
_atom_site_fract_y
_atom_site_fract_z
Si Si1 0.322564 0.165882 0.972655
Si Si2 0.966185 0.663478 0.120693
Si Si3 0.430680 0.162431 0.555332
Si Si4 0.212963 0.841712 0.453201
Si Si5 0.573638 0.330076 0.581290
Si Si6 0.032451 0.664180 0.174149
Si Si7 0.668651 0.341240 0.677104
Si Si8 0.191204 0.333900 0.170184
O O1 0.390535 0.211369 0.918215
O O2 0.331934 0.206392 0.876791
O O3 0.306882 0.000000 0.004596
O O4 0.259425 0.250434 0.095673
O O5 0.941671 0.500000 0.150388
O O6 0.901790 0.759877 0.226259
O O7 0.020397 0.683885 0.107337
O O8 0.000000 0.714020 0.000000
O O9 0.500000 0.173348 0.500000
O O10 0.436365 0.270974 0.482887
O O11 0.369037 0.212383 0.692467
O O12 0.419579 0.000000 0.544128
O O13 0.148032 0.781622 0.502788
O O14 0.277198 0.738837 0.348497
O O15 0.197262 0.848672 0.558065
O O16 0.231787 0.000000 0.399050
O O17 0.565575 0.500000 0.593795
O O18 0.517918 0.264498 0.711754
O O19 0.020522 0.500000 0.214690
O O20 0.657546 0.500000 0.723335
O O21 0.207340 0.500000 0.153685
#
# Coordination Sequence:
#
# PCOD8091624 Si02
#       8
#     8   8   8   8   8   8   8   8
#     4   9  18  34  57  81 105 141 186 225 265 316
#     4  10  21  37  56  79 110 146 183 226 278 334
#     4  10  21  38  58  81 115 154 187 222 269 330
#     4   9  19  35  54  79 109 141 178 224 276 328
#     4  11  22  36  56  84 114 142 180 235 284 325
#     4  10  20  36  58  80 105 143 187 225 271 335
#     4  10  19  34  57  81 107 140 181 225 274 328
#     4   9  18  34  55  79 109 142 180 224 268 314
#
# _framework density 18.441576000000001
#
# number of rings (size 3 to 8) (size 9 to 14) (size 15 to 20)
#    0.000    2.250    1.250    1.500    0.000    5.000 
#    2.250    2.500    0.000    0.000    0.000    0.000 
#    0.000    0.000    0.000    0.000    0.000    0.000 
#
# Total GULP energy -396856.875408 kJ/mol
# GULP energy per Si atom -12401.777357 kJ/mol
# Density = 1.839960 g / cm^3
# Si number density = 18.441576 Si / 1000 Ang^3
#
#
#
# Elastic Constant Matrix: (Units=GPa)
#
#
# Indices 1 2 3 4 5 6 
#
# 1 109.2420 45.2024 46.7852 0.0060 -19.8535 0.0038
# 2 45.2024 69.7693 32.2466 -0.0284 -11.9081 0.0030
# 3 46.7852 32.2466 65.5206 -0.0267 -5.1389 0.0037
# 4 0.0060 -0.0284 -0.0267 -9.8539 0.0052 -11.7366
# 5 -19.8535 -11.9081 -5.1389 0.0052 32.4856 -0.0028
# 6 0.0038 0.0030 0.0037 -11.7366 -0.0028 13.4044
#
#
#
# Elastic Compliance Matrix: (Units=1/GPa)
#
#
# Indices 1 2 3 4 5 6 
#
# 1 0.016202 -0.005525 -0.008335 0.000025 0.006558 0.000022
# 2 -0.005525 0.021432 -0.006330 -0.000022 0.003478 -0.000020
# 3 -0.008335 -0.006330 0.024046 -0.000024 -0.003611 -0.000025
# 4 0.000025 -0.000022 -0.000024 -0.049677 0.000008 -0.043496
# 5 0.006558 0.003478 -0.003611 0.000008 0.035495 0.000013
# 6 0.000022 -0.000020 -0.000025 -0.043496 0.000013 0.036519
#
#
# Mechanical properties :
#
#
# Convention : Reuss Voigt Hill
#
# Bulk Modulus (GPa) = 46.94984 54.77783 50.86383
# Shear Modulus (GPa) = 38.02368 15.22705 26.62536
#
# Velocity S-wave (km/s) = 4.54568 2.87660 3.80382
# Velocity P-wave (km/s) = 7.28457 6.38757 6.85076
#
# Compressibility (1/GPa) = 0.02129933
#
# Stress axis : x y z
#
# Youngs Moduli (GPa) = 61.72163 46.65960 41.58627
#
# Poissons Ratio (x) = 0.25780 0.34664
# Poissons Ratio (y) = 0.34102 0.26324
# Poissons Ratio (z) = 0.51447 0.29535
#
# Static dielectric constant tensor:
#      x y z
#    x 3.473950 -0.000010 -0.108600 
#    y -0.000010 3.508430 -0.000010 
#    z -0.108600 -0.000010 3.469160 
# 
# 
# High freq. dielectric constant tensor:
#      x y z
#    x 1.717810 0.000000 -0.013690 
#    y 0.000000 1.715740 0.000000 
#    z -0.013690 0.000000 1.706070 
# 
# From -- ./inp_files/295540.got.cif
#   From: 2010.06.25/outbox.cif.g09.slc.cpg/sg12_148_cif.got.tgz:295540.got - 2010.06.28 00:19:55.
