data_PCOD8091150
_publ_section_title
;
Structure prediction by ZEFSAII (Michael W. Deem and Ramdas Pophale) SiO2 
 PCOD8091150
Probable space group: C 2/M
;
_chemical_formula_sum "Si O2"
_cell_formula_units_Z 56
_cell_length_a 12.756663
_cell_length_b 13.771008
_cell_length_c 26.958353
_cell_angle_alpha 90.000000
_cell_angle_beta 138.913331
_cell_angle_gamma 90.000000
_cell_volume 3112.387450
_symmetry_space_group_name_H-M "C 2/M"
_symmetry_group_IT_number 12
_symmetry_cell_setting 'monoclinic'
loop_
_space_group_symop_operation_xyz
x,y,z
-x,y,-z
-x,-y,-z
x,-y,z
1/2+x,1/2+y,z
1/2-x,1/2+y,-z
1/2-x,1/2-y,-z
1/2+x,1/2-y,z
loop_
_atom_site_type_symbol
_atom_site_label
_atom_site_fract_x
_atom_site_fract_y
_atom_site_fract_z
Si Si1 0.527923 0.222003 0.319431
Si Si2 0.880218 0.262168 0.913641
Si Si3 0.199620 0.884364 0.198219
Si Si4 0.661758 0.387699 0.581502
Si Si5 0.933539 0.390340 0.843917
Si Si6 0.602811 0.607981 0.673778
Si Si7 0.531669 0.274061 0.812179
O O1 0.376483 0.152284 0.275147
O O2 0.687853 0.164546 0.389565
O O3 0.527295 0.313039 0.356904
O O4 0.536342 0.264076 0.267128
O O5 0.849877 0.163930 0.871581
O O6 0.959327 0.344626 0.907296
O O7 0.716156 0.306609 0.876928
O O8 0.000000 0.235397 0.000000
O O9 0.075469 0.851838 0.196536
O O10 0.197526 0.000000 0.192236
O O11 0.500000 0.344722 0.500000
O O12 0.676860 0.500000 0.573156
O O13 0.667078 0.369811 0.642071
O O14 0.997192 0.500000 0.866140
O O15 0.746980 0.382844 0.764177
O O16 0.032404 0.331390 0.838431
O O17 0.527285 0.500000 0.648920
#
# Coordination Sequence:
#
# PCOD8091150 Si02
#       7
#     8   8   8   8   8   8   8
#     4  11  18  35  57  80 108 142 178 218 265 313
#     4  10  22  38  53  75 108 142 176 221 271 319
#     4  10  21  34  52  80 105 137 178 221 268 318
#     4  10  21  35  55  83 113 144 177 218 263 310
#     4  10  19  34  55  79 101 135 181 221 260 316
#     4  10  19  34  55  81 107 135 181 219 258 316
#     4  10  19  35  53  77 103 137 173 224 262 316
#
# _framework density 17.992618
#
# number of rings (size 3 to 8) (size 9 to 14) (size 15 to 20)
#    0.000    1.857    5.714    0.429    0.000    6.857 
#    0.000    1.429    0.000    0.429    0.000    0.000 
#    0.000    0.000    0.000    0.000    0.000    0.000 
#
# Total GULP energy -347211.123160 kJ/mol
# GULP energy per Si atom -12400.397256 kJ/mol
# Density = 1.795167 g / cm^3
# Si number density = 17.992618 Si / 1000 Ang^3
#
#
#
# Elastic Constant Matrix: (Units=GPa)
#
#
# Indices 1 2 3 4 5 6 
#
# 1 65.6119 23.0996 6.3455 0.0000 6.8232 0.0000
# 2 23.0996 92.3581 6.0537 0.0000 -7.9132 0.0000
# 3 6.3455 6.0537 57.0576 0.0000 11.5031 0.0000
# 4 0.0000 0.0000 0.0000 15.7740 0.0000 6.1164
# 5 6.8232 -7.9132 11.5031 0.0000 17.1994 0.0000
# 6 0.0000 0.0000 0.0000 6.1164 0.0000 21.6602
#
#
#
# Elastic Compliance Matrix: (Units=1/GPa)
#
#
# Indices 1 2 3 4 5 6 
#
# 1 0.018151 -0.005445 0.000596 0.000000 -0.010104 0.000000
# 2 -0.005445 0.013246 -0.002848 0.000000 0.010159 0.000000
# 3 0.000596 -0.002848 0.020891 0.000000 -0.015519 0.000000
# 4 0.000000 0.000000 0.000000 0.071190 0.000000 -0.020103
# 5 -0.010104 0.010159 -0.015519 0.000000 0.077203 0.000000
# 6 0.000000 0.000000 0.000000 -0.020103 0.000000 0.051844
#
#
# Mechanical properties :
#
#
# Convention : Reuss Voigt Hill
#
# Bulk Modulus (GPa) = 27.10384 31.78058 29.44221
# Shear Modulus (GPa) = 17.84332 22.89531 20.36932
#
# Velocity S-wave (km/s) = 3.15255 3.57106 3.36831
# Velocity P-wave (km/s) = 5.32428 5.89107 5.61483
#
# Compressibility (1/GPa) = 0.03689514
#
# Stress axis : x y z
#
# Youngs Moduli (GPa) = 55.09300 75.49303 47.86819
#
# Poissons Ratio (x) = 0.41103 -0.02854
# Poissons Ratio (y) = 0.29996 0.13633
# Poissons Ratio (z) = -0.03284 0.21501
#
# Static dielectric constant tensor:
#      x y z
#    x 3.375550 0.000000 0.012780 
#    y 0.000000 3.334580 0.000000 
#    z 0.012780 0.000000 3.115360 
# 
# 
# High freq. dielectric constant tensor:
#      x y z
#    x 1.703780 0.000000 -0.003110 
#    y 0.000000 1.692040 0.000000 
#    z -0.003110 0.000000 1.675570 
# 
# From -- ./inp_files/262816.got.cif
#   From: 2010.06.25/outbox.cif.g09.slc.cpg/sg12_132_cif.got.tgz:262816.got - 2010.06.28 00:19:55.
