data_PCOD8091005
_publ_section_title
;
Structure prediction by ZEFSAII (Michael W. Deem and Ramdas Pophale) SiO2 
 PCOD8091005
Probable space group: C 2/M
;
_chemical_formula_sum "Si O2"
_cell_formula_units_Z 64
_cell_length_a 18.393709
_cell_length_b 10.951809
_cell_length_c 17.742516
_cell_angle_alpha 90.000000
_cell_angle_beta 80.767053
_cell_angle_gamma 90.000000
_cell_volume 3527.824430
_symmetry_space_group_name_H-M "C 2/M"
_symmetry_group_IT_number 12
_symmetry_cell_setting 'monoclinic'
loop_
_space_group_symop_operation_xyz
x,y,z
-x,y,-z
-x,-y,-z
x,-y,z
1/2+x,1/2+y,z
1/2-x,1/2+y,-z
1/2-x,1/2-y,-z
1/2+x,1/2-y,z
loop_
_atom_site_type_symbol
_atom_site_label
_atom_site_fract_x
_atom_site_fract_y
_atom_site_fract_z
Si Si1 0.543701 0.216957 0.686916
Si Si2 0.363170 0.359881 0.211714
Si Si3 0.297922 0.859831 0.757986
Si Si4 0.436633 0.140905 0.827110
Si Si5 0.186493 0.269986 0.408140
Si Si6 0.542496 0.359979 0.419651
Si Si7 0.497922 0.359711 0.088957
Si Si8 0.827054 0.367391 0.429986
O O1 0.597699 0.307143 0.721676
O O2 0.500367 0.132444 0.753321
O O3 0.483374 0.291460 0.650623
O O4 0.593134 0.138779 0.621920
O O5 0.349449 0.500000 0.233493
O O6 0.282325 0.298217 0.211876
O O7 0.413531 0.341907 0.129500
O O8 0.360856 0.808570 0.802957
O O9 0.320468 0.845361 0.667281
O O10 0.293598 0.000000 0.778967
O O11 0.453993 0.248393 0.884547
O O12 0.430778 0.000000 0.860981
O O13 0.130168 0.156281 0.414993
O O14 0.162755 0.353220 0.482204
O O15 0.270726 0.229436 0.404480
O O16 0.500000 0.308768 0.500000
O O17 0.523066 0.500000 0.411190
O O18 0.524035 0.500000 0.106806
O O19 0.500000 0.343350 0.000000
O O20 0.793507 0.500000 0.419665
#
# Coordination Sequence:
#
# PCOD8091005 Si02
#       8
#     8   8   8   8   8   8   8   8
#     4  11  19  35  52  74 107 136 181 226 273 320
#     4   9  18  33  56  80 104 141 177 214 263 319
#     4  10  19  34  54  78 109 142 180 221 268 329
#     4  10  21  35  57  85 115 145 179 221 270 329
#     4  11  21  38  50  70 102 140 183 228 279 326
#     4  11  22  35  51  73 100 136 185 239 284 325
#     4   9  19  38  63  88 114 144 181 220 262 319
#     4  11  23  35  50  71  98 139 185 231 278 325
#
# _framework density 18.141492
#
# number of rings (size 3 to 8) (size 9 to 14) (size 15 to 20)
#    0.000    1.750    3.750    1.500    0.000    0.750 
#    0.000    1.250    0.000    0.000    0.000    0.000 
#    0.000    0.000    0.000    0.000    0.000    0.000 
#
# Total GULP energy -396566.585306 kJ/mol
# GULP energy per Si atom -12392.705791 kJ/mol
# Density = 1.810020 g / cm^3
# Si number density = 18.141492 Si / 1000 Ang^3
#
#
#
# Elastic Constant Matrix: (Units=GPa)
#
#
# Indices 1 2 3 4 5 6 
#
# 1 103.2328 25.2173 36.0521 0.0000 9.6048 0.0000
# 2 25.2173 74.2784 34.7391 0.0000 9.9933 0.0000
# 3 36.0521 34.7391 93.6007 0.0000 2.2570 0.0000
# 4 0.0000 0.0000 0.0000 14.2334 0.0000 7.4204
# 5 9.6048 9.9933 2.2570 0.0000 21.1868 0.0000
# 6 0.0000 0.0000 0.0000 7.4204 0.0000 21.9420
#
#
#
# Elastic Compliance Matrix: (Units=1/GPa)
#
#
# Indices 1 2 3 4 5 6 
#
# 1 0.011819 -0.001658 -0.003837 0.000000 -0.004168 0.000000
# 2 -0.001658 0.017648 -0.005744 0.000000 -0.006961 0.000000
# 3 -0.003837 -0.005744 0.014223 0.000000 0.002933 0.000000
# 4 0.000000 0.000000 0.000000 0.085295 0.000000 -0.028845
# 5 -0.004168 -0.006961 0.002933 0.000000 0.052059 0.000000
# 6 0.000000 0.000000 0.000000 -0.028845 0.000000 0.055330
#
#
# Mechanical properties :
#
#
# Convention : Reuss Voigt Hill
#
# Bulk Modulus (GPa) = 47.13835 51.45877 49.29856
# Shear Modulus (GPa) = 18.80246 23.14599 20.97422
#
# Velocity S-wave (km/s) = 3.22286 3.57579 3.40390
# Velocity P-wave (km/s) = 6.31579 6.74353 6.53316
#
# Compressibility (1/GPa) = 0.02121415
#
# Stress axis : x y z
#
# Youngs Moduli (GPa) = 84.60642 56.66231 70.31108
#
# Poissons Ratio (x) = 0.09392 0.26977
# Poissons Ratio (y) = 0.14024 0.40385
# Poissons Ratio (z) = 0.32462 0.32545
#
# Static dielectric constant tensor:
#      x y z
#    x 3.645450 0.000000 -0.041500 
#    y 0.000000 3.200940 0.000000 
#    z -0.041500 0.000000 3.184880 
# 
# 
# High freq. dielectric constant tensor:
#      x y z
#    x 1.712580 0.000000 -0.003480 
#    y 0.000000 1.690620 0.000000 
#    z -0.003480 0.000000 1.686670 
# 
# From -- ./inp_files/223830.got.cif
#   From: 2010.06.25/outbox.cif.g09.slc.cpg/sg12_112_cif.got.tgz:223830.got - 2010.06.28 00:19:55.
