data_PCOD8091803
_publ_section_title
;
Structure prediction by ZEFSAII (Michael W. Deem and Ramdas Pophale) SiO2 
 PCOD8091803
Probable space group: C 2/M
;
_chemical_formula_sum "Si O2"
_cell_formula_units_Z 48
_cell_length_a 25.741545
_cell_length_b 20.358971
_cell_length_c 13.564084
_cell_angle_alpha 90.000000
_cell_angle_beta 21.486640
_cell_angle_gamma 90.000000
_cell_volume 2603.749306
_symmetry_space_group_name_H-M "C 2/M"
_symmetry_group_IT_number 12
_symmetry_cell_setting 'monoclinic'
loop_
_space_group_symop_operation_xyz
x,y,z
-x,y,-z
-x,-y,-z
x,-y,z
1/2+x,1/2+y,z
1/2-x,1/2+y,-z
1/2-x,1/2-y,-z
1/2+x,1/2-y,z
loop_
_atom_site_type_symbol
_atom_site_label
_atom_site_fract_x
_atom_site_fract_y
_atom_site_fract_z
Si Si1 0.330372 0.870198 0.045155
Si Si2 0.655353 0.136281 0.409875
Si Si3 0.841341 0.244434 0.743130
Si Si4 0.341109 0.000000 0.693046
Si Si5 0.152211 0.176825 0.754814
Si Si6 0.829178 0.500000 0.930419
Si Si7 0.854037 0.326337 0.216004
O O1 0.491676 0.854243 0.729876
O O2 0.285509 0.938332 0.074180
O O3 0.213755 0.817685 0.219342
O O4 0.317373 0.871257 0.186446
O O5 0.682858 0.190801 0.279019
O O6 0.755738 0.139896 0.327026
O O7 0.703289 0.066333 0.283139
O O8 0.000000 0.234546 0.500000
O O9 0.750000 0.250000 0.000000
O O10 0.260196 0.000000 0.942751
O O11 0.510233 0.000000 0.389753
O O12 0.125532 0.249605 0.846572
O O13 0.229501 0.171533 0.514343
O O14 0.000000 0.143808 0.000000
O O15 0.000000 0.355747 0.000000
#
# Coordination Sequence:
#
# PCOD8091803 Si02
#       7
#     8   8   8   4   8   4   8
#     4  11  21  38  61  88 121 158 203 244 303 356
#     4  11  21  38  60  89 119 162 201 246 301 357
#     4  12  24  36  59  91 120 152 201 257 295 348
#     4   9  20  36  60  82 121 164 207 237 292 361
#     4  10  21  34  58  89 121 153 195 243 306 354
#     4   9  20  38  59  85 119 165 199 248 293 355
#     4  10  19  34  57  85 118 154 193 246 298 356
#
# _framework density 18.434954999999999
#
# number of rings (size 3 to 8) (size 9 to 14) (size 15 to 20)
#    0.000    1.500    5.000    1.000    2.333    1.333 
#    0.000    2.083    0.000    2.000    0.000    0.000 
#    0.000    0.000    0.000    0.000    0.000    0.000 
#
# Total GULP energy -297431.863598 kJ/mol
# GULP energy per Si atom -12392.994317 kJ/mol
# Density = 1.839300 g / cm^3
# Si number density = 18.434955 Si / 1000 Ang^3
#
#
#
# Elastic Constant Matrix: (Units=GPa)
#
#
# Indices 1 2 3 4 5 6 
#
# 1 131.6868 66.4380 36.5464 0.0005 6.7745 0.0011
# 2 66.4380 126.2558 31.8682 0.0009 2.6747 0.0002
# 3 36.5464 31.8682 81.4574 0.0055 -2.1736 0.0007
# 4 0.0005 0.0009 0.0055 17.7131 -0.0014 1.7715
# 5 6.7745 2.6747 -2.1736 -0.0014 37.5975 -0.0002
# 6 0.0011 0.0002 0.0007 1.7715 -0.0002 19.2807
#
#
#
# Elastic Compliance Matrix: (Units=1/GPa)
#
#
# Indices 1 2 3 4 5 6 
#
# 1 0.011063 -0.005013 -0.003051 0.000001 -0.001813 -0.000001
# 2 -0.005013 0.011086 -0.002088 0.000000 -0.000006 0.000000
# 3 -0.003051 -0.002088 0.014503 -0.000004 0.001537 0.000000
# 4 0.000001 0.000000 -0.000004 0.056979 0.000002 -0.005235
# 5 -0.001813 -0.000006 0.001537 0.000002 0.027013 0.000000
# 6 -0.000001 0.000000 0.000000 -0.005235 0.000000 0.052346
#
#
# Mechanical properties :
#
#
# Convention : Reuss Voigt Hill
#
# Bulk Modulus (GPa) = 61.16924 67.67837 64.42380
# Shear Modulus (GPa) = 25.15817 28.55475 26.85646
#
# Velocity S-wave (km/s) = 3.69819 3.93994 3.82098
# Velocity P-wave (km/s) = 7.17556 7.58216 7.38166
#
# Compressibility (1/GPa) = 0.01634809
#
# Stress axis : x y z
#
# Youngs Moduli (GPa) = 90.39292 90.20763 68.95187
#
# Poissons Ratio (x) = 0.45222 0.21034
# Poissons Ratio (y) = 0.45314 0.14397
# Poissons Ratio (z) = 0.27575 0.18835
#
# Static dielectric constant tensor:
#      x y z
#    x 3.543690 0.000000 0.048650 
#    y 0.000000 3.423830 0.000000 
#    z 0.048650 0.000000 3.304010 
# 
# 
# High freq. dielectric constant tensor:
#      x y z
#    x 1.734690 0.000000 0.007210 
#    y 0.000000 1.694520 0.000000 
#    z 0.007210 0.000000 1.707430 
# 
# From -- ./inp_files/169607.got.cif
#   From: 2010.06.25/outbox.cif.g09.slc.cpg/sg12_85_cif.got.tgz:169607.got - 2010.06.28 00:19:55.
