data_PCOD8091374
_publ_section_title
;
Structure prediction by ZEFSAII (Michael W. Deem and Ramdas Pophale) SiO2 
 PCOD8091374
Probable space group: C 2/M
;
_chemical_formula_sum "Si O2"
_cell_formula_units_Z 56
_cell_length_a 14.470866
_cell_length_b 8.827971
_cell_length_c 30.064838
_cell_angle_alpha 90.000000
_cell_angle_beta 52.588599
_cell_angle_gamma 90.000000
_cell_volume 3050.671403
_symmetry_space_group_name_H-M "C 2/M"
_symmetry_group_IT_number 12
_symmetry_cell_setting 'monoclinic'
loop_
_space_group_symop_operation_xyz
x,y,z
-x,y,-z
-x,-y,-z
x,-y,z
1/2+x,1/2+y,z
1/2-x,1/2+y,-z
1/2-x,1/2-y,-z
1/2+x,1/2-y,z
loop_
_atom_site_type_symbol
_atom_site_label
_atom_site_fract_x
_atom_site_fract_y
_atom_site_fract_z
Si Si1 0.415752 0.322210 0.647402
Si Si2 0.557838 0.326985 0.937875
Si Si3 0.036669 0.180641 0.268229
Si Si4 0.677849 0.320002 0.560814
Si Si5 0.797611 0.821045 0.857929
Si Si6 0.707507 0.818836 0.646609
Si Si7 0.341567 0.672082 0.941777
O O1 0.402501 0.500000 0.649401
O O2 0.405875 0.268604 0.701674
O O3 0.543048 0.274104 0.592310
O O4 0.312637 0.254879 0.646971
O O5 0.596291 0.500000 0.935447
O O6 0.665746 0.229658 0.890026
O O7 0.469920 0.312272 0.923023
O O8 0.500000 0.261266 0.000000
O O9 0.121126 0.243262 0.204952
O O10 0.912595 0.259925 0.297206
O O11 0.017838 0.000000 0.272425
O O12 0.693042 0.500000 0.558364
O O13 0.750000 0.250000 0.500000
O O14 0.726042 0.249918 0.592356
O O15 0.841754 0.756151 0.892430
O O16 0.803918 0.000000 0.854112
O O17 0.706664 0.000000 0.643944
O O18 0.300360 0.500000 0.950688
O O19 0.250000 0.750000 0.000000
#
# Coordination Sequence:
#
# PCOD8091374 Si02
#       7
#     8   8   8   8   8   8   8
#     4   8  17  34  55  74 103 143 176 210 262 316
#     4  10  20  34  51  72 101 134 165 207 262 315
#     4   9  19  37  54  74 105 138 171 216 269 315
#     4  10  20  36  55  80 114 149 180 219 262 306
#     4  10  21  35  54  77 102 133 173 216 260 317
#     4  10  19  34  56  80 103 138 182 219 257 310
#     4  10  20  34  51  73 100 132 167 208 259 314
#
# _framework density 18.356615000000001
#
# number of rings (size 3 to 8) (size 9 to 14) (size 15 to 20)
#    0.000    2.429    1.429    1.714    0.000    3.143 
#    0.000   10.000    0.000    0.000    0.000    0.000 
#    0.000    0.000    0.000    0.000    0.000    0.000 
#
# Total GULP energy -347143.417833 kJ/mol
# GULP energy per Si atom -12397.979208 kJ/mol
# Density = 1.831483 g / cm^3
# Si number density = 18.356615 Si / 1000 Ang^3
#
#
#
# Elastic Constant Matrix: (Units=GPa)
#
#
# Indices 1 2 3 4 5 6 
#
# 1 150.3702 33.1276 81.3944 0.0000 3.0642 0.0000
# 2 33.1276 39.1712 37.5065 0.0001 2.0449 0.0000
# 3 81.3944 37.5065 188.3027 0.0000 2.9197 0.0000
# 4 0.0000 0.0001 0.0000 29.7966 0.0000 -4.2916
# 5 3.0642 2.0449 2.9197 0.0000 20.1545 0.0000
# 6 0.0000 0.0000 0.0000 -4.2916 0.0000 26.7287
#
#
#
# Elastic Compliance Matrix: (Units=1/GPa)
#
#
# Indices 1 2 3 4 5 6 
#
# 1 0.009424 -0.005007 -0.003069 0.000000 -0.000480 0.000000
# 2 -0.005007 0.034311 -0.004638 0.000000 -0.002048 0.000000
# 3 -0.003069 -0.004638 0.007564 0.000000 -0.000159 0.000000
# 4 0.000000 0.000000 0.000000 0.034355 0.000000 0.005516
# 5 -0.000480 -0.002048 -0.000159 0.000000 0.049921 0.000000
# 6 0.000000 0.000000 0.000000 0.005516 0.000000 0.038299
#
#
# Mechanical properties :
#
#
# Convention : Reuss Voigt Hill
#
# Bulk Modulus (GPa) = 38.65307 75.76680 57.20993
# Shear Modulus (GPa) = 24.04715 30.39033 27.21874
#
# Velocity S-wave (km/s) = 3.62332 4.07326 3.85486
# Velocity P-wave (km/s) = 6.21346 7.96784 7.14470
#
# Compressibility (1/GPa) = 0.02587117
#
# Stress axis : x y z
#
# Youngs Moduli (GPa) = 106.10925 29.14504 132.21386
#
# Poissons Ratio (x) = 0.14592 0.40576
# Poissons Ratio (y) = 0.53124 0.61325
# Poissons Ratio (z) = 0.32565 0.13518
#
# Static dielectric constant tensor:
#      x y z
#    x 3.527430 0.000000 0.140410 
#    y 0.000000 3.241850 0.000000 
#    z 0.140410 0.000000 3.531810 
# 
# 
# High freq. dielectric constant tensor:
#      x y z
#    x 1.719970 0.000000 0.004170 
#    y 0.000000 1.694850 0.000000 
#    z 0.004170 0.000000 1.715740 
# 
# From -- ./inp_files/360039.got.cif
#   From: 2010.06.25/outbox.cif.g09.slc.cpg/sg12_181_cif.got.tgz:360039.got - 2010.06.28 00:19:55.
