data_PCOD8091926
_publ_section_title
;
Structure prediction by ZEFSAII (Michael W. Deem and Ramdas Pophale) SiO2 
 PCOD8091926
Probable space group: C 2/M
;
_chemical_formula_sum "Si O2"
_cell_formula_units_Z 48
_cell_length_a 33.678090
_cell_length_b 7.852376
_cell_length_c 18.801579
_cell_angle_alpha 90.000000
_cell_angle_beta 28.839999
_cell_angle_gamma 90.000000
_cell_volume 2398.385221
_symmetry_space_group_name_H-M "C 2/M"
_symmetry_group_IT_number 12
_symmetry_cell_setting 'monoclinic'
loop_
_space_group_symop_operation_xyz
x,y,z
-x,y,-z
-x,-y,-z
x,-y,z
1/2+x,1/2+y,z
1/2-x,1/2+y,-z
1/2-x,1/2-y,-z
1/2+x,1/2-y,z
loop_
_atom_site_type_symbol
_atom_site_label
_atom_site_fract_x
_atom_site_fract_y
_atom_site_fract_z
Si Si1 0.691945 0.194489 0.804468
Si Si2 0.971120 0.689501 0.853740
Si Si3 0.131962 0.000000 0.814565
Si Si4 0.152898 0.198160 0.343620
Si Si5 0.966969 0.000000 0.163858
Si Si6 0.333805 0.191788 0.833245
Si Si7 0.513954 0.693071 0.324247
O O1 0.681824 0.327793 0.755632
O O2 0.778036 0.236307 0.706338
O O3 0.689805 0.000000 0.778453
O O4 0.620782 0.224329 0.974145
O O5 0.000570 0.500000 0.830542
O O6 0.034109 0.829397 0.786334
O O7 0.967621 0.696672 0.774254
O O8 0.114489 0.000000 0.757458
O O9 0.046684 0.000000 0.989891
O O10 0.174562 0.298368 0.238330
O O11 0.066379 0.265992 0.509951
O O12 0.148399 0.000000 0.331389
O O13 0.409328 0.304671 0.742461
O O14 0.352198 0.000000 0.827542
O O15 0.250000 0.250000 0.000000
O O16 0.497545 0.500000 0.325743
#
# Coordination Sequence:
#
# PCOD8091926 Si02
#       7
#     8   8   4   8   4   8   8
#     4   9  19  35  56  84 114 149 192 237 289 346
#     4  10  19  34  58  84 114 152 194 237 287 350
#     4   9  18  32  58  86 115 148 183 239 294 355
#     4  10  22  39  58  83 114 153 191 239 289 342
#     4   9  18  34  54  88 119 142 187 239 298 345
#     4  12  25  39  58  83 115 152 196 244 288 338
#     4  11  22  38  59  83 115 155 191 239 290 344
#
# _framework density 20.013466999999999
#
# number of rings (size 3 to 8) (size 9 to 14) (size 15 to 20)
#    0.000    1.833    0.833    3.500    1.167    5.333 
#    0.000    3.333    0.000    1.000    0.000    0.000 
#    0.000    0.000    0.000    0.000    0.000    0.000 
#
# Total GULP energy -297672.944602 kJ/mol
# GULP energy per Si atom -12403.039358 kJ/mol
# Density = 1.996792 g / cm^3
# Si number density = 20.013467 Si / 1000 Ang^3
#
#
#
# Elastic Constant Matrix: (Units=GPa)
#
#
# Indices 1 2 3 4 5 6 
#
# 1 118.3624 51.6386 41.4405 0.0006 -25.2444 -0.0003
# 2 51.6386 113.1010 31.8977 0.0015 -8.6852 -0.0014
# 3 41.4405 31.8977 97.9493 0.0015 -18.4132 -0.0007
# 4 0.0006 0.0015 0.0015 16.8536 -0.0003 -1.1275
# 5 -25.2444 -8.6852 -18.4132 -0.0003 15.2625 0.0001
# 6 -0.0003 -0.0014 -0.0007 -1.1275 0.0001 31.4291
#
#
#
# Elastic Compliance Matrix: (Units=1/GPa)
#
#
# Indices 1 2 3 4 5 6 
#
# 1 0.015728 -0.005263 -0.000793 0.000000 0.022063 0.000000
# 2 -0.005263 0.011555 -0.002505 -0.000001 -0.005151 0.000000
# 3 -0.000793 -0.002505 0.014027 -0.000001 0.014186 0.000000
# 4 0.000000 -0.000001 -0.000001 0.059477 0.000001 0.002134
# 5 0.022063 -0.005151 0.014186 0.000001 0.116195 0.000000
# 6 0.000000 0.000000 0.000000 0.002134 0.000000 0.031894
#
#
# Mechanical properties :
#
#
# Convention : Reuss Voigt Hill
#
# Bulk Modulus (GPa) = 41.34022 64.37402 52.85712
# Shear Modulus (GPa) = 18.24407 26.33810 22.29109
#
# Velocity S-wave (km/s) = 3.02253 3.63163 3.34099
# Velocity P-wave (km/s) = 5.73428 7.05834 6.43048
#
# Compressibility (1/GPa) = 0.02418952
#
# Stress axis : x y z
#
# Youngs Moduli (GPa) = 63.58139 86.53920 71.28952
#
# Poissons Ratio (x) = 0.45546 0.05651
# Poissons Ratio (y) = 0.33463 0.17856
# Poissons Ratio (z) = 0.05040 0.21676
#
# Static dielectric constant tensor:
#      x y z
#    x 3.544220 0.000000 -0.076050 
#    y 0.000000 3.762380 0.000000 
#    z -0.076050 0.000000 3.465690 
# 
# 
# High freq. dielectric constant tensor:
#      x y z
#    x 1.771690 0.000000 -0.004090 
#    y 0.000000 1.792290 0.000000 
#    z -0.004090 0.000000 1.762060 
# 
# From -- ./inp_files/295394.got.cif
#   From: 2010.06.25/outbox.cif.g09.slc.cpg/sg12_148_cif.got.tgz:295394.got - 2010.06.28 00:19:55.
