data_PCOD8091352
_publ_section_title
;
Structure prediction by ZEFSAII (Michael W. Deem and Ramdas Pophale) SiO2 
 PCOD8091352
Probable space group: C 2/M
;
_chemical_formula_sum "Si O2"
_cell_formula_units_Z 56
_cell_length_a 23.781519
_cell_length_b 8.929595
_cell_length_c 14.108044
_cell_angle_alpha 90.000000
_cell_angle_beta 106.072187
_cell_angle_gamma 90.000000
_cell_volume 2878.873118
_symmetry_space_group_name_H-M "C 2/M"
_symmetry_group_IT_number 12
_symmetry_cell_setting 'monoclinic'
loop_
_space_group_symop_operation_xyz
x,y,z
-x,y,-z
-x,-y,-z
x,-y,z
1/2+x,1/2+y,z
1/2-x,1/2+y,-z
1/2-x,1/2-y,-z
1/2+x,1/2-y,z
loop_
_atom_site_type_symbol
_atom_site_label
_atom_site_fract_x
_atom_site_fract_y
_atom_site_fract_z
Si Si1 0.760728 0.674503 0.103993
Si Si2 0.912508 0.676038 0.519479
Si Si3 0.663199 0.322167 0.204510
Si Si4 0.391185 0.175693 0.146471
Si Si5 0.431939 0.177411 0.964052
Si Si6 0.034596 0.324238 0.651364
Si Si7 0.807218 0.823562 0.569634
O O1 0.750544 0.500000 0.085645
O O2 0.716917 0.735944 0.163896
O O3 0.827832 0.711047 0.161783
O O4 0.750000 0.750000 0.000000
O O5 0.895960 0.500000 0.512144
O O6 0.931836 0.735741 0.425518
O O7 0.859097 0.777557 0.524778
O O8 0.965732 0.709572 0.616607
O O9 0.657067 0.500000 0.198613
O O10 0.601874 0.251822 0.140342
O O11 0.678185 0.265858 0.317384
O O12 0.438292 0.247970 0.240782
O O13 0.402352 0.000000 0.142840
O O14 0.400800 0.240281 0.045286
O O15 0.426311 0.000000 0.949439
O O16 0.500000 0.225729 0.000000
O O17 0.045584 0.500000 0.656101
O O18 0.750000 0.750000 0.500000
O O19 0.798283 0.000000 0.565790
#
# Coordination Sequence:
#
# PCOD8091352 Si02
#       7
#     8   8   8   8   8   8   8
#     4  10  19  34  56  79 106 141 181 225 269 321
#     4   9  18  35  60  86 111 144 188 234 279 335
#     4  10  23  40  58  81 112 152 188 228 286 341
#     4   9  17  30  52  81 112 143 180 227 272 322
#     4  10  21  35  56  87 117 148 188 231 275 327
#     4   8  16  31  56  87 113 145 186 226 278 338
#     4  11  25  42  59  82 111 150 194 236 289 344
#
# _framework density 19.452055999999999
#
# number of rings (size 3 to 8) (size 9 to 14) (size 15 to 20)
#    0.000    2.429    1.429    1.286    4.000    1.429 
#    0.000    1.429    0.000    1.714    0.000    0.000 
#    0.000    0.000    0.000    0.000    0.000    0.000 
#
# Total GULP energy -347096.658848 kJ/mol
# GULP energy per Si atom -12396.309245 kJ/mol
# Density = 1.940778 g / cm^3
# Si number density = 19.452056 Si / 1000 Ang^3
#
#
#
# Elastic Constant Matrix: (Units=GPa)
#
#
# Indices 1 2 3 4 5 6 
#
# 1 120.7331 29.7533 51.6041 0.0000 8.4857 0.0000
# 2 29.7533 28.4668 29.8975 0.0000 6.6021 0.0000
# 3 51.6041 29.8975 139.5353 0.0000 23.0276 0.0000
# 4 0.0000 0.0000 0.0000 24.3907 0.0000 0.5033
# 5 8.4857 6.6021 23.0276 0.0000 31.3656 0.0000
# 6 0.0000 0.0000 0.0000 0.5033 0.0000 27.4052
#
#
#
# Elastic Compliance Matrix: (Units=1/GPa)
#
#
# Indices 1 2 3 4 5 6 
#
# 1 0.011665 -0.009932 -0.002287 0.000000 0.000614 0.000000
# 2 -0.009932 0.053995 -0.007355 0.000000 -0.003278 0.000000
# 3 -0.002287 -0.007355 0.010503 0.000000 -0.005544 0.000000
# 4 0.000000 0.000000 0.000000 0.041015 0.000000 -0.000753
# 5 0.000614 -0.003278 -0.005544 0.000000 0.036477 0.000000
# 6 0.000000 0.000000 0.000000 -0.000753 0.000000 0.036503
#
#
# Mechanical properties :
#
#
# Convention : Reuss Voigt Hill
#
# Bulk Modulus (GPa) = 27.01664 56.80500 41.91082
# Shear Modulus (GPa) = 20.69156 28.46431 24.57793
#
# Velocity S-wave (km/s) = 3.26501 3.82947 3.55845
# Velocity P-wave (km/s) = 5.30403 6.98706 6.20289
#
# Compressibility (1/GPa) = 0.03701422
#
# Stress axis : x y z
#
# Youngs Moduli (GPa) = 85.72736 18.52033 95.20746
#
# Poissons Ratio (x) = 0.18395 0.21776
# Poissons Ratio (y) = 0.85147 0.70024
# Poissons Ratio (z) = 0.19607 0.13621
#
# Static dielectric constant tensor:
#      x y z
#    x 3.958280 0.000000 0.223070 
#    y 0.000000 3.139160 0.000000 
#    z 0.223070 0.000000 4.181060 
# 
# 
# High freq. dielectric constant tensor:
#      x y z
#    x 1.768930 0.000000 0.004490 
#    y 0.000000 1.713310 0.000000 
#    z 0.004490 0.000000 1.768860 
# 
# From -- ./inp_files/237830.got.cif
#   From: 2010.06.25/outbox.cif.g09.slc.cpg/sg12_119_cif.got.tgz:237830.got - 2010.06.28 00:19:55.
