data_PCOD8091941
_publ_section_title
;
Structure prediction by ZEFSAII (Michael W. Deem and Ramdas Pophale) SiO2 
 PCOD8091941
Probable space group: C 2/M
;
_chemical_formula_sum "Si O2"
_cell_formula_units_Z 64
_cell_length_a 35.731126
_cell_length_b 17.460422
_cell_length_c 5.126243
_cell_angle_alpha 90.000000
_cell_angle_beta 90.238183
_cell_angle_gamma 90.000000
_cell_volume 3198.135609
_symmetry_space_group_name_H-M "C 2/M"
_symmetry_group_IT_number 12
_symmetry_cell_setting 'monoclinic'
loop_
_space_group_symop_operation_xyz
x,y,z
-x,y,-z
-x,-y,-z
x,-y,z
1/2+x,1/2+y,z
1/2-x,1/2+y,-z
1/2-x,1/2-y,-z
1/2+x,1/2-y,z
loop_
_atom_site_type_symbol
_atom_site_label
_atom_site_fract_x
_atom_site_fract_y
_atom_site_fract_z
Si Si1 0.774321 0.673899 0.521100
Si Si2 0.161799 0.911701 0.063058
Si Si3 0.071969 0.773104 0.464564
Si Si4 0.042240 0.698551 0.970539
Si Si5 0.384071 0.411445 0.423454
Si Si6 0.110196 0.588938 0.999949
Si Si7 0.859620 0.335611 0.505772
Si Si8 0.254519 0.591267 0.973177
O O1 0.750000 0.750000 0.500000
O O2 0.817852 0.696635 0.532681
O O3 0.768121 0.618007 0.278622
O O4 0.764416 0.626708 0.776108
O O5 0.146149 0.899233 0.350139
O O6 0.203143 0.875825 0.047101
O O7 0.165644 0.000000 0.989130
O O8 0.134111 0.877089 0.842792
O O9 0.046693 0.736068 0.687730
O O10 0.078287 0.863501 0.515610
O O11 0.113247 0.736489 0.456587
O O12 0.051275 0.762414 0.189046
O O13 0.068868 0.625487 0.007040
O O14 0.000000 0.668985 0.000000
O O15 0.396158 0.500000 0.398816
O O16 0.104952 0.500000 0.945067
O O17 0.131429 0.601417 0.273077
O O18 0.135130 0.626154 0.775042
O O19 0.253121 0.500000 0.989562
#
# Coordination Sequence:
#
# PCOD8091941 Si02
#       8
#     8   8   8   8   8   8   8   8
#     4  12  26  41  57  87 118 162 207 258 307 362
#     4   9  19  33  53  81 107 141 185 245 301 337
#     4  10  21  37  59  86 113 154 188 231 286 348
#     4  10  21  39  61  89 122 153 186 225 284 354
#     4  10  19  34  58  85 111 145 194 240 285 334
#     4  10  21  39  63  90 116 148 196 243 287 350
#     4  10  23  38  56  83 115 153 197 237 296 349
#     4  11  24  41  59  81 113 154 206 253 311 368
#
# _framework density 20.011658000000001
#
# number of rings (size 3 to 8) (size 9 to 14) (size 15 to 20)
#    0.000    1.750    0.000    3.750    3.500    5.250 
#    0.000    0.000    0.000    6.750    0.000    0.000 
#    0.000    0.000    0.000    0.000    0.000    0.000 
#
# Total GULP energy -396924.798857 kJ/mol
# GULP energy per Si atom -12403.899964 kJ/mol
# Density = 1.996611 g / cm^3
# Si number density = 20.011658 Si / 1000 Ang^3
#
#
#
# Elastic Constant Matrix: (Units=GPa)
#
#
# Indices 1 2 3 4 5 6 
#
# 1 111.9728 32.2161 6.8007 0.0000 -7.9955 0.0000
# 2 32.2161 79.5367 14.4749 0.0000 0.1321 0.0000
# 3 6.8007 14.4749 88.8938 0.0000 3.3731 0.0000
# 4 0.0000 0.0000 0.0000 25.5614 0.0000 3.4703
# 5 -7.9955 0.1321 3.3731 0.0000 24.5091 0.0000
# 6 0.0000 0.0000 0.0000 3.4703 0.0000 14.6350
#
#
#
# Elastic Compliance Matrix: (Units=1/GPa)
#
#
# Indices 1 2 3 4 5 6 
#
# 1 0.010392 -0.004170 -0.000247 0.000000 0.003446 0.000000
# 2 -0.004170 0.014631 -0.002019 0.000000 -0.001161 0.000000
# 3 -0.000247 -0.002019 0.011661 0.000000 -0.001674 0.000000
# 4 0.000000 0.000000 0.000000 0.040423 0.000000 -0.009585
# 5 0.003446 -0.001161 -0.001674 0.000000 0.042162 0.000000
# 6 0.000000 0.000000 0.000000 -0.009585 0.000000 0.070602
#
#
# Mechanical properties :
#
#
# Convention : Reuss Voigt Hill
#
# Bulk Modulus (GPa) = 41.99679 43.04297 42.51988
# Shear Modulus (GPa) = 23.73271 28.06854 25.90062
#
# Velocity S-wave (km/s) = 3.44749 3.74921 3.60151
# Velocity P-wave (km/s) = 6.07278 6.34805 6.21194
#
# Compressibility (1/GPa) = 0.02381135
#
# Stress axis : x y z
#
# Youngs Moduli (GPa) = 96.23196 68.34684 85.75872
#
# Poissons Ratio (x) = 0.28500 0.02116
# Poissons Ratio (y) = 0.40128 0.17318
# Poissons Ratio (z) = 0.02375 0.13802
#
# Static dielectric constant tensor:
#      x y z
#    x 3.579100 0.000000 0.077000 
#    y 0.000000 3.525200 0.000000 
#    z 0.077000 0.000000 3.902590 
# 
# 
# High freq. dielectric constant tensor:
#      x y z
#    x 1.769470 0.000000 -0.000550 
#    y 0.000000 1.769870 0.000000 
#    z -0.000550 0.000000 1.804030 
# 
# From -- ./inp_files/32054.got.cif
#   From: 2010.06.25/outbox.cif.g09.slc.cpg/sg12_17_cif.got.tgz:32054.got - 2010.06.28 00:19:55.
