data_PCOD8091410
_publ_section_title
;
Structure prediction by ZEFSAII (Michael W. Deem and Ramdas Pophale) SiO2 
 PCOD8091410
Probable space group: C 2/M
;
_chemical_formula_sum "Si O2"
_cell_formula_units_Z 56
_cell_length_a 15.940308
_cell_length_b 26.275718
_cell_length_c 8.646675
_cell_angle_alpha 90.000000
_cell_angle_beta 124.913267
_cell_angle_gamma 90.000000
_cell_volume 2969.781849
_symmetry_space_group_name_H-M "C 2/M"
_symmetry_group_IT_number 12
_symmetry_cell_setting 'monoclinic'
loop_
_space_group_symop_operation_xyz
x,y,z
-x,y,-z
-x,-y,-z
x,-y,z
1/2+x,1/2+y,z
1/2-x,1/2+y,-z
1/2-x,1/2-y,-z
1/2+x,1/2-y,z
loop_
_atom_site_type_symbol
_atom_site_label
_atom_site_fract_x
_atom_site_fract_y
_atom_site_fract_z
Si Si1 0.701386 0.802742 0.499107
Si Si2 0.117411 0.000000 0.939226
Si Si3 0.471949 0.662132 0.293228
Si Si4 0.150850 0.109010 0.331149
Si Si5 0.298211 0.394002 0.965972
Si Si6 0.612946 0.500000 0.301302
Si Si7 0.892578 0.664226 0.298469
Si Si8 0.502236 0.770671 0.823106
O O1 0.750000 0.750000 0.500000
O O2 0.768646 0.850684 0.513618
O O3 0.679849 0.803487 0.661042
O O4 0.594460 0.807407 0.299984
O O5 0.180515 0.950622 0.946434
O O6 0.108552 0.000000 0.112893
O O7 0.002031 0.000000 0.749226
O O8 0.500000 0.655531 0.500000
O O9 0.536682 0.622131 0.262302
O O10 0.503795 0.718665 0.277712
O O11 0.353015 0.648140 0.134712
O O12 0.150945 0.112081 0.147484
O O13 0.173664 0.051353 0.416403
O O14 0.174921 0.384822 0.824066
O O15 0.000000 0.649905 0.500000
O O16 0.905449 0.697137 0.155016
O O17 0.500000 0.757073 0.000000
#
# Coordination Sequence:
#
# PCOD8091410 Si02
#       8
#     8   4   8   8   8   4   8   8
#     4  10  19  34  57  81 113 148 182 232 281 333
#     4   9  16  30  57  86 111 140 185 228 275 331
#     4  12  23  33  51  83 117 149 186 229 279 343
#     4  10  19  34  56  80 113 151 188 224 277 332
#     4  10  20  36  58  81 111 151 187 228 282 333
#     4   9  16  30  54  84 113 146 184 227 269 336
#     4   9  21  39  55  80 112 146 189 238 278 332
#     4  11  23  38  56  77 111 149 191 231 285 338
#
# _framework density 18.856604000000001
#
# number of rings (size 3 to 8) (size 9 to 14) (size 15 to 20)
#    0.000    1.857    2.857    2.571    2.000    1.714 
#    0.000    1.786    0.000    2.571    0.000    1.000 
#    0.000    0.000    0.000    0.000    0.000    0.000 
#
# Total GULP energy -346930.428098 kJ/mol
# GULP energy per Si atom -12390.372432 kJ/mol
# Density = 1.881369 g / cm^3
# Si number density = 18.856604 Si / 1000 Ang^3
#
#
#
# Elastic Constant Matrix: (Units=GPa)
#
#
# Indices 1 2 3 4 5 6 
#
# 1 84.1932 48.4386 28.4899 0.0000 7.1207 0.0000
# 2 48.4386 147.1383 41.2148 0.0000 19.2199 0.0000
# 3 28.4899 41.2148 66.4874 0.0000 9.7117 0.0000
# 4 0.0000 0.0000 0.0000 25.1014 0.0000 8.6894
# 5 7.1207 19.2199 9.7117 0.0000 23.7079 0.0000
# 6 0.0000 0.0000 0.0000 8.6894 0.0000 23.0297
#
#
#
# Elastic Compliance Matrix: (Units=1/GPa)
#
#
# Indices 1 2 3 4 5 6 
#
# 1 0.015579 -0.003975 -0.004254 0.000000 0.000285 0.000000
# 2 -0.003975 0.009803 -0.003603 0.000000 -0.005278 0.000000
# 3 -0.004254 -0.003603 0.019660 0.000000 -0.003855 0.000000
# 4 0.000000 0.000000 0.000000 0.045824 0.000000 -0.017290
# 5 0.000285 -0.005278 -0.003855 0.000000 0.047952 0.000000
# 6 0.000000 0.000000 0.000000 -0.017290 0.000000 0.049946
#
#
# Mechanical properties :
#
#
# Convention : Reuss Voigt Hill
#
# Bulk Modulus (GPa) = 46.77266 59.34506 53.05886
# Shear Modulus (GPa) = 22.77349 26.34617 24.55983
#
# Velocity S-wave (km/s) = 3.47900 3.74195 3.61287
# Velocity P-wave (km/s) = 6.40282 7.08588 6.75299
#
# Compressibility (1/GPa) = 0.02138001
#
# Stress axis : x y z
#
# Youngs Moduli (GPa) = 64.18745 102.00510 50.86556
#
# Poissons Ratio (x) = 0.40543 0.21636
# Poissons Ratio (y) = 0.25512 0.18327
# Poissons Ratio (z) = 0.27303 0.36752
#
# Static dielectric constant tensor:
#      x y z
#    x 3.743720 0.000000 0.081750 
#    y 0.000000 3.738340 0.000000 
#    z 0.081750 0.000000 3.297120 
# 
# 
# High freq. dielectric constant tensor:
#      x y z
#    x 1.727950 0.000000 0.003130 
#    y 0.000000 1.729080 0.000000 
#    z 0.003130 0.000000 1.707290 
# 
# From -- ./inp_files/67092.got.cif
#   From: 2010.06.25/outbox.cif.g09.slc.cpg/sg12_34_cif.got.tgz:67092.got - 2010.06.28 00:19:55.
