data_PCOD8091619
_publ_section_title
;
Structure prediction by ZEFSAII (Michael W. Deem and Ramdas Pophale) SiO2 
 PCOD8091619
Probable space group: C 2/M
;
_chemical_formula_sum "Si O2"
_cell_formula_units_Z 48
_cell_length_a 19.195197
_cell_length_b 7.671075
_cell_length_c 30.986129
_cell_angle_alpha 90.000000
_cell_angle_beta 146.613796
_cell_angle_gamma 90.000000
_cell_volume 2510.727750
_symmetry_space_group_name_H-M "C 2/M"
_symmetry_group_IT_number 12
_symmetry_cell_setting 'monoclinic'
loop_
_space_group_symop_operation_xyz
x,y,z
-x,y,-z
-x,-y,-z
x,-y,z
1/2+x,1/2+y,z
1/2-x,1/2+y,-z
1/2-x,1/2-y,-z
1/2+x,1/2-y,z
loop_
_atom_site_type_symbol
_atom_site_label
_atom_site_fract_x
_atom_site_fract_y
_atom_site_fract_z
Si Si1 0.477911 0.500000 0.059183
Si Si2 0.935966 0.302670 0.840426
Si Si3 0.888139 0.302935 0.414698
Si Si4 0.708313 0.500000 0.112673
Si Si5 0.146764 0.798563 0.694872
Si Si6 0.108586 0.795774 0.274611
Si Si7 0.399627 0.296961 0.234096
O O1 0.473379 0.672961 0.086451
O O2 0.601019 0.500000 0.093128
O O3 0.350914 0.500000 0.965519
O O4 0.960657 0.500000 0.869273
O O5 0.792414 0.240778 0.775391
O O6 0.962243 0.291602 0.802717
O O7 0.880813 0.500000 0.427536
O O8 0.918615 0.299184 0.379155
O O9 0.750525 0.215409 0.352720
O O10 0.000000 0.208097 0.500000
O O11 0.789483 0.676002 0.158630
O O12 0.075333 0.753593 0.702525
O O13 0.139714 0.000000 0.679632
O O14 0.030148 0.754947 0.277139
O O15 0.117856 0.000000 0.269663
O O16 0.358995 0.500000 0.207399
#
# Coordination Sequence:
#
# PCOD8091619 Si02
#       7
#     4   8   8   4   8   8   8
#     4  11  22  38  56  86 108 141 183 231 288 326
#     4  10  19  34  57  81 106 144 190 229 268 330
#     4   9  18  32  54  84 112 142 181 227 274 320
#     4  11  24  36  60  82 111 143 181 233 282 334
#     4   9  18  32  53  78 103 143 184 222 267 319
#     4   9  18  34  58  79 111 149 187 226 272 325
#     4  10  21  37  56  82 110 145 190 229 270 328
#
# _framework density 19.117961999999999
#
# number of rings (size 3 to 8) (size 9 to 14) (size 15 to 20)
#    0.000    2.333    2.500    0.000    3.500    1.000 
#    0.000    3.333    0.000    0.000    0.000    0.000 
#    0.000    0.000    0.000    0.000    0.000    0.000 
#
# Total GULP energy -297535.355869 kJ/mol
# GULP energy per Si atom -12397.306495 kJ/mol
# Density = 1.907445 g / cm^3
# Si number density = 19.117962 Si / 1000 Ang^3
#
#
#
# Elastic Constant Matrix: (Units=GPa)
#
#
# Indices 1 2 3 4 5 6 
#
# 1 140.8874 26.7315 58.0924 0.0004 -9.6777 0.0003
# 2 26.7315 72.9561 46.5867 0.0011 -8.7068 0.0015
# 3 58.0924 46.5867 126.7149 0.0003 -20.2413 -0.0003
# 4 0.0004 0.0011 0.0003 12.9270 -0.0004 -2.2073
# 5 -9.6777 -8.7068 -20.2413 -0.0004 23.6453 0.0002
# 6 0.0003 0.0015 -0.0003 -2.2073 0.0002 23.7057
#
#
#
# Elastic Compliance Matrix: (Units=1/GPa)
#
#
# Indices 1 2 3 4 5 6 
#
# 1 0.008792 -0.000844 -0.003702 0.000000 0.000119 0.000000
# 2 -0.000844 0.018018 -0.006062 -0.000002 0.001100 -0.000001
# 3 -0.003702 -0.006062 0.012996 0.000001 0.007378 0.000001
# 4 0.000000 -0.000002 0.000001 0.078607 0.000001 0.007319
# 5 0.000119 0.001100 0.007378 0.000001 0.049061 0.000000
# 6 0.000000 -0.000001 0.000001 0.007319 0.000000 0.042865
#
#
# Mechanical properties :
#
#
# Convention : Reuss Voigt Hill
#
# Bulk Modulus (GPa) = 53.78605 67.04217 60.41411
# Shear Modulus (GPa) = 21.03031 25.99880 23.51455
#
# Velocity S-wave (km/s) = 3.32027 3.69170 3.51090
# Velocity P-wave (km/s) = 6.54933 7.30173 6.93574
#
# Compressibility (1/GPa) = 0.01859218
#
# Stress axis : x y z
#
# Youngs Moduli (GPa) = 113.73397 55.49961 76.94706
#
# Poissons Ratio (x) = 0.04682 0.28483
# Poissons Ratio (y) = 0.09595 0.46644
# Poissons Ratio (z) = 0.42101 0.33643
#
# Static dielectric constant tensor:
#      x y z
#    x 3.568060 0.000000 -0.083530 
#    y 0.000000 3.446510 0.000000 
#    z -0.083530 0.000000 3.412830 
# 
# 
# High freq. dielectric constant tensor:
#      x y z
#    x 1.741950 0.000000 -0.014980 
#    y 0.000000 1.744990 0.000000 
#    z -0.014980 0.000000 1.713760 
# 
# From -- ./inp_files/221760.got.cif
#   From: 2010.06.25/outbox.cif.g09.slc.cpg/sg12_111_cif.got.tgz:221760.got - 2010.06.28 00:19:55.
