data_PCOD8091324
_publ_section_title
;
Structure prediction by ZEFSAII (Michael W. Deem and Ramdas Pophale) SiO2 
 PCOD8091324
Probable space group: C 2/M
;
_chemical_formula_sum "Si O2"
_cell_formula_units_Z 56
_cell_length_a 8.662212
_cell_length_b 19.260482
_cell_length_c 19.682686
_cell_angle_alpha 90.000000
_cell_angle_beta 116.109811
_cell_angle_gamma 90.000000
_cell_volume 2948.720148
_symmetry_space_group_name_H-M "C 2/M"
_symmetry_group_IT_number 12
_symmetry_cell_setting 'monoclinic'
loop_
_space_group_symop_operation_xyz
x,y,z
-x,y,-z
-x,-y,-z
x,-y,z
1/2+x,1/2+y,z
1/2-x,1/2+y,-z
1/2-x,1/2-y,-z
1/2+x,1/2-y,z
loop_
_atom_site_type_symbol
_atom_site_label
_atom_site_fract_x
_atom_site_fract_y
_atom_site_fract_z
Si Si1 0.613877 0.823186 0.793900
Si Si2 0.183445 0.921914 0.500000
Si Si3 0.590080 0.080878 0.913665
Si Si4 0.737250 0.419122 0.913665
Si Si5 0.973923 0.176814 0.793900
Si Si6 0.682118 0.824953 0.365196
Si Si7 0.048274 0.824953 0.365196
O O1 0.651873 0.878222 0.859840
O O2 0.569847 0.750000 0.819847
O O3 0.458001 0.849634 0.716749
O O4 0.779054 0.813935 0.779054
O O5 0.316639 0.881318 0.574240
O O6 0.000000 0.924938 0.500000
O O7 0.168160 0.881318 0.425760
O O8 0.252206 0.000000 0.500000
O O9 0.393899 0.100135 0.893899
O O10 0.606409 0.000000 0.900771
O O11 0.713297 0.101320 1.000000
O O12 0.695133 0.500000 0.900771
O O13 0.567806 0.378222 0.859840
O O14 0.975498 0.150366 0.716749
O O15 0.864752 0.819586 0.364752
O O16 0.637132 0.750000 0.387132
#
# Coordination Sequence:
#
# PCOD8091324 Si02
#       7
#     8   8   8   8   8   8   8
#     4  11  22  36  55  80 110 142 180 223 267 316
#     4   9  19  34  53  79 106 135 174 216 260 313
#     4   9  19  37  59  81 107 141 179 218 265 321
#     4   9  19  37  59  81 107 141 179 218 265 321
#     4  11  22  36  55  80 110 142 180 223 267 316
#     4  10  19  34  56  78 104 138 176 218 264 316
#     4  10  19  34  56  78 104 138 176 218 264 316
#
# _framework density 18.991289999999999
#
# number of rings (size 3 to 8) (size 9 to 14) (size 15 to 20)
#    0.000    2.143    0.000    6.429    0.000    2.857 
#    0.000    6.429    0.000    6.000    0.000    0.000 
#    0.000    0.000    0.000    0.000    0.000    0.000 
#
# Total GULP energy -347264.598369 kJ/mol
# GULP energy per Si atom -12402.307085 kJ/mol
# Density = 1.894807 g / cm^3
# Si number density = 18.991290 Si / 1000 Ang^3
#
#
#
# Elastic Constant Matrix: (Units=GPa)
#
#
# Indices 1 2 3 4 5 6 
#
# 1 88.2870 34.8433 38.3256 0.0000 0.0000 0.0000
# 2 34.8433 107.5788 82.9714 0.0000 0.0000 0.0000
# 3 38.3256 82.9714 129.0855 0.0000 0.0000 0.0000
# 4 0.0000 0.0000 0.0000 31.3456 0.0000 0.0000
# 5 0.0000 0.0000 0.0000 0.0000 27.9462 0.0000
# 6 0.0000 0.0000 0.0000 0.0000 0.0000 29.4865
#
#
#
# Elastic Compliance Matrix: (Units=1/GPa)
#
#
# Indices 1 2 3 4 5 6 
#
# 1 0.013336 -0.002510 -0.002346 0.000000 0.000000 0.000000
# 2 -0.002510 0.018906 -0.011407 0.000000 0.000000 0.000000
# 3 -0.002346 -0.011407 0.015775 0.000000 0.000000 0.000000
# 4 0.000000 0.000000 0.000000 0.031902 0.000000 0.000000
# 5 0.000000 0.000000 0.000000 0.000000 0.035783 0.000000
# 6 0.000000 0.000000 0.000000 0.000000 0.000000 0.033914
#
#
# Mechanical properties :
#
#
# Convention : Reuss Voigt Hill
#
# Bulk Modulus (GPa) = 64.55223 70.80353 67.67788
# Shear Modulus (GPa) = 26.69424 29.00974 27.85199
#
# Velocity S-wave (km/s) = 3.75321 3.91260 3.83373
# Velocity P-wave (km/s) = 7.26955 7.60094 7.43709
#
# Compressibility (1/GPa) = 0.01549133
#
# Stress axis : x y z
#
# Youngs Moduli (GPa) = 74.98682 52.89274 63.38958
#
# Poissons Ratio (x) = 0.13274 0.14873
# Poissons Ratio (y) = 0.18819 0.72309
# Poissons Ratio (z) = 0.17594 0.60335
#
# Static dielectric constant tensor:
#      x y z
#    x 3.341420 0.000000 0.000000 
#    y 0.000000 3.480320 0.000000 
#    z 0.000000 0.000000 3.563160 
# 
# 
# High freq. dielectric constant tensor:
#      x y z
#    x 1.730590 0.000000 0.000000 
#    y 0.000000 1.734740 0.000000 
#    z 0.000000 0.000000 1.747860 
# 
# From -- ./inp_files/258221.got.cif
#   From: 2010.06.25/outbox.cif.g09.slc.cpg/sg12_130_cif.got.tgz:258221.got - 2010.06.28 00:19:55.
