data_PCOD8091296
_publ_section_title
;
Structure prediction by ZEFSAII (Michael W. Deem and Ramdas Pophale) SiO2 
 PCOD8091296
Probable space group: C 2/M
;
_chemical_formula_sum "Si O2"
_cell_formula_units_Z 32
_cell_length_a 21.211407
_cell_length_b 7.985850
_cell_length_c 27.120297
_cell_angle_alpha 90.000000
_cell_angle_beta 157.327540
_cell_angle_gamma 90.000000
_cell_volume 1770.790879
_symmetry_space_group_name_H-M "C 2/M"
_symmetry_group_IT_number 12
_symmetry_cell_setting 'monoclinic'
loop_
_space_group_symop_operation_xyz
x,y,z
-x,y,-z
-x,-y,-z
x,-y,z
1/2+x,1/2+y,z
1/2-x,1/2+y,-z
1/2-x,1/2-y,-z
1/2+x,1/2-y,z
loop_
_atom_site_type_symbol
_atom_site_label
_atom_site_fract_x
_atom_site_fract_y
_atom_site_fract_z
Si Si1 0.504059 0.689860 0.356912
Si Si2 0.016344 0.000000 0.930942
Si Si3 0.930326 0.817289 0.123881
Si Si4 0.639713 0.811282 0.357447
Si Si5 0.770947 0.500000 0.200874
O O1 0.441803 0.500000 0.323716
O O2 0.544304 0.696364 0.327698
O O3 0.668315 0.732841 0.506326
O O4 0.372921 0.828573 0.278016
O O5 0.026171 0.166022 0.903102
O O6 0.847576 0.000000 0.837965
O O7 0.172191 0.000000 0.078810
O O8 0.063322 0.704099 0.247775
O O9 0.936910 0.000000 0.153828
O O10 0.750000 0.750000 0.000000
O O11 0.617250 0.000000 0.360453
#
# Coordination Sequence:
#
# PCOD8091296 Si02
#       5
#     8   4   8   8   4
#     4  10  21  34  60  88 113 154 192 238 291 337
#     4   9  24  37  57  87 111 160 196 232 295 352
#     4  10  20  34  55  82 115 148 187 236 293 336
#     4  10  19  34  55  90 119 143 195 242 286 343
#     4  11  20  43  61  77 125 151 198 241 280 355
#
# _framework density 18.071020999999998
#
# number of rings (size 3 to 8) (size 9 to 14) (size 15 to 20)
#    0.750    1.250    1.250    3.000    3.500    0.000 
#    0.000    8.750    0.000    3.000    0.000    0.000 
#    0.000    0.000    0.000    0.000    0.000    0.000 
#
# Total GULP energy -198303.240198 kJ/mol
# GULP energy per Si atom -12393.952512 kJ/mol
# Density = 1.802989 g / cm^3
# Si number density = 18.071021 Si / 1000 Ang^3
#
#
#
# Elastic Constant Matrix: (Units=GPa)
#
#
# Indices 1 2 3 4 5 6 
#
# 1 103.1966 37.8859 69.5450 -0.0026 -1.6807 0.0000
# 2 37.8859 98.0283 52.1798 0.0077 16.0626 0.0001
# 3 69.5450 52.1798 141.1616 0.0064 -2.5098 0.0018
# 4 -0.0026 0.0077 0.0064 33.8807 -0.0007 -0.6568
# 5 -1.6807 16.0626 -2.5098 -0.0007 27.6679 0.0002
# 6 0.0000 0.0001 0.0018 -0.6568 0.0002 26.7523
#
#
#
# Elastic Compliance Matrix: (Units=1/GPa)
#
#
# Indices 1 2 3 4 5 6 
#
# 1 0.015002 -0.002736 -0.006346 0.000003 0.001924 0.000001
# 2 -0.002736 0.015142 -0.004416 -0.000003 -0.009358 0.000000
# 3 -0.006346 -0.004416 0.011901 -0.000002 0.003258 -0.000001
# 4 0.000003 -0.000003 -0.000002 0.029529 0.000003 0.000725
# 5 0.001924 -0.009358 0.003258 0.000003 0.041988 0.000000
# 6 0.000001 0.000000 -0.000001 0.000725 0.000000 0.037398
#
#
# Mechanical properties :
#
#
# Convention : Reuss Voigt Hill
#
# Bulk Modulus (GPa) = 66.44157 73.51199 69.97678
# Shear Modulus (GPa) = 27.32669 29.84525 28.58597
#
# Velocity S-wave (km/s) = 3.89290 4.06834 3.98159
# Velocity P-wave (km/s) = 7.55334 7.92694 7.74239
#
# Compressibility (1/GPa) = 0.01505082
#
# Stress axis : x y z
#
# Youngs Moduli (GPa) = 66.65676 66.04029 84.02935
#
# Poissons Ratio (x) = 0.18066 0.53322
# Poissons Ratio (y) = 0.18234 0.37107
# Poissons Ratio (z) = 0.42298 0.29163
#
# Static dielectric constant tensor:
#      x y z
#    x 2.983870 0.000000 -0.094650 
#    y 0.000000 3.364000 0.000000 
#    z -0.094650 0.000000 3.388580 
# 
# 
# High freq. dielectric constant tensor:
#      x y z
#    x 1.665800 0.000000 -0.009740 
#    y 0.000000 1.703240 0.000000 
#    z -0.009740 0.000000 1.712120 
# 
# From -- ./inp_files/171251.got.cif
#   From: 2010.06.25/outbox.cif.g09.slc.cpg/sg12_86_cif.got.tgz:171251.got - 2010.06.28 00:19:55.
