data_PCOD8091772
_publ_section_title
;
Structure prediction by ZEFSAII (Michael W. Deem and Ramdas Pophale) SiO2 
 PCOD8091772
Probable space group: C 2/M
;
_chemical_formula_sum "Si O2"
_cell_formula_units_Z 64
_cell_length_a 20.533743
_cell_length_b 8.862740
_cell_length_c 19.043740
_cell_angle_alpha 90.000000
_cell_angle_beta 89.821343
_cell_angle_gamma 90.000000
_cell_volume 3465.662469
_symmetry_space_group_name_H-M "C 2/M"
_symmetry_group_IT_number 12
_symmetry_cell_setting 'monoclinic'
loop_
_space_group_symop_operation_xyz
x,y,z
-x,y,-z
-x,-y,-z
x,-y,z
1/2+x,1/2+y,z
1/2-x,1/2+y,-z
1/2-x,1/2-y,-z
1/2+x,1/2-y,z
loop_
_atom_site_type_symbol
_atom_site_label
_atom_site_fract_x
_atom_site_fract_y
_atom_site_fract_z
Si Si1 0.360300 0.676294 0.674533
Si Si2 0.313914 0.822868 0.968450
Si Si3 0.061132 0.324842 0.547551
Si Si4 0.689177 0.822461 0.461975
Si Si5 0.362796 0.824805 0.818175
Si Si6 0.510515 0.323896 0.680437
Si Si7 0.987601 0.323539 0.175976
Si Si8 0.935670 0.176832 0.042527
O O1 0.347394 0.500000 0.667677
O O2 0.316954 0.759827 0.616754
O O3 0.337493 0.729680 0.751808
O O4 0.435928 0.718402 0.662383
O O5 0.318733 0.783968 0.885566
O O6 0.311039 0.000000 0.980084
O O7 0.250000 0.750000 0.000000
O O8 0.375789 0.761323 0.008613
O O9 0.061066 0.500000 0.569031
O O10 0.125617 0.277501 0.506211
O O11 0.057340 0.223318 0.616909
O O12 0.000000 0.284275 0.500000
O O13 0.750000 0.750000 0.500000
O O14 0.698770 0.000000 0.457603
O O15 0.436948 0.781066 0.836681
O O16 0.358417 0.000000 0.798000
O O17 0.517679 0.500000 0.696857
O O18 0.534273 0.228741 0.746996
O O19 0.974661 0.500000 0.166418
O O20 0.943372 0.231742 0.122035
O O21 0.921857 0.000000 0.040976
O O22 0.000000 0.222116 0.000000
#
# Coordination Sequence:
#
# PCOD8091772 Si02
#       8
#     8   8   8   8   8   8   8   8
#     4  10  20  34  56  85 115 147 188 233 283 339
#     4  11  23  40  60  86 119 156 198 240 290 348
#     4  10  20  36  58  83 111 147 189 231 278 336
#     4  11  23  39  59  83 116 152 190 234 282 338
#     4   9  19  35  57  83 113 150 191 233 282 341
#     4  10  20  33  54  86 119 148 185 238 290 338
#     4  10  19  34  57  84 116 152 192 237 287 345
#     4  11  22  36  58  87 118 150 190 240 291 342
#
# _framework density 18.466888000000001
#
# number of rings (size 3 to 8) (size 9 to 14) (size 15 to 20)
#    0.000    1.750    2.500    2.250    0.000    4.250 
#    0.000    1.250    0.000    6.000    0.000    0.000 
#    0.000    0.000    0.000    0.000    0.000    0.000 
#
# Total GULP energy -396954.997169 kJ/mol
# GULP energy per Si atom -12404.843662 kJ/mol
# Density = 1.842486 g / cm^3
# Si number density = 18.466888 Si / 1000 Ang^3
#
#
#
# Elastic Constant Matrix: (Units=GPa)
#
#
# Indices 1 2 3 4 5 6 
#
# 1 103.5013 53.4247 69.1889 0.0000 0.7804 0.0000
# 2 53.4247 78.3270 63.9491 0.0000 0.0280 0.0000
# 3 69.1889 63.9491 140.8043 0.0000 3.1187 0.0000
# 4 0.0000 0.0000 0.0000 37.5402 0.0000 2.1843
# 5 0.7804 0.0280 3.1187 0.0000 27.9279 0.0000
# 6 0.0000 0.0000 0.0000 2.1843 0.0000 30.4338
#
#
#
# Elastic Compliance Matrix: (Units=1/GPa)
#
#
# Indices 1 2 3 4 5 6 
#
# 1 0.016756 -0.007478 -0.004839 0.000000 0.000080 0.000000
# 2 -0.007478 0.023657 -0.007091 0.000000 0.000977 0.000000
# 3 -0.004839 -0.007091 0.012729 0.000000 -0.001279 0.000000
# 4 0.000000 0.000000 0.000000 0.026750 0.000000 -0.001920
# 5 0.000080 0.000977 -0.001279 0.000000 0.035946 0.000000
# 6 0.000000 0.000000 0.000000 -0.001920 0.000000 0.032996
#
#
# Mechanical properties :
#
#
# Convention : Reuss Voigt Hill
#
# Bulk Modulus (GPa) = 69.80860 77.30645 73.55752
# Shear Modulus (GPa) = 25.98416 28.25171 27.11794
#
# Velocity S-wave (km/s) = 3.75516 3.91558 3.83621
# Velocity P-wave (km/s) = 7.52899 7.89908 7.71626
#
# Compressibility (1/GPa) = 0.01432488
#
# Stress axis : x y z
#
# Youngs Moduli (GPa) = 59.68065 42.27127 78.56165
#
# Poissons Ratio (x) = 0.31610 0.38016
# Poissons Ratio (y) = 0.44629 0.55710
# Poissons Ratio (z) = 0.28880 0.29976
#
# Static dielectric constant tensor:
#      x y z
#    x 3.128490 0.000000 -0.018530 
#    y 0.000000 3.422820 0.000000 
#    z -0.018530 0.000000 3.519230 
# 
# 
# High freq. dielectric constant tensor:
#      x y z
#    x 1.688910 0.000000 0.000980 
#    y 0.000000 1.727400 0.000000 
#    z 0.000980 0.000000 1.730310 
# 
# From -- ./inp_files/281245.got.cif
#   From: 2010.06.25/outbox.cif.g09.slc.cpg/sg12_141_cif.got.tgz:281245.got - 2010.06.28 00:19:55.
