data_PCOD8091704
_publ_section_title
;
Structure prediction by ZEFSAII (Michael W. Deem and Ramdas Pophale) SiO2 
 PCOD8091704
Probable space group: C 2/M
;
_chemical_formula_sum "Si O2"
_cell_formula_units_Z 48
_cell_length_a 8.137902
_cell_length_b 18.728465
_cell_length_c 18.073419
_cell_angle_alpha 90.000000
_cell_angle_beta 125.177730
_cell_angle_gamma 90.000000
_cell_volume 2251.505741
_symmetry_space_group_name_H-M "C 2/M"
_symmetry_group_IT_number 12
_symmetry_cell_setting 'monoclinic'
loop_
_space_group_symop_operation_xyz
x,y,z
-x,y,-z
-x,-y,-z
x,-y,z
1/2+x,1/2+y,z
1/2-x,1/2+y,-z
1/2-x,1/2-y,-z
1/2+x,1/2-y,z
loop_
_atom_site_type_symbol
_atom_site_label
_atom_site_fract_x
_atom_site_fract_y
_atom_site_fract_z
Si Si1 0.178765 0.798158 0.762505
Si Si2 0.294198 0.080942 0.140448
Si Si3 0.513069 0.917774 0.587247
Si Si4 0.900171 0.660391 0.690719
Si Si5 0.588581 0.810741 0.945698
Si Si6 0.564825 0.581188 0.224291
O O1 0.192395 0.820639 0.678885
O O2 0.405302 0.780289 0.848412
O O3 0.045441 0.728611 0.732918
O O4 0.101779 0.863574 0.792119
O O5 0.499290 0.094897 0.238663
O O6 0.287194 0.128011 0.064720
O O7 0.109987 0.096193 0.149361
O O8 0.289742 0.000000 0.112197
O O9 0.500000 0.890244 0.500000
O O10 0.364262 0.867557 0.597750
O O11 0.737510 0.906362 0.674970
O O12 0.443703 0.000000 0.574822
O O13 0.500000 0.840061 0.000000
O O14 0.750000 0.750000 0.000000
O O15 0.487433 0.500000 0.215053
#
# Coordination Sequence:
#
# PCOD8091704 Si02
#       6
#     8   8   8   8   8   8
#     4  11  22  37  59  83 112 150 194 234 278 340
#     4   9  19  37  59  82 111 147 187 228 276 340
#     4   9  18  35  59  86 118 153 187 229 281 332
#     4  10  19  34  57  82 113 151 192 231 273 334
#     4  11  24  39  59  83 112 147 186 237 291 341
#     4   9  19  38  62  86 114 150 191 230 274 334
#
# _framework density 21.319067
#
# number of rings (size 3 to 8) (size 9 to 14) (size 15 to 20)
#    0.000    2.167    0.000    5.500    0.000    6.333 
#    0.000    4.167    0.000   12.500    0.000    0.000 
#    0.000    0.000    0.000    0.000    0.000    0.000 
#
# Total GULP energy -297508.307200 kJ/mol
# GULP energy per Si atom -12396.179467 kJ/mol
# Density = 2.127054 g / cm^3
# Si number density = 21.319067 Si / 1000 Ang^3
#
#
#
# Elastic Constant Matrix: (Units=GPa)
#
#
# Indices 1 2 3 4 5 6 
#
# 1 130.6977 77.6315 50.2895 0.0000 -41.7695 0.0000
# 2 77.6315 135.1955 50.6810 0.0000 -30.2828 0.0000
# 3 50.2895 50.6810 88.0632 0.0000 -40.6391 0.0000
# 4 0.0000 0.0000 0.0000 30.8071 0.0000 -13.2879
# 5 -41.7695 -30.2828 -40.6391 0.0000 41.7864 0.0000
# 6 0.0000 0.0000 0.0000 -13.2879 0.0000 35.4563
#
#
#
# Elastic Compliance Matrix: (Units=1/GPa)
#
#
# Indices 1 2 3 4 5 6 
#
# 1 0.014467 -0.006002 -0.000256 0.000000 0.009862 0.000000
# 2 -0.006002 0.012109 -0.004101 0.000000 -0.001212 0.000000
# 3 -0.000256 -0.004101 0.022446 0.000000 0.018602 0.000000
# 4 0.000000 0.000000 0.000000 0.038719 0.000000 0.014511
# 5 0.009862 -0.001212 0.018602 0.000000 0.051002 0.000000
# 6 0.000000 0.000000 0.000000 0.014511 0.000000 0.033642
#
#
# Mechanical properties :
#
#
# Convention : Reuss Voigt Hill
#
# Bulk Modulus (GPa) = 35.33039 79.01783 57.17411
# Shear Modulus (GPa) = 24.68694 33.30027 28.99360
#
# Velocity S-wave (km/s) = 3.40659 3.95650 3.69180
# Velocity P-wave (km/s) = 5.66404 7.61687 6.71186
#
# Compressibility (1/GPa) = 0.02830425
#
# Stress axis : x y z
#
# Youngs Moduli (GPa) = 69.12479 82.58460 44.55115
#
# Poissons Ratio (x) = 0.49567 0.01140
# Poissons Ratio (y) = 0.41488 0.18269
# Poissons Ratio (z) = 0.01770 0.33865
#
# Static dielectric constant tensor:
#      x y z
#    x 4.125840 0.000000 -0.514700 
#    y 0.000000 3.903470 0.000000 
#    z -0.514700 0.000000 3.773930 
# 
# 
# High freq. dielectric constant tensor:
#      x y z
#    x 1.835340 0.000000 -0.035810 
#    y 0.000000 1.841000 0.000000 
#    z -0.035810 0.000000 1.810980 
# 
# From -- ./inp_files/256712.got.cif
#   From: 2010.06.25/outbox.cif.g09.slc.cpg/sg12_129_cif.got.tgz:256712.got - 2010.06.28 00:19:55.
