data_PCOD8091401
_publ_section_title
;
Structure prediction by ZEFSAII (Michael W. Deem and Ramdas Pophale) SiO2 
 PCOD8091401
Probable space group: C 2/M
;
_chemical_formula_sum "Si O2"
_cell_formula_units_Z 48
_cell_length_a 24.533221
_cell_length_b 10.797308
_cell_length_c 13.495625
_cell_angle_alpha 90.000000
_cell_angle_beta 138.451953
_cell_angle_gamma 90.000000
_cell_volume 2371.040265
_symmetry_space_group_name_H-M "C 2/M"
_symmetry_group_IT_number 12
_symmetry_cell_setting 'monoclinic'
loop_
_space_group_symop_operation_xyz
x,y,z
-x,y,-z
-x,-y,-z
x,-y,z
1/2+x,1/2+y,z
1/2-x,1/2+y,-z
1/2-x,1/2-y,-z
1/2+x,1/2-y,z
loop_
_atom_site_type_symbol
_atom_site_label
_atom_site_fract_x
_atom_site_fract_y
_atom_site_fract_z
Si Si1 0.586206 0.859500 0.671660
Si Si2 0.222246 0.245602 0.305617
Si Si3 0.848969 0.634107 0.603877
Si Si4 0.362931 0.638869 0.391452
Si Si5 0.003286 0.761827 0.282668
Si Si6 0.435634 0.641683 0.992487
O O1 0.500000 0.868754 0.500000
O O2 0.641130 0.753115 0.692802
O O3 0.570184 0.809918 0.760947
O O4 0.625846 0.000000 0.726426
O O5 0.174896 0.272039 0.342983
O O6 0.288286 0.140148 0.425853
O O7 0.277343 0.357443 0.336446
O O8 0.153698 0.205571 0.133943
O O9 0.845446 0.500000 0.647357
O O10 0.940592 0.657548 0.690803
O O11 0.368712 0.500000 0.351225
O O12 0.442461 0.652767 0.570318
O O13 0.966338 0.847476 0.146569
O O14 0.422631 0.500000 0.946088
O O15 0.500000 0.699874 0.000000
#
# Coordination Sequence:
#
# PCOD8091401 Si02
#       6
#     8   8   8   8   8   8
#     4   9  19  36  60  88 118 151 196 246 293 346
#     4  10  21  36  54  82 114 151 195 234 290 344
#     4  10  19  34  56  80 110 150 194 239 288 341
#     4  10  21  37  61  89 118 152 197 246 292 344
#     4  10  20  36  59  87 117 150 195 238 297 340
#     4  11  22  37  56  83 121 157 193 235 290 352
#
# _framework density 20.244278999999999
#
# number of rings (size 3 to 8) (size 9 to 14) (size 15 to 20)
#    0.000    2.000    1.667    2.000    0.000    8.333 
#    0.000    5.000    0.000    0.000    0.000    0.000 
#    0.000    0.000    0.000    0.000    0.000    0.000 
#
# Total GULP energy -297396.982776 kJ/mol
# GULP energy per Si atom -12391.540949 kJ/mol
# Density = 2.019820 g / cm^3
# Si number density = 20.244279 Si / 1000 Ang^3
#
#
#
# Elastic Constant Matrix: (Units=GPa)
#
#
# Indices 1 2 3 4 5 6 
#
# 1 94.6425 37.2938 27.7811 0.0000 -13.2103 0.0000
# 2 37.2938 122.5269 21.0906 0.0000 -0.8895 0.0000
# 3 27.7811 21.0906 79.0680 0.0000 4.4560 0.0000
# 4 0.0000 0.0000 0.0000 11.3303 0.0000 -7.1141
# 5 -13.2103 -0.8895 4.4560 0.0000 25.8809 0.0000
# 6 0.0000 0.0000 0.0000 -7.1141 0.0000 24.0567
#
#
#
# Elastic Compliance Matrix: (Units=1/GPa)
#
#
# Indices 1 2 3 4 5 6 
#
# 1 0.014427 -0.003545 -0.004576 0.000000 0.008030 0.000000
# 2 -0.003545 0.009438 -0.001200 0.000000 -0.001279 0.000000
# 3 -0.004576 -0.001200 0.014853 0.000000 -0.004934 0.000000
# 4 0.000000 0.000000 0.000000 0.108383 0.000000 0.032051
# 5 0.008030 -0.001279 -0.004934 0.000000 0.043543 0.000000
# 6 0.000000 0.000000 0.000000 0.032051 0.000000 0.051047
#
#
# Mechanical properties :
#
#
# Convention : Reuss Voigt Hill
#
# Bulk Modulus (GPa) = 49.81005 52.06315 50.93660
# Shear Modulus (GPa) = 18.72488 26.25838 22.49163
#
# Velocity S-wave (km/s) = 3.04459 3.60540 3.33680
# Velocity P-wave (km/s) = 6.08419 6.56545 6.32940
#
# Compressibility (1/GPa) = 0.02007627
#
# Stress axis : x y z
#
# Youngs Moduli (GPa) = 69.31388 105.95711 67.32552
#
# Poissons Ratio (x) = 0.37565 0.30808
# Poissons Ratio (y) = 0.24574 0.08077
# Poissons Ratio (z) = 0.31718 0.12712
#
# Static dielectric constant tensor:
#      x y z
#    x 3.755540 0.000000 -0.014510 
#    y 0.000000 3.547790 0.000000 
#    z -0.014510 0.000000 3.394450 
# 
# 
# High freq. dielectric constant tensor:
#      x y z
#    x 1.795300 0.000000 -0.003320 
#    y 0.000000 1.781220 0.000000 
#    z -0.003320 0.000000 1.755390 
# 
# From -- ./inp_files/165835.got.cif
#   From: 2010.06.25/outbox.cif.g09.slc.cpg/sg12_83_cif.got.tgz:165835.got - 2010.06.28 00:19:55.
