data_PCOD8091728
_publ_section_title
;
Structure prediction by ZEFSAII (Michael W. Deem and Ramdas Pophale) SiO2 
 PCOD8091728
Probable space group: C 2/M
;
_chemical_formula_sum "Si O2"
_cell_formula_units_Z 56
_cell_length_a 26.504149
_cell_length_b 8.588010
_cell_length_c 14.405521
_cell_angle_alpha 90.000000
_cell_angle_beta 123.073019
_cell_angle_gamma 90.000000
_cell_volume 2747.684386
_symmetry_space_group_name_H-M "C 2/M"
_symmetry_group_IT_number 12
_symmetry_cell_setting 'monoclinic'
loop_
_space_group_symop_operation_xyz
x,y,z
-x,y,-z
-x,-y,-z
x,-y,z
1/2+x,1/2+y,z
1/2-x,1/2+y,-z
1/2-x,1/2-y,-z
1/2+x,1/2-y,z
loop_
_atom_site_type_symbol
_atom_site_label
_atom_site_fract_x
_atom_site_fract_y
_atom_site_fract_z
Si Si1 0.890386 0.684620 0.611566
Si Si2 0.886079 0.180484 0.163948
Si Si3 0.781856 0.318934 0.171215
Si Si4 0.147724 0.184435 0.241936
Si Si5 0.007177 0.316887 0.613399
Si Si6 0.217441 0.317941 0.619153
Si Si7 0.151545 0.682181 0.052944
O O1 0.886771 0.500000 0.618788
O O2 0.895269 0.763325 0.717401
O O3 0.831265 0.754525 0.500370
O O4 0.948234 0.734164 0.610733
O O5 0.820392 0.216021 0.139742
O O6 0.935883 0.230247 0.287509
O O7 0.891918 0.000000 0.147370
O O8 0.894795 0.275109 0.076217
O O9 0.790625 0.500000 0.155379
O O10 0.804085 0.282363 0.297942
O O11 0.712240 0.276140 0.091927
O O12 0.215457 0.249118 0.330523
O O13 0.123672 0.262310 0.122996
O O14 0.147046 0.000000 0.228203
O O15 0.018967 0.500000 0.631432
O O16 0.000000 0.263545 0.500000
O O17 0.219704 0.500000 0.604295
O O18 0.164642 0.500000 0.069076
#
# Coordination Sequence:
#
# PCOD8091728 Si02
#       7
#     8   8   8   8   8   8   8
#     4  10  19  34  57  83 111 148 193 233 277 333
#     4  12  24  38  57  83 115 151 191 235 285 338
#     4  10  19  35  58  86 119 152 188 231 283 339
#     4  10  20  35  55  83 118 151 185 229 283 337
#     4  10  22  41  63  85 112 150 193 236 281 331
#     4   8  16  31  54  83 114 149 186 226 273 331
#     4  11  22  38  59  84 114 148 189 235 283 337
#
# _framework density 20.380799
#
# number of rings (size 3 to 8) (size 9 to 14) (size 15 to 20)
#    0.000    1.857    0.000    6.000    0.000    3.143 
#    0.000    5.714    0.000    4.286    0.000    0.000 
#    0.000    0.000    0.000    0.000    0.000    0.000 
#
# Total GULP energy -347271.643594 kJ/mol
# GULP energy per Si atom -12402.558700 kJ/mol
# Density = 2.033441 g / cm^3
# Si number density = 20.380799 Si / 1000 Ang^3
#
#
#
# Elastic Constant Matrix: (Units=GPa)
#
#
# Indices 1 2 3 4 5 6 
#
# 1 89.8455 27.7540 43.6005 0.0000 -28.0617 0.0000
# 2 27.7540 61.7857 35.5695 0.0000 -9.3628 0.0000
# 3 43.6005 35.5695 123.9915 0.0000 -24.6790 0.0000
# 4 0.0000 0.0000 0.0000 27.3233 0.0000 -4.6783
# 5 -28.0617 -9.3628 -24.6790 0.0000 29.7742 0.0000
# 6 0.0000 0.0000 0.0000 -4.6783 0.0000 27.0643
#
#
#
# Elastic Compliance Matrix: (Units=1/GPa)
#
#
# Indices 1 2 3 4 5 6 
#
# 1 0.017898 -0.004692 -0.002256 0.000000 0.013523 0.000000
# 2 -0.004692 0.020696 -0.004637 0.000000 -0.001757 0.000000
# 3 -0.002256 -0.004637 0.011347 0.000000 0.005821 0.000000
# 4 0.000000 0.000000 0.000000 0.037715 0.000000 0.006519
# 5 0.013523 -0.001757 0.005821 0.000000 0.050604 0.000000
# 6 0.000000 0.000000 0.000000 0.006519 0.000000 0.038076
#
#
# Mechanical properties :
#
#
# Convention : Reuss Voigt Hill
#
# Bulk Modulus (GPa) = 37.35327 54.38561 45.86944
# Shear Modulus (GPa) = 23.98897 28.07895 26.03396
#
# Velocity S-wave (km/s) = 3.43452 3.71579 3.57792
# Velocity P-wave (km/s) = 5.83912 6.71953 6.29474
#
# Compressibility (1/GPa) = 0.02677141
#
# Stress axis : x y z
#
# Youngs Moduli (GPa) = 55.87167 48.31944 88.12741
#
# Poissons Ratio (x) = 0.22670 0.19883
# Poissons Ratio (y) = 0.26213 0.40864
# Poissons Ratio (z) = 0.12606 0.22405
#
# Static dielectric constant tensor:
#      x y z
#    x 3.647240 0.000000 -0.112570 
#    y 0.000000 3.461480 0.000000 
#    z -0.112570 0.000000 4.003190 
# 
# 
# High freq. dielectric constant tensor:
#      x y z
#    x 1.781510 0.000000 -0.018780 
#    y 0.000000 1.782260 0.000000 
#    z -0.018780 0.000000 1.806540 
# 
# From -- ./inp_files/244340.got.cif
#   From: 2010.06.25/outbox.cif.g09.slc.cpg/sg12_123_cif.got.tgz:244340.got - 2010.06.28 00:19:55.
