data_PCOD8091708
_publ_section_title
;
Structure prediction by ZEFSAII (Michael W. Deem and Ramdas Pophale) SiO2 
 PCOD8091708
Probable space group: C 2/M
;
_chemical_formula_sum "Si O2"
_cell_formula_units_Z 64
_cell_length_a 9.840272
_cell_length_b 24.678612
_cell_length_c 13.298408
_cell_angle_alpha 90.000000
_cell_angle_beta 92.128292
_cell_angle_gamma 90.000000
_cell_volume 3227.214238
_symmetry_space_group_name_H-M "C 2/M"
_symmetry_group_IT_number 12
_symmetry_cell_setting 'monoclinic'
loop_
_space_group_symop_operation_xyz
x,y,z
-x,y,-z
-x,-y,-z
x,-y,z
1/2+x,1/2+y,z
1/2-x,1/2+y,-z
1/2-x,1/2-y,-z
1/2+x,1/2-y,z
loop_
_atom_site_type_symbol
_atom_site_label
_atom_site_fract_x
_atom_site_fract_y
_atom_site_fract_z
Si Si1 0.142931 0.664824 0.127587
Si Si2 0.670203 0.163403 0.904184
Si Si3 0.847379 0.894905 0.400094
Si Si4 0.370360 0.437942 0.614674
Si Si5 0.176287 0.560937 0.785454
Si Si6 0.132205 0.561644 0.247933
Si Si7 0.459105 0.276191 0.386202
Si Si8 0.778745 0.762508 0.740116
O O1 0.164759 0.601510 0.155719
O O2 0.211862 0.701997 0.214053
O O3 0.984974 0.680937 0.118228
O O4 0.212694 0.674008 0.020784
O O5 0.686672 0.099370 0.882584
O O6 0.768042 0.196958 0.833885
O O7 0.831265 0.901116 0.519078
O O8 0.708364 0.915404 0.347519
O O9 0.878989 0.832495 0.382129
O O10 0.969509 0.931389 0.358398
O O11 0.336066 0.500000 0.588810
O O12 0.283487 0.417554 0.706524
O O13 0.211067 0.500000 0.821904
O O14 0.027567 0.563663 0.730924
O O15 0.176736 0.500000 0.222340
O O16 0.500000 0.258021 0.500000
O O17 0.354024 0.233028 0.335150
O O18 0.591968 0.279710 0.321209
#
# Coordination Sequence:
#
# PCOD8091708 Si02
#       8
#     8   8   8   8   8   8   8   8
#     4  10  21  39  60  91 119 159 207 255 303 361
#     4  10  21  38  64  87 119 160 206 254 308 355
#     4  11  20  35  57  84 118 155 201 242 295 361
#     4  10  19  34  57  82 116 160 202 240 292 358
#     4   9  20  37  58  88 119 154 199 250 301 358
#     4  10  20  36  59  88 122 155 196 251 303 353
#     4  12  25  42  63  89 124 157 201 249 302 366
#     4  12  23  43  63  90 123 160 204 254 303 357
#
# _framework density 19.831346
#
# number of rings (size 3 to 8) (size 9 to 14) (size 15 to 20)
#    0.000    1.500    3.750    3.000    0.000    1.000 
#    0.000    4.375    0.000    0.000    0.000    3.500 
#    0.000    0.000    0.000    0.000    0.000    0.000 
#
# Total GULP energy -396828.091198 kJ/mol
# GULP energy per Si atom -12400.877850 kJ/mol
# Density = 1.978621 g / cm^3
# Si number density = 19.831346 Si / 1000 Ang^3
#
#
#
# Elastic Constant Matrix: (Units=GPa)
#
#
# Indices 1 2 3 4 5 6 
#
# 1 43.3613 -1.4619 18.6443 0.0000 -9.0286 0.0000
# 2 -1.4619 67.5040 20.2143 0.0000 -7.8137 0.0000
# 3 18.6443 20.2143 90.4369 0.0000 -12.7653 0.0000
# 4 0.0000 0.0000 0.0000 27.1899 0.0000 -1.6739
# 5 -9.0286 -7.8137 -12.7653 0.0000 32.4902 0.0000
# 6 0.0000 0.0000 0.0000 -1.6739 0.0000 27.2020
#
#
#
# Elastic Compliance Matrix: (Units=1/GPa)
#
#
# Indices 1 2 3 4 5 6 
#
# 1 0.026688 0.002860 -0.005291 0.000000 0.006025 0.000000
# 2 0.002860 0.016388 -0.003794 0.000000 0.003245 0.000000
# 3 -0.005291 -0.003794 0.013403 0.000000 0.002883 0.000000
# 4 0.000000 0.000000 0.000000 0.036918 0.000000 0.002272
# 5 0.006025 0.003245 0.002883 0.000000 0.034366 0.000000
# 6 0.000000 0.000000 0.000000 0.002272 0.000000 0.036902
#
#
# Mechanical properties :
#
#
# Convention : Reuss Voigt Hill
#
# Bulk Modulus (GPa) = 22.71277 30.67728 26.69503
# Shear Modulus (GPa) = 26.06991 28.30344 27.18667
#
# Velocity S-wave (km/s) = 3.62965 3.78194 3.70658
# Velocity P-wave (km/s) = 5.38921 5.87992 5.63990
#
# Compressibility (1/GPa) = 0.04402809
#
# Stress axis : x y z
#
# Youngs Moduli (GPa) = 37.47015 61.02115 74.60862
#
# Poissons Ratio (x) = -0.17450 0.39473
# Poissons Ratio (y) = -0.10715 0.28310
# Poissons Ratio (z) = 0.19824 0.23154
#
# Static dielectric constant tensor:
#      x y z
#    x 3.616360 0.000000 -0.014020 
#    y 0.000000 3.676470 0.000000 
#    z -0.014020 0.000000 3.547260 
# 
# 
# High freq. dielectric constant tensor:
#      x y z
#    x 1.765890 0.000000 -0.003920 
#    y 0.000000 1.780590 0.000000 
#    z -0.003920 0.000000 1.765720 
# 
# From -- ./inp_files/198900.got.cif
#   From: 2010.06.25/outbox.cif.g09.slc.cpg/sg12_100_cif.got.tgz:198900.got - 2010.06.28 00:19:55.
