data_PCOD8091237
_publ_section_title
;
Structure prediction by ZEFSAII (Michael W. Deem and Ramdas Pophale) SiO2 
 PCOD8091237
Probable space group: C 2/M
;
_chemical_formula_sum "Si O2"
_cell_formula_units_Z 64
_cell_length_a 18.880053
_cell_length_b 8.638769
_cell_length_c 29.616485
_cell_angle_alpha 90.000000
_cell_angle_beta 137.198922
_cell_angle_gamma 90.000000
_cell_volume 3282.081433
_symmetry_space_group_name_H-M "C 2/M"
_symmetry_group_IT_number 12
_symmetry_cell_setting 'monoclinic'
loop_
_space_group_symop_operation_xyz
x,y,z
-x,y,-z
-x,-y,-z
x,-y,z
1/2+x,1/2+y,z
1/2-x,1/2+y,-z
1/2-x,1/2-y,-z
1/2+x,1/2-y,z
loop_
_atom_site_type_symbol
_atom_site_label
_atom_site_fract_x
_atom_site_fract_y
_atom_site_fract_z
Si Si1 0.686935 0.183376 0.374404
Si Si2 0.903248 0.682160 0.486433
Si Si3 0.690227 0.825842 0.846686
Si Si4 0.641120 0.825894 0.718889
Si Si5 0.427458 0.680345 0.595792
Si Si6 0.973861 0.316700 0.776004
Si Si7 0.899535 0.317785 0.927991
Si Si8 0.352499 0.817096 0.806343
O O1 0.795362 0.267095 0.412369
O O2 0.649222 0.225379 0.407110
O O3 0.602192 0.246690 0.298735
O O4 0.702206 0.000000 0.377814
O O5 0.905379 0.500000 0.496573
O O6 0.907007 0.772259 0.535110
O O7 0.000000 0.731824 0.500000
O O8 0.660008 0.822398 0.780558
O O9 0.591427 0.750370 0.826435
O O10 0.794348 0.728482 0.905281
O O11 0.712286 0.000000 0.873454
O O12 0.547006 0.713950 0.663038
O O13 0.744115 0.763596 0.742304
O O14 0.615983 0.000000 0.690347
O O15 0.403938 0.500000 0.591097
O O16 0.979739 0.500000 0.772797
O O17 0.934763 0.267122 0.806953
O O18 0.909265 0.500000 0.932734
O O19 0.895502 0.256151 0.874582
O O20 0.000000 0.244154 0.000000
O O21 0.333602 0.000000 0.798576
#
# Coordination Sequence:
#
# PCOD8091237 Si02
#       8
#     8   8   8   8   8   8   8   8
#     4  11  22  40  62  84 113 148 188 235 289 344
#     4  11  26  45  61  83 115 148 187 237 290 338
#     4   9  17  33  55  79 107 141 182 225 272 327
#     4  10  19  34  55  81 111 143 180 231 284 328
#     4  12  24  39  61  85 111 148 192 231 280 344
#     4   9  18  34  56  82 111 143 181 231 282 330
#     4   9  18  33  53  79 113 150 187 228 273 323
#     4   9  18  33  54  80 110 148 190 227 274 335
#
# _framework density 19.499822000000002
#
# number of rings (size 3 to 8) (size 9 to 14) (size 15 to 20)
#    0.000    2.000    1.250    2.625    1.750    1.750 
#    0.000    1.875    0.000    0.000    0.000    0.000 
#    0.000    0.000    0.000    0.000    0.000    0.000 
#
# Total GULP energy -396816.315662 kJ/mol
# GULP energy per Si atom -12400.509864 kJ/mol
# Density = 1.945544 g / cm^3
# Si number density = 19.499822 Si / 1000 Ang^3
#
#
#
# Elastic Constant Matrix: (Units=GPa)
#
#
# Indices 1 2 3 4 5 6 
#
# 1 144.0008 14.8852 55.5071 0.0000 24.1782 0.0000
# 2 14.8852 36.7093 16.6262 0.0000 -0.2122 0.0000
# 3 55.5071 16.6262 102.0435 0.0000 26.3495 0.0000
# 4 0.0000 0.0000 0.0000 23.9177 0.0000 7.7464
# 5 24.1782 -0.2122 26.3495 0.0000 30.2770 0.0000
# 6 0.0000 0.0000 0.0000 7.7464 0.0000 24.3634
#
#
#
# Elastic Compliance Matrix: (Units=1/GPa)
#
#
# Indices 1 2 3 4 5 6 
#
# 1 0.009270 -0.002163 -0.003579 0.000000 -0.004303 0.000000
# 2 -0.002163 0.030684 -0.005578 0.000000 0.006796 0.000000
# 3 -0.003579 -0.005578 0.015385 0.000000 -0.010570 0.000000
# 4 0.000000 0.000000 0.000000 0.046610 0.000000 -0.014820
# 5 -0.004303 0.006796 -0.010570 0.000000 0.045711 0.000000
# 6 0.000000 0.000000 0.000000 -0.014820 0.000000 0.045757
#
#
# Mechanical properties :
#
#
# Convention : Reuss Voigt Hill
#
# Bulk Modulus (GPa) = 30.58179 50.75449 40.66814
# Shear Modulus (GPa) = 22.03076 28.76066 25.39571
#
# Velocity S-wave (km/s) = 3.36489 3.84463 3.61273
# Velocity P-wave (km/s) = 5.55101 6.76705 6.18897
#
# Compressibility (1/GPa) = 0.03269919
#
# Stress axis : x y z
#
# Youngs Moduli (GPa) = 107.87441 32.59068 64.99963
#
# Poissons Ratio (x) = 0.07049 0.23263
# Poissons Ratio (y) = 0.23331 0.36256
# Poissons Ratio (z) = 0.38607 0.18179
#
# Static dielectric constant tensor:
#      x y z
#    x 3.742860 0.000000 0.228080 
#    y 0.000000 3.446800 0.000000 
#    z 0.228080 0.000000 3.765960 
# 
# 
# High freq. dielectric constant tensor:
#      x y z
#    x 1.764390 0.000000 0.015890 
#    y 0.000000 1.744150 0.000000 
#    z 0.015890 0.000000 1.753810 
# 
# From -- ./inp_files/378436.got.cif
#   From: 2010.06.25/outbox.cif.g09.slc.cpg/sg12_190_cif.got.tgz:378436.got - 2010.06.28 00:19:55.
