data_PCOD8091143
_publ_section_title
;
Structure prediction by ZEFSAII (Michael W. Deem and Ramdas Pophale) SiO2 
 PCOD8091143
Probable space group: C 2/M
;
_chemical_formula_sum "Si O2"
_cell_formula_units_Z 56
_cell_length_a 29.653681
_cell_length_b 9.010348
_cell_length_c 16.546113
_cell_angle_alpha 90.000000
_cell_angle_beta 133.735765
_cell_angle_gamma 90.000000
_cell_volume 3194.298510
_symmetry_space_group_name_H-M "C 2/M"
_symmetry_group_IT_number 12
_symmetry_cell_setting 'monoclinic'
loop_
_space_group_symop_operation_xyz
x,y,z
-x,y,-z
-x,-y,-z
x,-y,z
1/2+x,1/2+y,z
1/2-x,1/2+y,-z
1/2-x,1/2-y,-z
1/2+x,1/2-y,z
loop_
_atom_site_type_symbol
_atom_site_label
_atom_site_fract_x
_atom_site_fract_y
_atom_site_fract_z
Si Si1 0.929777 0.670547 0.258540
Si Si2 0.696748 0.174506 0.986255
Si Si3 0.346433 0.172433 0.591965
Si Si4 0.782269 0.170031 0.651059
Si Si5 0.261344 0.327713 0.807546
Si Si6 0.618707 0.171256 0.623814
Si Si7 0.556766 0.675213 0.396606
O O1 0.947752 0.500000 0.264217
O O2 0.917447 0.694589 0.337802
O O3 0.985461 0.775204 0.299076
O O4 0.869721 0.718410 0.132943
O O5 0.698673 0.231598 0.080432
O O6 0.707665 0.000000 0.996496
O O7 0.750000 0.250000 0.000000
O O8 0.288843 0.207353 0.461013
O O9 0.330319 0.226698 0.662321
O O10 0.405950 0.260177 0.633346
O O11 0.362826 0.000000 0.615148
O O12 0.790735 0.201663 0.756144
O O13 0.797018 0.000000 0.647415
O O14 0.265243 0.500000 0.836754
O O15 0.189697 0.274698 0.721651
O O16 0.584483 0.268142 0.514943
O O17 0.617572 0.000000 0.593865
O O18 0.561090 0.500000 0.399801
#
# Coordination Sequence:
#
# PCOD8091143 Si02
#       7
#     8   8   8   8   8   8   8
#     4  10  22  39  56  74 106 151 189 220 267 327
#     4  11  22  37  57  81 108 143 187 230 270 316
#     4  10  19  34  55  78 109 145 180 217 269 329
#     4   9  18  33  54  81 111 141 177 220 268 322
#     4  10  19  35  57  82 113 146 179 219 272 323
#     4  10  19  36  56  77 109 150 184 213 268 332
#     4  12  24  35  52  81 113 143 183 229 273 319
#
# _framework density 17.531236
#
# number of rings (size 3 to 8) (size 9 to 14) (size 15 to 20)
#    0.000    1.714    2.857    2.571    0.000    5.143 
#    0.000    0.000    0.000    0.857    0.000    6.000 
#    0.000    0.000    0.000    0.000    0.000    0.000 
#
# Total GULP energy -347338.492608 kJ/mol
# GULP energy per Si atom -12404.946165 kJ/mol
# Density = 1.749133 g / cm^3
# Si number density = 17.531236 Si / 1000 Ang^3
#
#
#
# Elastic Constant Matrix: (Units=GPa)
#
#
# Indices 1 2 3 4 5 6 
#
# 1 108.9774 63.6280 57.0342 0.0000 4.8860 0.0000
# 2 63.6280 104.2944 58.3160 0.0000 8.7101 0.0000
# 3 57.0342 58.3160 92.9100 0.0000 3.5021 0.0000
# 4 0.0000 0.0000 0.0000 29.3102 0.0000 -1.2634
# 5 4.8860 8.7101 3.5021 0.0000 23.8813 0.0000
# 6 0.0000 0.0000 0.0000 -1.2634 0.0000 32.7604
#
#
#
# Elastic Compliance Matrix: (Units=1/GPa)
#
#
# Indices 1 2 3 4 5 6 
#
# 1 0.015994 -0.006572 -0.005692 0.000000 -0.000041 0.000000
# 2 -0.006572 0.017873 -0.007028 0.000000 -0.004144 0.000000
# 3 -0.005692 -0.007028 0.018631 0.000000 0.000996 0.000000
# 4 0.000000 0.000000 0.000000 0.034175 0.000000 0.001318
# 5 -0.000041 -0.004144 0.000996 0.000000 0.043247 0.000000
# 6 0.000000 0.000000 0.000000 0.001318 0.000000 0.030575
#
#
# Mechanical properties :
#
#
# Convention : Reuss Voigt Hill
#
# Bulk Modulus (GPa) = 71.86502 73.79315 72.82909
# Shear Modulus (GPa) = 24.54392 25.67062 25.10727
#
# Velocity S-wave (km/s) = 3.74573 3.83074 3.78847
# Velocity P-wave (km/s) = 7.73233 7.85811 7.79547
#
# Compressibility (1/GPa) = 0.01391497
#
# Stress axis : x y z
#
# Youngs Moduli (GPa) = 62.52435 55.94965 53.67454
#
# Poissons Ratio (x) = 0.36768 0.30550
# Poissons Ratio (y) = 0.41088 0.37723
# Poissons Ratio (z) = 0.35587 0.39322
#
# Static dielectric constant tensor:
#      x y z
#    x 3.283220 0.000000 -0.051460 
#    y 0.000000 3.252350 0.000000 
#    z -0.051460 0.000000 3.211890 
# 
# 
# High freq. dielectric constant tensor:
#      x y z
#    x 1.681490 0.000000 -0.005460 
#    y 0.000000 1.678840 0.000000 
#    z -0.005460 0.000000 1.660220 
# 
# From -- ./inp_files/248885.got.cif
#   From: 2010.06.25/outbox.cif.g09.slc.cpg/sg12_125_cif.got.tgz:248885.got - 2010.06.28 00:19:55.
