data_PCOD8091498
_publ_section_title
;
Structure prediction by ZEFSAII (Michael W. Deem and Ramdas Pophale) SiO2 
 PCOD8091498
Probable space group: C 2/M
;
_chemical_formula_sum "Si O2"
_cell_formula_units_Z 60
_cell_length_a 14.585085
_cell_length_b 13.171341
_cell_length_c 14.761953
_cell_angle_alpha 90.000000
_cell_angle_beta 97.853422
_cell_angle_gamma 90.000000
_cell_volume 2809.249095
_symmetry_space_group_name_H-M "C 2/M"
_symmetry_group_IT_number 12
_symmetry_cell_setting 'monoclinic'
loop_
_space_group_symop_operation_xyz
x,y,z
-x,y,-z
-x,-y,-z
x,-y,z
1/2+x,1/2+y,z
1/2-x,1/2+y,-z
1/2-x,1/2-y,-z
1/2+x,1/2-y,z
loop_
_atom_site_type_symbol
_atom_site_label
_atom_site_fract_x
_atom_site_fract_y
_atom_site_fract_z
Si Si1 0.635563 0.379917 0.890093
Si Si2 0.845271 0.815450 0.452909
Si Si3 0.657827 0.115442 0.104235
Si Si4 0.000000 0.754364 0.000000
Si Si5 0.149791 0.889971 0.347768
Si Si6 0.598624 0.885222 0.468663
Si Si7 0.680235 0.825598 0.309785
Si Si8 0.442644 0.387143 0.307552
O O1 0.617686 0.500000 0.897233
O O2 0.743339 0.353337 0.928101
O O3 0.563077 0.323293 0.944484
O O4 0.617390 0.343130 0.784572
O O5 0.859660 0.879383 0.545350
O O6 0.828082 0.695084 0.475926
O O7 0.765594 0.867376 0.380929
O O8 0.933974 0.820243 0.398114
O O9 0.670757 0.120061 0.213759
O O10 0.633800 0.000000 0.074078
O O11 0.572121 0.185322 0.065002
O O12 0.199342 0.796044 0.304184
O O13 0.048235 0.888255 0.290406
O O14 0.196590 0.000000 0.331911
O O15 0.500000 0.868522 0.500000
O O16 0.591168 0.855541 0.360520
O O17 0.633919 0.000000 0.489331
O O18 0.407686 0.500000 0.325647
#
# Coordination Sequence:
#
# PCOD8091498 Si02
#       8
#     8   8   8   4   8   8   8   8
#     4  10  22  42  69  97 128 163 201 251 316 389
#     4  11  20  32  54  80 112 156 201 244 288 341
#     4  11  24  44  68  94 126 164 209 257 313 386
#     4  12  24  42  70 100 126 154 200 262 328 386
#     4  10  20  32  51  83 119 152 196 249 297 338
#     4  10  21  35  52  77 115 161 206 246 288 343
#     4  11  22  37  58  80 113 161 202 245 299 366
#     4  10  19  34  56  83 112 149 193 240 290 352
#
# _framework density 21.35802
#
# number of rings (size 3 to 8) (size 9 to 14) (size 15 to 20)
#    0.000    1.467    1.333    6.000    0.000    4.267 
#    0.000    0.667    0.000    2.400    0.000    0.000 
#    0.000    0.000    0.000    0.000    0.000    0.000 
#
# Total GULP energy -371758.105245 kJ/mol
# GULP energy per Si atom -12391.936842 kJ/mol
# Density = 2.130941 g / cm^3
# Si number density = 21.358020 Si / 1000 Ang^3
#
#
#
# Elastic Constant Matrix: (Units=GPa)
#
#
# Indices 1 2 3 4 5 6 
#
# 1 92.5395 29.4559 29.4506 0.0000 2.5211 0.0000
# 2 29.4559 100.7816 22.5361 0.0000 -2.3217 0.0000
# 3 29.4506 22.5361 71.6131 0.0000 3.6795 0.0000
# 4 0.0000 0.0000 0.0000 23.5836 0.0000 -3.2056
# 5 2.5211 -2.3217 3.6795 0.0000 36.5226 0.0000
# 6 0.0000 0.0000 0.0000 -3.2056 0.0000 34.8882
#
#
#
# Elastic Compliance Matrix: (Units=1/GPa)
#
#
# Indices 1 2 3 4 5 6 
#
# 1 0.013159 -0.002859 -0.004479 0.000000 -0.000639 0.000000
# 2 -0.002859 0.011333 -0.002450 0.000000 0.001165 0.000000
# 3 -0.004479 -0.002450 0.016655 0.000000 -0.001525 0.000000
# 4 0.000000 0.000000 0.000000 0.042939 0.000000 0.003945
# 5 -0.000639 0.001165 -0.001525 0.000000 0.027652 0.000000
# 6 0.000000 0.000000 0.000000 0.003945 0.000000 0.029025
#
#
# Mechanical properties :
#
#
# Convention : Reuss Voigt Hill
#
# Bulk Modulus (GPa) = 46.36045 47.53550 46.94798
# Shear Modulus (GPa) = 29.84524 31.23165 30.53845
#
# Velocity S-wave (km/s) = 3.74221 3.82814 3.78542
# Velocity P-wave (km/s) = 6.35812 6.46872 6.41366
#
# Compressibility (1/GPa) = 0.02157011
#
# Stress axis : x y z
#
# Youngs Moduli (GPa) = 75.99264 88.23878 60.04076
#
# Poissons Ratio (x) = 0.25230 0.26893
# Poissons Ratio (y) = 0.21728 0.14712
# Poissons Ratio (z) = 0.34038 0.21622
#
# Static dielectric constant tensor:
#      x y z
#    x 4.011590 0.000000 -0.019970 
#    y 0.000000 3.992590 0.000000 
#    z -0.019970 0.000000 3.668030 
# 
# 
# High freq. dielectric constant tensor:
#      x y z
#    x 1.842730 0.000000 0.003020 
#    y 0.000000 1.841570 0.000000 
#    z 0.003020 0.000000 1.814210 
# 
# From -- ./inp_files/214873.got.cif
#   From: 2010.06.25/outbox.cif.g09.slc.cpg/sg12_108_cif.got.tgz:214873.got - 2010.06.28 00:19:55.
