data_PCOD8091013
_publ_section_title
;
Structure prediction by ZEFSAII (Michael W. Deem and Ramdas Pophale) SiO2 
 PCOD8091013
Probable space group: C 2/M
;
_chemical_formula_sum "Si O2"
_cell_formula_units_Z 64
_cell_length_a 14.374278
_cell_length_b 26.741625
_cell_length_c 10.022983
_cell_angle_alpha 90.000000
_cell_angle_beta 112.205830
_cell_angle_gamma 90.000000
_cell_volume 3566.999744
_symmetry_space_group_name_H-M "C 2/M"
_symmetry_group_IT_number 12
_symmetry_cell_setting 'monoclinic'
loop_
_space_group_symop_operation_xyz
x,y,z
-x,y,-z
-x,-y,-z
x,-y,z
1/2+x,1/2+y,z
1/2-x,1/2+y,-z
1/2-x,1/2-y,-z
1/2+x,1/2-y,z
loop_
_atom_site_type_symbol
_atom_site_label
_atom_site_fract_x
_atom_site_fract_y
_atom_site_fract_z
Si Si1 0.110132 0.267158 0.047147
Si Si2 0.283175 0.132156 0.610877
Si Si3 0.349608 0.237122 0.632202
Si Si4 0.560817 0.057256 0.406992
Si Si5 0.926917 0.556885 0.077099
Si Si6 0.270498 0.864489 0.919034
Si Si7 0.562265 0.662022 0.906681
Si Si8 0.933375 0.168649 0.587749
O O1 0.152394 0.246871 0.212270
O O2 0.184185 0.309149 0.028259
O O3 0.095228 0.220328 0.939078
O O4 0.000000 0.292733 0.000000
O O5 0.363887 0.177361 0.634265
O O6 0.334053 0.085036 0.566506
O O7 0.264691 0.123902 0.758098
O O8 0.177240 0.144511 0.483433
O O9 0.250000 0.250000 0.500000
O O10 0.432485 0.270479 0.601061
O O11 0.500000 0.079579 0.500000
O O12 0.485534 0.062859 0.244925
O O13 0.591359 0.000000 0.450639
O O14 0.890529 0.500000 0.033833
O O15 0.831947 0.592928 0.027823
O O16 0.000000 0.574878 0.000000
O O17 0.162750 0.868744 0.930940
O O18 0.486978 0.648685 0.747307
O O19 0.500000 0.642821 0.000000
O O20 0.000000 0.152646 0.500000
#
# Coordination Sequence:
#
# PCOD8091013 Si02
#       8
#     8   8   8   8   8   8   8   8
#     4  10  19  34  54  78 114 149 185 234 282 327
#     4  10  21  35  58  84 110 144 192 232 273 333
#     4   9  19  34  51  76 112 148 187 230 273 324
#     4  10  22  40  60  86 118 145 173 223 291 345
#     4  10  20  36  61  88 112 140 178 226 281 339
#     4  11  21  34  57  85 109 146 192 232 273 332
#     4  11  22  37  54  77 112 153 191 232 276 322
#     4  11  20  36  55  76 111 153 191 229 275 323
#
# _framework density 17.942249
#
# number of rings (size 3 to 8) (size 9 to 14) (size 15 to 20)
#    0.000    1.750    5.000    0.750    1.750    1.500 
#    0.000    0.000    0.000    1.500    0.000    0.000 
#    0.000    0.000    0.000    0.000    0.000    0.000 
#
# Total GULP energy -396571.105881 kJ/mol
# GULP energy per Si atom -12392.847059 kJ/mol
# Density = 1.790141 g / cm^3
# Si number density = 17.942249 Si / 1000 Ang^3
#
#
#
# Elastic Constant Matrix: (Units=GPa)
#
#
# Indices 1 2 3 4 5 6 
#
# 1 134.0171 49.3535 44.2413 0.0000 -7.1917 0.0000
# 2 49.3535 66.9144 24.7781 0.0000 -0.4126 0.0000
# 3 44.2413 24.7781 99.2132 0.0000 -1.1850 0.0000
# 4 0.0000 0.0000 0.0000 -36.8004 0.0000 21.8733
# 5 -7.1917 -0.4126 -1.1850 0.0000 32.1217 0.0000
# 6 0.0000 0.0000 0.0000 21.8733 0.0000 21.4764
#
#
#
# Elastic Compliance Matrix: (Units=1/GPa)
#
#
# Indices 1 2 3 4 5 6 
#
# 1 0.011264 -0.007101 -0.003222 0.000000 0.002312 0.000000
# 2 -0.007101 0.020944 -0.002081 0.000000 -0.001398 0.000000
# 3 -0.003222 -0.002081 0.012032 0.000000 -0.000304 0.000000
# 4 0.000000 0.000000 0.000000 -0.016927 0.000000 0.017240
# 5 0.002312 -0.001398 -0.000304 0.000000 0.031620 0.000000
# 6 0.000000 0.000000 0.000000 0.017240 0.000000 0.029005
#
#
# Mechanical properties :
#
#
# Convention : Reuss Voigt Hill
#
# Bulk Modulus (GPa) = 51.45953 59.65452 55.55703
# Shear Modulus (GPa) = 41.93818 15.47765 28.70791
#
# Velocity S-wave (km/s) = 4.83991 2.94025 4.00436
# Velocity P-wave (km/s) = 7.74441 6.69679 7.23958
#
# Compressibility (1/GPa) = 0.01943274
#
# Stress axis : x y z
#
# Youngs Moduli (GPa) = 88.77511 47.74709 83.11078
#
# Poissons Ratio (x) = 0.33904 0.26779
# Poissons Ratio (y) = 0.63038 0.17294
# Poissons Ratio (z) = 0.28604 0.09936
#
# Static dielectric constant tensor:
#      x y z
#    x 2.736030 0.000000 0.249690 
#    y 0.000000 3.261660 0.000000 
#    z 0.249690 0.000000 3.412170 
# 
# 
# High freq. dielectric constant tensor:
#      x y z
#    x 1.686260 0.000000 0.007540 
#    y 0.000000 1.666400 0.000000 
#    z 0.007540 0.000000 1.708580 
# 
# From -- ./inp_files/67022.got.cif
#   From: 2010.06.25/outbox.cif.g09.slc.cpg/sg12_34_cif.got.tgz:67022.got - 2010.06.28 00:19:55.
