data_PCOD8091910
_publ_section_title
;
Structure prediction by ZEFSAII (Michael W. Deem and Ramdas Pophale) SiO2 
 PCOD8091910
Probable space group: C 2/M
;
_chemical_formula_sum "Si O2"
_cell_formula_units_Z 64
_cell_length_a 19.740157
_cell_length_b 12.842203
_cell_length_c 16.975505
_cell_angle_alpha 90.000000
_cell_angle_beta 128.512712
_cell_angle_gamma 90.000000
_cell_volume 3367.290182
_symmetry_space_group_name_H-M "C 2/M"
_symmetry_group_IT_number 12
_symmetry_cell_setting 'monoclinic'
loop_
_space_group_symop_operation_xyz
x,y,z
-x,y,-z
-x,-y,-z
x,-y,z
1/2+x,1/2+y,z
1/2-x,1/2+y,-z
1/2-x,1/2-y,-z
1/2+x,1/2-y,z
loop_
_atom_site_type_symbol
_atom_site_label
_atom_site_fract_x
_atom_site_fract_y
_atom_site_fract_z
Si Si1 0.873850 0.769489 0.086519
Si Si2 0.546877 0.114671 0.959598
Si Si3 0.259703 0.241696 0.266180
Si Si4 0.868914 0.386768 0.762227
Si Si5 0.018790 0.118935 0.279111
Si Si6 0.195379 0.777434 0.384964
Si Si7 0.766000 0.376973 0.111512
Si Si8 0.432916 0.621453 0.382699
O O1 0.877986 0.687956 0.017385
O O2 0.967065 0.816243 0.175411
O O3 0.839687 0.703833 0.136507
O O4 0.812528 0.860525 0.007725
O O5 0.472033 0.104572 0.840701
O O6 0.585149 0.000000 0.009112
O O7 0.500000 0.166589 0.000000
O O8 0.178009 0.322068 0.200451
O O9 0.252262 0.188365 0.348697
O O10 0.248325 0.154809 0.189756
O O11 0.349157 0.305196 0.326832
O O12 0.825615 0.500000 0.730907
O O13 0.851054 0.332400 0.666155
O O14 0.982456 0.147108 0.338190
O O15 0.121608 0.137862 0.349779
O O16 0.001450 0.000000 0.246322
O O17 0.250000 0.750000 0.500000
O O18 0.791906 0.500000 0.127228
O O19 0.500000 0.650051 0.500000
O O20 0.404971 0.500000 0.367494
#
# Coordination Sequence:
#
# PCOD8091910 Si02
#       8
#     8   8   8   8   8   8   8   8
#     4  11  21  40  59  84 121 158 199 251 298 360
#     4  10  19  34  58  84 109 143 190 242 299 352
#     4  10  20  38  59  84 120 157 200 252 296 367
#     4   9  19  34  56  84 112 147 192 243 296 350
#     4  11  22  38  60  90 122 156 201 250 307 365
#     4  10  22  38  58  88 123 161 197 251 307 361
#     4  11  24  39  59  86 120 163 204 246 304 372
#     4  10  20  35  60  90 117 151 199 258 311 353
#
# _framework density 19.006381999999999
#
# number of rings (size 3 to 8) (size 9 to 14) (size 15 to 20)
#    0.750    1.000    2.500    2.625    0.000    1.000 
#    0.000    1.250    0.000    3.375    0.000    0.000 
#    0.000    0.000    0.000    0.000    0.000    0.000 
#
# Total GULP energy -396420.612943 kJ/mol
# GULP energy per Si atom -12388.144154 kJ/mol
# Density = 1.896312 g / cm^3
# Si number density = 19.006382 Si / 1000 Ang^3
#
#
#
# Elastic Constant Matrix: (Units=GPa)
#
#
# Indices 1 2 3 4 5 6 
#
# 1 96.0166 27.9746 14.1684 0.0000 -10.1411 0.0000
# 2 27.9746 76.7123 25.2168 0.0000 -5.3794 0.0000
# 3 14.1684 25.2168 66.3292 0.0000 -8.7898 0.0000
# 4 0.0000 0.0000 0.0000 21.1996 0.0000 1.6356
# 5 -10.1411 -5.3794 -8.7898 0.0000 33.9696 0.0000
# 6 0.0000 0.0000 0.0000 1.6356 0.0000 22.9888
#
#
#
# Elastic Compliance Matrix: (Units=1/GPa)
#
#
# Indices 1 2 3 4 5 6 
#
# 1 0.011957 -0.003939 -0.000690 0.000000 0.002767 0.000000
# 2 -0.003939 0.016224 -0.005324 0.000000 0.000015 0.000000
# 3 -0.000690 -0.005324 0.017716 0.000000 0.003535 0.000000
# 4 0.000000 0.000000 0.000000 0.047431 0.000000 -0.003375
# 5 0.002767 0.000015 0.003535 0.000000 0.031181 0.000000
# 6 0.000000 0.000000 0.000000 -0.003375 0.000000 0.043740
#
#
# Mechanical properties :
#
#
# Convention : Reuss Voigt Hill
#
# Bulk Modulus (GPa) = 38.47676 41.53086 40.00381
# Shear Modulus (GPa) = 25.40410 27.07814 26.24112
#
# Velocity S-wave (km/s) = 3.65993 3.77860 3.71974
# Velocity P-wave (km/s) = 6.17642 6.39809 6.28823
#
# Compressibility (1/GPa) = 0.02598972
#
# Stress axis : x y z
#
# Youngs Moduli (GPa) = 83.63527 61.63861 56.44536
#
# Poissons Ratio (x) = 0.24283 0.03893
# Poissons Ratio (y) = 0.32948 0.30053
# Poissons Ratio (z) = 0.05768 0.32818
#
# Static dielectric constant tensor:
#      x y z
#    x 3.568150 0.000000 -0.001850 
#    y 0.000000 3.460010 0.000000 
#    z -0.001850 0.000000 3.362330 
# 
# 
# High freq. dielectric constant tensor:
#      x y z
#    x 1.738900 0.000000 -0.003570 
#    y 0.000000 1.727260 0.000000 
#    z -0.003570 0.000000 1.737550 
# 
# From -- ./inp_files/283307.got.cif
#   From: 2010.06.25/outbox.cif.g09.slc.cpg/sg12_142_cif.got.tgz:283307.got - 2010.06.28 00:19:55.
