data_PCOD8091178
_publ_section_title
;
Structure prediction by ZEFSAII (Michael W. Deem and Ramdas Pophale) SiO2 
 PCOD8091178
Probable space group: C 2/M
;
_chemical_formula_sum "Si O2"
_cell_formula_units_Z 64
_cell_length_a 23.956313
_cell_length_b 8.885128
_cell_length_c 31.084315
_cell_angle_alpha 90.000000
_cell_angle_beta 30.048349
_cell_angle_gamma 90.000000
_cell_volume 3313.058584
_symmetry_space_group_name_H-M "C 2/M"
_symmetry_group_IT_number 12
_symmetry_cell_setting 'monoclinic'
loop_
_space_group_symop_operation_xyz
x,y,z
-x,y,-z
-x,-y,-z
x,-y,z
1/2+x,1/2+y,z
1/2-x,1/2+y,-z
1/2-x,1/2-y,-z
1/2+x,1/2-y,z
loop_
_atom_site_type_symbol
_atom_site_label
_atom_site_fract_x
_atom_site_fract_y
_atom_site_fract_z
Si Si1 0.848201 0.823723 0.407659
Si Si2 0.347733 0.824178 0.229570
Si Si3 0.770188 0.825159 0.368176
Si Si4 0.682389 0.178663 0.275407
Si Si5 0.396847 0.173327 0.931178
Si Si6 0.901754 0.177352 0.750577
Si Si7 0.311321 0.174251 0.894814
Si Si8 0.981043 0.675833 0.465817
O O1 0.750000 0.750000 0.500000
O O2 0.843446 0.778028 0.360398
O O3 0.969581 0.773663 0.343747
O O4 0.829726 0.000000 0.424173
O O5 0.302314 0.773211 0.305969
O O6 0.289923 0.736758 0.229116
O O7 0.477916 0.786646 0.139234
O O8 0.323857 0.000000 0.240677
O O9 0.643279 0.790200 0.467066
O O10 0.784304 0.000000 0.346065
O O11 0.680086 0.243125 0.228769
O O12 0.571117 0.243422 0.372776
O O13 0.687161 0.000000 0.270037
O O14 0.381319 0.208166 0.891131
O O15 0.367367 0.000000 0.960343
O O16 0.316877 0.277611 0.013017
O O17 0.866867 0.226355 0.821173
O O18 0.887992 0.000000 0.755735
O O19 0.315407 0.000000 0.878995
O O20 0.006266 0.500000 0.452316
O O21 0.000000 0.750028 0.500000
#
# Coordination Sequence:
#
# PCOD8091178 Si02
#       8
#     8   8   8   8   8   8   8   8
#     4  10  22  37  56  82 114 153 193 236 283 333
#     4  11  22  36  55  84 117 147 181 229 288 340
#     4  10  19  34  55  79 109 147 192 234 278 334
#     4  11  22  38  59  80 109 152 198 240 280 335
#     4   9  20  38  60  87 120 149 177 226 288 341
#     4  11  23  39  57  82 118 154 191 234 287 341
#     4  10  20  37  63  91 114 146 191 230 274 338
#     4   9  16  30  52  77 104 141 187 233 276 318
#
# _framework density 19.317498000000001
#
# number of rings (size 3 to 8) (size 9 to 14) (size 15 to 20)
#    0.000    1.875    1.250    3.000    0.000    4.000 
#    0.000    2.500    0.000    3.750    0.000    0.000 
#    0.000    0.000    0.000    0.000    0.000    0.000 
#
# Total GULP energy -396874.395190 kJ/mol
# GULP energy per Si atom -12402.324850 kJ/mol
# Density = 1.927353 g / cm^3
# Si number density = 19.317498 Si / 1000 Ang^3
#
#
#
# Elastic Constant Matrix: (Units=GPa)
#
#
# Indices 1 2 3 4 5 6 
#
# 1 122.8472 51.8591 50.7226 0.0044 -8.6398 -0.0314
# 2 51.8591 74.3266 44.6755 0.0046 -5.9952 -0.0140
# 3 50.7226 44.6755 91.3696 -0.0036 -5.1667 0.0060
# 4 0.0044 0.0046 -0.0036 33.0860 0.0006 2.9882
# 5 -8.6398 -5.9952 -5.1667 0.0006 25.4734 -0.0011
# 6 -0.0314 -0.0140 0.0060 2.9882 -0.0011 31.1599
#
#
#
# Elastic Compliance Matrix: (Units=1/GPa)
#
#
# Indices 1 2 3 4 5 6 
#
# 1 0.012484 -0.006305 -0.003735 -0.000002 0.001993 0.000011
# 2 -0.006305 0.022413 -0.007366 -0.000004 0.001643 0.000006
# 3 -0.003735 -0.007366 0.016641 0.000004 0.000375 -0.000011
# 4 -0.000002 -0.000004 0.000004 0.030488 -0.000002 -0.002924
# 5 0.001993 0.001643 0.000375 -0.000002 0.040395 0.000004
# 6 0.000011 0.000006 -0.000011 -0.002924 0.000004 0.032373
#
#
# Mechanical properties :
#
#
# Convention : Reuss Voigt Hill
#
# Bulk Modulus (GPa) = 59.78546 64.78419 62.28482
# Shear Modulus (GPa) = 25.61725 27.36293 26.49009
#
# Velocity S-wave (km/s) = 3.64554 3.76770 3.70712
# Velocity P-wave (km/s) = 6.98112 7.24823 7.11593
#
# Compressibility (1/GPa) = 0.01672648
#
# Stress axis : x y z
#
# Youngs Moduli (GPa) = 80.10310 44.61695 60.09301
#
# Poissons Ratio (x) = 0.28129 0.22444
# Poissons Ratio (y) = 0.50501 0.44265
# Poissons Ratio (z) = 0.29918 0.32866
#
# Static dielectric constant tensor:
#      x y z
#    x 3.622750 -0.000040 -0.110710 
#    y -0.000040 3.400340 0.000020 
#    z -0.110710 0.000020 3.497550 
# 
# 
# High freq. dielectric constant tensor:
#      x y z
#    x 1.758280 0.000000 -0.004710 
#    y 0.000000 1.742550 0.000000 
#    z -0.004710 0.000000 1.747610 
# 
# From -- ./inp_files/382286.got.cif
#   From: 2010.06.25/outbox.cif.g09.slc.cpg/sg12_192_cif.got.tgz:382286.got - 2010.06.28 00:19:55.
