data_PCOD8091666
_publ_section_title
;
Structure prediction by ZEFSAII (Michael W. Deem and Ramdas Pophale) SiO2 
 PCOD8091666
Probable space group: C 2/M
;
_chemical_formula_sum "Si O2"
_cell_formula_units_Z 56
_cell_length_a 27.352184
_cell_length_b 8.966221
_cell_length_c 13.687992
_cell_angle_alpha 90.000000
_cell_angle_beta 119.775077
_cell_angle_gamma 90.000000
_cell_volume 2913.745962
_symmetry_space_group_name_H-M "C 2/M"
_symmetry_group_IT_number 12
_symmetry_cell_setting 'monoclinic'
loop_
_space_group_symop_operation_xyz
x,y,z
-x,y,-z
-x,-y,-z
x,-y,z
1/2+x,1/2+y,z
1/2-x,1/2+y,-z
1/2-x,1/2-y,-z
1/2+x,1/2-y,z
loop_
_atom_site_type_symbol
_atom_site_label
_atom_site_fract_x
_atom_site_fract_y
_atom_site_fract_z
Si Si1 0.450155 0.677009 0.381907
Si Si2 0.474043 0.322667 0.189079
Si Si3 0.238861 0.176131 0.091791
Si Si4 0.402490 0.677315 0.751069
Si Si5 0.692295 0.173866 0.472187
Si Si6 0.337345 0.172118 0.334695
Si Si7 0.380404 0.322681 0.948087
O O1 0.500000 0.738652 0.500000
O O2 0.450177 0.500000 0.381045
O O3 0.459520 0.740155 0.282061
O O4 0.391493 0.730078 0.366656
O O5 0.471820 0.500000 0.186668
O O6 0.535675 0.268029 0.218846
O O7 0.428481 0.257980 0.067509
O O8 0.287645 0.224687 0.214134
O O9 0.179962 0.236756 0.076020
O O10 0.236384 0.000000 0.075393
O O11 0.250000 0.250000 0.000000
O O12 0.395791 0.500000 0.736027
O O13 0.358674 0.753361 0.636179
O O14 0.391624 0.734703 0.849958
O O15 0.750000 0.250000 0.500000
O O16 0.683199 0.202891 0.576957
O O17 0.695642 0.000000 0.450686
O O18 0.352649 0.000000 0.333115
O O19 0.382092 0.500000 0.950858
#
# Coordination Sequence:
#
# PCOD8091666 Si02
#       7
#     8   8   8   8   8   8   8
#     4  10  20  34  54  81 110 140 179 226 268 309
#     4   9  17  30  52  82 111 141 180 221 262 312
#     4  10  20  35  54  77 106 139 177 219 263 313
#     4  10  19  34  57  82 108 139 178 224 268 311
#     4  11  23  39  58  80 107 140 178 219 267 321
#     4  10  22  38  55  78 109 144 179 216 264 323
#     4   9  17  31  53  79 107 141 179 218 261 313
#
# _framework density 19.219245999999998
#
# number of rings (size 3 to 8) (size 9 to 14) (size 15 to 20)
#    0.000    2.143    0.000    3.429    0.000    8.286 
#    0.000    2.857    0.000    3.429    0.000    0.000 
#    0.000    0.000    0.000    0.000    0.000    0.000 
#
# Total GULP energy -347278.471954 kJ/mol
# GULP energy per Si atom -12402.802570 kJ/mol
# Density = 1.917550 g / cm^3
# Si number density = 19.219246 Si / 1000 Ang^3
#
#
#
# Elastic Constant Matrix: (Units=GPa)
#
#
# Indices 1 2 3 4 5 6 
#
# 1 131.3271 33.0817 57.7225 0.0000 15.9746 0.0000
# 2 33.0817 30.2397 36.1489 0.0000 2.0612 0.0000
# 3 57.7225 36.1489 170.6474 0.0000 13.0276 0.0000
# 4 0.0000 0.0000 0.0000 16.2067 0.0000 -4.3158
# 5 15.9746 2.0612 13.0276 0.0000 42.4986 0.0000
# 6 0.0000 0.0000 0.0000 -4.3158 0.0000 27.5253
#
#
#
# Elastic Compliance Matrix: (Units=1/GPa)
#
#
# Indices 1 2 3 4 5 6 
#
# 1 0.011243 -0.010485 -0.001329 0.000000 -0.003310 0.000000
# 2 -0.010485 0.054084 -0.008203 0.000000 0.003832 0.000000
# 3 -0.001329 -0.008203 0.008170 0.000000 -0.001607 0.000000
# 4 0.000000 0.000000 0.000000 0.064391 0.000000 0.010096
# 5 -0.003310 0.003832 -0.001607 0.000000 0.025081 0.000000
# 6 0.000000 0.000000 0.000000 0.010096 0.000000 0.037913
#
#
# Mechanical properties :
#
#
# Convention : Reuss Voigt Hill
#
# Bulk Modulus (GPa) = 29.88387 65.12450 47.50419
# Shear Modulus (GPa) = 19.83582 30.93020 25.38301
#
# Velocity S-wave (km/s) = 3.21609 4.01600 3.63810
# Velocity P-wave (km/s) = 5.41975 7.44735 6.51293
#
# Compressibility (1/GPa) = 0.03346286
#
# Stress axis : x y z
#
# Youngs Moduli (GPa) = 88.94814 18.48989 122.39976
#
# Poissons Ratio (x) = 0.19386 0.16269
# Poissons Ratio (y) = 0.93259 1.00403
# Poissons Ratio (z) = 0.11823 0.15167
#
# Static dielectric constant tensor:
#      x y z
#    x 3.379020 0.000000 -0.292880 
#    y 0.000000 3.157340 0.000000 
#    z -0.292880 0.000000 3.584770 
# 
# 
# High freq. dielectric constant tensor:
#      x y z
#    x 1.767250 0.000000 0.000100 
#    y 0.000000 1.706970 0.000000 
#    z 0.000100 0.000000 1.770690 
# 
# From -- ./inp_files/180708.got.cif
#   From: 2010.06.25/outbox.cif.g09.slc.cpg/sg12_91_cif.got.tgz:180708.got - 2010.06.28 00:19:55.
