data_PCOD8091975
_publ_section_title
;
Structure prediction by ZEFSAII (Michael W. Deem and Ramdas Pophale) SiO2 
 PCOD8091975
Probable space group: C 2/M
;
_chemical_formula_sum "Si O2"
_cell_formula_units_Z 56
_cell_length_a 31.218517
_cell_length_b 8.619613
_cell_length_c 20.207319
_cell_angle_alpha 90.000000
_cell_angle_beta 148.885307
_cell_angle_gamma 90.000000
_cell_volume 2809.905090
_symmetry_space_group_name_H-M "C 2/M"
_symmetry_group_IT_number 12
_symmetry_cell_setting 'monoclinic'
loop_
_space_group_symop_operation_xyz
x,y,z
-x,y,-z
-x,-y,-z
x,-y,z
1/2+x,1/2+y,z
1/2-x,1/2+y,-z
1/2-x,1/2-y,-z
1/2+x,1/2-y,z
loop_
_atom_site_type_symbol
_atom_site_label
_atom_site_fract_x
_atom_site_fract_y
_atom_site_fract_z
Si Si1 0.988156 0.321940 0.057466
Si Si2 0.473713 0.682217 0.660341
Si Si3 0.943545 0.816153 0.365457
Si Si4 0.321910 0.823381 0.517301
Si Si5 0.737714 0.316946 0.910558
Si Si6 0.103438 0.181263 0.945245
Si Si7 0.645154 0.327467 0.306407
O O1 0.959611 0.500000 0.017588
O O2 0.079729 0.307526 0.207836
O O3 0.922076 0.227402 0.013873
O O4 0.000000 0.250103 0.000000
O O5 0.456783 0.500000 0.636399
O O6 0.518185 0.739943 0.653069
O O7 0.386506 0.773370 0.546254
O O8 0.529763 0.729021 0.797711
O O9 0.847769 0.757637 0.237493
O O10 0.000000 0.745890 0.500000
O O11 0.944835 0.000000 0.372922
O O12 0.328073 0.695215 0.582669
O O13 0.226042 0.813283 0.365683
O O14 0.340273 0.000000 0.564785
O O15 0.733851 0.500000 0.913749
O O16 0.750000 0.250000 0.000000
O O17 0.812879 0.270037 0.962564
O O18 0.121717 0.000000 0.964964
O O19 0.605348 0.500000 0.246869
#
# Coordination Sequence:
#
# PCOD8091975 Si02
#       7
#     8   8   8   8   8   8   8
#     4  11  24  41  60  84 114 152 202 253 302 359
#     4  10  19  34  58  86 113 148 195 241 293 354
#     4   9  19  38  61  85 117 155 195 242 295 352
#     4  10  20  33  54  83 113 145 187 238 286 338
#     4  11  21  37  63  93 125 159 205 254 303 361
#     4  11  22  38  61  90 119 153 200 249 305 364
#     4  10  20  35  55  80 112 149 187 232 291 347
#
# _framework density 19.929500000000001
#
# number of rings (size 3 to 8) (size 9 to 14) (size 15 to 20)
#    0.000    1.714    2.857    2.143    0.000    3.429 
#    2.571    0.000    0.000    3.000    0.000    0.000 
#    0.000    0.000    0.000    0.000    0.000    0.000 
#
# Total GULP energy -347050.319025 kJ/mol
# GULP energy per Si atom -12394.654251 kJ/mol
# Density = 1.988414 g / cm^3
# Si number density = 19.929500 Si / 1000 Ang^3
#
#
#
# Elastic Constant Matrix: (Units=GPa)
#
#
# Indices 1 2 3 4 5 6 
#
# 1 134.3749 27.0331 53.8752 0.0000 14.6113 0.0000
# 2 27.0331 53.5448 27.3001 0.0000 8.5501 0.0000
# 3 53.8752 27.3001 95.0676 0.0000 16.3931 0.0000
# 4 0.0000 0.0000 0.0000 22.0771 0.0000 5.0247
# 5 14.6113 8.5501 16.3931 0.0000 39.2366 0.0000
# 6 0.0000 0.0000 0.0000 5.0247 0.0000 31.3156
#
#
#
# Elastic Compliance Matrix: (Units=1/GPa)
#
#
# Indices 1 2 3 4 5 6 
#
# 1 0.009961 -0.002419 -0.004743 0.000000 -0.001200 0.000000
# 2 -0.002419 0.022663 -0.004786 0.000000 -0.002038 0.000000
# 3 -0.004743 -0.004786 0.015191 0.000000 -0.003538 0.000000
# 4 0.000000 0.000000 0.000000 0.047013 0.000000 -0.007543
# 5 -0.001200 -0.002038 -0.003538 0.000000 0.027856 0.000000
# 6 0.000000 0.000000 0.000000 -0.007543 0.000000 0.033143
#
#
# Mechanical properties :
#
#
# Convention : Reuss Voigt Hill
#
# Bulk Modulus (GPa) = 41.80761 55.48932 48.64847
# Shear Modulus (GPa) = 26.63906 30.17779 28.40843
#
# Velocity S-wave (km/s) = 3.66001 3.89553 3.77960
# Velocity P-wave (km/s) = 6.23572 6.93807 6.59625
#
# Compressibility (1/GPa) = 0.02391909
#
# Stress axis : x y z
#
# Youngs Moduli (GPa) = 100.39455 44.12554 65.82799
#
# Poissons Ratio (x) = 0.10673 0.31223
# Poissons Ratio (y) = 0.24284 0.31503
# Poissons Ratio (z) = 0.47619 0.21117
#
# Static dielectric constant tensor:
#      x y z
#    x 3.737420 0.000000 0.213670 
#    y 0.000000 3.407420 0.000000 
#    z 0.213670 0.000000 3.845170 
# 
# 
# High freq. dielectric constant tensor:
#      x y z
#    x 1.776110 0.000000 0.024860 
#    y 0.000000 1.766860 0.000000 
#    z 0.024860 0.000000 1.768420 
# 
# From -- ./inp_files/329670.got.cif
#   From: 2010.06.25/outbox.cif.g09.slc.cpg/sg12_165_cif.got.tgz:329670.got - 2010.06.28 00:19:55.
