data_PCOD8091969
_publ_section_title
;
Structure prediction by ZEFSAII (Michael W. Deem and Ramdas Pophale) SiO2 
 PCOD8091969
Probable space group: C 2/M
;
_chemical_formula_sum "Si O2"
_cell_formula_units_Z 64
_cell_length_a 9.520322
_cell_length_b 14.690996
_cell_length_c 32.600954
_cell_angle_alpha 90.000000
_cell_angle_beta 136.379465
_cell_angle_gamma 90.000000
_cell_volume 3145.619153
_symmetry_space_group_name_H-M "C 2/M"
_symmetry_group_IT_number 12
_symmetry_cell_setting 'monoclinic'
loop_
_space_group_symop_operation_xyz
x,y,z
-x,y,-z
-x,-y,-z
x,-y,z
1/2+x,1/2+y,z
1/2-x,1/2+y,-z
1/2-x,1/2-y,-z
1/2+x,1/2-y,z
loop_
_atom_site_type_symbol
_atom_site_label
_atom_site_fract_x
_atom_site_fract_y
_atom_site_fract_z
Si Si1 0.477792 0.340667 0.630165
Si Si2 0.498726 0.228137 0.092705
Si Si3 0.136871 0.892786 0.988584
Si Si4 0.780164 0.598649 0.269874
Si Si5 0.579681 0.899259 0.264233
Si Si6 0.662766 0.838002 0.501855
Si Si7 0.361977 0.846395 0.373914
Si Si8 0.949358 0.244849 0.176117
O O1 0.675230 0.398613 0.683044
O O2 0.342296 0.389969 0.565184
O O3 0.556495 0.245248 0.629713
O O4 0.341851 0.328484 0.642446
O O5 0.461541 0.331277 0.068211
O O6 0.729574 0.199139 0.133564
O O7 0.469763 0.223057 0.134519
O O8 0.359424 0.150566 0.042669
O O9 0.153541 0.000000 0.979465
O O10 0.000000 0.881745 0.000000
O O11 0.701204 0.500000 0.238369
O O12 0.814584 0.588700 0.325927
O O13 0.614387 0.672368 0.224150
O O14 0.990162 0.623007 0.290578
O O15 0.475891 0.832291 0.210218
O O16 0.515843 0.000000 0.236537
O O17 0.500000 0.801473 0.500000
O O18 0.750000 0.750000 0.500000
O O19 0.538910 0.892931 0.440186
#
# Coordination Sequence:
#
# PCOD8091969 Si02
#       8
#     8   8   8   8   8   8   8   8
#     4  10  19  34  58  85 118 158 206 258 318 382
#     4  11  24  42  69 100 129 167 210 251 297 356
#     4  10  22  43  71 102 135 168 202 247 301 357
#     4  11  25  42  60  88 125 165 210 265 320 369
#     4  11  25  42  61  88 123 167 213 262 318 373
#     4   8  16  30  51  82 113 151 200 255 313 382
#     4  10  19  34  58  85 119 158 204 258 322 380
#     4  12  24  43  65  92 129 169 213 254 300 360
#
# _framework density 20.345756999999999
#
# number of rings (size 3 to 8) (size 9 to 14) (size 15 to 20)
#    0.000    1.625    3.750    0.750    1.750    3.500 
#    0.000    1.250    0.000    3.750    0.000    0.000 
#    0.000    0.000    0.000    0.000    0.000    0.000 
#
# Total GULP energy -396462.640012 kJ/mol
# GULP energy per Si atom -12389.457500 kJ/mol
# Density = 2.029945 g / cm^3
# Si number density = 20.345757 Si / 1000 Ang^3
#
#
#
# Elastic Constant Matrix: (Units=GPa)
#
#
# Indices 1 2 3 4 5 6 
#
# 1 127.8944 24.4003 38.2982 0.0000 3.9384 0.0000
# 2 24.4003 98.6257 24.2755 0.0000 1.8947 0.0000
# 3 38.2982 24.2755 91.0617 0.0000 3.9234 0.0000
# 4 0.0000 0.0000 0.0000 -295.5195 0.0000 -16.9198
# 5 3.9384 1.8947 3.9234 0.0000 40.5794 0.0000
# 6 0.0000 0.0000 0.0000 -16.9198 0.0000 18.5300
#
#
#
# Elastic Compliance Matrix: (Units=1/GPa)
#
#
# Indices 1 2 3 4 5 6 
#
# 1 0.009134 -0.001402 -0.003447 0.000000 -0.000488 0.000000
# 2 -0.001402 0.011069 -0.002354 0.000000 -0.000153 0.000000
# 3 -0.003447 -0.002354 0.013094 0.000000 -0.000822 0.000000
# 4 0.000000 0.000000 0.000000 -0.003216 0.000000 -0.002936
# 5 -0.000488 -0.000153 -0.000822 0.000000 0.024777 0.000000
# 6 0.000000 0.000000 0.000000 -0.002936 0.000000 0.051285
#
#
# Mechanical properties :
#
#
# Convention : Reuss Voigt Hill
#
# Bulk Modulus (GPa) = 52.93720 54.61442 53.77581
# Shear Modulus (GPa) = 39.41792 -31.90818 3.75487
#
# Velocity S-wave (km/s) = 4.40637 -3.96447 1.35998
# Velocity P-wave (km/s) = 7.20856 2.43832 5.38093
#
# Compressibility (1/GPa) = 0.01889031
#
# Stress axis : x y z
#
# Youngs Moduli (GPa) = 109.48671 90.34511 76.36989
#
# Poissons Ratio (x) = 0.12666 0.26321
# Poissons Ratio (y) = 0.15350 0.17981
# Poissons Ratio (z) = 0.37735 0.21272
#
# Static dielectric constant tensor:
#      x y z
#    x 3.778480 0.000000 -0.009090 
#    y 0.000000 3.506190 0.000000 
#    z -0.009090 0.000000 4.203700 
# 
# 
# High freq. dielectric constant tensor:
#      x y z
#    x 1.809950 0.000000 0.000500 
#    y 0.000000 1.771380 0.000000 
#    z 0.000500 0.000000 1.808620 
# 
# From -- ./inp_files/372622.got.cif
#   From: 2010.06.25/outbox.cif.g09.slc.cpg/sg12_187_cif.got.tgz:372622.got - 2010.06.28 00:19:55.
