data_PCOD8091302
_publ_section_title
;
Structure prediction by ZEFSAII (Michael W. Deem and Ramdas Pophale) SiO2 
 PCOD8091302
Probable space group: C 2/M
;
_chemical_formula_sum "Si O2"
_cell_formula_units_Z 60
_cell_length_a 13.598090
_cell_length_b 13.191401
_cell_length_c 23.960013
_cell_angle_alpha 90.000000
_cell_angle_beta 48.891523
_cell_angle_gamma 90.000000
_cell_volume 3238.318899
_symmetry_space_group_name_H-M "C 2/M"
_symmetry_group_IT_number 12
_symmetry_cell_setting 'monoclinic'
loop_
_space_group_symop_operation_xyz
x,y,z
-x,y,-z
-x,-y,-z
x,-y,z
1/2+x,1/2+y,z
1/2-x,1/2+y,-z
1/2-x,1/2-y,-z
1/2+x,1/2-y,z
loop_
_atom_site_type_symbol
_atom_site_label
_atom_site_fract_x
_atom_site_fract_y
_atom_site_fract_z
Si Si1 0.500000 0.243971 0.500000
Si Si2 0.254273 0.380678 0.388504
Si Si3 0.095694 0.695046 0.015617
Si Si4 0.056675 0.384680 0.825354
Si Si5 0.977341 0.804047 0.229184
Si Si6 0.871368 0.883763 0.926927
Si Si7 0.346726 0.615019 0.746121
Si Si8 0.060343 0.884525 0.578842
O O1 0.384416 0.173700 0.565951
O O2 0.563782 0.312566 0.524223
O O3 0.231341 0.500000 0.393210
O O4 0.341771 0.346004 0.303612
O O5 0.326758 0.352546 0.419446
O O6 0.105874 0.814403 0.026756
O O7 0.048213 0.632588 0.087134
O O8 0.236546 0.649606 0.947046
O O9 0.000000 0.677635 0.000000
O O10 0.052371 0.500000 0.806016
O O11 0.197360 0.354457 0.796682
O O12 0.029876 0.315139 0.781853
O O13 0.011743 0.867268 0.160643
O O14 0.091687 0.810988 0.231609
O O15 0.867697 0.000000 0.947780
O O16 0.364956 0.500000 0.761183
O O17 0.418595 0.626836 0.660068
O O18 0.083285 0.000000 0.550442
#
# Coordination Sequence:
#
# PCOD8091302 Si02
#       8
#     4   8   8   8   8   8   8   8
#     4  12  20  32  54  78 104 134 166 208 256 298
#     4  10  21  36  53  75 102 133 168 208 253 302
#     4  10  21  34  50  76 107 136 167 207 253 297
#     4  10  20  33  52  78 105 132 167 211 255 295
#     4  10  19  34  56  75  98 132 172 210 248 298
#     4  10  20  34  53  76 100 132 173 210 248 297
#     4   9  17  32  54  76  99 133 172 207 246 297
#     4   9  19  34  52  76 104 134 170 206 246 299
#
# _framework density 18.528131999999999
#
# number of rings (size 3 to 8) (size 9 to 14) (size 15 to 20)
#    0.000    2.133    0.000    4.800    0.000    2.400 
#    0.000    0.667    0.000   19.200    0.000    0.000 
#    0.000    0.000    0.000    0.000    0.000    0.000 
#
# Total GULP energy -372062.884868 kJ/mol
# GULP energy per Si atom -12402.096162 kJ/mol
# Density = 1.848596 g / cm^3
# Si number density = 18.528132 Si / 1000 Ang^3
#
#
#
# Elastic Constant Matrix: (Units=GPa)
#
#
# Indices 1 2 3 4 5 6 
#
# 1 71.6708 47.3226 31.0759 0.0000 -4.7472 0.0000
# 2 47.3226 122.0340 41.3677 0.0000 3.6370 0.0000
# 3 31.0759 41.3677 82.1482 0.0000 -11.2454 0.0000
# 4 0.0000 0.0000 0.0000 20.5380 0.0000 -1.3059
# 5 -4.7472 3.6370 -11.2454 0.0000 29.5289 0.0000
# 6 0.0000 0.0000 0.0000 -1.3059 0.0000 29.2355
#
#
#
# Elastic Compliance Matrix: (Units=1/GPa)
#
#
# Indices 1 2 3 4 5 6 
#
# 1 0.020171 -0.006546 -0.003988 0.000000 0.002530 0.000000
# 2 -0.006546 0.012316 -0.004302 0.000000 -0.004208 0.000000
# 3 -0.003988 -0.004302 0.016704 0.000000 0.006250 0.000000
# 4 0.000000 0.000000 0.000000 0.048829 0.000000 0.002181
# 5 0.002530 -0.004208 0.006250 0.000000 0.037170 0.000000
# 6 0.000000 0.000000 0.000000 0.002181 0.000000 0.034302
#
#
# Mechanical properties :
#
#
# Convention : Reuss Voigt Hill
#
# Bulk Modulus (GPa) = 51.22937 57.26504 54.24720
# Shear Modulus (GPa) = 24.31062 26.26627 25.28845
#
# Velocity S-wave (km/s) = 3.62621 3.76924 3.69842
# Velocity P-wave (km/s) = 6.72622 7.06520 6.89780
#
# Compressibility (1/GPa) = 0.01952005
#
# Stress axis : x y z
#
# Youngs Moduli (GPa) = 49.57516 81.19224 59.86669
#
# Poissons Ratio (x) = 0.53145 0.23875
# Poissons Ratio (y) = 0.32450 0.25755
# Poissons Ratio (z) = 0.19771 0.34930
#
# Static dielectric constant tensor:
#      x y z
#    x 3.258090 0.000000 -0.164990 
#    y 0.000000 3.401570 0.000000 
#    z -0.164990 0.000000 3.405610 
# 
# 
# High freq. dielectric constant tensor:
#      x y z
#    x 1.706910 0.000000 -0.013570 
#    y 0.000000 1.719000 0.000000 
#    z -0.013570 0.000000 1.723140 
# 
# From -- ./inp_files/339558.got.cif
#   From: 2010.06.25/outbox.cif.g09.slc.cpg/sg12_170_cif.got.tgz:339558.got - 2010.06.28 00:19:55.
