data_PCOD8091722
_publ_section_title
;
Structure prediction by ZEFSAII (Michael W. Deem and Ramdas Pophale) SiO2 
 PCOD8091722
Probable space group: C 2/M
;
_chemical_formula_sum "Si O2"
_cell_formula_units_Z 40
_cell_length_a 20.185209
_cell_length_b 17.374172
_cell_length_c 8.418651
_cell_angle_alpha 90.000000
_cell_angle_beta 133.949600
_cell_angle_gamma 90.000000
_cell_volume 2125.604967
_symmetry_space_group_name_H-M "C 2/M"
_symmetry_group_IT_number 12
_symmetry_cell_setting 'monoclinic'
loop_
_space_group_symop_operation_xyz
x,y,z
-x,y,-z
-x,-y,-z
x,-y,z
1/2+x,1/2+y,z
1/2-x,1/2+y,-z
1/2-x,1/2-y,-z
1/2+x,1/2-y,z
loop_
_atom_site_type_symbol
_atom_site_label
_atom_site_fract_x
_atom_site_fract_y
_atom_site_fract_z
Si Si1 0.926483 0.414578 0.010984
Si Si2 0.938564 0.259298 0.174977
Si Si3 0.633841 0.275968 0.605017
Si Si4 0.788198 0.197686 0.705305
Si Si5 0.280857 0.413893 0.433958
O O1 0.947047 0.500000 0.114611
O O2 0.827992 0.412553 0.765226
O O3 0.931206 0.352373 0.160959
O O4 0.000000 0.391378 0.000000
O O5 0.892782 0.224220 0.255639
O O6 0.045649 0.237336 0.345932
O O7 0.886818 0.224655 0.935853
O O8 0.709318 0.207407 0.708511
O O9 0.674421 0.359336 0.625906
O O10 0.750000 0.250000 0.500000
O O11 0.801381 0.113391 0.650129
O O12 0.320714 0.500000 0.478934
#
# Coordination Sequence:
#
# PCOD8091722 Si02
#       5
#     8   8   8   8   8
#     4  10  20  34  57  86 115 146 181 234 290 335
#     4  11  21  36  59  86 115 151 196 227 283 339
#     4  10  22  37  57  86 115 154 190 234 277 344
#     4  10  19  34  57  83 110 146 192 234 273 333
#     4  10  21  38  57  84 115 149 189 238 291 330
#
# _framework density 18.818173000000002
#
# number of rings (size 3 to 8) (size 9 to 14) (size 15 to 20)
#    0.000    1.800    4.000    1.800    2.800    0.000 
#    0.000    8.000    0.000    0.000    0.000    0.000 
#    0.000    0.000    0.000    0.000    0.000    0.000 
#
# Total GULP energy -247890.627652 kJ/mol
# GULP energy per Si atom -12394.531383 kJ/mol
# Density = 1.877534 g / cm^3
# Si number density = 18.818173 Si / 1000 Ang^3
#
#
#
# Elastic Constant Matrix: (Units=GPa)
#
#
# Indices 1 2 3 4 5 6 
#
# 1 64.4270 58.0592 18.7766 0.0000 6.1557 0.0000
# 2 58.0592 147.3902 38.0381 0.0000 -5.7999 0.0000
# 3 18.7766 38.0381 103.5592 0.0000 8.3623 0.0000
# 4 0.0000 0.0000 0.0000 22.5040 0.0000 1.8838
# 5 6.1557 -5.7999 8.3623 0.0000 25.4394 0.0000
# 6 0.0000 0.0000 0.0000 1.8838 0.0000 22.2597
#
#
#
# Elastic Compliance Matrix: (Units=1/GPa)
#
#
# Indices 1 2 3 4 5 6 
#
# 1 0.025821 -0.010473 -0.000141 0.000000 -0.008589 0.000000
# 2 -0.010473 0.011926 -0.002985 0.000000 0.006234 0.000000
# 3 -0.000141 -0.002985 0.011126 0.000000 -0.004304 0.000000
# 4 0.000000 0.000000 0.000000 0.044754 0.000000 -0.003788
# 5 -0.008589 0.006234 -0.004304 0.000000 0.044224 0.000000
# 6 0.000000 0.000000 0.000000 -0.003788 0.000000 0.045245
#
#
# Mechanical properties :
#
#
# Convention : Reuss Voigt Hill
#
# Bulk Modulus (GPa) = 46.13750 60.56936 53.35343
# Shear Modulus (GPa) = 22.98664 27.40745 25.19705
#
# Velocity S-wave (km/s) = 3.49881 3.82047 3.66317
# Velocity P-wave (km/s) = 6.39476 7.19151 6.80481
#
# Compressibility (1/GPa) = 0.02167434
#
# Stress axis : x y z
#
# Youngs Moduli (GPa) = 38.72813 83.85186 89.88067
#
# Poissons Ratio (x) = 0.87816 0.01271
# Poissons Ratio (y) = 0.40559 0.26829
# Poissons Ratio (z) = 0.00547 0.25030
#
# Static dielectric constant tensor:
#      x y z
#    x 3.640720 0.000000 0.134710 
#    y 0.000000 3.926390 0.000000 
#    z 0.134710 0.000000 3.514890 
# 
# 
# High freq. dielectric constant tensor:
#      x y z
#    x 1.731520 0.000000 0.016250 
#    y 0.000000 1.716950 0.000000 
#    z 0.016250 0.000000 1.730630 
# 
# From -- ./inp_files/60361.got.cif
#   From: 2010.06.25/outbox.cif.g09.slc.cpg/sg12_31_cif.got.tgz:60361.got - 2010.06.28 00:19:55.
