data_PCOD8091918
_publ_section_title
;
Structure prediction by ZEFSAII (Michael W. Deem and Ramdas Pophale) SiO2 
 PCOD8091918
Probable space group: C 2/M
;
_chemical_formula_sum "Si O2"
_cell_formula_units_Z 64
_cell_length_a 20.477291
_cell_length_b 9.026565
_cell_length_c 31.753778
_cell_angle_alpha 90.000000
_cell_angle_beta 36.157434
_cell_angle_gamma 90.000000
_cell_volume 3462.955003
_symmetry_space_group_name_H-M "C 2/M"
_symmetry_group_IT_number 12
_symmetry_cell_setting 'monoclinic'
loop_
_space_group_symop_operation_xyz
x,y,z
-x,y,-z
-x,-y,-z
x,-y,z
1/2+x,1/2+y,z
1/2-x,1/2+y,-z
1/2-x,1/2-y,-z
1/2+x,1/2-y,z
loop_
_atom_site_type_symbol
_atom_site_label
_atom_site_fract_x
_atom_site_fract_y
_atom_site_fract_z
Si Si1 0.070784 0.327606 0.789386
Si Si2 0.499826 0.672721 0.048151
Si Si3 0.362770 0.827522 0.953805
Si Si4 0.082183 0.174367 0.339855
Si Si5 0.651005 0.674590 0.576079
Si Si6 0.898484 0.329658 0.582584
Si Si7 0.337439 0.328285 0.334045
Si Si8 0.706561 0.672676 0.788755
O O1 0.100995 0.500000 0.775434
O O2 0.076785 0.266821 0.738732
O O3 0.161635 0.238482 0.768540
O O4 0.949030 0.297594 0.871233
O O5 0.529721 0.500000 0.036306
O O6 0.591820 0.762066 0.026070
O O7 0.377688 0.706292 0.129520
O O8 0.500000 0.727189 0.000000
O O9 0.340942 0.000000 0.972070
O O10 0.250000 0.750000 0.000000
O O11 0.096737 0.223178 0.380161
O O12 0.176364 0.250877 0.261803
O O13 0.963519 0.226797 0.384985
O O14 0.096738 0.000000 0.328380
O O15 0.668386 0.500000 0.563914
O O16 0.750000 0.750000 0.500000
O O17 0.650109 0.727343 0.624791
O O18 0.904896 0.500000 0.594343
O O19 0.787899 0.297470 0.614229
O O20 0.000000 0.288085 0.500000
O O21 0.369814 0.500000 0.312703
O O22 0.724915 0.500000 0.772016
#
# Coordination Sequence:
#
# PCOD8091918 Si02
#       8
#     8   8   8   8   8   8   8   8
#     4  10  20  35  57  85 114 144 183 234 282 323
#     4   9  19  37  60  85 116 151 188 233 281 333
#     4  10  21  37  58  85 117 152 190 232 280 334
#     4  11  22  36  55  81 114 145 182 231 279 325
#     4  10  23  41  58  79 110 150 186 227 280 334
#     4  10  20  34  56  83 107 139 184 229 272 326
#     4  10  20  36  57  80 110 147 188 225 273 335
#     4  10  19  34  58  84 111 149 188 224 277 334
#
# _framework density 18.481325999999999
#
# number of rings (size 3 to 8) (size 9 to 14) (size 15 to 20)
#    0.000    2.000    1.250    2.250    0.000    5.000 
#    2.250    0.000    0.000    0.000    0.000    0.000 
#    0.000    0.000    0.000    0.000    0.000    0.000 
#
# Total GULP energy -396921.524000 kJ/mol
# GULP energy per Si atom -12403.797625 kJ/mol
# Density = 1.843926 g / cm^3
# Si number density = 18.481326 Si / 1000 Ang^3
#
#
#
# Elastic Constant Matrix: (Units=GPa)
#
#
# Indices 1 2 3 4 5 6 
#
# 1 115.9190 57.7071 72.8222 -0.0020 -3.2037 0.0858
# 2 57.7071 86.9403 59.9249 -0.0137 -7.9166 -0.0054
# 3 72.8222 59.9249 127.6385 -0.0025 -2.8899 -0.0069
# 4 -0.0020 -0.0137 -0.0025 33.6190 -0.0022 -2.7301
# 5 -3.2037 -7.9166 -2.8899 -0.0022 36.5682 -0.0019
# 6 0.0858 -0.0054 -0.0069 -2.7301 -0.0019 27.0189
#
#
#
# Elastic Compliance Matrix: (Units=1/GPa)
#
#
# Indices 1 2 3 4 5 6 
#
# 1 0.015400 -0.006210 -0.005881 -0.000006 -0.000460 -0.000052
# 2 -0.006210 0.019857 -0.005705 0.000009 0.003304 0.000023
# 3 -0.005881 -0.005705 0.013854 0.000000 -0.000655 0.000021
# 4 -0.000006 0.000009 0.000000 0.029991 0.000003 0.003030
# 5 -0.000460 0.003304 -0.000655 0.000003 0.027969 0.000004
# 6 -0.000052 0.000023 0.000021 0.003030 0.000004 0.037318
#
#
# Mechanical properties :
#
#
# Convention : Reuss Voigt Hill
#
# Bulk Modulus (GPa) = 73.97195 79.04512 76.50854
# Shear Modulus (GPa) = 27.10209 28.77746 27.93977
#
# Velocity S-wave (km/s) = 3.83359 3.95030 3.89238
# Velocity P-wave (km/s) = 7.72705 7.97933 7.85420
#
# Compressibility (1/GPa) = 0.01351864
#
# Stress axis : x y z
#
# Youngs Moduli (GPa) = 64.93389 50.35963 72.18373
#
# Poissons Ratio (x) = 0.31274 0.42453
# Poissons Ratio (y) = 0.40325 0.41179
# Poissons Ratio (z) = 0.38189 0.28729
#
# Static dielectric constant tensor:
#      x y z
#    x 3.231610 -0.000130 -0.031430 
#    y -0.000130 3.404500 0.000060 
#    z -0.031430 0.000060 3.598700 
# 
# 
# High freq. dielectric constant tensor:
#      x y z
#    x 1.707380 0.000000 -0.001230 
#    y 0.000000 1.720120 0.000000 
#    z -0.001230 0.000000 1.729620 
# 
# From -- ./inp_files/378198.got.cif
#   From: 2010.06.25/outbox.cif.g09.slc.cpg/sg12_190_cif.got.tgz:378198.got - 2010.06.28 00:19:55.
