data_PCOD8091726
_publ_section_title
;
Structure prediction by ZEFSAII (Michael W. Deem and Ramdas Pophale) SiO2 
 PCOD8091726
Probable space group: C 2/M
;
_chemical_formula_sum "Si O2"
_cell_formula_units_Z 48
_cell_length_a 24.720873
_cell_length_b 10.293505
_cell_length_c 20.940364
_cell_angle_alpha 90.000000
_cell_angle_beta 150.073511
_cell_angle_gamma 90.000000
_cell_volume 2658.366021
_symmetry_space_group_name_H-M "C 2/M"
_symmetry_group_IT_number 12
_symmetry_cell_setting 'monoclinic'
loop_
_space_group_symop_operation_xyz
x,y,z
-x,y,-z
-x,-y,-z
x,-y,z
1/2+x,1/2+y,z
1/2-x,1/2+y,-z
1/2-x,1/2-y,-z
1/2+x,1/2-y,z
loop_
_atom_site_type_symbol
_atom_site_label
_atom_site_fract_x
_atom_site_fract_y
_atom_site_fract_z
Si Si1 0.507661 0.725054 0.800879
Si Si2 0.624018 0.148565 0.140811
Si Si3 0.319172 0.644682 0.695244
Si Si4 0.916665 0.354722 0.593589
Si Si5 0.923559 0.144895 0.258440
Si Si6 0.307369 0.851038 0.928892
O O1 0.417737 0.644074 0.746443
O O2 0.447269 0.841290 0.700176
O O3 0.570013 0.636273 0.812391
O O4 0.593459 0.773806 0.939902
O O5 0.669854 0.246242 0.239911
O O6 0.693951 0.168429 0.148504
O O7 0.633616 0.000000 0.175781
O O8 0.500000 0.183179 0.000000
O O9 0.314614 0.500000 0.721492
O O10 0.209658 0.674687 0.544594
O O11 0.946591 0.500000 0.601208
O O12 0.986405 0.248266 0.624219
O O13 0.806615 0.199023 0.159967
O O14 0.944286 0.000000 0.307929
O O15 0.324533 0.000000 0.965321
#
# Coordination Sequence:
#
# PCOD8091726 Si02
#       6
#     8   8   8   8   8   8
#     4  10  19  34  57  83 111 147 174 224 280 328
#     4  10  21  38  58  81 107 144 189 228 271 323
#     4  11  22  38  56  83 115 144 185 228 271 326
#     4   9  21  36  55  82 114 148 182 221 272 331
#     4   9  20  35  55  84 114 144 181 226 272 327
#     4  10  19  36  58  83 112 143 186 230 270 325
#
# _framework density 18.056204000000001
#
# number of rings (size 3 to 8) (size 9 to 14) (size 15 to 20)
#    1.000    1.167    1.667    2.000    0.000    1.667 
#    0.000    2.500    0.000    5.000    0.000    0.000 
#    0.000    0.000    0.000    0.000    0.000    0.000 
#
# Total GULP energy -297425.769541 kJ/mol
# GULP energy per Si atom -12392.740398 kJ/mol
# Density = 1.801511 g / cm^3
# Si number density = 18.056204 Si / 1000 Ang^3
#
#
#
# Elastic Constant Matrix: (Units=GPa)
#
#
# Indices 1 2 3 4 5 6 
#
# 1 88.3701 30.7436 49.1677 0.0000 14.6133 0.0000
# 2 30.7436 98.7962 54.0187 0.0000 6.9121 0.0000
# 3 49.1677 54.0187 88.8969 0.0000 20.2528 0.0000
# 4 0.0000 0.0000 0.0000 29.9736 0.0000 -4.2013
# 5 14.6133 6.9121 20.2528 0.0000 26.9091 0.0000
# 6 0.0000 0.0000 0.0000 -4.2013 0.0000 19.3576
#
#
#
# Elastic Compliance Matrix: (Units=1/GPa)
#
#
# Indices 1 2 3 4 5 6 
#
# 1 0.016499 -0.000432 -0.008264 0.000000 -0.002629 0.000000
# 2 -0.000432 0.015475 -0.010033 0.000000 0.003811 0.000000
# 3 -0.008264 -0.010033 0.024509 0.000000 -0.011382 0.000000
# 4 0.000000 0.000000 0.000000 0.034409 0.000000 0.007468
# 5 -0.002629 0.003811 -0.011382 0.000000 0.046177 0.000000
# 6 0.000000 0.000000 0.000000 0.007468 0.000000 0.053280
#
#
# Mechanical properties :
#
#
# Convention : Reuss Voigt Hill
#
# Bulk Modulus (GPa) = 52.55936 60.43591 56.49764
# Shear Modulus (GPa) = 21.35381 24.72362 23.03871
#
# Velocity S-wave (km/s) = 3.44267 3.70436 3.57591
# Velocity P-wave (km/s) = 6.70631 7.20001 6.95754
#
# Compressibility (1/GPa) = 0.01902611
#
# Stress axis : x y z
#
# Youngs Moduli (GPa) = 60.60967 64.61891 40.80080
#
# Poissons Ratio (x) = 0.02790 0.33718
# Poissons Ratio (y) = 0.02617 0.40936
# Poissons Ratio (z) = 0.50088 0.64832
#
# Static dielectric constant tensor:
#      x y z
#    x 3.284970 0.000000 0.177920 
#    y 0.000000 3.255260 0.000000 
#    z 0.177920 0.000000 3.183020 
# 
# 
# High freq. dielectric constant tensor:
#      x y z
#    x 1.689760 0.000000 0.017810 
#    y 0.000000 1.697940 0.000000 
#    z 0.017810 0.000000 1.690430 
# 
# From -- ./inp_files/324996.got.cif
#   From: 2010.06.25/outbox.cif.g09.slc.cpg/sg12_163_cif.got.tgz:324996.got - 2010.06.28 00:19:55.
