data_PCOD8091693
_publ_section_title
;
Structure prediction by ZEFSAII (Michael W. Deem and Ramdas Pophale) SiO2 
 PCOD8091693
Probable space group: C 2/M
;
_chemical_formula_sum "Si O2"
_cell_formula_units_Z 64
_cell_length_a 15.677490
_cell_length_b 9.257602
_cell_length_c 27.577919
_cell_angle_alpha 90.000000
_cell_angle_beta 125.709172
_cell_angle_gamma 90.000000
_cell_volume 3250.029218
_symmetry_space_group_name_H-M "C 2/M"
_symmetry_group_IT_number 12
_symmetry_cell_setting 'monoclinic'
loop_
_space_group_symop_operation_xyz
x,y,z
-x,y,-z
-x,-y,-z
x,-y,z
1/2+x,1/2+y,z
1/2-x,1/2+y,-z
1/2-x,1/2-y,-z
1/2+x,1/2-y,z
loop_
_atom_site_type_symbol
_atom_site_label
_atom_site_fract_x
_atom_site_fract_y
_atom_site_fract_z
Si Si1 0.660520 0.335164 0.258511
Si Si2 0.507126 0.828471 0.859879
Si Si3 0.566562 0.331480 0.069896
Si Si4 0.834301 0.170981 0.496564
Si Si5 0.474551 0.658394 0.377907
Si Si6 0.372873 0.163055 0.267904
Si Si7 0.231539 0.160239 0.629929
Si Si8 0.803682 0.329795 0.142786
O O1 0.621487 0.500000 0.251104
O O2 0.572160 0.236542 0.205394
O O3 0.762523 0.328617 0.258787
O O4 0.682847 0.270244 0.319581
O O5 0.489256 0.757272 0.906040
O O6 0.625611 0.790808 0.880676
O O7 0.489716 0.000000 0.857600
O O8 0.567885 0.500000 0.085319
O O9 0.684268 0.271743 0.098322
O O10 0.500000 0.304361 0.000000
O O11 0.750000 0.250000 0.500000
O O12 0.817528 0.223112 0.435909
O O13 0.946971 0.221168 0.555071
O O14 0.821741 0.000000 0.495449
O O15 0.513983 0.500000 0.374740
O O16 0.467077 0.756214 0.327408
O O17 0.360303 0.647567 0.362066
O O18 0.356788 0.234153 0.209391
O O19 0.412514 0.000000 0.276594
O O20 0.281012 0.000000 0.638526
O O21 0.796879 0.500000 0.147401
#
# Coordination Sequence:
#
# PCOD8091693 Si02
#       8
#     8   8   8   8   8   8   8   8
#     4  10  19  34  57  82 111 145 187 235 283 337
#     4  11  22  36  59  88 121 156 192 237 288 340
#     4  10  21  41  66  87 116 159 198 235 283 339
#     4  10  21  35  50  70 102 141 177 226 283 338
#     4   9  18  33  53  76 101 133 180 230 276 326
#     4   9  17  33  56  77 105 144 183 225 279 339
#     4   9  18  34  55  76 101 138 184 228 282 338
#     4   9  19  37  58  84 118 156 191 231 288 345
#
# _framework density 19.692131
#
# number of rings (size 3 to 8) (size 9 to 14) (size 15 to 20)
#    0.000    2.375    1.250    1.125    0.000    4.750 
#    0.000    6.250    0.000    3.750    0.000    0.000 
#    0.000    0.000    0.000    0.000    0.000    0.000 
#
# Total GULP energy -396651.837367 kJ/mol
# GULP energy per Si atom -12395.369918 kJ/mol
# Density = 1.964731 g / cm^3
# Si number density = 19.692131 Si / 1000 Ang^3
#
#
#
# Elastic Constant Matrix: (Units=GPa)
#
#
# Indices 1 2 3 4 5 6 
#
# 1 84.4640 44.5311 57.4272 0.0000 -12.1996 0.0000
# 2 44.5311 75.5693 61.8065 0.0000 -6.2758 0.0000
# 3 57.4272 61.8065 152.1355 0.0000 -15.6049 0.0000
# 4 0.0000 0.0000 0.0000 31.2503 0.0000 -3.9484
# 5 -12.1996 -6.2758 -15.6049 0.0000 12.5090 0.0000
# 6 0.0000 0.0000 0.0000 -3.9484 0.0000 25.2094
#
#
#
# Elastic Compliance Matrix: (Units=1/GPa)
#
#
# Indices 1 2 3 4 5 6 
#
# 1 0.019921 -0.008384 -0.002926 0.000000 0.011571 0.000000
# 2 -0.008384 0.023347 -0.006831 0.000000 -0.004986 0.000000
# 3 -0.002926 -0.006831 0.011248 0.000000 0.007751 0.000000
# 4 0.000000 0.000000 0.000000 0.032646 0.000000 0.005113
# 5 0.011571 -0.004986 0.007751 0.000000 0.098395 0.000000
# 6 0.000000 0.000000 0.000000 0.005113 0.000000 0.040469
#
#
# Mechanical properties :
#
#
# Convention : Reuss Voigt Hill
#
# Bulk Modulus (GPa) = 54.85138 71.07759 62.96448
# Shear Modulus (GPa) = 18.62988 23.68733 21.15861
#
# Velocity S-wave (km/s) = 3.07914 3.47202 3.28147
# Velocity P-wave (km/s) = 6.36839 7.22814 6.81184
#
# Compressibility (1/GPa) = 0.01823108
#
# Stress axis : x y z
#
# Youngs Moduli (GPa) = 50.19898 42.83249 88.90412
#
# Poissons Ratio (x) = 0.35912 0.26017
# Poissons Ratio (y) = 0.42089 0.60734
# Poissons Ratio (z) = 0.14691 0.29261
#
# Static dielectric constant tensor:
#      x y z
#    x 3.486140 0.000000 0.038190 
#    y 0.000000 3.565620 0.000000 
#    z 0.038190 0.000000 3.510030 
# 
# 
# High freq. dielectric constant tensor:
#      x y z
#    x 1.757430 0.000000 -0.003140 
#    y 0.000000 1.748800 0.000000 
#    z -0.003140 0.000000 1.776900 
# 
# From -- ./inp_files/375563.got.cif
#   From: 2010.06.25/outbox.cif.g09.slc.cpg/sg12_188_cif.got.tgz:375563.got - 2010.06.28 00:19:55.
