data_PCOD8091298
_publ_section_title
;
Structure prediction by ZEFSAII (Michael W. Deem and Ramdas Pophale) SiO2 
 PCOD8091298
Probable space group: C 2/M
;
_chemical_formula_sum "Si O2"
_cell_formula_units_Z 44
_cell_length_a 14.313895
_cell_length_b 26.553468
_cell_length_c 17.461299
_cell_angle_alpha 90.000000
_cell_angle_beta 161.173958
_cell_angle_gamma 90.000000
_cell_volume 2141.653051
_symmetry_space_group_name_H-M "C 2/M"
_symmetry_group_IT_number 12
_symmetry_cell_setting 'monoclinic'
loop_
_space_group_symop_operation_xyz
x,y,z
-x,y,-z
-x,-y,-z
x,-y,z
1/2+x,1/2+y,z
1/2-x,1/2+y,-z
1/2-x,1/2-y,-z
1/2+x,1/2-y,z
loop_
_atom_site_type_symbol
_atom_site_label
_atom_site_fract_x
_atom_site_fract_y
_atom_site_fract_z
Si Si1 0.227856 0.182070 0.336257
Si Si2 0.823558 0.381974 0.932793
Si Si3 0.308704 0.849815 0.563493
Si Si4 0.796708 0.092209 0.996465
Si Si5 0.643985 0.500000 0.199848
Si Si6 0.824132 0.295665 0.728029
O O1 0.500000 0.162056 0.500000
O O2 0.321440 0.183563 0.497323
O O3 0.122228 0.236080 0.223228
O O4 0.968125 0.144113 0.125943
O O5 0.495368 0.375227 0.653158
O O6 0.831331 0.415686 0.016617
O O7 0.000000 0.408853 0.000000
O O8 0.959052 0.326160 0.049261
O O9 0.529562 0.897950 0.731250
O O10 0.395926 0.811646 0.697590
O O11 0.008045 0.047983 0.135709
O O12 0.000000 0.500000 0.500000
O O13 0.500000 0.500000 0.000000
O O14 0.500000 0.309961 0.500000
#
# Coordination Sequence:
#
# PCOD8091298 Si02
#       6
#     8   8   8   8   4   8
#     4  10  22  36  56  87 132 169 224 269 324 388
#     4  10  20  38  64  90 131 170 217 264 327 396
#     4  10  21  36  59  86 130 170 218 265 324 388
#     4  10  25  42  65  96 122 167 222 275 343 402
#     4  12  30  52  83 101 137 173 222 280 348 413
#     4  10  19  34  55  91 126 179 220 257 319 390
#
# _framework density 20.544878000000001
#
# number of rings (size 3 to 8) (size 9 to 14) (size 15 to 20)
#    0.000    1.818    1.818    1.091    7.636    8.000 
#    0.000    0.455    0.000    1.091    0.000    0.000 
#    0.000    0.000    0.000    0.000    0.000    0.000 
#
# Total GULP energy -272573.887961 kJ/mol
# GULP energy per Si atom -12389.722180 kJ/mol
# Density = 2.049812 g / cm^3
# Si number density = 20.544878 Si / 1000 Ang^3
#
#
#
# Elastic Constant Matrix: (Units=GPa)
#
#
# Indices 1 2 3 4 5 6 
#
# 1 123.0845 31.6241 37.9552 -0.0221 14.4441 -0.0172
# 2 31.6241 75.2741 43.1012 0.0150 5.4079 0.0036
# 3 37.9552 43.1012 125.8443 0.0151 8.8124 -0.0204
# 4 -0.0221 0.0150 0.0151 -29.8106 -0.0185 -16.8630
# 5 14.4441 5.4079 8.8124 -0.0185 29.6307 -0.0164
# 6 -0.0172 0.0036 -0.0204 -16.8630 -0.0164 15.5357
#
#
#
# Elastic Compliance Matrix: (Units=1/GPa)
#
#
# Indices 1 2 3 4 5 6 
#
# 1 0.009835 -0.002878 -0.001717 -0.000006 -0.003758 -0.000002
# 2 -0.002878 0.017422 -0.005080 0.000010 -0.000266 -0.000003
# 3 -0.001717 -0.005080 0.010295 -0.000001 -0.001298 0.000010
# 4 -0.000006 0.000010 -0.000001 -0.020784 -0.000024 -0.022560
# 5 -0.003758 -0.000266 -0.001298 -0.000024 0.036015 0.000006
# 6 -0.000002 -0.000003 0.000010 -0.022560 0.000006 0.039881
#
#
# Mechanical properties :
#
#
# Convention : Reuss Voigt Hill
#
# Bulk Modulus (GPa) = 54.94505 61.06265 58.00385
# Shear Modulus (GPa) = 42.34336 17.17265 29.75800
#
# Velocity S-wave (km/s) = 4.54477 2.89426 3.80997
# Velocity P-wave (km/s) = 7.37169 6.39962 6.90279
#
# Compressibility (1/GPa) = 0.01820000
#
# Stress axis : x y z
#
# Youngs Moduli (GPa) = 101.68207 57.39850 97.13412
#
# Poissons Ratio (x) = 0.16522 0.16679
# Poissons Ratio (y) = 0.29269 0.49346
# Poissons Ratio (z) = 0.17460 0.29160
#
# Static dielectric constant tensor:
#      x y z
#    x 4.366780 -0.000020 0.075220 
#    y -0.000020 3.387900 -0.000050 
#    z 0.075220 -0.000050 4.243400 
# 
# 
# High freq. dielectric constant tensor:
#      x y z
#    x 1.821870 0.000000 0.009610 
#    y 0.000000 1.761300 0.000000 
#    z 0.009610 0.000000 1.818330 
# 
# From -- ./inp_files/272908.got.cif
#   From: 2010.06.25/outbox.cif.g09.slc.cpg/sg12_137_cif.got.tgz:272908.got - 2010.06.28 00:19:55.
