data_PCOD8091385
_publ_section_title
;
Structure prediction by ZEFSAII (Michael W. Deem and Ramdas Pophale) SiO2 
 PCOD8091385
Probable space group: C 2/M
;
_chemical_formula_sum "Si O2"
_cell_formula_units_Z 56
_cell_length_a 26.971191
_cell_length_b 19.103872
_cell_length_c 8.815874
_cell_angle_alpha 90.000000
_cell_angle_beta 45.017523
_cell_angle_gamma 90.000000
_cell_volume 3212.955290
_symmetry_space_group_name_H-M "C 2/M"
_symmetry_group_IT_number 12
_symmetry_cell_setting 'monoclinic'
loop_
_space_group_symop_operation_xyz
x,y,z
-x,y,-z
-x,-y,-z
x,-y,z
1/2+x,1/2+y,z
1/2-x,1/2+y,-z
1/2-x,1/2-y,-z
1/2+x,1/2-y,z
loop_
_atom_site_type_symbol
_atom_site_label
_atom_site_fract_x
_atom_site_fract_y
_atom_site_fract_z
Si Si1 0.734566 0.809770 0.846767
Si Si2 0.325144 0.181761 0.696561
Si Si3 0.696473 0.421510 0.489695
Si Si4 0.025896 0.268149 0.609526
Si Si5 0.678105 0.079795 0.565823
Si Si6 0.570924 0.679516 0.773970
Si Si7 0.605848 0.194528 0.914697
O O1 0.796598 0.753396 0.679986
O O2 0.760796 0.884792 0.736235
O O3 0.666497 0.783928 0.901562
O O4 0.719373 0.823659 0.054621
O O5 0.407580 0.181493 0.555447
O O6 0.313066 0.114858 0.617259
O O7 0.680561 0.500000 0.471675
O O8 0.743523 0.419040 0.538250
O O9 0.623562 0.383978 0.677807
O O10 0.052790 0.199085 0.639090
O O11 0.000000 0.244742 0.500000
O O12 0.967009 0.309557 0.834615
O O13 0.623379 0.121215 0.793304
O O14 0.650594 0.000000 0.609795
O O15 0.600809 0.748155 0.793629
O O16 0.500000 0.651344 0.000000
#
# Coordination Sequence:
#
# PCOD8091385 Si02
#       7
#     8   8   8   8   8   8   8
#     4  10  20  33  56  82 104 140 179 227 266 314
#     4  11  20  34  55  80 108 139 183 220 269 315
#     4  10  20  36  55  79 110 141 178 221 267 318
#     4  11  20  34  54  82 111 137 175 228 268 313
#     4  10  21  36  56  79 109 143 180 222 264 317
#     4  10  20  34  57  81 105 142 175 222 271 318
#     4  10  19  34  56  80 108 135 180 224 268 315
#
# _framework density 17.429437
#
# number of rings (size 3 to 8) (size 9 to 14) (size 15 to 20)
#    0.000    1.714    4.286    0.857    0.000    3.143 
#    0.000    1.429    0.000    1.286    0.000    0.000 
#    0.000    0.000    0.000    0.000    0.000    0.000 
#
# Total GULP energy -347160.947027 kJ/mol
# GULP energy per Si atom -12398.605251 kJ/mol
# Density = 1.738977 g / cm^3
# Si number density = 17.429437 Si / 1000 Ang^3
#
#
#
# Elastic Constant Matrix: (Units=GPa)
#
#
# Indices 1 2 3 4 5 6 
#
# 1 101.4283 55.2257 47.8688 0.0000 1.1148 0.0000
# 2 55.2257 120.6486 49.5224 0.0000 -6.0233 0.0000
# 3 47.8688 49.5224 92.1768 0.0000 -6.9615 0.0000
# 4 0.0000 0.0000 0.0000 17.1662 0.0000 -1.2814
# 5 1.1148 -6.0233 -6.9615 0.0000 35.9523 0.0000
# 6 0.0000 0.0000 0.0000 -1.2814 0.0000 24.6517
#
#
#
# Elastic Compliance Matrix: (Units=1/GPa)
#
#
# Indices 1 2 3 4 5 6 
#
# 1 0.015044 -0.004777 -0.005421 0.000000 -0.002316 0.000000
# 2 -0.004777 0.012167 -0.003949 0.000000 0.001422 0.000000
# 3 -0.005421 -0.003949 0.015982 0.000000 0.002601 0.000000
# 4 0.000000 0.000000 0.000000 0.058481 0.000000 0.003040
# 5 -0.002316 0.001422 0.002601 0.000000 0.028628 0.000000
# 6 0.000000 0.000000 0.000000 0.003040 0.000000 0.040723
#
#
# Mechanical properties :
#
#
# Convention : Reuss Voigt Hill
#
# Bulk Modulus (GPa) = 67.11603 68.83194 67.97399
# Shear Modulus (GPa) = 24.47563 26.32982 25.40273
#
# Velocity S-wave (km/s) = 3.75142 3.89093 3.82181
# Velocity P-wave (km/s) = 7.57332 7.73067 7.65240
#
# Compressibility (1/GPa) = 0.01489957
#
# Stress axis : x y z
#
# Youngs Moduli (GPa) = 66.47191 82.19094 62.57051
#
# Poissons Ratio (x) = 0.39259 0.33921
# Poissons Ratio (y) = 0.31751 0.24707
# Poissons Ratio (z) = 0.36036 0.32455
#
# Static dielectric constant tensor:
#      x y z
#    x 3.473910 0.000000 -0.075920 
#    y 0.000000 3.097300 0.000000 
#    z -0.075920 0.000000 3.292900 
# 
# 
# High freq. dielectric constant tensor:
#      x y z
#    x 1.686420 0.000000 -0.004060 
#    y 0.000000 1.644460 0.000000 
#    z -0.004060 0.000000 1.683920 
# 
# From -- ./inp_files/76890.got.cif
#   From: 2010.06.25/outbox.cif.g09.slc.cpg/sg12_39_cif.got.tgz:76890.got - 2010.06.28 00:19:55.
