data_PCOD8091720
_publ_section_title
;
Structure prediction by ZEFSAII (Michael W. Deem and Ramdas Pophale) SiO2 
 PCOD8091720
Probable space group: C 2/M
;
_chemical_formula_sum "Si O2"
_cell_formula_units_Z 56
_cell_length_a 12.922164
_cell_length_b 13.466755
_cell_length_c 31.446756
_cell_angle_alpha 90.000000
_cell_angle_beta 32.123616
_cell_angle_gamma 90.000000
_cell_volume 2909.910807
_symmetry_space_group_name_H-M "C 2/M"
_symmetry_group_IT_number 12
_symmetry_cell_setting 'monoclinic'
loop_
_space_group_symop_operation_xyz
x,y,z
-x,y,-z
-x,-y,-z
x,-y,z
1/2+x,1/2+y,z
1/2-x,1/2+y,-z
1/2-x,1/2-y,-z
1/2+x,1/2-y,z
loop_
_atom_site_type_symbol
_atom_site_label
_atom_site_fract_x
_atom_site_fract_y
_atom_site_fract_z
Si Si1 0.907621 0.381419 0.284519
Si Si2 0.932892 0.108761 0.868180
Si Si3 0.503992 0.690249 0.547411
Si Si4 0.864157 0.616210 0.713815
Si Si5 0.226325 0.699893 0.114702
Si Si6 0.885497 0.168168 0.973720
Si Si7 0.382983 0.886803 0.455223
O O1 0.884985 0.500000 0.292115
O O2 0.697478 0.330159 0.358379
O O3 0.020737 0.339075 0.286234
O O4 0.026254 0.345377 0.201960
O O5 0.787505 0.185874 0.896440
O O6 0.901364 0.089343 0.929915
O O7 0.145726 0.157484 0.786674
O O8 0.909214 0.000000 0.854725
O O9 0.500000 0.654166 0.500000
O O10 0.562038 0.807357 0.527508
O O11 0.660692 0.624493 0.518108
O O12 0.848609 0.500000 0.726783
O O13 0.979430 0.643323 0.631540
O O14 0.394162 0.701949 0.091860
O O15 0.285807 0.632363 0.052686
O O16 0.750000 0.250000 0.000000
O O17 0.418219 0.000000 0.458744
#
# Coordination Sequence:
#
# PCOD8091720 Si02
#       7
#     8   8   8   8   8   8   8
#     4  11  21  34  56  83 109 142 183 230 279 326
#     4  10  19  34  57  83 110 144 185 226 270 327
#     4  11  22  36  57  85 112 145 186 232 276 324
#     4   9  17  31  53  80 105 139 183 222 265 321
#     4  10  20  35  55  81 110 144 182 228 277 327
#     4   9  19  35  53  78 111 144 181 224 271 325
#     4  10  21  37  57  82 114 149 185 226 276 330
#
# _framework density 19.244575000000001
#
# number of rings (size 3 to 8) (size 9 to 14) (size 15 to 20)
#    0.000    2.000    2.857    1.286    0.000    1.429 
#    0.000    7.143    0.000    0.857    0.000    0.000 
#    0.000    0.000    0.000    0.000    0.000    0.000 
#
# Total GULP energy -346973.543219 kJ/mol
# GULP energy per Si atom -12391.912258 kJ/mol
# Density = 1.920077 g / cm^3
# Si number density = 19.244575 Si / 1000 Ang^3
#
#
#
# Elastic Constant Matrix: (Units=GPa)
#
#
# Indices 1 2 3 4 5 6 
#
# 1 56.9217 19.0201 16.7464 0.0002 -5.3736 -0.0004
# 2 19.0201 76.4871 13.3196 0.0005 -6.1019 0.0011
# 3 16.7464 13.3196 117.9743 -0.0047 -5.9882 0.0023
# 4 0.0002 0.0005 -0.0047 18.7978 0.0005 3.2885
# 5 -5.3736 -6.1019 -5.9882 0.0005 21.0220 0.0019
# 6 -0.0004 0.0011 0.0023 3.2885 0.0019 13.3743
#
#
#
# Elastic Compliance Matrix: (Units=1/GPa)
#
#
# Indices 1 2 3 4 5 6 
#
# 1 0.019960 -0.004326 -0.002181 -0.000001 0.003225 0.000001
# 2 -0.004326 0.014532 -0.000881 0.000000 0.002861 -0.000002
# 3 -0.002181 -0.000881 0.008974 0.000003 0.001743 -0.000002
# 4 -0.000001 0.000000 0.000003 0.055589 0.000000 -0.013668
# 5 0.003225 0.002861 0.001743 0.000000 0.049721 -0.000008
# 6 0.000001 -0.000002 -0.000002 -0.013668 -0.000008 0.078131
#
#
# Mechanical properties :
#
#
# Convention : Reuss Voigt Hill
#
# Bulk Modulus (GPa) = 34.85793 38.83950 36.84872
# Shear Modulus (GPa) = 19.90085 24.12529 22.01307
#
# Velocity S-wave (km/s) = 3.21923 3.54448 3.38577
# Velocity P-wave (km/s) = 5.65424 6.08087 5.87143
#
# Compressibility (1/GPa) = 0.02868788
#
# Stress axis : x y z
#
# Youngs Moduli (GPa) = 50.10082 68.81534 111.43300
#
# Poissons Ratio (x) = 0.29772 0.24305
# Poissons Ratio (y) = 0.21675 0.09821
# Poissons Ratio (z) = 0.10928 0.06065
#
# Static dielectric constant tensor:
#      x y z
#    x 3.498960 0.000010 0.031150 
#    y 0.000010 3.249760 0.000000 
#    z 0.031150 0.000000 3.820350 
# 
# 
# High freq. dielectric constant tensor:
#      x y z
#    x 1.738950 0.000000 -0.004390 
#    y 0.000000 1.725250 0.000000 
#    z -0.004390 0.000000 1.766090 
# 
# From -- ./inp_files/358222.got.cif
#   From: 2010.06.25/outbox.cif.g09.slc.cpg/sg12_180_cif.got.tgz:358222.got - 2010.06.28 00:19:55.
