data_PCOD8091679
_publ_section_title
;
Structure prediction by ZEFSAII (Michael W. Deem and Ramdas Pophale) SiO2 
 PCOD8091679
Probable space group: C 2/M
;
_chemical_formula_sum "Si O2"
_cell_formula_units_Z 56
_cell_length_a 20.509685
_cell_length_b 13.178453
_cell_length_c 9.915932
_cell_angle_alpha 90.000000
_cell_angle_beta 84.061534
_cell_angle_gamma 90.000000
_cell_volume 2665.754068
_symmetry_space_group_name_H-M "C 2/M"
_symmetry_group_IT_number 12
_symmetry_cell_setting 'monoclinic'
loop_
_space_group_symop_operation_xyz
x,y,z
-x,y,-z
-x,-y,-z
x,-y,z
1/2+x,1/2+y,z
1/2-x,1/2+y,-z
1/2-x,1/2-y,-z
1/2+x,1/2-y,z
loop_
_atom_site_type_symbol
_atom_site_label
_atom_site_fract_x
_atom_site_fract_y
_atom_site_fract_z
Si Si1 0.224953 0.617034 0.018762
Si Si2 0.460121 0.117935 0.383796
Si Si3 0.737069 0.314610 0.688983
Si Si4 0.486793 0.243810 0.843756
Si Si5 0.400343 0.614736 0.226173
Si Si6 0.144243 0.199004 0.038549
Si Si7 0.189860 0.618009 0.582848
O O1 0.203926 0.500000 0.013284
O O2 0.238853 0.653588 0.168520
O O3 0.291579 0.639582 0.918925
O O4 0.166495 0.688912 0.976222
O O5 0.500000 0.168762 0.500000
O O6 0.500344 0.138675 0.236577
O O7 0.385202 0.156211 0.391020
O O8 0.456991 0.000000 0.409406
O O9 0.664049 0.357089 0.674673
O O10 0.786950 0.367614 0.575800
O O11 0.733566 0.191863 0.669599
O O12 0.535329 0.320007 0.753913
O O13 0.500000 0.230200 0.000000
O O14 0.412035 0.282924 0.837499
O O15 0.419875 0.500000 0.250407
O O16 0.385980 0.630675 0.071602
O O17 0.198360 0.500000 0.626299
#
# Coordination Sequence:
#
# PCOD8091679 Si02
#       7
#     8   8   8   8   8   8   8
#     4  10  20  36  56  81 114 148 190 240 294 349
#     4  10  22  39  59  87 120 155 194 235 292 354
#     4  10  19  34  57  82 109 148 196 239 285 346
#     4  10  21  37  59  88 117 151 195 241 292 343
#     4  10  19  36  59  83 112 149 195 241 289 347
#     4   9  20  34  53  83 113 143 188 236 287 343
#     4  10  20  35  56  83 113 149 193 242 290 340
#
# _framework density 21.007189
#
# number of rings (size 3 to 8) (size 9 to 14) (size 15 to 20)
#    0.000    2.143    1.429    2.571    2.000    4.000 
#    0.000    9.286    0.000    0.429    0.000    0.000 
#    0.000    0.000    0.000    0.000    0.000    0.000 
#
# Total GULP energy -346944.837882 kJ/mol
# GULP energy per Si atom -12390.887067 kJ/mol
# Density = 2.095938 g / cm^3
# Si number density = 21.007189 Si / 1000 Ang^3
#
#
#
# Elastic Constant Matrix: (Units=GPa)
#
#
# Indices 1 2 3 4 5 6 
#
# 1 63.7253 1.5047 26.6767 0.0000 -26.5830 0.0000
# 2 1.5047 78.7515 -0.0620 0.0000 3.3118 0.0000
# 3 26.6767 -0.0620 69.1618 0.0000 -21.8621 0.0000
# 4 0.0000 0.0000 0.0000 26.6961 0.0000 -4.1713
# 5 -26.5830 3.3118 -21.8621 0.0000 36.0433 0.0000
# 6 0.0000 0.0000 0.0000 -4.1713 0.0000 18.8653
#
#
#
# Elastic Compliance Matrix: (Units=1/GPa)
#
#
# Indices 1 2 3 4 5 6 
#
# 1 0.023830 -0.001088 -0.004461 0.000000 0.014970 0.000000
# 2 -0.001088 0.012808 -0.000241 0.000000 -0.002126 0.000000
# 3 -0.004461 -0.000241 0.018739 0.000000 0.008098 0.000000
# 4 0.000000 0.000000 0.000000 0.038799 0.000000 0.008579
# 5 0.014970 -0.002126 0.008098 0.000000 0.043892 0.000000
# 6 0.000000 0.000000 0.000000 0.008579 0.000000 0.054904
#
#
# Mechanical properties :
#
#
# Convention : Reuss Voigt Hill
#
# Bulk Modulus (GPa) = 22.83204 29.76414 26.29809
# Shear Modulus (GPa) = 22.81528 28.55556 25.68542
#
# Velocity S-wave (km/s) = 3.29913 3.69090 3.50050
# Velocity P-wave (km/s) = 5.04030 5.68885 5.37437
#
# Compressibility (1/GPa) = 0.04379809
#
# Stress axis : x y z
#
# Youngs Moduli (GPa) = 41.96401 78.07518 53.36438
#
# Poissons Ratio (x) = 0.08497 0.23804
# Poissons Ratio (y) = 0.04567 0.01284
# Poissons Ratio (z) = 0.18718 0.01878
#
# Static dielectric constant tensor:
#      x y z
#    x 4.259340 0.000000 -0.317030 
#    y 0.000000 3.772710 0.000000 
#    z -0.317030 0.000000 3.544770 
# 
# 
# High freq. dielectric constant tensor:
#      x y z
#    x 1.825590 0.000000 -0.025160 
#    y 0.000000 1.820290 0.000000 
#    z -0.025160 0.000000 1.795190 
# 
# From -- ./inp_files/164831.got.cif
#   From: 2010.06.25/outbox.cif.g09.slc.cpg/sg12_83_cif.got.tgz:164831.got - 2010.06.28 00:19:55.
