data_PCOD8091208
_publ_section_title
;
Structure prediction by ZEFSAII (Michael W. Deem and Ramdas Pophale) SiO2 
 PCOD8091208
Probable space group: C 2/M
;
_chemical_formula_sum "Si O2"
_cell_formula_units_Z 64
_cell_length_a 8.221583
_cell_length_b 19.016641
_cell_length_c 22.484489
_cell_angle_alpha 90.000000
_cell_angle_beta 111.971417
_cell_angle_gamma 90.000000
_cell_volume 3260.060107
_symmetry_space_group_name_H-M "C 2/M"
_symmetry_group_IT_number 12
_symmetry_cell_setting 'monoclinic'
loop_
_space_group_symop_operation_xyz
x,y,z
-x,y,-z
-x,-y,-z
x,-y,z
1/2+x,1/2+y,z
1/2-x,1/2+y,-z
1/2-x,1/2-y,-z
1/2+x,1/2-y,z
loop_
_atom_site_type_symbol
_atom_site_label
_atom_site_fract_x
_atom_site_fract_y
_atom_site_fract_z
Si Si1 0.428596 0.830805 0.310561
Si Si2 0.207532 0.774824 0.381642
Si Si3 0.489010 0.420999 0.930900
Si Si4 0.275204 0.080491 0.691441
Si Si5 0.624762 0.921811 0.066277
Si Si6 0.618045 0.317953 0.181119
Si Si7 0.537420 0.648885 0.569570
Si Si8 0.758890 0.336551 0.811854
O O1 0.322298 0.827894 0.357637
O O2 0.544206 0.758462 0.321135
O O3 0.553482 0.898882 0.323793
O O4 0.291797 0.840053 0.239327
O O5 0.322019 0.710608 0.421493
O O6 0.141431 0.819176 0.428563
O O7 0.406054 0.500000 0.915770
O O8 0.681342 0.423116 0.931492
O O9 0.376766 0.364636 0.878166
O O10 0.500000 0.394595 0.000000
O O11 0.108119 0.090750 0.625467
O O12 0.258971 0.131990 0.745584
O O13 0.284499 0.000000 0.713758
O O14 0.621672 0.883935 0.129115
O O15 0.551080 0.000000 0.067573
O O16 0.500000 0.884201 0.000000
O O17 0.441651 0.331780 0.194211
O O18 0.636052 0.236001 0.170210
O O19 0.500000 0.614323 0.500000
#
# Coordination Sequence:
#
# PCOD8091208 Si02
#       8
#     8   8   8   8   8   8   8   8
#     4  10  19  34  55  80 110 140 178 226 276 331
#     4   9  18  34  57  86 114 141 177 227 283 331
#     4   9  20  37  54  76 108 144 182 223 269 329
#     4  11  24  39  55  78 111 150 189 230 278 334
#     4   9  19  36  56  76 103 143 186 226 271 324
#     4  11  21  35  58  84 109 141 180 227 281 329
#     4  10  19  34  59  86 114 147 185 229 276 331
#     4  11  22  37  57  83 113 142 182 232 281 333
#
# _framework density 19.631540999999999
#
# number of rings (size 3 to 8) (size 9 to 14) (size 15 to 20)
#    0.000    2.000    0.000    5.250    0.000    3.750 
#    0.000    5.625    0.000    0.750    0.000    0.000 
#    0.000    0.000    0.000    0.000    0.000    0.000 
#
# Total GULP energy -396713.370348 kJ/mol
# GULP energy per Si atom -12397.292823 kJ/mol
# Density = 1.958686 g / cm^3
# Si number density = 19.631541 Si / 1000 Ang^3
#
#
#
# Elastic Constant Matrix: (Units=GPa)
#
#
# Indices 1 2 3 4 5 6 
#
# 1 79.5401 26.7859 28.1455 0.0000 -8.2892 0.0000
# 2 26.7859 98.0850 48.8490 0.0000 -11.3056 0.0000
# 3 28.1455 48.8490 145.1653 0.0000 -10.2435 0.0000
# 4 0.0000 0.0000 0.0000 17.9965 0.0000 4.9416
# 5 -8.2892 -11.3056 -10.2435 0.0000 24.7226 0.0000
# 6 0.0000 0.0000 0.0000 4.9416 0.0000 15.8053
#
#
#
# Elastic Compliance Matrix: (Units=1/GPa)
#
#
# Indices 1 2 3 4 5 6 
#
# 1 0.014391 -0.002776 -0.001654 0.000000 0.002871 0.000000
# 2 -0.002776 0.013182 -0.003644 0.000000 0.003587 0.000000
# 3 -0.001654 -0.003644 0.008528 0.000000 0.001313 0.000000
# 4 0.000000 0.000000 0.000000 0.060785 0.000000 -0.019005
# 5 0.002871 0.003587 0.001313 0.000000 0.043596 0.000000
# 6 0.000000 0.000000 0.000000 -0.019005 0.000000 0.069212
#
#
# Mechanical properties :
#
#
# Convention : Reuss Voigt Hill
#
# Bulk Modulus (GPa) = 50.11559 58.92791 54.52175
# Shear Modulus (GPa) = 21.50608 26.30556 23.90582
#
# Velocity S-wave (km/s) = 3.31340 3.66452 3.49338
# Velocity P-wave (km/s) = 6.34206 6.92727 6.64111
#
# Compressibility (1/GPa) = 0.01995387
#
# Stress axis : x y z
#
# Youngs Moduli (GPa) = 69.48623 75.86243 117.25638
#
# Poissons Ratio (x) = 0.21057 0.19390
# Poissons Ratio (y) = 0.19287 0.42733
# Poissons Ratio (z) = 0.11491 0.27648
#
# Static dielectric constant tensor:
#      x y z
#    x 3.698360 0.000000 0.004500 
#    y 0.000000 3.555790 0.000000 
#    z 0.004500 0.000000 3.720350 
# 
# 
# High freq. dielectric constant tensor:
#      x y z
#    x 1.772050 0.000000 -0.000020 
#    y 0.000000 1.739610 0.000000 
#    z -0.000020 0.000000 1.769750 
# 
# From -- ./inp_files/301748.got.cif
#   From: 2010.06.25/outbox.cif.g09.slc.cpg/sg12_151_cif.got.tgz:301748.got - 2010.06.28 00:19:55.
