data_PCOD8091984
_publ_section_title
;
Structure prediction by ZEFSAII (Michael W. Deem and Ramdas Pophale) SiO2 
 PCOD8091984
Probable space group: C 2/M
;
_chemical_formula_sum "Si O2"
_cell_formula_units_Z 56
_cell_length_a 24.348547
_cell_length_b 8.644620
_cell_length_c 13.888968
_cell_angle_alpha 90.000000
_cell_angle_beta 83.594512
_cell_angle_gamma 90.000000
_cell_volume 2905.154536
_symmetry_space_group_name_H-M "C 2/M"
_symmetry_group_IT_number 12
_symmetry_cell_setting 'monoclinic'
loop_
_space_group_symop_operation_xyz
x,y,z
-x,y,-z
-x,-y,-z
x,-y,z
1/2+x,1/2+y,z
1/2-x,1/2+y,-z
1/2-x,1/2-y,-z
1/2+x,1/2-y,z
loop_
_atom_site_type_symbol
_atom_site_label
_atom_site_fract_x
_atom_site_fract_y
_atom_site_fract_z
Si Si1 0.721305 0.181324 0.718354
Si Si2 0.625972 0.681926 0.853418
Si Si3 0.844499 0.819903 0.441219
Si Si4 0.166324 0.317372 0.348189
Si Si5 0.450339 0.321908 0.306663
Si Si6 0.941296 0.316670 0.968750
Si Si7 0.062551 0.318357 0.247534
O O1 0.682361 0.231994 0.814085
O O2 0.694794 0.222458 0.620721
O O3 0.778626 0.272841 0.720350
O O4 0.732613 0.000000 0.721049
O O5 0.637040 0.500000 0.847325
O O6 0.578471 0.730594 0.787097
O O7 0.607768 0.735915 0.962387
O O8 0.833065 0.771139 0.551357
O O9 0.908642 0.787744 0.402852
O O10 0.830384 0.000000 0.428368
O O11 0.162888 0.500000 0.366730
O O12 0.114443 0.254198 0.297077
O O13 0.467156 0.500000 0.298852
O O14 0.506030 0.226139 0.312644
O O15 0.933834 0.500000 0.976761
O O16 0.936801 0.251841 0.861119
O O17 0.000000 0.264200 0.000000
O O18 0.066471 0.500000 0.240468
#
# Coordination Sequence:
#
# PCOD8091984 Si02
#       7
#     8   8   8   8   8   8   8
#     4  11  22  38  61  85 110 145 188 234 280 329
#     4  10  20  35  57  87 116 145 183 232 282 330
#     4  10  21  38  59  85 113 146 188 232 279 330
#     4  11  23  39  56  79 113 152 190 231 278 331
#     4   9  19  34  54  81 113 145 181 227 278 332
#     4  10  19  34  58  86 114 146 187 232 277 331
#     4  10  22  37  55  81 115 151 187 229 279 333
#
# _framework density 19.276083
#
# number of rings (size 3 to 8) (size 9 to 14) (size 15 to 20)
#    0.000    1.857    1.429    3.857    0.000    5.429 
#    0.000    3.571    0.000    0.000    0.000    0.000 
#    0.000    0.000    0.000    0.000    0.000    0.000 
#
# Total GULP energy -347309.484878 kJ/mol
# GULP energy per Si atom -12403.910174 kJ/mol
# Density = 1.923221 g / cm^3
# Si number density = 19.276083 Si / 1000 Ang^3
#
#
#
# Elastic Constant Matrix: (Units=GPa)
#
#
# Indices 1 2 3 4 5 6 
#
# 1 114.1698 13.3413 23.1653 0.0000 -11.2834 0.0000
# 2 13.3413 37.0937 11.9425 0.0000 -2.0463 0.0000
# 3 23.1653 11.9425 44.7866 0.0000 -16.1177 0.0000
# 4 0.0000 0.0000 0.0000 24.7463 0.0000 -9.6324
# 5 -11.2834 -2.0463 -16.1177 0.0000 25.6137 0.0000
# 6 0.0000 0.0000 0.0000 -9.6324 0.0000 30.8875
#
#
#
# Elastic Compliance Matrix: (Units=1/GPa)
#
#
# Indices 1 2 3 4 5 6 
#
# 1 0.009992 -0.002227 -0.003949 0.000000 0.001739 0.000000
# 2 -0.002227 0.030211 -0.008259 0.000000 -0.003764 0.000000
# 3 -0.003949 -0.008259 0.033236 0.000000 0.018515 0.000000
# 4 0.000000 0.000000 0.000000 0.045993 0.000000 0.014343
# 5 0.001739 -0.003764 0.018515 0.000000 0.051158 0.000000
# 6 0.000000 0.000000 0.000000 0.014343 0.000000 0.036849
#
#
# Mechanical properties :
#
#
# Convention : Reuss Voigt Hill
#
# Bulk Modulus (GPa) = 22.43633 32.54983 27.49308
# Shear Modulus (GPa) = 19.90736 26.08957 22.99846
#
# Velocity S-wave (km/s) = 3.21713 3.68294 3.45789
# Velocity P-wave (km/s) = 5.04625 5.91677 5.49876
#
# Compressibility (1/GPa) = 0.04457057
#
# Stress axis : x y z
#
# Youngs Moduli (GPa) = 100.07854 33.10063 30.08797
#
# Poissons Ratio (x) = 0.07370 0.11881
# Poissons Ratio (y) = 0.22283 0.24849
# Poissons Ratio (z) = 0.39518 0.27337
#
# Static dielectric constant tensor:
#      x y z
#    x 3.623050 0.000000 -0.064270 
#    y 0.000000 3.387980 0.000000 
#    z -0.064270 0.000000 3.526170 
# 
# 
# High freq. dielectric constant tensor:
#      x y z
#    x 1.751130 0.000000 -0.018790 
#    y 0.000000 1.749420 0.000000 
#    z -0.018790 0.000000 1.740670 
# 
# From -- ./inp_files/230886.got.cif
#   From: 2010.06.25/outbox.cif.g09.slc.cpg/sg12_116_cif.got.tgz:230886.got - 2010.06.28 00:19:55.
