data_PCOD8091230
_publ_section_title
;
Structure prediction by ZEFSAII (Michael W. Deem and Ramdas Pophale) SiO2 
 PCOD8091230
Probable space group: C 2/M
;
_chemical_formula_sum "Si O2"
_cell_formula_units_Z 44
_cell_length_a 22.005186
_cell_length_b 10.299564
_cell_length_c 11.305542
_cell_angle_alpha 90.000000
_cell_angle_beta 103.448817
_cell_angle_gamma 90.000000
_cell_volume 2492.067180
_symmetry_space_group_name_H-M "C 2/M"
_symmetry_group_IT_number 12
_symmetry_cell_setting 'monoclinic'
loop_
_space_group_symop_operation_xyz
x,y,z
-x,y,-z
-x,-y,-z
x,-y,z
1/2+x,1/2+y,z
1/2-x,1/2+y,-z
1/2-x,1/2-y,-z
1/2+x,1/2-y,z
loop_
_atom_site_type_symbol
_atom_site_label
_atom_site_fract_x
_atom_site_fract_y
_atom_site_fract_z
Si Si1 0.896016 0.000000 0.185575
Si Si2 0.725832 0.356254 0.294523
Si Si3 0.883236 0.771685 0.600367
Si Si4 0.359480 0.500000 0.901844
Si Si5 0.924569 0.500000 0.334070
Si Si6 0.643257 0.744333 0.681691
Si Si7 0.543871 0.500000 0.248920
Si Si8 0.564509 0.000000 0.380747
O O1 0.872212 0.874213 0.241591
O O2 0.864783 0.000000 0.043382
O O3 0.970031 0.000000 0.206906
O O4 0.751892 0.500000 0.343350
O O5 0.686611 0.300107 0.386599
O O6 0.679263 0.372529 0.160451
O O7 0.782018 0.260303 0.290127
O O8 0.884941 0.782775 0.459886
O O9 0.901912 0.628302 0.654090
O O10 0.933757 0.873266 0.670680
O O11 0.427363 0.500000 0.870023
O O12 0.887329 0.372672 0.274840
O O13 0.930897 0.500000 0.476951
O O14 0.992742 0.500000 0.305362
#
# Coordination Sequence:
#
# PCOD8091230 Si02
#       8
#     4   8   8   4   4   8   4   4
#     4  12  24  32  56  89 104 136 194 239 256 302
#     4   9  19  38  57  70 106 151 178 212 276 325
#     4  10  19  34  55  81 108 146 174 217 269 329
#     4   8  20  40  58  74 101 149 193 220 268 317
#     4   9  17  34  45  68 112 150 156 198 276 335
#     4  11  21  33  54  83 112 136 178 219 275 326
#     4  10  20  39  57  75 115 149 172 219 279 328
#     4   9  18  27  50  76 104 135 178 207 250 321
#
# _framework density 17.656025
#
# number of rings (size 3 to 8) (size 9 to 14) (size 15 to 20)
#    0.545    1.636    1.818    2.455    0.000    4.364 
#    0.000    0.000    0.000    4.364    0.000   11.455 
#    0.000    0.000    0.000    0.000    0.000    0.000 
#
# Total GULP energy -272751.604550 kJ/mol
# GULP energy per Si atom -12397.800207 kJ/mol
# Density = 1.761584 g / cm^3
# Si number density = 17.656025 Si / 1000 Ang^3
#
#
#
# Elastic Constant Matrix: (Units=GPa)
#
#
# Indices 1 2 3 4 5 6 
#
# 1 71.6141 24.4184 13.5165 0.0000 -6.9413 0.0000
# 2 24.4184 126.9105 41.4789 0.0000 -5.6790 0.0000
# 3 13.5165 41.4789 78.0058 0.0000 -0.6401 0.0000
# 4 0.0000 0.0000 0.0000 39.5210 0.0000 -21.0662
# 5 -6.9413 -5.6790 -0.6401 0.0000 16.8325 0.0000
# 6 0.0000 0.0000 0.0000 -21.0662 0.0000 43.2239
#
#
#
# Elastic Compliance Matrix: (Units=1/GPa)
#
#
# Indices 1 2 3 4 5 6 
#
# 1 0.015552 -0.002271 -0.001441 0.000000 0.005592 0.000000
# 2 -0.002271 0.010025 -0.004919 0.000000 0.002259 0.000000
# 3 -0.001441 -0.004919 0.015671 0.000000 -0.001658 0.000000
# 4 0.000000 0.000000 0.000000 0.034184 0.000000 0.016660
# 5 0.005592 0.002259 -0.001658 0.000000 0.062414 0.000000
# 6 0.000000 0.000000 0.000000 0.016660 0.000000 0.031255
#
#
# Mechanical properties :
#
#
# Convention : Reuss Voigt Hill
#
# Bulk Modulus (GPa) = 41.69037 48.37312 45.03175
# Shear Modulus (GPa) = 25.72559 33.05657 29.39108
#
# Velocity S-wave (km/s) = 3.82126 4.33165 4.08444
# Velocity P-wave (km/s) = 6.56759 7.24393 6.91404
#
# Compressibility (1/GPa) = 0.02398635
#
# Stress axis : x y z
#
# Youngs Moduli (GPa) = 64.29973 99.74819 63.81119
#
# Poissons Ratio (x) = 0.22653 0.09197
# Poissons Ratio (y) = 0.14603 0.31387
# Poissons Ratio (z) = 0.09268 0.49064
#
# Static dielectric constant tensor:
#      x y z
#    x 3.334420 0.000000 -0.052670 
#    y 0.000000 3.396830 0.000000 
#    z -0.052670 0.000000 2.902440 
# 
# 
# High freq. dielectric constant tensor:
#      x y z
#    x 1.696110 0.000000 -0.005860 
#    y 0.000000 1.687560 0.000000 
#    z -0.005860 0.000000 1.644230 
# 
# From -- ./inp_files/84139.got.cif
#   From: 2010.06.25/outbox.cif.g09.slc.cpg/sg12_43_cif.got.tgz:84139.got - 2010.06.28 00:19:55.
