data_PCOD8091686
_publ_section_title
;
Structure prediction by ZEFSAII (Michael W. Deem and Ramdas Pophale) SiO2 
 PCOD8091686
Probable space group: C 2/M
;
_chemical_formula_sum "Si O2"
_cell_formula_units_Z 56
_cell_length_a 19.058297
_cell_length_b 8.576891
_cell_length_c 20.743294
_cell_angle_alpha 90.000000
_cell_angle_beta 120.066674
_cell_angle_gamma 90.000000
_cell_volume 2934.473300
_symmetry_space_group_name_H-M "C 2/M"
_symmetry_group_IT_number 12
_symmetry_cell_setting 'monoclinic'
loop_
_space_group_symop_operation_xyz
x,y,z
-x,y,-z
-x,-y,-z
x,-y,z
1/2+x,1/2+y,z
1/2-x,1/2+y,-z
1/2-x,1/2-y,-z
1/2+x,1/2-y,z
loop_
_atom_site_type_symbol
_atom_site_label
_atom_site_fract_x
_atom_site_fract_y
_atom_site_fract_z
Si Si1 0.005835 0.679460 0.302122
Si Si2 0.040991 0.679214 0.581191
Si Si3 0.344438 0.676404 0.193474
Si Si4 0.288352 0.818875 0.288987
Si Si5 0.892988 0.181429 0.762740
Si Si6 0.833005 0.323474 0.057552
Si Si7 0.998009 0.314283 0.074090
O O1 0.981275 0.500000 0.275371
O O2 0.078241 0.727086 0.287914
O O3 0.020969 0.696568 0.386209
O O4 0.935396 0.804255 0.259435
O O5 0.054261 0.500000 0.569899
O O6 0.132552 0.745285 0.635791
O O7 0.000000 0.763198 0.500000
O O8 0.328704 0.500000 0.162161
O O9 0.280910 0.720359 0.219730
O O10 0.336517 0.804268 0.134912
O O11 0.203641 0.792009 0.285818
O O12 0.302017 0.000000 0.277854
O O13 0.931134 0.243346 0.847842
O O14 0.915168 0.000000 0.767594
O O15 0.831379 0.500000 0.034812
O O16 0.912450 0.247750 0.061251
O O17 0.750000 0.250000 0.000000
O O18 0.005101 0.500000 0.083170
O O19 0.000000 0.260911 0.000000
#
# Coordination Sequence:
#
# PCOD8091686 Si02
#       7
#     8   8   8   8   8   8   8
#     4  10  19  34  57  82 110 145 185 228 275 330
#     4   8  15  32  59  85 110 145 188 229 273 330
#     4  11  21  35  56  80 106 142 187 231 278 331
#     4   9  20  36  55  83 114 145 186 231 277 329
#     4  11  22  36  56  82 113 149 188 231 279 334
#     4  11  23  38  56  79 110 143 182 234 284 331
#     4  10  23  41  58  78 108 147 189 233 283 331
#
# _framework density 19.083492
#
# number of rings (size 3 to 8) (size 9 to 14) (size 15 to 20)
#    0.000    2.000    1.429    3.429    2.000    2.000 
#    0.000    0.714    0.000   10.714    0.000    0.000 
#    0.000    0.000    0.000    0.000    0.000    0.000 
#
# Total GULP energy -346891.076125 kJ/mol
# GULP energy per Si atom -12388.967004 kJ/mol
# Density = 1.904006 g / cm^3
# Si number density = 19.083492 Si / 1000 Ang^3
#
#
#
# Elastic Constant Matrix: (Units=GPa)
#
#
# Indices 1 2 3 4 5 6 
#
# 1 122.2578 30.5971 64.7033 0.0000 -0.9015 0.0000
# 2 30.5971 54.7080 21.5624 0.0000 -1.3474 0.0000
# 3 64.7033 21.5624 123.8660 0.0000 -11.2761 0.0000
# 4 0.0000 0.0000 0.0000 15.2093 0.0000 -0.2379
# 5 -0.9015 -1.3474 -11.2761 0.0000 26.6929 0.0000
# 6 0.0000 0.0000 0.0000 -0.2379 0.0000 26.2226
#
#
#
# Elastic Compliance Matrix: (Units=1/GPa)
#
#
# Indices 1 2 3 4 5 6 
#
# 1 0.012462 -0.004701 -0.005902 0.000000 -0.002310 0.000000
# 2 -0.004701 0.021404 -0.001234 0.000000 0.000400 0.000000
# 3 -0.005902 -0.001234 0.011801 0.000000 0.004724 0.000000
# 4 0.000000 0.000000 0.000000 0.065758 0.000000 0.000597
# 5 -0.002310 0.000400 0.004724 0.000000 0.039401 0.000000
# 6 0.000000 0.000000 0.000000 0.000597 0.000000 0.038140
#
#
# Mechanical properties :
#
#
# Convention : Reuss Voigt Hill
#
# Bulk Modulus (GPa) = 45.46647 59.39525 52.43086
# Shear Modulus (GPa) = 22.73020 25.88957 24.30989
#
# Velocity S-wave (km/s) = 3.45496 3.68727 3.57300
# Velocity P-wave (km/s) = 6.30813 7.02277 6.67502
#
# Compressibility (1/GPa) = 0.02199423
#
# Stress axis : x y z
#
# Youngs Moduli (GPa) = 80.24206 46.71997 84.73870
#
# Poissons Ratio (x) = 0.21962 0.50011
# Poissons Ratio (y) = 0.37719 0.10457
# Poissons Ratio (z) = 0.47357 0.05766
#
# Static dielectric constant tensor:
#      x y z
#    x 3.784530 0.000000 0.045180 
#    y 0.000000 3.373250 0.000000 
#    z 0.045180 0.000000 3.533540 
# 
# 
# High freq. dielectric constant tensor:
#      x y z
#    x 1.746070 0.000000 -0.008160 
#    y 0.000000 1.728250 0.000000 
#    z -0.008160 0.000000 1.731570 
# 
# From -- ./inp_files/313708.got.cif
#   From: 2010.06.25/outbox.cif.g09.slc.cpg/sg12_157_cif.got.tgz:313708.got - 2010.06.28 00:19:55.
