data_PCOD8091030
_publ_section_title
;
Structure prediction by ZEFSAII (Michael W. Deem and Ramdas Pophale) SiO2 
 PCOD8091030
Probable space group: C 2/M
;
_chemical_formula_sum "Si O2"
_cell_formula_units_Z 60
_cell_length_a 9.132026
_cell_length_b 18.670788
_cell_length_c 23.789356
_cell_angle_alpha 90.000000
_cell_angle_beta 53.191541
_cell_angle_gamma 90.000000
_cell_volume 3247.516320
_symmetry_space_group_name_H-M "C 2/M"
_symmetry_group_IT_number 12
_symmetry_cell_setting 'monoclinic'
loop_
_space_group_symop_operation_xyz
x,y,z
-x,y,-z
-x,-y,-z
x,-y,z
1/2+x,1/2+y,z
1/2-x,1/2+y,-z
1/2-x,1/2-y,-z
1/2+x,1/2-y,z
loop_
_atom_site_type_symbol
_atom_site_label
_atom_site_fract_x
_atom_site_fract_y
_atom_site_fract_z
Si Si1 0.500000 0.265153 0.500000
Si Si2 0.399285 0.582063 0.210467
Si Si3 0.382600 0.794349 0.726488
Si Si4 0.950467 0.080618 0.701897
Si Si5 0.614836 0.829844 0.778522
Si Si6 0.223294 0.684992 0.079003
Si Si7 0.565430 0.332101 0.075228
Si Si8 0.393529 0.701639 0.405916
O O1 0.526360 0.313301 0.549888
O O2 0.678290 0.215473 0.455319
O O3 0.338938 0.500000 0.214327
O O4 0.215607 0.629209 0.258864
O O5 0.516605 0.590508 0.239635
O O6 0.530367 0.605825 0.128736
O O7 0.533194 0.798956 0.740016
O O8 0.231907 0.735066 0.778628
O O9 0.490437 0.768634 0.645886
O O10 0.741091 0.101845 0.737328
O O11 0.085429 0.130662 0.635790
O O12 0.984550 0.000000 0.674034
O O13 0.455351 0.856270 0.857298
O O14 0.371083 0.690487 0.094416
O O15 0.167175 0.766327 0.080527
O O16 0.301502 0.642844 0.006596
#
# Coordination Sequence:
#
# PCOD8091030 Si02
#       8
#     4   8   8   8   8   8   8   8
#     4  10  20  36  60  90 112 140 178 220 270 324
#     4  11  22  37  54  78 114 152 192 238 285 333
#     4  11  20  34  59  86 110 145 185 230 281 325
#     4  10  23  39  57  82 116 151 186 231 281 325
#     4  11  19  33  58  83 109 144 191 239 279 331
#     4  10  19  34  54  80 108 142 188 238 286 338
#     4  10  21  34  52  82 108 143 189 237 292 333
#     4  10  20  36  60  86 115 142 179 225 268 328
#
# _framework density 18.475657999999999
#
# number of rings (size 3 to 8) (size 9 to 14) (size 15 to 20)
#    0.000    1.600    2.667    4.000    1.867    0.533 
#    0.000    2.667    0.000    4.800    0.000    0.000 
#    0.000    0.000    0.000    0.000    0.000    0.000 
#
# Total GULP energy -371938.311111 kJ/mol
# GULP energy per Si atom -12397.943704 kJ/mol
# Density = 1.843361 g / cm^3
# Si number density = 18.475658 Si / 1000 Ang^3
#
#
#
# Elastic Constant Matrix: (Units=GPa)
#
#
# Indices 1 2 3 4 5 6 
#
# 1 101.7893 34.7316 44.4279 -0.0019 3.1119 0.0014
# 2 34.7316 106.3863 48.1622 -0.0010 4.7790 0.0009
# 3 44.4279 48.1622 123.8312 -0.0032 -2.2713 0.0023
# 4 -0.0019 -0.0010 -0.0032 17.9349 0.0018 3.9826
# 5 3.1119 4.7790 -2.2713 0.0018 37.2004 -0.0013
# 6 0.0014 0.0009 0.0023 3.9826 -0.0013 17.5205
#
#
#
# Elastic Compliance Matrix: (Units=1/GPa)
#
#
# Indices 1 2 3 4 5 6 
#
# 1 0.012171 -0.002363 -0.003464 0.000001 -0.000926 -0.000001
# 2 -0.002363 0.011981 -0.003841 0.000000 -0.001576 0.000000
# 3 -0.003464 -0.003841 0.010839 0.000001 0.001445 -0.000001
# 4 0.000001 0.000000 0.000001 0.058721 -0.000003 -0.013348
# 5 -0.000926 -0.001576 0.001445 -0.000003 0.027250 0.000003
# 6 -0.000001 0.000000 -0.000001 -0.013348 0.000003 0.060110
#
#
# Mechanical properties :
#
#
# Convention : Reuss Voigt Hill
#
# Bulk Modulus (GPa) = 63.88381 65.18336 64.53358
# Shear Modulus (GPa) = 24.31592 28.17685 26.24638
#
# Velocity S-wave (km/s) = 3.63175 3.90946 3.77316
# Velocity P-wave (km/s) = 7.22762 7.46564 7.34760
#
# Compressibility (1/GPa) = 0.01565342
#
# Stress axis : x y z
#
# Youngs Moduli (GPa) = 82.16182 83.46680 92.26134
#
# Poissons Ratio (x) = 0.19727 0.31964
# Poissons Ratio (y) = 0.19419 0.35435
# Poissons Ratio (z) = 0.28465 0.32057
#
# Static dielectric constant tensor:
#      x y z
#    x 3.562690 0.000000 0.002360 
#    y 0.000000 3.117710 0.000000 
#    z 0.002360 0.000000 3.747930 
# 
# 
# High freq. dielectric constant tensor:
#      x y z
#    x 1.733480 0.000000 0.001840 
#    y 0.000000 1.675340 0.000000 
#    z 0.001840 0.000000 1.730490 
# 
# From -- ./inp_files/333349.got.cif
#   From: 2010.06.25/outbox.cif.g09.slc.cpg/sg12_167_cif.got.tgz:333349.got - 2010.06.28 00:19:55.
