data_PCOD8091342
_publ_section_title
;
Structure prediction by ZEFSAII (Michael W. Deem and Ramdas Pophale) SiO2 
 PCOD8091342
Probable space group: C 2/M
;
_chemical_formula_sum "Si O2"
_cell_formula_units_Z 64
_cell_length_a 22.985855
_cell_length_b 9.163598
_cell_length_c 20.923143
_cell_angle_alpha 90.000000
_cell_angle_beta 51.977198
_cell_angle_gamma 90.000000
_cell_volume 3471.767786
_symmetry_space_group_name_H-M "C 2/M"
_symmetry_group_IT_number 12
_symmetry_cell_setting 'monoclinic'
loop_
_space_group_symop_operation_xyz
x,y,z
-x,y,-z
-x,-y,-z
x,-y,z
1/2+x,1/2+y,z
1/2-x,1/2+y,-z
1/2-x,1/2-y,-z
1/2+x,1/2-y,z
loop_
_atom_site_type_symbol
_atom_site_label
_atom_site_fract_x
_atom_site_fract_y
_atom_site_fract_z
Si Si1 0.515995 0.170436 0.305607
Si Si2 0.955252 0.327865 0.093365
Si Si3 0.342628 0.673749 0.759378
Si Si4 0.688966 0.663759 0.077666
Si Si5 0.237203 0.671778 0.606284
Si Si6 0.524196 0.331596 0.166849
Si Si7 0.707431 0.172244 0.767051
Si Si8 0.145903 0.667471 0.546322
O O1 0.579945 0.243994 0.305628
O O2 0.505060 0.248672 0.245054
O O3 0.441495 0.192140 0.396585
O O4 0.532599 0.000000 0.282333
O O5 0.965168 0.500000 0.098401
O O6 0.868649 0.284385 0.145413
O O7 0.984560 0.243886 0.134780
O O8 0.000000 0.278011 0.000000
O O9 0.355729 0.500000 0.746033
O O10 0.317983 0.724079 0.846208
O O11 0.279351 0.733644 0.754948
O O12 0.717660 0.500000 0.061164
O O13 0.611362 0.677648 0.093802
O O14 0.750000 0.750000 0.000000
O O15 0.248127 0.500000 0.602450
O O16 0.208532 0.732780 0.693809
O O17 0.177030 0.718723 0.594286
O O18 0.316746 0.740214 0.535498
O O19 0.499050 0.500000 0.190392
O O20 0.714042 0.000000 0.762102
O O21 0.167108 0.500000 0.520709
#
# Coordination Sequence:
#
# PCOD8091342 Si02
#       8
#     8   8   8   8   8   8   8   8
#     4  10  19  34  56  79 104 136 176 220 263 312
#     4  10  21  35  56  81 104 139 181 217 260 318
#     4   9  19  35  53  74 104 139 175 218 265 312
#     4   9  19  32  50  73  97 130 170 216 264 305
#     4   9  17  31  53  78 103 137 174 210 258 315
#     4  10  21  36  52  75 107 137 170 217 267 312
#     4   9  18  35  55  76 107 141 176 218 262 313
#     4   9  18  32  52  79 109 133 166 220 267 307
#
# _framework density 18.434411999999998
#
# number of rings (size 3 to 8) (size 9 to 14) (size 15 to 20)
#    0.000    2.625    0.000    2.250    1.750    5.750 
#    0.000    5.000    0.000    3.750    0.000    0.000 
#    0.000    0.000    0.000    0.000    0.000    0.000 
#
# Total GULP energy -396733.037562 kJ/mol
# GULP energy per Si atom -12397.907424 kJ/mol
# Density = 1.839245 g / cm^3
# Si number density = 18.434412 Si / 1000 Ang^3
#
#
#
# Elastic Constant Matrix: (Units=GPa)
#
#
# Indices 1 2 3 4 5 6 
#
# 1 113.3280 29.0254 52.3187 -0.0001 -7.3042 0.0004
# 2 29.0254 50.5433 32.2104 -0.0002 -8.0108 0.0007
# 3 52.3187 32.2104 108.5452 0.0001 -17.5520 -0.0001
# 4 -0.0001 -0.0002 0.0001 29.1954 -0.0001 -4.2803
# 5 -7.3042 -8.0108 -17.5520 -0.0001 24.6137 -0.0001
# 6 0.0004 0.0007 -0.0001 -4.2803 -0.0001 29.3736
#
#
#
# Elastic Compliance Matrix: (Units=1/GPa)
#
#
# Indices 1 2 3 4 5 6 
#
# 1 0.011981 -0.004025 -0.004767 0.000000 -0.001154 0.000000
# 2 -0.004025 0.025968 -0.005191 0.000000 0.003556 -0.000001
# 3 -0.004767 -0.005191 0.014184 0.000000 0.007011 0.000000
# 4 0.000000 0.000000 0.000000 0.035000 0.000000 0.005100
# 5 -0.001154 0.003556 0.007011 0.000000 0.046442 0.000000
# 6 0.000000 -0.000001 0.000000 0.005100 0.000000 0.034787
#
#
# Mechanical properties :
#
#
# Convention : Reuss Voigt Hill
#
# Bulk Modulus (GPa) = 41.37791 55.50284 48.44037
# Shear Modulus (GPa) = 24.46361 27.22736 25.84548
#
# Velocity S-wave (km/s) = 3.64684 3.84733 3.74842
# Velocity P-wave (km/s) = 6.34250 7.06467 6.71330
#
# Compressibility (1/GPa) = 0.02416748
#
# Stress axis : x y z
#
# Youngs Moduli (GPa) = 83.46345 38.50869 70.49952
#
# Poissons Ratio (x) = 0.15501 0.33608
# Poissons Ratio (y) = 0.33597 0.36595
# Poissons Ratio (z) = 0.39788 0.19989
#
# Static dielectric constant tensor:
#      x y z
#    x 3.478170 0.000000 0.181150 
#    y 0.000000 3.302450 -0.000010 
#    z 0.181150 -0.000010 2.685760 
# 
# 
# High freq. dielectric constant tensor:
#      x y z
#    x 1.713430 0.000000 -0.012060 
#    y 0.000000 1.700350 0.000000 
#    z -0.012060 0.000000 1.711940 
# 
# From -- ./inp_files/324097.got.cif
#   From: 2010.06.25/outbox.cif.g09.slc.cpg/sg12_163_cif.got.tgz:324097.got - 2010.06.28 00:19:55.
