data_PCOD8091155
_publ_section_title
;
Structure prediction by ZEFSAII (Michael W. Deem and Ramdas Pophale) SiO2 
 PCOD8091155
Probable space group: C 2/M
;
_chemical_formula_sum "Si O2"
_cell_formula_units_Z 64
_cell_length_a 23.337415
_cell_length_b 17.380588
_cell_length_c 12.665768
_cell_angle_alpha 90.000000
_cell_angle_beta 42.601834
_cell_angle_gamma 90.000000
_cell_volume 3477.546583
_symmetry_space_group_name_H-M "C 2/M"
_symmetry_group_IT_number 12
_symmetry_cell_setting 'monoclinic'
loop_
_space_group_symop_operation_xyz
x,y,z
-x,y,-z
-x,-y,-z
x,-y,z
1/2+x,1/2+y,z
1/2-x,1/2+y,-z
1/2-x,1/2-y,-z
1/2+x,1/2-y,z
loop_
_atom_site_type_symbol
_atom_site_label
_atom_site_fract_x
_atom_site_fract_y
_atom_site_fract_z
Si Si1 0.512943 0.145686 0.299426
Si Si2 0.726820 0.160988 0.536534
Si Si3 0.448248 0.910575 0.175059
Si Si4 0.179996 0.911526 0.183310
Si Si5 0.021640 0.188563 0.351484
Si Si6 0.158920 0.847642 0.434393
Si Si7 0.325616 0.166597 0.613388
Si Si8 0.820827 0.412170 0.829804
O O1 0.511424 0.109594 0.184976
O O2 0.537927 0.235872 0.259210
O O3 0.421576 0.135864 0.477221
O O4 0.581234 0.101122 0.276628
O O5 0.750000 0.250000 0.500000
O O6 0.633576 0.145010 0.710552
O O7 0.795366 0.121258 0.521164
O O8 0.727371 0.130883 0.414156
O O9 0.420254 0.000000 0.218256
O O10 0.500000 0.892087 0.000000
O O11 0.103739 0.863838 0.236072
O O12 0.194180 0.895409 0.287658
O O13 0.156723 0.000000 0.198941
O O14 0.265416 0.888649 0.006490
O O15 0.000000 0.215468 0.500000
O O16 0.941818 0.140259 0.414650
O O17 0.178233 0.758402 0.386091
O O18 0.288186 0.138192 0.774950
O O19 0.806577 0.500000 0.817375
#
# Coordination Sequence:
#
# PCOD8091155 Si02
#       8
#     8   8   8   8   8   8   8   8
#     4  10  19  34  55  79 105 141 182 216 263 332
#     4   9  19  37  58  79 112 145 190 231 264 330
#     4  10  22  37  54  84 123 150 174 227 293 335
#     4  10  22  35  49  77 111 139 175 229 284 323
#     4   9  18  35  57  79 104 135 177 233 276 317
#     4   9  18  34  58  78 100 135 180 226 268 323
#     4   9  19  35  53  77 107 137 176 224 267 312
#     4  11  22  33  49  75 109 144 178 217 264 330
#
# _framework density 18.403779
#
# number of rings (size 3 to 8) (size 9 to 14) (size 15 to 20)
#    0.000    2.375    0.000    3.750    1.750    7.750 
#    2.250    0.000    0.000    0.000    0.000    1.750 
#    0.000    0.000    0.000    0.000    0.000    0.000 
#
# Total GULP energy -396705.796755 kJ/mol
# GULP energy per Si atom -12397.056149 kJ/mol
# Density = 1.836189 g / cm^3
# Si number density = 18.403779 Si / 1000 Ang^3
#
#
#
# Elastic Constant Matrix: (Units=GPa)
#
#
# Indices 1 2 3 4 5 6 
#
# 1 133.2420 25.4059 35.7507 0.0000 7.9154 0.0000
# 2 25.4059 61.6495 41.0246 0.0000 -0.3229 0.0000
# 3 35.7507 41.0246 70.1372 0.0000 7.1331 0.0000
# 4 0.0000 0.0000 0.0000 30.0876 0.0000 0.5606
# 5 7.9154 -0.3229 7.1331 0.0000 21.6804 0.0000
# 6 0.0000 0.0000 0.0000 0.5606 0.0000 14.7098
#
#
#
# Elastic Compliance Matrix: (Units=1/GPa)
#
#
# Indices 1 2 3 4 5 6 
#
# 1 0.008823 -0.001302 -0.003524 0.000000 -0.002081 0.000000
# 2 -0.001302 0.027448 -0.016017 0.000000 0.006154 0.000000
# 3 -0.003524 -0.016017 0.026193 0.000000 -0.007570 0.000000
# 4 0.000000 0.000000 0.000000 0.033260 0.000000 -0.001268
# 5 -0.002081 0.006154 -0.007570 0.000000 0.049467 0.000000
# 6 0.000000 0.000000 0.000000 -0.001268 0.000000 0.068030
#
#
# Mechanical properties :
#
#
# Convention : Reuss Voigt Hill
#
# Bulk Modulus (GPa) = 48.12929 52.15457 50.14193
# Shear Modulus (GPa) = 19.09622 24.15206 21.62414
#
# Velocity S-wave (km/s) = 3.22471 3.62656 3.43152
# Velocity P-wave (km/s) = 6.33038 6.77764 6.55782
#
# Compressibility (1/GPa) = 0.02077737
#
# Stress axis : x y z
#
# Youngs Moduli (GPa) = 113.34651 36.43241 38.17834
#
# Poissons Ratio (x) = 0.04742 0.13455
# Poissons Ratio (y) = 0.14752 0.61152
# Poissons Ratio (z) = 0.39945 0.58355
#
# Static dielectric constant tensor:
#      x y z
#    x 3.846510 0.000000 0.167810 
#    y 0.000000 3.264400 0.000000 
#    z 0.167810 0.000000 3.339950 
# 
# 
# High freq. dielectric constant tensor:
#      x y z
#    x 1.725180 0.000000 0.007820 
#    y 0.000000 1.702310 0.000000 
#    z 0.007820 0.000000 1.695790 
# 
# From -- ./inp_files/177120.got.cif
#   From: 2010.06.25/outbox.cif.g09.slc.cpg/sg12_89_cif.got.tgz:177120.got - 2010.06.28 00:19:55.
