data_PCOD8091601
_publ_section_title
;
Structure prediction by ZEFSAII (Michael W. Deem and Ramdas Pophale) SiO2 
 PCOD8091601
Probable space group: C 2/M
;
_chemical_formula_sum "Si O2"
_cell_formula_units_Z 56
_cell_length_a 18.218651
_cell_length_b 14.668969
_cell_length_c 12.172296
_cell_angle_alpha 90.000000
_cell_angle_beta 65.421415
_cell_angle_gamma 90.000000
_cell_volume 2958.279932
_symmetry_space_group_name_H-M "C 2/M"
_symmetry_group_IT_number 12
_symmetry_cell_setting 'monoclinic'
loop_
_space_group_symop_operation_xyz
x,y,z
-x,y,-z
-x,-y,-z
x,-y,z
1/2+x,1/2+y,z
1/2-x,1/2+y,-z
1/2-x,1/2-y,-z
1/2+x,1/2-y,z
loop_
_atom_site_type_symbol
_atom_site_label
_atom_site_fract_x
_atom_site_fract_y
_atom_site_fract_z
Si Si1 0.166650 0.604359 0.125076
Si Si2 0.825811 0.607151 0.624209
Si Si3 0.540697 0.752506 0.176127
Si Si4 0.067593 0.136470 0.886330
Si Si5 0.341566 0.399839 0.382058
Si Si6 0.061822 0.755499 0.549752
Si Si7 0.342790 0.393455 0.963675
O O1 0.140923 0.500000 0.133375
O O2 0.179291 0.632488 0.244320
O O3 0.095837 0.661390 0.111653
O O4 0.247774 0.622795 0.003803
O O5 0.843871 0.500000 0.596369
O O6 0.742300 0.635043 0.616786
O O7 0.896354 0.665397 0.524377
O O8 0.476535 0.732345 0.118701
O O9 0.491854 0.776231 0.315198
O O10 0.600685 0.664269 0.154548
O O11 0.093266 0.089395 0.756950
O O12 0.143625 0.144611 0.919969
O O13 0.000000 0.080257 0.000000
O O14 0.331684 0.500000 0.441786
O O15 0.371893 0.330776 0.456792
O O16 0.000000 0.798713 0.500000
O O17 0.364118 0.500000 0.939543
#
# Coordination Sequence:
#
# PCOD8091601 Si02
#       7
#     8   8   8   8   8   8   8
#     4  10  19  34  57  80 105 139 176 221 268 312
#     4  10  20  36  58  77 101 139 185 227 260 300
#     4  10  21  33  50  81 113 140 169 216 272 316
#     4   9  18  30  51  79 108 133 167 216 264 309
#     4  10  20  35  54  77 104 142 180 214 262 315
#     4  11  22  35  51  78 113 142 175 216 263 316
#     4  10  19  34  58  84 107 135 176 221 266 316
#
# _framework density 18.929919000000002
#
# number of rings (size 3 to 8) (size 9 to 14) (size 15 to 20)
#    0.000    2.000    2.857    1.286    0.000    9.143 
#    0.000    0.000    0.000    3.857    0.000    0.000 
#    0.000    0.000    0.000    0.000    0.000    0.000 
#
# Total GULP energy -346907.540473 kJ/mol
# GULP energy per Si atom -12389.555017 kJ/mol
# Density = 1.888683 g / cm^3
# Si number density = 18.929919 Si / 1000 Ang^3
#
#
#
# Elastic Constant Matrix: (Units=GPa)
#
#
# Indices 1 2 3 4 5 6 
#
# 1 77.2657 40.7412 3.4476 0.0000 -6.5477 0.0000
# 2 40.7412 81.3873 21.7944 0.0000 -9.3617 0.0000
# 3 3.4476 21.7944 66.7491 0.0000 -15.9822 0.0000
# 4 0.0000 0.0000 0.0000 24.7226 0.0000 -4.8564
# 5 -6.5477 -9.3617 -15.9822 0.0000 24.7958 0.0000
# 6 0.0000 0.0000 0.0000 -4.8564 0.0000 18.9750
#
#
#
# Elastic Compliance Matrix: (Units=1/GPa)
#
#
# Indices 1 2 3 4 5 6 
#
# 1 0.018063 -0.009464 0.002890 0.000000 0.003059 0.000000
# 2 -0.009464 0.018573 -0.005315 0.000000 0.001087 0.000000
# 3 0.002890 -0.005315 0.019239 0.000000 0.011157 0.000000
# 4 0.000000 0.000000 0.000000 0.042590 0.000000 0.010900
# 5 0.003059 0.001087 0.011157 0.000000 0.048739 0.000000
# 6 0.000000 0.000000 0.000000 0.010900 0.000000 0.055491
#
#
# Mechanical properties :
#
#
# Convention : Reuss Voigt Hill
#
# Bulk Modulus (GPa) = 31.15661 39.70762 35.43212
# Shear Modulus (GPa) = 21.08176 24.32660 22.70418
#
# Velocity S-wave (km/s) = 3.34080 3.58870 3.46696
# Velocity P-wave (km/s) = 5.60142 6.18008 5.89785
#
# Compressibility (1/GPa) = 0.03209591
#
# Stress axis : x y z
#
# Youngs Moduli (GPa) = 55.36223 53.84220 51.97758
#
# Poissons Ratio (x) = 0.50956 -0.15019
# Poissons Ratio (y) = 0.52394 0.27627
# Poissons Ratio (z) = -0.15998 0.28618
#
# Static dielectric constant tensor:
#      x y z
#    x 3.604740 0.000000 -0.098270 
#    y 0.000000 3.301510 0.000000 
#    z -0.098270 0.000000 3.421160 
# 
# 
# High freq. dielectric constant tensor:
#      x y z
#    x 1.739150 0.000000 -0.019940 
#    y 0.000000 1.718260 0.000000 
#    z -0.019940 0.000000 1.723150 
# 
# From -- ./inp_files/156492.got.cif
#   From: 2010.06.25/outbox.cif.g09.slc.cpg/sg12_79_cif.got.tgz:156492.got - 2010.06.28 00:19:55.
