data_PCOD8091909
_publ_section_title
;
Structure prediction by ZEFSAII (Michael W. Deem and Ramdas Pophale) SiO2 
 PCOD8091909
Probable space group: C 2/M
;
_chemical_formula_sum "Si O2"
_cell_formula_units_Z 64
_cell_length_a 20.316124
_cell_length_b 10.309450
_cell_length_c 19.983406
_cell_angle_alpha 90.000000
_cell_angle_beta 128.381438
_cell_angle_gamma 90.000000
_cell_volume 3280.979848
_symmetry_space_group_name_H-M "C 2/M"
_symmetry_group_IT_number 12
_symmetry_cell_setting 'monoclinic'
loop_
_space_group_symop_operation_xyz
x,y,z
-x,y,-z
-x,-y,-z
x,-y,z
1/2+x,1/2+y,z
1/2-x,1/2+y,-z
1/2-x,1/2-y,-z
1/2+x,1/2-y,z
loop_
_atom_site_type_symbol
_atom_site_label
_atom_site_fract_x
_atom_site_fract_y
_atom_site_fract_z
Si Si1 0.049842 0.142994 0.144828
Si Si2 0.815300 0.643512 0.120398
Si Si3 0.370662 0.650629 0.667219
Si Si4 0.636368 0.720771 0.979696
Si Si5 0.309927 0.152236 0.394976
Si Si6 0.903796 0.639904 0.920638
Si Si7 0.376165 0.847700 0.298631
Si Si8 0.570748 0.847659 0.408869
O O1 0.061198 0.164712 0.230865
O O2 0.106751 0.246974 0.141068
O O3 0.951233 0.146891 0.064061
O O4 0.083402 0.000000 0.145693
O O5 0.854742 0.500000 0.145646
O O6 0.865018 0.722621 0.095653
O O7 0.832412 0.709409 0.203717
O O8 0.716926 0.629503 0.040260
O O9 0.367300 0.500000 0.639447
O O10 0.280837 0.699078 0.637845
O O11 0.395523 0.751748 0.626332
O O12 0.646909 0.830927 0.043243
O O13 0.333701 0.215995 0.337968
O O14 0.380355 0.190160 0.493063
O O15 0.307993 0.000000 0.383811
O O16 0.872634 0.500000 0.872768
O O17 0.000000 0.628915 0.000000
O O18 0.474221 0.815090 0.360655
O O19 0.360704 0.000000 0.290787
O O20 0.584352 0.000000 0.398028
#
# Coordination Sequence:
#
# PCOD8091909 Si02
#       8
#     8   8   8   8   8   8   8   8
#     4  10  21  35  53  78 107 141 182 220 262 316
#     4  10  20  32  50  75 104 139 178 223 266 310
#     4  10  21  35  54  81 113 146 175 218 273 324
#     4  10  20  33  50  74 104 142 182 219 261 316
#     4   9  18  33  54  81 110 139 174 221 273 322
#     4   9  19  34  52  73 102 139 175 218 268 314
#     4   9  18  32  54  81 106 135 178 227 271 315
#     4  10  19  34  58  84 107 138 179 224 269 323
#
# _framework density 19.506368999999999
#
# number of rings (size 3 to 8) (size 9 to 14) (size 15 to 20)
#    0.000    2.375    0.000    2.250    1.750    5.250 
#    0.000    0.000    0.000    3.000    0.000    0.000 
#    0.000    0.000    0.000    0.000    0.000    0.000 
#
# Total GULP energy -396621.339363 kJ/mol
# GULP energy per Si atom -12394.416855 kJ/mol
# Density = 1.946197 g / cm^3
# Si number density = 19.506369 Si / 1000 Ang^3
#
#
#
# Elastic Constant Matrix: (Units=GPa)
#
#
# Indices 1 2 3 4 5 6 
#
# 1 53.5955 58.7224 39.4074 0.0000 -32.0398 0.0000
# 2 58.7224 84.0993 31.3100 0.0000 -19.5076 0.0000
# 3 39.4074 31.3100 87.6384 0.0000 -11.4401 0.0000
# 4 0.0000 0.0000 0.0000 23.6357 0.0000 -8.6049
# 5 -32.0398 -19.5076 -11.4401 0.0000 36.4712 0.0000
# 6 0.0000 0.0000 0.0000 -8.6049 0.0000 18.2291
#
#
#
# Elastic Compliance Matrix: (Units=1/GPa)
#
#
# Indices 1 2 3 4 5 6 
#
# 1 -0.939901 0.466094 0.188597 0.000000 -0.517238 0.000000
# 2 0.466094 -0.216009 -0.098058 0.000000 0.263165 0.000000
# 3 0.188597 -0.098058 -0.024587 0.000000 0.105521 0.000000
# 4 0.000000 0.000000 0.000000 0.051089 0.000000 0.024116
# 5 -0.517238 0.263165 0.105521 0.000000 -0.253113 0.000000
# 6 0.000000 0.000000 0.000000 0.024116 0.000000 0.066241
#
#
# Mechanical properties :
#
#
# Convention : Reuss Voigt Hill
#
# Bulk Modulus (GPa) = -14.87410 53.80144 19.46367
# Shear Modulus (GPa) = -2.03919 22.06009 10.01045
#
# Velocity S-wave (km/s) = -1.02356 3.36656 2.26782
# Velocity P-wave (km/s) = 3.00644 6.53858 4.10575
#
# Compressibility (1/GPa) = -0.06723095
#
# Stress axis : x y z
#
# Youngs Moduli (GPa) = -1.06394 -4.62943 -40.67209
#
# Poissons Ratio (x) = 2.15775 7.67064
# Poissons Ratio (y) = 0.49590 -3.98822
# Poissons Ratio (z) = 0.20066 -0.45395
#
# Static dielectric constant tensor:
#      x y z
#    x 3.945870 0.000000 0.172000 
#    y 0.000000 3.428180 0.000000 
#    z 0.172000 0.000000 3.978310 
# 
# 
# High freq. dielectric constant tensor:
#      x y z
#    x 1.761880 0.000000 -0.004940 
#    y 0.000000 1.725970 0.000000 
#    z -0.004940 0.000000 1.765230 
# 
# From -- ./inp_files/283343.got.cif
#   From: 2010.06.25/outbox.cif.g09.slc.cpg/sg12_142_cif.got.tgz:283343.got - 2010.06.28 00:19:55.
