data_PCOD8091447
_publ_section_title
;
Structure prediction by ZEFSAII (Michael W. Deem and Ramdas Pophale) SiO2 
 PCOD8091447
Probable space group: C 2/M
;
_chemical_formula_sum "Si O2"
_cell_formula_units_Z 64
_cell_length_a 8.774946
_cell_length_b 30.999835
_cell_length_c 14.263297
_cell_angle_alpha 90.000000
_cell_angle_beta 54.835862
_cell_angle_gamma 90.000000
_cell_volume 3171.863293
_symmetry_space_group_name_H-M "C 2/M"
_symmetry_group_IT_number 12
_symmetry_cell_setting 'monoclinic'
loop_
_space_group_symop_operation_xyz
x,y,z
-x,y,-z
-x,-y,-z
x,-y,z
1/2+x,1/2+y,z
1/2-x,1/2+y,-z
1/2-x,1/2-y,-z
1/2+x,1/2-y,z
loop_
_atom_site_type_symbol
_atom_site_label
_atom_site_fract_x
_atom_site_fract_y
_atom_site_fract_z
Si Si1 0.558571 0.781476 0.274878
Si Si2 0.265387 0.098061 0.357358
Si Si3 0.321122 0.686629 0.519506
Si Si4 0.574825 0.450253 0.258866
Si Si5 0.975954 0.356228 0.856237
Si Si6 0.796042 0.128662 0.888528
Si Si7 0.186065 0.451017 0.472382
Si Si8 0.090837 0.806144 0.722196
O O1 0.366967 0.786036 0.401655
O O2 0.562413 0.811376 0.181916
O O3 0.734252 0.790725 0.278445
O O4 0.558604 0.732342 0.238836
O O5 0.182059 0.144474 0.413169
O O6 0.134294 0.071612 0.334676
O O7 0.469789 0.106496 0.238502
O O8 0.266792 0.070448 0.448109
O O9 0.500000 0.712609 0.500000
O O10 0.341587 0.675652 0.402326
O O11 0.643594 0.500000 0.226368
O O12 0.660196 0.422042 0.144202
O O13 0.350392 0.447707 0.337607
O O14 0.151379 0.351879 0.864395
O O15 0.788923 0.369231 0.977341
O O16 0.986746 0.155679 0.814623
O O17 0.140803 0.500000 0.513405
O O18 0.000000 0.427891 0.500000
#
# Coordination Sequence:
#
# PCOD8091447 Si02
#       8
#     8   8   8   8   8   8   8   8
#     4  11  24  39  58  87 117 152 194 240 289 344
#     4  10  19  34  56  81 111 148 187 230 284 336
#     4  11  21  36  57  84 119 153 188 233 286 342
#     4  10  20  36  59  87 116 149 191 236 288 347
#     4   9  21  40  58  81 112 148 191 239 285 339
#     4  10  21  40  61  82 113 152 193 241 293 340
#     4  10  20  32  49  77 111 144 180 226 279 337
#     4  12  23  38  60  85 116 153 195 238 289 347
#
# _framework density 20.177415
#
# number of rings (size 3 to 8) (size 9 to 14) (size 15 to 20)
#    0.000    1.625    0.000    6.750    0.000    6.000 
#    0.000    5.625    0.000    0.000    0.000    4.375 
#    0.000    0.000    0.000    0.000    0.000    0.000 
#
# Total GULP energy -396723.528184 kJ/mol
# GULP energy per Si atom -12397.610256 kJ/mol
# Density = 2.013149 g / cm^3
# Si number density = 20.177415 Si / 1000 Ang^3
#
#
#
# Elastic Constant Matrix: (Units=GPa)
#
#
# Indices 1 2 3 4 5 6 
#
# 1 73.1499 27.0729 18.2072 0.0000 -14.6241 0.0000
# 2 27.0729 101.3223 39.6292 0.0000 -4.2875 0.0000
# 3 18.2072 39.6292 126.3764 0.0000 -4.5542 0.0000
# 4 0.0000 0.0000 0.0000 23.9555 0.0000 1.0392
# 5 -14.6241 -4.2875 -4.5542 0.0000 21.5401 0.0000
# 6 0.0000 0.0000 0.0000 1.0392 0.0000 24.6913
#
#
#
# Elastic Compliance Matrix: (Units=1/GPa)
#
#
# Indices 1 2 3 4 5 6 
#
# 1 0.017511 -0.003857 -0.000920 0.000000 0.010927 0.000000
# 2 -0.003857 0.012147 -0.003286 0.000000 -0.000895 0.000000
# 3 -0.000920 -0.003286 0.009099 0.000000 0.000645 0.000000
# 4 0.000000 0.000000 0.000000 0.041820 0.000000 -0.001760
# 5 0.010927 -0.000895 0.000645 0.000000 0.053802 0.000000
# 6 0.000000 0.000000 0.000000 -0.001760 0.000000 0.040574
#
#
# Mechanical properties :
#
#
# Convention : Reuss Voigt Hill
#
# Bulk Modulus (GPa) = 44.18329 52.29635 48.23982
# Shear Modulus (GPa) = 25.17331 28.43332 26.80332
#
# Velocity S-wave (km/s) = 3.53597 3.75796 3.64865
# Velocity P-wave (km/s) = 6.21415 6.69359 6.45832
#
# Compressibility (1/GPa) = 0.02263299
#
# Stress axis : x y z
#
# Youngs Moduli (GPa) = 57.10568 82.32290 109.90249
#
# Poissons Ratio (x) = 0.31751 0.10107
# Poissons Ratio (y) = 0.22025 0.36111
# Poissons Ratio (z) = 0.05252 0.27049
#
# Static dielectric constant tensor:
#      x y z
#    x 3.832830 0.000000 -0.151230 
#    y 0.000000 3.793390 0.000000 
#    z -0.151230 0.000000 3.872680 
# 
# 
# High freq. dielectric constant tensor:
#      x y z
#    x 1.781780 0.000000 -0.007340 
#    y 0.000000 1.786030 0.000000 
#    z -0.007340 0.000000 1.787160 
# 
# From -- ./inp_files/201284.got.cif
#   From: 2010.06.25/outbox.cif.g09.slc.cpg/sg12_101_cif.got.tgz:201284.got - 2010.06.28 00:19:55.
