data_PCOD8091247
_publ_section_title
;
Structure prediction by ZEFSAII (Michael W. Deem and Ramdas Pophale) SiO2 
 PCOD8091247
Probable space group: C 2/M
;
_chemical_formula_sum "Si O2"
_cell_formula_units_Z 64
_cell_length_a 18.863633
_cell_length_b 15.929892
_cell_length_c 16.013568
_cell_angle_alpha 90.000000
_cell_angle_beta 136.786260
_cell_angle_gamma 90.000000
_cell_volume 3294.886781
_symmetry_space_group_name_H-M "C 2/M"
_symmetry_group_IT_number 12
_symmetry_cell_setting 'monoclinic'
loop_
_space_group_symop_operation_xyz
x,y,z
-x,y,-z
-x,-y,-z
x,-y,z
1/2+x,1/2+y,z
1/2-x,1/2+y,-z
1/2-x,1/2-y,-z
1/2+x,1/2-y,z
loop_
_atom_site_type_symbol
_atom_site_label
_atom_site_fract_x
_atom_site_fract_y
_atom_site_fract_z
Si Si1 0.708164 0.766061 0.090385
Si Si2 0.078390 0.906251 0.348287
Si Si3 0.246045 0.251984 0.305325
Si Si4 0.290346 0.903748 0.445011
Si Si5 0.408125 0.287988 0.163440
Si Si6 0.949342 0.593902 0.039285
Si Si7 0.113316 0.903179 0.559572
Si Si8 0.412238 0.162114 0.708076
O O1 0.693368 0.728583 0.171070
O O2 0.828665 0.774645 0.170978
O O3 0.650380 0.705197 0.975397
O O4 0.654070 0.855727 0.028684
O O5 0.167874 0.897818 0.356742
O O6 0.113604 0.865137 0.465843
O O7 0.968808 0.874746 0.221275
O O8 0.055072 0.000000 0.354779
O O9 0.310888 0.169412 0.393185
O O10 0.312557 0.334325 0.333930
O O11 0.164340 0.276485 0.306822
O O12 0.353866 0.885709 0.583864
O O13 0.317238 0.000000 0.438110
O O14 0.494632 0.216499 0.248884
O O15 0.912610 0.500000 0.990807
O O16 0.036398 0.594454 0.186227
O O17 0.000000 0.633917 0.000000
O O18 0.000000 0.898242 0.500000
O O19 0.156141 0.000000 0.603484
#
# Coordination Sequence:
#
# PCOD8091247 Si02
#       8
#     8   8   8   8   8   8   8   8
#     4  10  23  38  57  83 115 152 196 242 286 350
#     4  10  19  34  55  81 114 149 189 239 293 349
#     4  12  21  36  61  86 115 162 198 242 295 349
#     4  11  23  38  58  88 119 152 202 250 289 344
#     4  10  21  39  58  82 114 152 194 240 296 351
#     4  10  20  34  55  86 119 150 186 234 294 357
#     4  10  21  34  54  89 125 152 186 237 298 362
#     4  11  20  36  61  84 115 156 194 241 298 353
#
# _framework density 19.424036000000001
#
# number of rings (size 3 to 8) (size 9 to 14) (size 15 to 20)
#    0.000    1.500    3.750    2.250    0.000    1.500 
#    0.000    0.625    0.000    7.875    0.000    0.000 
#    0.000    0.000    0.000    0.000    0.000    0.000 
#
# Total GULP energy -396585.276781 kJ/mol
# GULP energy per Si atom -12393.289899 kJ/mol
# Density = 1.937983 g / cm^3
# Si number density = 19.424036 Si / 1000 Ang^3
#
#
#
# Elastic Constant Matrix: (Units=GPa)
#
#
# Indices 1 2 3 4 5 6 
#
# 1 58.4663 30.5306 26.8853 0.0000 6.8229 0.0000
# 2 30.5306 83.0528 37.1560 0.0000 -4.1371 0.0000
# 3 26.8853 37.1560 97.6500 0.0000 -6.0432 0.0000
# 4 0.0000 0.0000 0.0000 26.8822 0.0000 1.2463
# 5 6.8229 -4.1371 -6.0432 0.0000 35.6822 0.0000
# 6 0.0000 0.0000 0.0000 1.2463 0.0000 20.7818
#
#
#
# Elastic Compliance Matrix: (Units=1/GPa)
#
#
# Indices 1 2 3 4 5 6 
#
# 1 0.023380 -0.007047 -0.004126 0.000000 -0.005986 0.000000
# 2 -0.007047 0.016655 -0.004239 0.000000 0.002561 0.000000
# 3 -0.004126 -0.004239 0.013146 0.000000 0.002524 0.000000
# 4 0.000000 0.000000 0.000000 0.037303 0.000000 -0.002237
# 5 -0.005986 0.002561 0.002524 0.000000 0.029894 0.000000
# 6 0.000000 0.000000 0.000000 -0.002237 0.000000 0.048253
#
#
# Mechanical properties :
#
#
# Convention : Reuss Voigt Hill
#
# Bulk Modulus (GPa) = 44.72842 47.59032 46.15937
# Shear Modulus (GPa) = 24.16565 26.30909 25.23737
#
# Velocity S-wave (km/s) = 3.53102 3.68429 3.60847
# Velocity P-wave (km/s) = 6.30091 6.53090 6.41693
#
# Compressibility (1/GPa) = 0.02235715
#
# Stress axis : x y z
#
# Youngs Moduli (GPa) = 42.77243 60.04307 76.07086
#
# Poissons Ratio (x) = 0.42311 0.31388
# Poissons Ratio (y) = 0.30140 0.32243
# Poissons Ratio (z) = 0.17648 0.25450
#
# Static dielectric constant tensor:
#      x y z
#    x 3.475600 0.000000 -0.051190 
#    y 0.000000 3.573460 0.000000 
#    z -0.051190 0.000000 3.749250 
# 
# 
# High freq. dielectric constant tensor:
#      x y z
#    x 1.744140 0.000000 0.000880 
#    y 0.000000 1.746000 0.000000 
#    z 0.000880 0.000000 1.762240 
# 
# From -- ./inp_files/226877.got.cif
#   From: 2010.06.25/outbox.cif.g09.slc.cpg/sg12_114_cif.got.tgz:226877.got - 2010.06.28 00:19:55.
