data_PCOD8091717
_publ_section_title
;
Structure prediction by ZEFSAII (Michael W. Deem and Ramdas Pophale) SiO2 
 PCOD8091717
Probable space group: C 2/M
;
_chemical_formula_sum "Si O2"
_cell_formula_units_Z 56
_cell_length_a 30.480036
_cell_length_b 9.395108
_cell_length_c 10.958731
_cell_angle_alpha 90.000000
_cell_angle_beta 66.054861
_cell_angle_gamma 90.000000
_cell_volume 2868.088754
_symmetry_space_group_name_H-M "C 2/M"
_symmetry_group_IT_number 12
_symmetry_cell_setting 'monoclinic'
loop_
_space_group_symop_operation_xyz
x,y,z
-x,y,-z
-x,-y,-z
x,-y,z
1/2+x,1/2+y,z
1/2-x,1/2+y,-z
1/2-x,1/2-y,-z
1/2+x,1/2-y,z
loop_
_atom_site_type_symbol
_atom_site_label
_atom_site_fract_x
_atom_site_fract_y
_atom_site_fract_z
Si Si1 0.969023 0.833202 0.713956
Si Si2 0.728350 0.168690 0.642164
Si Si3 0.042812 0.655275 0.045918
Si Si4 0.574513 0.664625 0.607981
Si Si5 0.122483 0.833542 0.315007
Si Si6 0.227753 0.830017 0.142372
Si Si7 0.381135 0.839605 0.233918
O O1 0.924482 0.760235 0.692838
O O2 0.022658 0.790172 0.607727
O O3 0.962793 0.000000 0.708653
O O4 0.964031 0.787029 0.858324
O O5 0.750000 0.250000 0.500000
O O6 0.750231 0.212773 0.749904
O O7 0.673023 0.216568 0.711726
O O8 0.735342 0.000000 0.613858
O O9 0.040708 0.500000 0.114358
O O10 0.095110 0.670911 0.925654
O O11 0.000000 0.663224 0.000000
O O12 0.571976 0.500000 0.647149
O O13 0.617482 0.695637 0.465023
O O14 0.585045 0.749335 0.717212
O O15 0.172704 0.773907 0.208546
O O16 0.122140 0.000000 0.289211
O O17 0.232474 0.000000 0.117593
O O18 0.250000 0.750000 0.000000
O O19 0.381525 0.000000 0.283426
#
# Coordination Sequence:
#
# PCOD8091717 Si02
#       7
#     8   8   8   8   8   8   8
#     4  10  20  33  54  82 109 139 181 225 266 321
#     4  10  22  40  62  87 115 148 191 241 289 339
#     4  10  20  35  53  74 108 150 181 215 269 326
#     4  10  19  34  57  83 110 142 180 222 270 327
#     4   9  19  36  56  79 110 144 176 221 279 327
#     4  10  22  40  60  83 114 150 191 237 286 339
#     4  10  21  36  55  80 112 146 180 222 274 327
#
# _framework density 19.525198
#
# number of rings (size 3 to 8) (size 9 to 14) (size 15 to 20)
#    0.000    2.143    1.429    1.286    2.000    4.857 
#    0.000    1.429    0.000    1.714    0.000    0.000 
#    0.000    0.000    0.000    0.000    0.000    0.000 
#
# Total GULP energy -346931.488262 kJ/mol
# GULP energy per Si atom -12390.410295 kJ/mol
# Density = 1.948076 g / cm^3
# Si number density = 19.525198 Si / 1000 Ang^3
#
#
#
# Elastic Constant Matrix: (Units=GPa)
#
#
# Indices 1 2 3 4 5 6 
#
# 1 107.6129 34.1996 49.9196 0.0000 -16.3202 0.0000
# 2 34.1996 20.9616 26.0837 0.0000 -4.0239 0.0000
# 3 49.9196 26.0837 107.0941 0.0000 -19.3366 0.0000
# 4 0.0000 0.0000 0.0000 28.5800 0.0000 -3.4701
# 5 -16.3202 -4.0239 -19.3366 0.0000 36.3071 0.0000
# 6 0.0000 0.0000 0.0000 -3.4701 0.0000 18.8138
#
#
#
# Elastic Compliance Matrix: (Units=1/GPa)
#
#
# Indices 1 2 3 4 5 6 
#
# 1 0.020422 -0.031056 -0.001017 0.000000 0.005196 0.000000
# 2 -0.031056 0.115747 -0.015400 0.000000 -0.009334 0.000000
# 3 -0.001017 -0.015400 0.014573 0.000000 0.005597 0.000000
# 4 0.000000 0.000000 0.000000 0.035791 0.000000 0.006602
# 5 0.005196 -0.009334 0.005597 0.000000 0.031825 0.000000
# 6 0.000000 0.000000 0.000000 0.006602 0.000000 0.054370
#
#
# Mechanical properties :
#
#
# Convention : Reuss Voigt Hill
#
# Bulk Modulus (GPa) = 17.92267 50.67492 34.29879
# Shear Modulus (GPa) = 12.94416 25.10455 19.02435
#
# Velocity S-wave (km/s) = 2.57757 3.58963 3.12484
# Velocity P-wave (km/s) = 4.24943 6.57195 5.53390
#
# Compressibility (1/GPa) = 0.05579526
#
# Stress axis : x y z
#
# Youngs Moduli (GPa) = 48.96644 8.63952 68.61903
#
# Poissons Ratio (x) = 0.26831 0.06979
# Poissons Ratio (y) = 1.52071 1.05675
# Poissons Ratio (z) = 0.04980 0.13305
#
# Static dielectric constant tensor:
#      x y z
#    x 3.909060 0.000000 -0.239790 
#    y 0.000000 3.363080 0.000000 
#    z -0.239790 0.000000 3.616900 
# 
# 
# High freq. dielectric constant tensor:
#      x y z
#    x 1.774300 0.000000 -0.015160 
#    y 0.000000 1.730600 0.000000 
#    z -0.015160 0.000000 1.765930 
# 
# From -- ./inp_files/187143.got.cif
#   From: 2010.06.25/outbox.cif.g09.slc.cpg/sg12_94_cif.got.tgz:187143.got - 2010.06.28 00:19:55.
