data_PCOD8091126
_publ_section_title
;
Structure prediction by ZEFSAII (Michael W. Deem and Ramdas Pophale) SiO2 
 PCOD8091126
Probable space group: C 2/M
;
_chemical_formula_sum "Si O2"
_cell_formula_units_Z 48
_cell_length_a 22.606171
_cell_length_b 8.692178
_cell_length_c 28.718161
_cell_angle_alpha 90.000000
_cell_angle_beta 151.774504
_cell_angle_gamma 90.000000
_cell_volume 2668.830211
_symmetry_space_group_name_H-M "C 2/M"
_symmetry_group_IT_number 12
_symmetry_cell_setting 'monoclinic'
loop_
_space_group_symop_operation_xyz
x,y,z
-x,y,-z
-x,-y,-z
x,-y,z
1/2+x,1/2+y,z
1/2-x,1/2+y,-z
1/2-x,1/2-y,-z
1/2+x,1/2-y,z
loop_
_atom_site_type_symbol
_atom_site_label
_atom_site_fract_x
_atom_site_fract_y
_atom_site_fract_z
Si Si1 0.037250 0.178208 0.271884
Si Si2 0.464091 0.679790 0.325339
Si Si3 0.385555 0.180799 0.085641
Si Si4 0.532503 0.317857 0.953063
Si Si5 0.797455 0.323140 0.485976
Si Si6 0.182993 0.682538 0.139731
O O1 0.188164 0.202422 0.371797
O O2 0.989818 0.229491 0.289965
O O3 0.971114 0.289601 0.189697
O O4 0.001822 0.000000 0.237720
O O5 0.477825 0.500000 0.339473
O O6 0.566875 0.751437 0.432226
O O7 0.326535 0.734127 0.245191
O O8 0.450244 0.265897 0.087611
O O9 0.375216 0.000000 0.068727
O O10 0.250000 0.250000 0.000000
O O11 0.547209 0.500000 0.967980
O O12 0.394595 0.267364 0.873846
O O13 0.636423 0.235042 0.056701
O O14 0.818978 0.500000 0.510423
O O15 0.750000 0.250000 0.500000
O O16 0.165675 0.500000 0.131953
#
# Coordination Sequence:
#
# PCOD8091126 Si02
#       6
#     8   8   8   8   8   8
#     4   9  18  33  50  74 106 138 168 204 251 302
#     4   9  18  31  51  77 105 134 167 206 250 298
#     4  12  24  37  54  76 102 135 170 208 253 305
#     4  11  22  36  53  75 103 136 172 211 252 301
#     4   9  17  29  48  72 102 134 166 206 251 296
#     4  10  19  34  55  78 105 136 169 211 254 297
#
# _framework density 17.985408
#
# number of rings (size 3 to 8) (size 9 to 14) (size 15 to 20)
#    0.000    2.000    0.000    7.000    0.000    6.000 
#    0.000    0.000    0.000    1.000    0.000    7.000 
#    0.000    0.000    0.000    0.000    0.000    0.000 
#
# Total GULP energy -297540.748519 kJ/mol
# GULP energy per Si atom -12397.531188 kJ/mol
# Density = 1.794447 g / cm^3
# Si number density = 17.985408 Si / 1000 Ang^3
#
#
#
# Elastic Constant Matrix: (Units=GPa)
#
#
# Indices 1 2 3 4 5 6 
#
# 1 70.6125 24.5261 45.3038 0.0000 10.5563 0.0000
# 2 24.5261 55.5853 35.1004 0.0001 9.0489 -0.0005
# 3 45.3038 35.1004 130.2806 0.0000 26.0934 0.0000
# 4 0.0000 0.0001 0.0000 35.1926 0.0000 1.7689
# 5 10.5563 9.0489 26.0934 0.0000 25.2156 0.0000
# 6 0.0000 -0.0005 0.0000 1.7689 0.0000 27.2187
#
#
#
# Elastic Compliance Matrix: (Units=1/GPa)
#
#
# Indices 1 2 3 4 5 6 
#
# 1 0.019409 -0.005144 -0.005179 0.000000 -0.000920 0.000000
# 2 -0.005144 0.023138 -0.004054 0.000000 -0.001955 0.000000
# 3 -0.005179 -0.004054 0.012417 0.000000 -0.009226 0.000000
# 4 0.000000 0.000000 0.000000 0.028508 0.000000 -0.001853
# 5 -0.000920 -0.001955 -0.009226 0.000000 0.050292 0.000000
# 6 0.000000 0.000000 0.000000 -0.001853 0.000000 0.036860
#
#
# Mechanical properties :
#
#
# Convention : Reuss Voigt Hill
#
# Bulk Modulus (GPa) = 38.15226 51.81542 44.98384
# Shear Modulus (GPa) = 24.02542 27.62860 25.82701
#
# Velocity S-wave (km/s) = 3.65886 3.92365 3.79357
# Velocity P-wave (km/s) = 6.25369 7.02844 6.65235
#
# Compressibility (1/GPa) = 0.02621077
#
# Stress axis : x y z
#
# Youngs Moduli (GPa) = 51.52325 43.21910 80.53655
#
# Poissons Ratio (x) = 0.22230 0.41711
# Poissons Ratio (y) = 0.26501 0.32647
# Poissons Ratio (z) = 0.26685 0.17519
#
# Static dielectric constant tensor:
#      x y z
#    x 3.202860 0.000000 0.273640 
#    y 0.000000 3.521210 0.000000 
#    z 0.273640 0.000000 3.737160 
# 
# 
# High freq. dielectric constant tensor:
#      x y z
#    x 1.664550 0.000000 0.019530 
#    y 0.000000 1.707910 0.000000 
#    z 0.019530 0.000000 1.705490 
# 
# From -- ./inp_files/365552.got.cif
#   From: 2010.06.25/outbox.cif.g09.slc.cpg/sg12_183_cif.got.tgz:365552.got - 2010.06.28 00:19:55.
