data_PCOD8091395
_publ_section_title
;
Structure prediction by ZEFSAII (Michael W. Deem and Ramdas Pophale) SiO2 
 PCOD8091395
Probable space group: C 2/M
;
_chemical_formula_sum "Si O2"
_cell_formula_units_Z 56
_cell_length_a 23.828528
_cell_length_b 8.888901
_cell_length_c 14.804494
_cell_angle_alpha 90.000000
_cell_angle_beta 108.490491
_cell_angle_gamma 90.000000
_cell_volume 2973.853335
_symmetry_space_group_name_H-M "C 2/M"
_symmetry_group_IT_number 12
_symmetry_cell_setting 'monoclinic'
loop_
_space_group_symop_operation_xyz
x,y,z
-x,y,-z
-x,-y,-z
x,-y,z
1/2+x,1/2+y,z
1/2-x,1/2+y,-z
1/2-x,1/2-y,-z
1/2+x,1/2-y,z
loop_
_atom_site_type_symbol
_atom_site_label
_atom_site_fract_x
_atom_site_fract_y
_atom_site_fract_z
Si Si1 0.431969 0.323256 0.294689
Si Si2 0.937900 0.178294 0.675041
Si Si3 0.844415 0.674903 0.749540
Si Si4 0.673419 0.677700 0.881011
Si Si5 0.239954 0.677252 0.590937
Si Si6 0.806262 0.673642 0.927348
Si Si7 0.880707 0.175281 0.455348
O O1 0.432126 0.500000 0.280103
O O2 0.494816 0.260705 0.291742
O O3 0.377332 0.252543 0.210066
O O4 0.426554 0.287382 0.398552
O O5 0.905526 0.263284 0.740080
O O6 0.907993 0.223118 0.564823
O O7 0.934092 0.000000 0.688379
O O8 0.836496 0.500000 0.720704
O O9 0.790108 0.768820 0.683983
O O10 0.844697 0.700040 0.857207
O O11 0.668439 0.500000 0.877527
O O12 0.738264 0.729635 0.879032
O O13 0.662245 0.734717 0.976870
O O14 0.243566 0.500000 0.582865
O O15 0.250000 0.750000 0.500000
O O16 0.176912 0.727635 0.596663
O O17 0.805394 0.500000 0.955241
O O18 0.863120 0.000000 0.446152
#
# Coordination Sequence:
#
# PCOD8091395 Si02
#       7
#     8   8   8   8   8   8   8
#     4   9  18  34  56  81 108 143 185 224 271 323
#     4  10  20  34  54  79 109 146 187 225 262 319
#     4  11  22  37  56  78 110 147 180 221 273 325
#     4   9  17  33  57  81 105 134 175 226 270 319
#     4  12  23  35  53  79 111 143 177 220 266 317
#     4   9  19  35  56  81 107 137 172 218 278 330
#     4  10  19  34  56  80 109 145 183 224 269 320
#
# _framework density 18.830787000000001
#
# number of rings (size 3 to 8) (size 9 to 14) (size 15 to 20)
#    0.000    2.000    1.429    3.000    0.000    5.143 
#    0.000    5.714    0.000    6.000    0.000    0.000 
#    0.000    0.000    0.000    0.000    0.000    0.000 
#
# Total GULP energy -347213.003692 kJ/mol
# GULP energy per Si atom -12400.464418 kJ/mol
# Density = 1.878793 g / cm^3
# Si number density = 18.830787 Si / 1000 Ang^3
#
#
#
# Elastic Constant Matrix: (Units=GPa)
#
#
# Indices 1 2 3 4 5 6 
#
# 1 132.9151 32.2691 51.0961 0.0000 -11.0011 0.0000
# 2 32.2691 56.8985 23.6207 0.0000 -5.9918 0.0000
# 3 51.0961 23.6207 87.0275 0.0000 -12.9013 0.0000
# 4 0.0000 0.0000 0.0000 26.6580 0.0000 -3.7242
# 5 -11.0011 -5.9918 -12.9013 0.0000 28.0151 0.0000
# 6 0.0000 0.0000 0.0000 -3.7242 0.0000 27.1254
#
#
#
# Elastic Compliance Matrix: (Units=1/GPa)
#
#
# Indices 1 2 3 4 5 6 
#
# 1 0.010420 -0.003748 -0.004951 0.000000 0.001010 0.000000
# 2 -0.003748 0.021249 -0.003339 0.000000 0.001535 0.000000
# 3 -0.004951 -0.003339 0.016002 0.000000 0.004711 0.000000
# 4 0.000000 0.000000 0.000000 0.038246 0.000000 0.005251
# 5 0.001010 0.001535 0.004711 0.000000 0.038589 0.000000
# 6 0.000000 0.000000 0.000000 0.005251 0.000000 0.037587
#
#
# Mechanical properties :
#
#
# Convention : Reuss Voigt Hill
#
# Bulk Modulus (GPa) = 42.38210 54.53473 48.45842
# Shear Modulus (GPa) = 25.76860 27.68340 26.72600
#
# Velocity S-wave (km/s) = 3.70324 3.83837 3.77141
# Velocity P-wave (km/s) = 6.39070 6.97620 6.68986
#
# Compressibility (1/GPa) = 0.02359487
#
# Stress axis : x y z
#
# Youngs Moduli (GPa) = 95.96469 47.06183 62.49155
#
# Poissons Ratio (x) = 0.17639 0.30940
# Poissons Ratio (y) = 0.35968 0.20866
# Poissons Ratio (z) = 0.47513 0.15714
#
# Static dielectric constant tensor:
#      x y z
#    x 3.723130 0.000000 0.055950 
#    y 0.000000 3.317490 0.000000 
#    z 0.055950 0.000000 3.588060 
# 
# 
# High freq. dielectric constant tensor:
#      x y z
#    x 1.734650 0.000000 -0.006850 
#    y 0.000000 1.710640 0.000000 
#    z -0.006850 0.000000 1.728180 
# 
# From -- ./inp_files/237447.got.cif
#   From: 2010.06.25/outbox.cif.g09.slc.cpg/sg12_119_cif.got.tgz:237447.got - 2010.06.28 00:19:55.
