data_PCOD8091976
_publ_section_title
;
Structure prediction by ZEFSAII (Michael W. Deem and Ramdas Pophale) SiO2 
 PCOD8091976
Probable space group: C 2/M
;
_chemical_formula_sum "Si O2"
_cell_formula_units_Z 36
_cell_length_a 9.022183
_cell_length_b 17.872813
_cell_length_c 11.183115
_cell_angle_alpha 90.000000
_cell_angle_beta 89.782563
_cell_angle_gamma 90.000000
_cell_volume 1803.284322
_symmetry_space_group_name_H-M "C 2/M"
_symmetry_group_IT_number 12
_symmetry_cell_setting 'monoclinic'
loop_
_space_group_symop_operation_xyz
x,y,z
-x,y,-z
-x,-y,-z
x,-y,z
1/2+x,1/2+y,z
1/2-x,1/2+y,-z
1/2-x,1/2-y,-z
1/2+x,1/2-y,z
loop_
_atom_site_type_symbol
_atom_site_label
_atom_site_fract_x
_atom_site_fract_y
_atom_site_fract_z
Si Si1 0.820609 0.840616 0.112987
Si Si2 0.608709 0.500000 0.386490
Si Si3 0.241021 0.842418 0.376555
Si Si4 0.572800 0.500000 0.865210
Si Si5 0.374723 0.288028 0.850016
Si Si6 0.000000 0.737866 0.500000
O O1 0.820482 0.927968 0.146448
O O2 0.666437 0.800619 0.149930
O O3 0.953005 0.798538 0.185143
O O4 0.846741 0.829494 0.973829
O O5 0.500000 0.500000 0.500000
O O6 0.713009 0.428566 0.406919
O O7 0.535786 0.500000 0.251686
O O8 0.235360 0.833206 0.234690
O O9 0.401963 0.817404 0.419634
O O10 0.108455 0.789687 0.423782
O O11 0.500000 0.500000 0.000000
#
# Coordination Sequence:
#
# PCOD8091976 Si02
#       6
#     8   4   8   4   8   4
#     4  10  20  34  59  88 114 147 200 232 298 339
#     4  12  24  37  61  90 121 154 199 253 298 352
#     4  11  21  40  57  85 116 157 199 242 298 346
#     4  12  20  38  59  91 116 160 191 247 287 360
#     4  10  19  34  58  86 113 151 190 247 277 358
#     4  10  24  36  60  80 116 158 200 240 286 364
#
# _framework density 19.963574000000001
#
# number of rings (size 3 to 8) (size 9 to 14) (size 15 to 20)
#    0.000    1.333    5.556    1.333    0.000    0.444 
#    0.000    0.000    0.000   17.333    0.000    0.000 
#    0.000    0.000    0.000    0.000    0.000    0.000 
#
# Total GULP energy -223015.356433 kJ/mol
# GULP energy per Si atom -12389.742024 kJ/mol
# Density = 1.991814 g / cm^3
# Si number density = 19.963574 Si / 1000 Ang^3
#
#
#
# Elastic Constant Matrix: (Units=GPa)
#
#
# Indices 1 2 3 4 5 6 
#
# 1 73.5311 59.3402 29.5178 0.0000 25.4319 0.0000
# 2 59.3402 189.2559 29.9240 0.0000 22.4342 0.0000
# 3 29.5178 29.9240 99.9325 0.0000 30.8431 0.0000
# 4 0.0000 0.0000 0.0000 -125.4677 0.0000 -97.4223
# 5 25.4319 22.4342 30.8431 0.0000 27.6422 0.0000
# 6 0.0000 0.0000 0.0000 -97.4223 0.0000 -47.0200
#
#
#
# Elastic Compliance Matrix: (Units=1/GPa)
#
#
# Indices 1 2 3 4 5 6 
#
# 1 0.024168 -0.005468 -0.000013 0.000000 -0.017784 0.000000
# 2 -0.005468 0.007096 -0.000435 0.000000 -0.000243 0.000000
# 3 -0.000013 -0.000435 0.015296 0.000000 -0.016703 0.000000
# 4 0.000000 0.000000 0.000000 0.013092 0.000000 -0.027125
# 5 -0.017784 -0.000243 -0.016703 0.000000 0.071373 0.000000
# 6 0.000000 0.000000 0.000000 -0.027125 0.000000 0.034933
#
#
# Mechanical properties :
#
#
# Convention : Reuss Voigt Hill
#
# Bulk Modulus (GPa) = 28.79371 66.69816 47.74594
# Shear Modulus (GPa) = 26.40419 -12.70658 6.84880
#
# Velocity S-wave (km/s) = 3.64073 -2.52561 1.85421
# Velocity P-wave (km/s) = 5.66812 4.99775 5.34346
#
# Compressibility (1/GPa) = 0.03472981
#
# Stress axis : x y z
#
# Youngs Moduli (GPa) = 41.37689 140.92863 65.37791
#
# Poissons Ratio (x) = 0.77055 0.00082
# Poissons Ratio (y) = 0.22624 0.02841
# Poissons Ratio (z) = 0.00052 0.06125
#
# Static dielectric constant tensor:
#      x y z
#    x 3.785410 0.000000 0.306390 
#    y 0.000000 3.773660 0.000000 
#    z 0.306390 0.000000 4.008430 
# 
# 
# High freq. dielectric constant tensor:
#      x y z
#    x 1.748760 0.000000 0.012550 
#    y 0.000000 1.781790 0.000000 
#    z 0.012550 0.000000 1.799060 
# 
# From -- ./inp_files/119256.got.cif
#   From: 2010.06.25/outbox.cif.g09.slc.cpg/sg12_60_cif.got.tgz:119256.got - 2010.06.28 00:19:55.
