data_PCOD8091615
_publ_section_title
;
Structure prediction by ZEFSAII (Michael W. Deem and Ramdas Pophale) SiO2 
 PCOD8091615
Probable space group: C 2/M
;
_chemical_formula_sum "Si O2"
_cell_formula_units_Z 64
_cell_length_a 20.218014
_cell_length_b 9.121247
_cell_length_c 22.386570
_cell_angle_alpha 90.000000
_cell_angle_beta 123.254916
_cell_angle_gamma 90.000000
_cell_volume 3452.317593
_symmetry_space_group_name_H-M "C 2/M"
_symmetry_group_IT_number 12
_symmetry_cell_setting 'monoclinic'
loop_
_space_group_symop_operation_xyz
x,y,z
-x,y,-z
-x,-y,-z
x,-y,z
1/2+x,1/2+y,z
1/2-x,1/2+y,-z
1/2-x,1/2-y,-z
1/2+x,1/2-y,z
loop_
_atom_site_type_symbol
_atom_site_label
_atom_site_fract_x
_atom_site_fract_y
_atom_site_fract_z
Si Si1 0.208543 0.671815 0.564046
Si Si2 0.534296 0.172636 0.691567
Si Si3 0.853030 0.329994 0.594947
Si Si4 0.930922 0.673984 0.423959
Si Si5 0.956310 0.334469 0.915478
Si Si6 0.655381 0.671896 0.834658
Si Si7 0.095387 0.168997 0.934525
Si Si8 0.682664 0.327524 0.099000
O O1 0.222652 0.500000 0.572790
O O2 0.163545 0.719707 0.481228
O O3 0.294117 0.747424 0.611078
O O4 0.154272 0.723215 0.592605
O O5 0.442386 0.208810 0.656024
O O6 0.560660 0.230041 0.639407
O O7 0.579995 0.266147 0.762996
O O8 0.551654 0.000000 0.707804
O O9 0.835929 0.500000 0.593813
O O10 0.939699 0.500000 0.429276
O O11 0.000000 0.741045 0.500000
O O12 0.935895 0.500000 0.885670
O O13 0.876041 0.240725 0.880615
O O14 0.014745 0.263265 0.895609
O O15 0.000000 0.331262 0.000000
O O16 0.664904 0.500000 0.827057
O O17 0.643554 0.704961 0.898737
O O18 0.732443 0.755119 0.849488
O O19 0.069777 0.000000 0.925619
O O20 0.152325 0.210510 0.017628
O O21 0.689050 0.500000 0.113455
#
# Coordination Sequence:
#
# PCOD8091615 Si02
#       8
#     8   8   8   8   8   8   8   8
#     4   9  16  28  51  79 101 125 161 207 255 301
#     4  10  20  35  54  74 100 137 179 217 261 315
#     4   9  17  30  49  74 103 130 159 203 254 308
#     4   9  15  29  54  79  99 127 171 216 252 298
#     4   9  17  30  52  82 111 136 167 214 268 316
#     4  11  23  37  52  75 109 144 178 221 272 319
#     4   9  19  35  55  79 106 140 181 224 266 315
#     4  10  19  34  57  81 106 138 180 224 266 317
#
# _framework density 18.538271999999999
#
# number of rings (size 3 to 8) (size 9 to 14) (size 15 to 20)
#    0.000    2.500    1.250    1.500    0.000    3.500 
#    0.000    1.875    0.000    5.250    0.000    0.000 
#    0.000    0.000    0.000    0.000    0.000    0.000 
#
# Total GULP energy -396820.455551 kJ/mol
# GULP energy per Si atom -12400.639236 kJ/mol
# Density = 1.849608 g / cm^3
# Si number density = 18.538272 Si / 1000 Ang^3
#
#
#
# Elastic Constant Matrix: (Units=GPa)
#
#
# Indices 1 2 3 4 5 6 
#
# 1 110.1928 46.2564 26.1396 0.0000 27.1126 0.0000
# 2 46.2564 73.7523 28.1616 0.0000 17.1273 0.0000
# 3 26.1396 28.1616 55.9314 0.0000 16.3872 0.0000
# 4 0.0000 0.0000 0.0000 23.9725 0.0000 6.2719
# 5 27.1126 17.1273 16.3872 0.0000 24.2239 0.0000
# 6 0.0000 0.0000 0.0000 6.2719 0.0000 34.9345
#
#
#
# Elastic Compliance Matrix: (Units=1/GPa)
#
#
# Indices 1 2 3 4 5 6 
#
# 1 0.014719 -0.006417 -0.000188 0.000000 -0.011810 0.000000
# 2 -0.006417 0.020811 -0.006576 0.000000 -0.003083 0.000000
# 3 -0.000188 -0.006576 0.024762 0.000000 -0.011892 0.000000
# 4 0.000000 0.000000 0.000000 0.043770 0.000000 -0.007858
# 5 -0.011810 -0.003083 -0.011892 0.000000 0.064724 0.000000
# 6 0.000000 0.000000 0.000000 -0.007858 0.000000 0.030036
#
#
# Mechanical properties :
#
#
# Convention : Reuss Voigt Hill
#
# Bulk Modulus (GPa) = 29.47250 48.99907 39.23578
# Shear Modulus (GPa) = 21.14221 25.91412 23.52817
#
# Velocity S-wave (km/s) = 3.38074 3.74287 3.56640
# Velocity P-wave (km/s) = 5.58318 6.72067 6.17816
#
# Compressibility (1/GPa) = 0.03392994
#
# Stress axis : x y z
#
# Youngs Moduli (GPa) = 67.93826 48.05232 40.38483
#
# Poissons Ratio (x) = 0.30837 0.00758
# Poissons Ratio (y) = 0.43599 0.26556
# Poissons Ratio (z) = 0.01275 0.31598
#
# Static dielectric constant tensor:
#      x y z
#    x 3.584620 0.000000 0.038960 
#    y 0.000000 3.285530 0.000000 
#    z 0.038960 0.000000 3.148670 
# 
# 
# High freq. dielectric constant tensor:
#      x y z
#    x 1.733390 0.000000 0.010220 
#    y 0.000000 1.706220 0.000000 
#    z 0.010220 0.000000 1.688320 
# 
# From -- ./inp_files/346281.got.cif
#   From: 2010.06.25/outbox.cif.g09.slc.cpg/sg12_174_cif.got.tgz:346281.got - 2010.06.28 00:19:55.
