data_PCOD8091053
_publ_section_title
;
Structure prediction by ZEFSAII (Michael W. Deem and Ramdas Pophale) SiO2 
 PCOD8091053
Probable space group: C 2/M
;
_chemical_formula_sum "Si O2"
_cell_formula_units_Z 64
_cell_length_a 24.163024
_cell_length_b 22.133148
_cell_length_c 6.697381
_cell_angle_alpha 90.000000
_cell_angle_beta 66.163638
_cell_angle_gamma 90.000000
_cell_volume 3276.270584
_symmetry_space_group_name_H-M "C 2/M"
_symmetry_group_IT_number 12
_symmetry_cell_setting 'monoclinic'
loop_
_space_group_symop_operation_xyz
x,y,z
-x,y,-z
-x,-y,-z
x,-y,z
1/2+x,1/2+y,z
1/2-x,1/2+y,-z
1/2-x,1/2-y,-z
1/2+x,1/2-y,z
loop_
_atom_site_type_symbol
_atom_site_label
_atom_site_fract_x
_atom_site_fract_y
_atom_site_fract_z
Si Si1 0.567593 0.661177 0.827460
Si Si2 0.149791 0.271690 0.123978
Si Si3 0.220752 0.431498 0.118863
Si Si4 0.069903 0.299928 0.907825
Si Si5 0.125512 0.151793 0.342698
Si Si6 0.760480 0.661886 0.246689
Si Si7 0.837881 0.346821 0.512840
Si Si8 0.642329 0.430704 0.977338
O O1 0.586207 0.730035 0.842702
O O2 0.571113 0.654013 0.581323
O O3 0.613054 0.611980 0.853033
O O4 0.500000 0.647189 0.000000
O O5 0.123440 0.203623 0.174242
O O6 0.161944 0.291718 0.332156
O O7 0.098442 0.312359 0.085592
O O8 0.212010 0.278149 0.903546
O O9 0.206449 0.500000 0.084726
O O10 0.170157 0.408425 0.349853
O O11 0.285297 0.423455 0.133460
O O12 0.216747 0.395062 0.917773
O O13 0.099716 0.344508 0.701571
O O14 0.000000 0.314610 0.000000
O O15 0.188583 0.161702 0.365874
O O16 0.120333 0.088730 0.231325
O O17 0.782455 0.660024 0.441227
O O18 0.622898 0.500000 0.967293
#
# Coordination Sequence:
#
# PCOD8091053 Si02
#       8
#     8   8   8   8   8   8   8   8
#     4  11  23  38  55  79 110 152 198 243 284 328
#     4  10  19  34  54  83 112 142 182 227 284 340
#     4   9  19  36  58  84 115 150 185 227 280 342
#     4  10  21  37  54  81 117 152 191 232 279 332
#     4  11  20  36  56  78 108 151 182 231 289 339
#     4   9  20  32  53  83 116 140 182 228 283 340
#     4  10  19  35  55  88 114 147 185 226 282 338
#     4  10  22  40  58  80 111 147 194 241 284 336
#
# _framework density 19.534406000000001
#
# number of rings (size 3 to 8) (size 9 to 14) (size 15 to 20)
#    0.000    2.000    2.500    1.125    0.000    2.750 
#    0.000    3.125    0.000    0.375    0.000    7.875 
#    0.000    0.000    0.000    0.000    0.000    0.000 
#
# Total GULP energy -396633.620002 kJ/mol
# GULP energy per Si atom -12394.800625 kJ/mol
# Density = 1.948995 g / cm^3
# Si number density = 19.534406 Si / 1000 Ang^3
#
#
#
# Elastic Constant Matrix: (Units=GPa)
#
#
# Indices 1 2 3 4 5 6 
#
# 1 54.0600 20.8342 27.7482 0.0000 0.4140 0.0000
# 2 20.8342 77.8824 38.3546 0.0000 -10.6273 0.0000
# 3 27.7482 38.3546 114.3845 0.0000 -4.8899 0.0000
# 4 0.0000 0.0000 0.0000 16.4927 0.0000 -2.2533
# 5 0.4140 -10.6273 -4.8899 0.0000 31.3751 0.0000
# 6 0.0000 0.0000 0.0000 -2.2533 0.0000 19.5328
#
#
#
# Elastic Compliance Matrix: (Units=1/GPa)
#
#
# Indices 1 2 3 4 5 6 
#
# 1 0.022250 -0.004274 -0.004066 0.000000 -0.002375 0.000000
# 2 -0.004274 0.016839 -0.004393 0.000000 0.005075 0.000000
# 3 -0.004066 -0.004393 0.011215 0.000000 0.000314 0.000000
# 4 0.000000 0.000000 0.000000 0.061604 0.000000 0.007107
# 5 -0.002375 0.005075 0.000314 0.000000 0.033672 0.000000
# 6 0.000000 0.000000 0.000000 0.007107 0.000000 0.052016
#
#
# Mechanical properties :
#
#
# Convention : Reuss Voigt Hill
#
# Bulk Modulus (GPa) = 40.25859 46.68899 43.47379
# Shear Modulus (GPa) = 21.61319 24.10613 22.85966
#
# Velocity S-wave (km/s) = 3.32989 3.51669 3.42457
# Velocity P-wave (km/s) = 5.95299 6.35943 6.15956
#
# Compressibility (1/GPa) = 0.02483942
#
# Stress axis : x y z
#
# Youngs Moduli (GPa) = 44.94314 59.38636 89.16531
#
# Poissons Ratio (x) = 0.25380 0.36256
# Poissons Ratio (y) = 0.19208 0.39166
# Poissons Ratio (z) = 0.18274 0.26086
#
# Static dielectric constant tensor:
#      x y z
#    x 3.415090 0.000000 0.064400 
#    y 0.000000 3.470850 0.000000 
#    z 0.064400 0.000000 3.595290 
# 
# 
# High freq. dielectric constant tensor:
#      x y z
#    x 1.748100 0.000000 0.011270 
#    y 0.000000 1.736600 0.000000 
#    z 0.011270 0.000000 1.770360 
# 
# From -- ./inp_files/26084.got.cif
#   From: 2010.06.25/outbox.cif.g09.slc.cpg/sg12_14_cif.got.tgz:26084.got - 2010.06.28 00:19:55.
