data_PCOD8091265
_publ_section_title
;
Structure prediction by ZEFSAII (Michael W. Deem and Ramdas Pophale) SiO2 
 PCOD8091265
Probable space group: C 2/M
;
_chemical_formula_sum "Si O2"
_cell_formula_units_Z 56
_cell_length_a 26.799305
_cell_length_b 8.399936
_cell_length_c 13.439915
_cell_angle_alpha 90.000000
_cell_angle_beta 115.120402
_cell_angle_gamma 90.000000
_cell_volume 2739.334120
_symmetry_space_group_name_H-M "C 2/M"
_symmetry_group_IT_number 12
_symmetry_cell_setting 'monoclinic'
loop_
_space_group_symop_operation_xyz
x,y,z
-x,y,-z
-x,-y,-z
x,-y,z
1/2+x,1/2+y,z
1/2-x,1/2+y,-z
1/2-x,1/2-y,-z
1/2+x,1/2-y,z
loop_
_atom_site_type_symbol
_atom_site_label
_atom_site_fract_x
_atom_site_fract_y
_atom_site_fract_z
Si Si1 0.803084 0.315588 0.101430
Si Si2 0.698180 0.684472 0.322332
Si Si3 0.128458 0.811873 0.447830
Si Si4 0.029955 0.814642 0.237048
Si Si5 0.410005 0.316595 0.092006
Si Si6 0.302985 0.315726 0.315943
Si Si7 0.899897 0.317592 0.871710
O O1 0.809122 0.500000 0.080827
O O2 0.857543 0.224255 0.113865
O O3 0.796825 0.292649 0.213887
O O4 0.750000 0.250000 0.000000
O O5 0.715810 0.500000 0.340848
O O6 0.673138 0.749706 0.405028
O O7 0.749829 0.794590 0.340310
O O8 0.651718 0.705967 0.198613
O O9 0.067053 0.754793 0.362747
O O10 0.144629 0.755638 0.573057
O O11 0.131839 0.000000 0.449241
O O12 0.047412 0.723494 0.151593
O O13 0.965424 0.783423 0.203853
O O14 0.042139 0.000000 0.228698
O O15 0.407071 0.500000 0.057274
O O16 0.414369 0.208937 0.998567
O O17 0.308920 0.500000 0.289324
O O18 0.883117 0.500000 0.841452
#
# Coordination Sequence:
#
# PCOD8091265 Si02
#       7
#     8   8   8   8   8   8   8
#     4  12  26  44  62  82 110 143 184 230 277 329
#     4  10  19  34  55  82 116 151 188 228 275 328
#     4   8  17  34  57  84 114 147 184 226 270 324
#     4   9  19  37  59  84 114 148 186 227 272 325
#     4  11  22  38  60  83 110 147 189 231 277 327
#     4  11  21  36  58  84 113 146 186 229 278 330
#     4  11  21  33  53  84 119 151 185 227 278 332
#
# _framework density 20.442924999999999
#
# number of rings (size 3 to 8) (size 9 to 14) (size 15 to 20)
#    0.000    1.714    0.000    6.429    0.000    2.857 
#    0.000    7.143    0.000    4.286    0.000    0.000 
#    0.000    0.000    0.000    0.000    0.000    0.000 
#
# Total GULP energy -347184.641903 kJ/mol
# GULP energy per Si atom -12399.451497 kJ/mol
# Density = 2.039640 g / cm^3
# Si number density = 20.442925 Si / 1000 Ang^3
#
#
#
# Elastic Constant Matrix: (Units=GPa)
#
#
# Indices 1 2 3 4 5 6 
#
# 1 108.7656 13.1588 50.8971 0.0000 19.2681 0.0000
# 2 13.1588 55.5833 13.6234 0.0000 -0.9850 0.0000
# 3 50.8971 13.6234 137.5099 0.0000 12.4996 0.0000
# 4 0.0000 0.0000 0.0000 22.4763 0.0000 -3.6302
# 5 19.2681 -0.9850 12.4996 0.0000 19.0989 0.0000
# 6 0.0000 0.0000 0.0000 -3.6302 0.0000 27.6194
#
#
#
# Elastic Compliance Matrix: (Units=1/GPa)
#
#
# Indices 1 2 3 4 5 6 
#
# 1 0.013129 -0.002416 -0.003620 0.000000 -0.011001 0.000000
# 2 -0.002416 0.018977 -0.001378 0.000000 0.004318 0.000000
# 3 -0.003620 -0.001378 0.008956 0.000000 -0.002280 0.000000
# 4 0.000000 0.000000 0.000000 0.045456 0.000000 0.005975
# 5 -0.011001 0.004318 -0.002280 0.000000 0.065172 0.000000
# 6 0.000000 0.000000 0.000000 0.005975 0.000000 0.036992
#
#
# Mechanical properties :
#
#
# Convention : Reuss Voigt Hill
#
# Bulk Modulus (GPa) = 38.11925 50.80194 44.46059
# Shear Modulus (GPa) = 23.55640 28.78423 26.17031
#
# Velocity S-wave (km/s) = 3.39824 3.75644 3.58182
# Velocity P-wave (km/s) = 5.83819 6.61204 6.23713
#
# Compressibility (1/GPa) = 0.02623347
#
# Stress axis : x y z
#
# Youngs Moduli (GPa) = 76.16549 52.69450 111.65659
#
# Poissons Ratio (x) = 0.12730 0.40423
# Poissons Ratio (y) = 0.18400 0.15391
# Poissons Ratio (z) = 0.27574 0.07264
#
# Static dielectric constant tensor:
#      x y z
#    x 3.643050 0.000000 0.297650 
#    y 0.000000 3.525370 0.000000 
#    z 0.297650 0.000000 3.970050 
# 
# 
# High freq. dielectric constant tensor:
#      x y z
#    x 1.786230 0.000000 0.020250 
#    y 0.000000 1.789590 0.000000 
#    z 0.020250 0.000000 1.801540 
# 
# From -- ./inp_files/180996.got.cif
#   From: 2010.06.25/outbox.cif.g09.slc.cpg/sg12_91_cif.got.tgz:180996.got - 2010.06.28 00:19:55.
