data_PCOD8091536
_publ_section_title
;
Structure prediction by ZEFSAII (Michael W. Deem and Ramdas Pophale) SiO2 
 PCOD8091536
Probable space group: C 2/M
;
_chemical_formula_sum "Si O2"
_cell_formula_units_Z 64
_cell_length_a 30.461217
_cell_length_b 9.003294
_cell_length_c 11.908932
_cell_angle_alpha 90.000000
_cell_angle_beta 88.891373
_cell_angle_gamma 90.000000
_cell_volume 3265.428621
_symmetry_space_group_name_H-M "C 2/M"
_symmetry_group_IT_number 12
_symmetry_cell_setting 'monoclinic'
loop_
_space_group_symop_operation_xyz
x,y,z
-x,y,-z
-x,-y,-z
x,-y,z
1/2+x,1/2+y,z
1/2-x,1/2+y,-z
1/2-x,1/2-y,-z
1/2+x,1/2-y,z
loop_
_atom_site_type_symbol
_atom_site_label
_atom_site_fract_x
_atom_site_fract_y
_atom_site_fract_z
Si Si1 0.052465 0.671326 0.743284
Si Si2 0.454592 0.830095 0.698298
Si Si3 0.206624 0.326261 0.278369
Si Si4 0.804289 0.174780 0.261004
Si Si5 0.926154 0.829600 0.487346
Si Si6 0.674874 0.329754 0.494905
Si Si7 0.618388 0.676709 0.899269
Si Si8 0.375226 0.175219 0.862348
O O1 0.066649 0.500000 0.750228
O O2 0.067274 0.733315 0.623222
O O3 0.074825 0.762251 0.842068
O O4 0.000248 0.689491 0.761569
O O5 0.456519 0.730221 0.586367
O O6 0.415838 0.778454 0.782125
O O7 0.447243 0.000000 0.660606
O O8 0.201130 0.500000 0.296887
O O9 0.254612 0.285162 0.226342
O O10 0.202704 0.255337 0.400773
O O11 0.169670 0.269357 0.194244
O O12 0.814731 0.241101 0.383650
O O13 0.838632 0.238591 0.168643
O O14 0.811730 0.000000 0.267697
O O15 0.876287 0.812687 0.530432
O O16 0.938280 0.000000 0.460573
O O17 0.689945 0.500000 0.490888
O O18 0.616421 0.500000 0.900234
O O19 0.620234 0.735460 0.024268
O O20 0.374842 0.000000 0.887168
#
# Coordination Sequence:
#
# PCOD8091536 Si02
#       8
#     8   8   8   8   8   8   8   8
#     4  11  23  39  61  86 115 152 194 236 286 343
#     4  10  22  40  60  85 118 154 190 237 288 337
#     4  10  20  36  61  86 113 151 193 233 278 340
#     4   9  19  37  58  84 117 151 185 233 289 337
#     4  11  21  35  59  89 121 155 189 231 285 343
#     4  10  19  34  56  84 121 153 183 229 286 339
#     4  11  23  41  61  82 114 152 192 240 293 341
#     4  10  22  40  59  83 113 148 195 242 286 337
#
# _framework density 19.599266
#
# number of rings (size 3 to 8) (size 9 to 14) (size 15 to 20)
#    0.000    1.750    2.500    1.875    0.000    5.000 
#    0.000    3.750    0.000    0.000    0.000    0.000 
#    0.000    0.000    0.000    0.000    0.000    0.000 
#
# Total GULP energy -396904.141792 kJ/mol
# GULP energy per Si atom -12403.254431 kJ/mol
# Density = 1.955466 g / cm^3
# Si number density = 19.599266 Si / 1000 Ang^3
#
#
#
# Elastic Constant Matrix: (Units=GPa)
#
#
# Indices 1 2 3 4 5 6 
#
# 1 101.1329 35.9880 45.1823 0.0000 13.6025 0.0000
# 2 35.9880 61.0626 46.8564 0.0000 2.2566 0.0000
# 3 45.1823 46.8564 127.1047 0.0000 16.0467 0.0000
# 4 0.0000 0.0000 0.0000 36.7933 0.0000 0.0251
# 5 13.6025 2.2566 16.0467 0.0000 19.1310 0.0000
# 6 0.0000 0.0000 0.0000 0.0251 0.0000 22.4557
#
#
#
# Elastic Compliance Matrix: (Units=1/GPa)
#
#
# Indices 1 2 3 4 5 6 
#
# 1 0.014055 -0.006870 -0.001459 0.000000 -0.007959 0.000000
# 2 -0.006870 0.026610 -0.008487 0.000000 0.008864 0.000000
# 3 -0.001459 -0.008487 0.012591 0.000000 -0.008522 0.000000
# 4 0.000000 0.000000 0.000000 0.027179 0.000000 -0.000030
# 5 -0.007959 0.008864 -0.008522 0.000000 0.064033 0.000000
# 6 0.000000 0.000000 0.000000 -0.000030 0.000000 0.044532
#
#
# Mechanical properties :
#
#
# Convention : Reuss Voigt Hill
#
# Bulk Modulus (GPa) = 50.95554 60.59485 55.77519
# Shear Modulus (GPa) = 21.81764 26.42756 24.12260
#
# Velocity S-wave (km/s) = 3.34006 3.67603 3.51207
# Velocity P-wave (km/s) = 6.39764 7.00012 6.70565
#
# Compressibility (1/GPa) = 0.01962495
#
# Stress axis : x y z
#
# Youngs Moduli (GPa) = 71.14973 37.57957 79.42433
#
# Poissons Ratio (x) = 0.25817 0.11586
# Poissons Ratio (y) = 0.48879 0.67405
# Poissons Ratio (z) = 0.10379 0.31893
#
# Static dielectric constant tensor:
#      x y z
#    x 3.867360 0.000000 0.059760 
#    y 0.000000 3.450890 0.000000 
#    z 0.059760 0.000000 3.471140 
# 
# 
# High freq. dielectric constant tensor:
#      x y z
#    x 1.779090 0.000000 0.003250 
#    y 0.000000 1.749930 0.000000 
#    z 0.003250 0.000000 1.758260 
# 
# From -- ./inp_files/187492.got.cif
#   From: 2010.06.25/outbox.cif.g09.slc.cpg/sg12_94_cif.got.tgz:187492.got - 2010.06.28 00:19:55.
