data_PCOD8091325
_publ_section_title
;
Structure prediction by ZEFSAII (Michael W. Deem and Ramdas Pophale) SiO2 
 PCOD8091325
Probable space group: C 2/M
;
_chemical_formula_sum "Si O2"
_cell_formula_units_Z 56
_cell_length_a 28.099137
_cell_length_b 8.909622
_cell_length_c 16.396421
_cell_angle_alpha 90.000000
_cell_angle_beta 131.999947
_cell_angle_gamma 90.000000
_cell_volume 3050.528884
_symmetry_space_group_name_H-M "C 2/M"
_symmetry_group_IT_number 12
_symmetry_cell_setting 'monoclinic'
loop_
_space_group_symop_operation_xyz
x,y,z
-x,y,-z
-x,-y,-z
x,-y,z
1/2+x,1/2+y,z
1/2-x,1/2+y,-z
1/2-x,1/2-y,-z
1/2+x,1/2-y,z
loop_
_atom_site_type_symbol
_atom_site_label
_atom_site_fract_x
_atom_site_fract_y
_atom_site_fract_z
Si Si1 0.116973 0.823690 0.429096
Si Si2 0.660612 0.677724 0.304928
Si Si3 0.148418 0.674410 0.886016
Si Si4 0.728088 0.676834 0.666716
Si Si5 0.533903 0.170077 0.124585
Si Si6 0.739707 0.674929 0.865920
Si Si7 0.981881 0.178256 0.219503
O O1 0.154827 0.766609 0.392097
O O2 0.155949 0.776905 0.555209
O O3 0.043292 0.765918 0.343993
O O4 0.113491 0.000000 0.418488
O O5 0.659519 0.500000 0.295305
O O6 0.725043 0.739608 0.340452
O O7 0.600656 0.745215 0.187630
O O8 0.132963 0.500000 0.859570
O O9 0.186459 0.728198 0.850327
O O10 0.082407 0.763668 0.812737
O O11 0.190497 0.706558 0.015366
O O12 0.739558 0.500000 0.671126
O O13 0.739869 0.729131 0.772627
O O14 0.488551 0.254517 0.136939
O O15 0.545643 0.000000 0.168120
O O16 0.500000 0.171786 0.000000
O O17 0.721571 0.500000 0.853009
O O18 0.978764 0.000000 0.209315
#
# Coordination Sequence:
#
# PCOD8091325 Si02
#       7
#     8   8   8   8   8   8   8
#     4   8  17  34  53  76 106 140 179 217 255 310
#     4  10  20  33  50  77 110 142 177 214 261 315
#     4  10  20  36  56  78 106 137 172 215 267 322
#     4  10  19  34  56  78 104 139 179 223 265 306
#     4  10  21  35  51  74 106 141 180 219 255 305
#     4   9  20  36  55  79 103 132 175 221 264 314
#     4  10  20  35  56  79 105 139 175 213 264 317
#
# _framework density 18.357472999999999
#
# number of rings (size 3 to 8) (size 9 to 14) (size 15 to 20)
#    0.000    2.429    0.000    3.000    2.000    2.286 
#    0.000    4.286    0.000    4.286    0.000    0.000 
#    0.000    0.000    0.000    0.000    0.000    0.000 
#
# Total GULP energy -347138.378328 kJ/mol
# GULP energy per Si atom -12397.799226 kJ/mol
# Density = 1.831569 g / cm^3
# Si number density = 18.357473 Si / 1000 Ang^3
#
#
#
# Elastic Constant Matrix: (Units=GPa)
#
#
# Indices 1 2 3 4 5 6 
#
# 1 83.8094 35.9762 60.9247 0.0000 11.8419 0.0000
# 2 35.9762 69.4559 36.5066 0.0000 3.8174 0.0000
# 3 60.9247 36.5066 114.6618 0.0000 0.5297 0.0000
# 4 0.0000 0.0000 0.0000 22.1937 0.0000 4.5724
# 5 11.8419 3.8174 0.5297 0.0000 25.6400 0.0000
# 6 0.0000 0.0000 0.0000 4.5724 0.0000 31.8154
#
#
#
# Elastic Compliance Matrix: (Units=1/GPa)
#
#
# Indices 1 2 3 4 5 6 
#
# 1 0.023622 -0.006155 -0.010547 0.000000 -0.009776 0.000000
# 2 -0.006155 0.019052 -0.002796 0.000000 0.000064 0.000000
# 3 -0.010547 -0.002796 0.015192 0.000000 0.004973 0.000000
# 4 0.000000 0.000000 0.000000 0.046433 0.000000 -0.006673
# 5 -0.009776 0.000064 0.004973 0.000000 0.043404 0.000000
# 6 0.000000 0.000000 0.000000 -0.006673 0.000000 0.032390
#
#
# Mechanical properties :
#
#
# Convention : Reuss Voigt Hill
#
# Bulk Modulus (GPa) = 52.98977 59.41576 56.20277
# Shear Modulus (GPa) = 22.18502 24.89781 23.54141
#
# Velocity S-wave (km/s) = 3.48012 3.68676 3.58493
# Velocity P-wave (km/s) = 6.71390 7.11050 6.91504
#
# Compressibility (1/GPa) = 0.01887157
#
# Stress axis : x y z
#
# Youngs Moduli (GPa) = 42.33372 52.48905 65.82306
#
# Poissons Ratio (x) = 0.32306 0.69420
# Poissons Ratio (y) = 0.26056 0.18402
# Poissons Ratio (z) = 0.44647 0.14674
#
# Static dielectric constant tensor:
#      x y z
#    x 3.235220 0.000000 0.076760 
#    y 0.000000 3.387810 0.000000 
#    z 0.076760 0.000000 3.715410 
# 
# 
# High freq. dielectric constant tensor:
#      x y z
#    x 1.698240 0.000000 0.007820 
#    y 0.000000 1.708970 0.000000 
#    z 0.007820 0.000000 1.718820 
# 
# From -- ./inp_files/292538.got.cif
#   From: 2010.06.25/outbox.cif.g09.slc.cpg/sg12_147_cif.got.tgz:292538.got - 2010.06.28 00:19:55.
