data_PCOD8091194
_publ_section_title
;
Structure prediction by ZEFSAII (Michael W. Deem and Ramdas Pophale) SiO2 
 PCOD8091194
Probable space group: C 2/M
;
_chemical_formula_sum "Si O2"
_cell_formula_units_Z 40
_cell_length_a 7.523137
_cell_length_b 22.794371
_cell_length_c 16.243844
_cell_angle_alpha 90.000000
_cell_angle_beta 136.100436
_cell_angle_gamma 90.000000
_cell_volume 1931.509913
_symmetry_space_group_name_H-M "C 2/M"
_symmetry_group_IT_number 12
_symmetry_cell_setting 'monoclinic'
loop_
_space_group_symop_operation_xyz
x,y,z
-x,y,-z
-x,-y,-z
x,-y,z
1/2+x,1/2+y,z
1/2-x,1/2+y,-z
1/2-x,1/2-y,-z
1/2+x,1/2-y,z
loop_
_atom_site_type_symbol
_atom_site_label
_atom_site_fract_x
_atom_site_fract_y
_atom_site_fract_z
Si Si1 0.127778 0.108098 0.165844
Si Si2 0.847222 0.433726 0.078823
Si Si3 0.403984 0.795862 0.344246
Si Si4 0.111387 0.175381 0.410087
Si Si5 0.930366 0.933687 0.268479
O O1 0.316634 0.073040 0.167469
O O2 0.250901 0.173123 0.218414
O O3 0.108480 0.076194 0.247933
O O4 0.843565 0.111483 0.030944
O O5 0.767085 0.500000 0.027410
O O6 0.135406 0.421525 0.145637
O O7 0.706386 0.816357 0.448482
O O8 0.278214 0.815925 0.385524
O O9 0.388416 0.725056 0.332918
O O10 0.997788 0.109764 0.366806
O O11 0.967698 0.000000 0.313036
#
# Coordination Sequence:
#
# PCOD8091194 Si02
#       5
#     8   8   8   8   8
#     4  10  19  34  55  80 107 140 183 221 261 317
#     4  10  20  34  55  80 109 149 182 214 268 325
#     4   9  19  35  57  79 104 143 179 222 274 319
#     4   9  19  36  56  81 105 140 182 219 274 325
#     4  10  20  35  56  80 110 142 178 223 269 320
#
# _framework density 20.709187
#
# number of rings (size 3 to 8) (size 9 to 14) (size 15 to 20)
#    0.000    2.400    0.000    3.000    2.800    1.600 
#    0.000   11.000    4.400    2.400    0.000    0.000 
#    0.000    0.000    0.000    0.000    0.000    0.000 
#
# Total GULP energy -247844.884872 kJ/mol
# GULP energy per Si atom -12392.244244 kJ/mol
# Density = 2.066205 g / cm^3
# Si number density = 20.709187 Si / 1000 Ang^3
#
#
#
# Elastic Constant Matrix: (Units=GPa)
#
#
# Indices 1 2 3 4 5 6 
#
# 1 36.4313 22.7358 15.9933 -0.0012 5.8560 -0.0003
# 2 22.7358 162.7445 77.2623 0.0017 10.6704 0.0004
# 3 15.9933 77.2623 89.8155 -0.0085 1.9527 -0.0019
# 4 -0.0012 0.0017 -0.0085 481.4228 -0.0044 111.5394
# 5 5.8560 10.6704 1.9527 -0.0044 20.9604 -0.0010
# 6 -0.0003 0.0004 -0.0019 111.5394 -0.0010 49.8399
#
#
#
# Elastic Compliance Matrix: (Units=1/GPa)
#
#
# Indices 1 2 3 4 5 6 
#
# 1 0.031585 -0.002259 -0.003521 0.000000 -0.007346 0.000000
# 2 -0.002259 0.010982 -0.008955 0.000000 -0.004125 0.000000
# 3 -0.003521 -0.008955 0.019383 0.000000 0.003737 0.000000
# 4 0.000000 0.000000 0.000000 0.004314 0.000001 -0.009655
# 5 -0.007346 -0.004125 0.003737 0.000001 0.051514 0.000000
# 6 0.000000 0.000000 0.000000 -0.009655 0.000000 0.041671
#
#
# Mechanical properties :
#
#
# Convention : Reuss Voigt Hill
#
# Bulk Modulus (GPa) = 30.78854 57.88603 44.33728
# Shear Modulus (GPa) = 25.03165 121.97792 73.50478
#
# Velocity S-wave (km/s) = 3.48044 7.68299 5.96413
# Velocity P-wave (km/s) = 5.57231 10.33039 8.29962
#
# Compressibility (1/GPa) = 0.03247962
#
# Stress axis : x y z
#
# Youngs Moduli (GPa) = 31.66011 91.05681 51.59077
#
# Poissons Ratio (x) = 0.20572 0.18166
# Poissons Ratio (y) = 0.07153 0.46201
# Poissons Ratio (z) = 0.11148 0.81544
#
# Static dielectric constant tensor:
#      x y z
#    x 3.811940 0.000000 0.111600 
#    y 0.000000 3.945780 0.000000 
#    z 0.111600 0.000000 4.012710 
# 
# 
# High freq. dielectric constant tensor:
#      x y z
#    x 1.817930 0.000000 0.005500 
#    y 0.000000 1.795820 0.000000 
#    z 0.005500 0.000000 1.783800 
# 
# From -- ./inp_files/120418.got.cif
#   From: 2010.06.25/outbox.cif.g09.slc.cpg/sg12_61_cif.got.tgz:120418.got - 2010.06.28 00:19:55.
