data_PCOD8091475
_publ_section_title
;
Structure prediction by ZEFSAII (Michael W. Deem and Ramdas Pophale) SiO2 
 PCOD8091475
Probable space group: C 2/M
;
_chemical_formula_sum "Si O2"
_cell_formula_units_Z 64
_cell_length_a 13.966781
_cell_length_b 13.734452
_cell_length_c 18.783632
_cell_angle_alpha 90.000000
_cell_angle_beta 118.700906
_cell_angle_gamma 90.000000
_cell_volume 3160.497411
_symmetry_space_group_name_H-M "C 2/M"
_symmetry_group_IT_number 12
_symmetry_cell_setting 'monoclinic'
loop_
_space_group_symop_operation_xyz
x,y,z
-x,y,-z
-x,-y,-z
x,-y,z
1/2+x,1/2+y,z
1/2-x,1/2+y,-z
1/2-x,1/2-y,-z
1/2+x,1/2-y,z
loop_
_atom_site_type_symbol
_atom_site_label
_atom_site_fract_x
_atom_site_fract_y
_atom_site_fract_z
Si Si1 0.828041 0.225243 0.591874
Si Si2 0.519121 0.715044 0.924716
Si Si3 0.958863 0.392926 0.146904
Si Si4 0.677865 0.213609 0.668555
Si Si5 0.223331 0.893335 0.023565
Si Si6 0.182419 0.892321 0.173717
Si Si7 0.492898 0.110383 0.675699
Si Si8 0.476442 0.613639 0.408695
O O1 0.750000 0.250000 0.500000
O O2 0.748437 0.184073 0.624699
O O3 0.884745 0.324018 0.639916
O O4 0.919593 0.146558 0.601647
O O5 0.471678 0.804696 0.860429
O O6 0.447884 0.624206 0.871818
O O7 0.500000 0.739061 0.000000
O O8 0.646796 0.686418 0.957351
O O9 0.010712 0.500000 0.151777
O O10 0.851978 0.380132 0.058028
O O11 0.942344 0.379907 0.225969
O O12 0.755907 0.194103 0.763220
O O13 0.571696 0.143942 0.639335
O O14 0.632352 0.324804 0.650723
O O15 0.217427 0.886363 0.105668
O O16 0.185174 0.000000 0.983645
O O17 0.208712 0.000000 0.215130
O O18 0.455569 0.000000 0.648335
O O19 0.500000 0.633049 0.500000
O O20 0.453021 0.500000 0.385279
#
# Coordination Sequence:
#
# PCOD8091475 Si02
#       8
#     8   8   8   8   8   8   8   8
#     4  11  23  39  61  90 120 150 194 246 296 350
#     4  10  20  32  52  84 113 148 190 240 290 343
#     4  10  19  35  55  77 110 154 194 232 285 349
#     4  11  21  38  64  87 117 154 197 243 293 348
#     4   9  17  32  55  80 107 143 187 229 283 345
#     4  10  19  34  56  82 113 145 183 237 294 342
#     4  10  22  39  61  88 118 156 197 241 295 356
#     4  10  22  41  62  85 118 157 193 234 290 355
#
# _framework density 20.249976
#
# number of rings (size 3 to 8) (size 9 to 14) (size 15 to 20)
#    0.000    1.875    2.500    1.875    0.000    3.750 
#    0.000    1.250    0.000    1.500    0.000    0.000 
#    0.000    0.000    0.000    0.000    0.000    0.000 
#
# Total GULP energy -396470.112736 kJ/mol
# GULP energy per Si atom -12389.691023 kJ/mol
# Density = 2.020389 g / cm^3
# Si number density = 20.249976 Si / 1000 Ang^3
#
#
#
# Elastic Constant Matrix: (Units=GPa)
#
#
# Indices 1 2 3 4 5 6 
#
# 1 68.3662 26.2963 23.7745 0.0000 -3.8591 0.0000
# 2 26.2963 138.7134 57.3819 0.0000 -7.6049 0.0000
# 3 23.7745 57.3819 44.5724 0.0000 7.1394 0.0000
# 4 0.0000 0.0000 0.0000 34.0203 0.0000 2.0290
# 5 -3.8591 -7.6049 7.1394 0.0000 23.8856 0.0000
# 6 0.0000 0.0000 0.0000 2.0290 0.0000 19.3186
#
#
#
# Elastic Compliance Matrix: (Units=1/GPa)
#
#
# Indices 1 2 3 4 5 6 
#
# 1 0.019530 0.003715 -0.016693 0.000000 0.009328 0.000000
# 2 0.003715 0.019777 -0.029983 0.000000 0.015859 0.000000
# 3 -0.016693 -0.029983 0.075515 0.000000 -0.034815 0.000000
# 4 0.000000 0.000000 0.000000 0.029579 0.000000 -0.003107
# 5 0.009328 0.015859 -0.034815 0.000000 0.058829 0.000000
# 6 0.000000 0.000000 0.000000 -0.003107 0.000000 0.052090
#
#
# Mechanical properties :
#
#
# Convention : Reuss Voigt Hill
#
# Bulk Modulus (GPa) = 34.60222 51.83970 43.22096
# Shear Modulus (GPa) = 14.25001 25.05821 19.65411
#
# Velocity S-wave (km/s) = 2.65562 3.52155 3.11878
# Velocity P-wave (km/s) = 5.15051 6.49542 5.86167
#
# Compressibility (1/GPa) = 0.02889988
#
# Stress axis : x y z
#
# Youngs Moduli (GPa) = 51.20337 50.56273 13.24234
#
# Poissons Ratio (x) = -0.18782 0.22106
# Poissons Ratio (y) = -0.19020 0.39704
# Poissons Ratio (z) = 0.85475 1.51601
#
# Static dielectric constant tensor:
#      x y z
#    x 0.732660 0.000000 2.204790 
#    y 0.000000 4.090850 0.000000 
#    z 2.204790 0.000000 2.184290 
# 
# 
# High freq. dielectric constant tensor:
#      x y z
#    x 1.784340 0.000000 0.012510 
#    y 0.000000 1.794240 0.000000 
#    z 0.012510 0.000000 1.777960 
# 
# From -- ./inp_files/270311.got.cif
#   From: 2010.06.25/outbox.cif.g09.slc.cpg/sg12_136_cif.got.tgz:270311.got - 2010.06.28 00:19:55.
