data_PCOD8091811
_publ_section_title
;
Structure prediction by ZEFSAII (Michael W. Deem and Ramdas Pophale) SiO2 
 PCOD8091811
Probable space group: C 2/M
;
_chemical_formula_sum "Si O2"
_cell_formula_units_Z 64
_cell_length_a 24.109035
_cell_length_b 8.946515
_cell_length_c 29.330607
_cell_angle_alpha 90.000000
_cell_angle_beta 33.422729
_cell_angle_gamma 90.000000
_cell_volume 3484.641218
_symmetry_space_group_name_H-M "C 2/M"
_symmetry_group_IT_number 12
_symmetry_cell_setting 'monoclinic'
loop_
_space_group_symop_operation_xyz
x,y,z
-x,y,-z
-x,-y,-z
x,-y,z
1/2+x,1/2+y,z
1/2-x,1/2+y,-z
1/2-x,1/2-y,-z
1/2+x,1/2-y,z
loop_
_atom_site_type_symbol
_atom_site_label
_atom_site_fract_x
_atom_site_fract_y
_atom_site_fract_z
Si Si1 0.615241 0.828063 0.211660
Si Si2 0.464057 0.324315 0.475576
Si Si3 0.063672 0.328129 0.731655
Si Si4 0.643261 0.675242 0.286484
Si Si5 0.308424 0.323768 0.231544
Si Si6 0.241402 0.325254 0.378031
Si Si7 0.492297 0.175212 0.880739
Si Si8 0.786546 0.825347 0.021007
O O1 0.509858 0.791430 0.259505
O O2 0.623871 0.716717 0.247779
O O3 0.705808 0.794423 0.115430
O O4 0.617927 0.000000 0.226210
O O5 0.500000 0.263574 0.500000
O O6 0.446514 0.500000 0.489350
O O7 0.545862 0.276669 0.382194
O O8 0.359225 0.249133 0.533592
O O9 0.096994 0.500000 0.709311
O O10 0.163875 0.229850 0.657224
O O11 0.005984 0.288993 0.817931
O O12 0.664750 0.500000 0.276780
O O13 0.739730 0.765572 0.237771
O O14 0.323937 0.500000 0.216845
O O15 0.256940 0.278298 0.314711
O O16 0.416230 0.244213 0.153122
O O17 0.231134 0.500000 0.391171
O O18 0.485379 0.000000 0.895372
O O19 0.390434 0.253945 0.967114
O O20 0.800709 0.000000 0.001879
O O21 0.750000 0.750000 0.000000
#
# Coordination Sequence:
#
# PCOD8091811 Si02
#       8
#     8   8   8   8   8   8   8   8
#     4  10  22  40  58  81 115 154 187 226 283 338
#     4  10  20  36  57  81 112 147 186 231 282 335
#     4   9  18  35  56  79 112 151 185 221 280 338
#     4  11  23  38  58  84 112 150 191 231 280 337
#     4  10  20  35  55  83 116 150 184 228 284 337
#     4  10  20  32  54  87 114 140 184 236 280 323
#     4  10  19  34  57  86 115 145 186 236 281 329
#     4  11  21  36  58  86 116 148 190 234 281 332
#
# _framework density 18.366309000000001
#
# number of rings (size 3 to 8) (size 9 to 14) (size 15 to 20)
#    0.000    1.875    2.500    1.875    0.000    4.250 
#    0.000    1.250    0.000    3.750    0.000    0.000 
#    0.000    0.000    0.000    0.000    0.000    0.000 
#
# Total GULP energy -396963.492586 kJ/mol
# GULP energy per Si atom -12405.109143 kJ/mol
# Density = 1.832451 g / cm^3
# Si number density = 18.366309 Si / 1000 Ang^3
#
#
#
# Elastic Constant Matrix: (Units=GPa)
#
#
# Indices 1 2 3 4 5 6 
#
# 1 100.2977 41.5728 54.9639 -0.0094 -12.4972 0.0183
# 2 41.5728 79.0056 54.5371 -0.0055 -7.6263 -0.0078
# 3 54.9639 54.5371 106.6827 -0.0021 -21.9598 -0.0040
# 4 -0.0094 -0.0055 -0.0021 31.7756 0.0010 -4.9888
# 5 -12.4972 -7.6263 -21.9598 0.0010 28.9915 -0.0085
# 6 0.0183 -0.0078 -0.0040 -4.9888 -0.0085 34.2328
#
#
#
# Elastic Compliance Matrix: (Units=1/GPa)
#
#
# Indices 1 2 3 4 5 6 
#
# 1 0.014654 -0.003953 -0.005263 0.000002 0.001290 -0.000009
# 2 -0.003953 0.020831 -0.009282 0.000003 -0.003255 0.000005
# 3 -0.005263 -0.009282 0.018791 -0.000001 0.009523 0.000005
# 4 0.000002 0.000003 -0.000001 0.032208 0.000001 0.004694
# 5 0.001290 -0.003255 0.009523 0.000001 0.041406 0.000010
# 6 -0.000009 0.000005 0.000005 0.004694 0.000010 0.029896
#
#
# Mechanical properties :
#
#
# Convention : Reuss Voigt Hill
#
# Bulk Modulus (GPa) = 57.87781 65.34814 61.61298
# Shear Modulus (GPa) = 24.93252 27.99413 26.46332
#
# Velocity S-wave (km/s) = 3.68844 3.90835 3.79999
# Velocity P-wave (km/s) = 7.05131 7.48496 7.27137
#
# Compressibility (1/GPa) = 0.01727778
#
# Stress axis : x y z
#
# Youngs Moduli (GPa) = 68.24069 48.00610 53.21783
#
# Poissons Ratio (x) = 0.18977 0.28011
# Poissons Ratio (y) = 0.26976 0.49398
# Poissons Ratio (z) = 0.35918 0.44561
#
# Static dielectric constant tensor:
#      x y z
#    x 3.274340 -0.000010 -0.193780 
#    y -0.000010 3.373840 0.000010 
#    z -0.193780 0.000010 3.428900 
# 
# 
# High freq. dielectric constant tensor:
#      x y z
#    x 1.702080 0.000000 -0.023120 
#    y 0.000000 1.719690 0.000000 
#    z -0.023120 0.000000 1.708110 
# 
# From -- ./inp_files/238646.got.cif
#   From: 2010.06.25/outbox.cif.g09.slc.cpg/sg12_120_cif.got.tgz:238646.got - 2010.06.28 00:19:55.
