data_PCOD8091851
_publ_section_title
;
Structure prediction by ZEFSAII (Michael W. Deem and Ramdas Pophale) SiO2 
 PCOD8091851
Probable space group: C 2/M
;
_chemical_formula_sum "Si O2"
_cell_formula_units_Z 56
_cell_length_a 23.595911
_cell_length_b 24.032924
_cell_length_c 7.131246
_cell_angle_alpha 90.000000
_cell_angle_beta 137.166897
_cell_angle_gamma 90.000000
_cell_volume 2749.359516
_symmetry_space_group_name_H-M "C 2/M"
_symmetry_group_IT_number 12
_symmetry_cell_setting 'monoclinic'
loop_
_space_group_symop_operation_xyz
x,y,z
-x,y,-z
-x,-y,-z
x,-y,z
1/2+x,1/2+y,z
1/2-x,1/2+y,-z
1/2-x,1/2-y,-z
1/2+x,1/2-y,z
loop_
_atom_site_type_symbol
_atom_site_label
_atom_site_fract_x
_atom_site_fract_y
_atom_site_fract_z
Si Si1 0.840801 0.236537 0.805420
Si Si2 0.354000 0.352570 0.567112
Si Si3 0.159306 0.644240 0.117300
Si Si4 0.858101 0.064055 0.888069
Si Si5 0.593791 0.657129 0.733456
Si Si6 0.904695 0.561611 0.323091
Si Si7 0.663045 0.938341 0.437655
O O1 0.750000 0.250000 0.500000
O O2 0.892055 0.201200 0.771755
O O3 0.884664 0.295314 0.965558
O O4 0.843267 0.198909 0.002591
O O5 0.256615 0.346134 0.360988
O O6 0.380324 0.409693 0.737125
O O7 0.376935 0.352265 0.407238
O O8 0.125610 0.605104 0.200519
O O9 0.142560 0.613202 0.882768
O O10 0.761207 0.070887 0.708400
O O11 0.886452 0.000000 0.954744
O O12 0.908560 0.097174 0.170166
O O13 0.500000 0.681577 0.500000
O O14 0.869845 0.500000 0.180554
O O15 0.891095 0.570243 0.509128
O O16 0.000000 0.566026 0.500000
O O17 0.648645 0.000000 0.320089
#
# Coordination Sequence:
#
# PCOD8091851 Si02
#       7
#     8   8   8   8   8   8   8
#     4   9  21  38  57  82 108 141 187 235 280 331
#     4   9  20  38  58  80 111 145 183 233 284 330
#     4  10  19  34  58  79  99 139 188 225 268 324
#     4   9  19  36  58  85 111 141 187 232 276 337
#     4  11  23  38  57  83 116 151 185 231 290 341
#     4  10  21  34  49  76 112 143 174 220 277 330
#     4   9  18  34  55  78 106 138 177 226 271 323
#
# _framework density 20.368378
#
# number of rings (size 3 to 8) (size 9 to 14) (size 15 to 20)
#    0.000    2.429    0.000    2.143    0.000    8.286 
#    0.000    4.286    0.000    0.000    0.000    0.000 
#    0.000    0.000    0.000    0.000    0.000    0.000 
#
# Total GULP energy -346927.203122 kJ/mol
# GULP energy per Si atom -12390.257254 kJ/mol
# Density = 2.032202 g / cm^3
# Si number density = 20.368378 Si / 1000 Ang^3
#
#
#
# Elastic Constant Matrix: (Units=GPa)
#
#
# Indices 1 2 3 4 5 6 
#
# 1 77.8020 38.9723 49.2795 0.0000 -32.0878 0.0000
# 2 38.9723 177.7074 55.5617 0.0000 -27.4263 0.0000
# 3 49.2795 55.5617 72.6412 0.0000 -36.8940 0.0000
# 4 0.0000 0.0000 0.0000 2.3777 0.0000 0.4427
# 5 -32.0878 -27.4263 -36.8940 0.0000 34.1162 0.0000
# 6 0.0000 0.0000 0.0000 0.4427 0.0000 7.8721
#
#
#
# Elastic Compliance Matrix: (Units=1/GPa)
#
#
# Indices 1 2 3 4 5 6 
#
# 1 0.024325 -0.000296 -0.010597 0.000000 0.011181 0.000000
# 2 -0.000296 0.007402 -0.005724 0.000000 -0.000517 0.000000
# 3 -0.010597 -0.005724 0.039787 0.000000 0.028458 0.000000
# 4 0.000000 0.000000 0.000000 0.425017 0.000000 -0.023901
# 5 0.011181 -0.000517 0.028458 0.000000 0.070187 0.000000
# 6 0.000000 0.000000 0.000000 -0.023901 0.000000 0.128376
#
#
# Mechanical properties :
#
#
# Convention : Reuss Voigt Hill
#
# Bulk Modulus (GPa) = 26.12269 68.41975 47.27122
# Shear Modulus (GPa) = 6.74686 21.16234 13.95460
#
# Velocity S-wave (km/s) = 1.82198 3.22682 2.62030
# Velocity P-wave (km/s) = 4.15682 6.89545 5.69326
#
# Compressibility (1/GPa) = 0.03828089
#
# Stress axis : x y z
#
# Youngs Moduli (GPa) = 41.11063 135.10287 25.13407
#
# Poissons Ratio (x) = 0.03996 0.26634
# Poissons Ratio (y) = 0.01216 0.14386
# Poissons Ratio (z) = 0.43563 0.77328
#
# Static dielectric constant tensor:
#      x y z
#    x 3.220430 0.000000 0.068710 
#    y 0.000000 4.292210 0.000000 
#    z 0.068710 0.000000 3.421200 
# 
# 
# High freq. dielectric constant tensor:
#      x y z
#    x 1.769130 0.000000 -0.017900 
#    y 0.000000 1.811950 0.000000 
#    z -0.017900 0.000000 1.790530 
# 
# From -- ./inp_files/29630.got.cif
#   From: 2010.06.25/outbox.cif.g09.slc.cpg/sg12_15_cif.got.tgz:29630.got - 2010.06.28 00:19:55.
