data_PCOD8091639
_publ_section_title
;
Structure prediction by ZEFSAII (Michael W. Deem and Ramdas Pophale) SiO2 
 PCOD8091639
Probable space group: C 2/M
;
_chemical_formula_sum "Si O2"
_cell_formula_units_Z 48
_cell_length_a 13.669033
_cell_length_b 23.185291
_cell_length_c 13.396652
_cell_angle_alpha 90.000000
_cell_angle_beta 36.429596
_cell_angle_gamma 90.000000
_cell_volume 2521.227863
_symmetry_space_group_name_H-M "C 2/M"
_symmetry_group_IT_number 12
_symmetry_cell_setting 'monoclinic'
loop_
_space_group_symop_operation_xyz
x,y,z
-x,y,-z
-x,-y,-z
x,-y,z
1/2+x,1/2+y,z
1/2-x,1/2+y,-z
1/2-x,1/2-y,-z
1/2+x,1/2-y,z
loop_
_atom_site_type_symbol
_atom_site_label
_atom_site_fract_x
_atom_site_fract_y
_atom_site_fract_z
Si Si1 0.676555 0.500000 0.983236
Si Si2 0.897491 0.295336 0.373143
Si Si3 0.221056 0.877350 0.642720
Si Si4 0.403748 0.190760 0.990658
Si Si5 0.210506 0.000000 0.733618
Si Si6 0.163524 0.121187 0.060860
Si Si7 0.775019 0.697421 0.791695
O O1 0.484650 0.500000 0.114416
O O2 0.723299 0.555023 0.011545
O O3 0.769668 0.500000 0.800133
O O4 0.750000 0.250000 0.500000
O O5 0.825614 0.358699 0.459600
O O6 0.974082 0.295528 0.200405
O O7 0.040190 0.280687 0.336257
O O8 0.279281 0.941563 0.625925
O O9 0.258884 0.828634 0.694792
O O10 0.031200 0.874461 0.768143
O O11 0.500000 0.156716 0.000000
O O12 0.247052 0.153912 0.084569
O O13 0.346284 0.249630 0.090052
O O14 0.221742 0.146193 0.908260
#
# Coordination Sequence:
#
# PCOD8091639 Si02
#       7
#     4   8   8   8   4   8   8
#     4   9  16  32  56  85 110 145 185 219 267 348
#     4  11  22  36  52  80 114 150 186 227 280 330
#     4  11  20  35  59  88 119 142 175 230 290 344
#     4  11  23  38  55  76 106 151 198 233 267 320
#     4   9  18  32  56  90 118 144 172 215 287 360
#     4  10  19  34  57  81 110 145 186 224 269 331
#     4  11  20  34  56  82 111 146 180 225 282 342
#
# _framework density 19.038343000000001
#
# number of rings (size 3 to 8) (size 9 to 14) (size 15 to 20)
#    0.000    1.500    1.667    7.000    0.000    0.000 
#    0.000    7.917    0.000    0.000    0.000    3.500 
#    0.000    0.000    0.000    0.000    0.000    0.000 
#
# Total GULP energy -297527.250041 kJ/mol
# GULP energy per Si atom -12396.968752 kJ/mol
# Density = 1.899501 g / cm^3
# Si number density = 19.038343 Si / 1000 Ang^3
#
#
#
# Elastic Constant Matrix: (Units=GPa)
#
#
# Indices 1 2 3 4 5 6 
#
# 1 106.9392 44.7659 31.1751 -0.0026 -7.1463 0.0010
# 2 44.7659 122.6870 39.4994 -0.0031 7.4319 0.0003
# 3 31.1751 39.4994 74.3876 -0.0070 -12.4344 -0.0033
# 4 -0.0026 -0.0031 -0.0070 27.6245 -0.0028 1.4250
# 5 -7.1463 7.4319 -12.4344 -0.0028 20.8011 0.0005
# 6 0.0010 0.0003 -0.0033 1.4250 0.0005 18.3909
#
#
#
# Elastic Compliance Matrix: (Units=1/GPa)
#
#
# Indices 1 2 3 4 5 6 
#
# 1 0.011901 -0.003871 -0.002241 0.000001 0.004132 -0.000001
# 2 -0.003871 0.012225 -0.006468 -0.000002 -0.009564 -0.000001
# 3 -0.002241 -0.006468 0.020081 0.000005 0.013545 0.000003
# 4 0.000001 -0.000002 0.000005 0.036345 0.000009 -0.002816
# 5 0.004132 -0.009564 0.013545 0.000009 0.061008 0.000000
# 6 -0.000001 -0.000001 0.000003 -0.002816 0.000000 0.054593
#
#
# Mechanical properties :
#
#
# Convention : Reuss Voigt Hill
#
# Bulk Modulus (GPa) = 52.50326 59.43272 55.96799
# Shear Modulus (GPa) = 21.96241 25.93487 23.94864
#
# Velocity S-wave (km/s) = 3.40014 3.69486 3.55056
# Velocity P-wave (km/s) = 6.56141 7.03476 6.80220
#
# Compressibility (1/GPa) = 0.01904644
#
# Stress axis : x y z
#
# Youngs Moduli (GPa) = 84.02545 81.79976 49.79864
#
# Poissons Ratio (x) = 0.31666 0.11162
# Poissons Ratio (y) = 0.32528 0.32208
# Poissons Ratio (z) = 0.18834 0.52906
#
# Static dielectric constant tensor:
#      x y z
#    x 3.542910 -0.000010 -0.113310 
#    y -0.000010 3.640450 0.000000 
#    z -0.113310 0.000000 3.526980 
# 
# 
# High freq. dielectric constant tensor:
#      x y z
#    x 1.729180 0.000000 -0.013180 
#    y 0.000000 1.734220 0.000000 
#    z -0.013180 0.000000 1.740770 
# 
# From -- ./inp_files/218458.got.cif
#   From: 2010.06.25/outbox.cif.g09.slc.cpg/sg12_110_cif.got.tgz:218458.got - 2010.06.28 00:19:55.
