data_PCOD8091518
_publ_section_title
;
Structure prediction by ZEFSAII (Michael W. Deem and Ramdas Pophale) SiO2 
 PCOD8091518
Probable space group: C 2/M
;
_chemical_formula_sum "Si O2"
_cell_formula_units_Z 56
_cell_length_a 26.058452
_cell_length_b 18.366778
_cell_length_c 9.217112
_cell_angle_alpha 90.000000
_cell_angle_beta 45.462648
_cell_angle_gamma 90.000000
_cell_volume 3144.416759
_symmetry_space_group_name_H-M "C 2/M"
_symmetry_group_IT_number 12
_symmetry_cell_setting 'monoclinic'
loop_
_space_group_symop_operation_xyz
x,y,z
-x,y,-z
-x,-y,-z
x,-y,z
1/2+x,1/2+y,z
1/2-x,1/2+y,-z
1/2-x,1/2-y,-z
1/2+x,1/2-y,z
loop_
_atom_site_type_symbol
_atom_site_label
_atom_site_fract_x
_atom_site_fract_y
_atom_site_fract_z
Si Si1 0.820288 0.326471 0.719585
Si Si2 0.660176 0.308557 0.135282
Si Si3 0.915192 0.710779 0.943580
Si Si4 0.934516 0.920614 0.525133
Si Si5 0.580660 0.082175 0.286586
Si Si6 0.539636 0.688285 0.778673
Si Si7 0.328801 0.773754 0.393840
O O1 0.852910 0.249775 0.709960
O O2 0.866782 0.393517 0.687465
O O3 0.820361 0.330062 0.544534
O O4 0.741476 0.330271 0.943405
O O5 0.624644 0.276915 0.059779
O O6 0.626475 0.382557 0.258887
O O7 0.912711 0.635773 0.862148
O O8 0.996827 0.738337 0.811203
O O9 0.872136 0.690353 0.175161
O O10 0.962245 0.874817 0.334454
O O11 0.000000 0.932526 0.500000
O O12 0.906185 0.000000 0.528869
O O13 0.500000 0.085705 0.500000
O O14 0.601322 0.000000 0.198644
O O15 0.623066 0.705758 0.647572
O O16 0.500000 0.657611 0.000000
O O17 0.250000 0.750000 0.500000
#
# Coordination Sequence:
#
# PCOD8091518 Si02
#       7
#     8   8   8   8   8   8   8
#     4  10  20  34  59  82 109 144 188 231 277 327
#     4  10  19  34  56  84 107 144 185 234 276 322
#     4  10  20  35  59  83 113 144 185 236 277 329
#     4  11  22  35  56  84 114 147 184 229 281 336
#     4  10  22  38  58  84 113 148 186 231 283 336
#     4  10  21  35  56  82 113 150 187 228 282 327
#     4  11  20  34  55  87 111 142 192 237 271 323
#
# _framework density 17.809343999999999
#
# number of rings (size 3 to 8) (size 9 to 14) (size 15 to 20)
#    0.000    1.714    4.286    0.857    2.000    0.857 
#    0.000    0.714    0.000    6.429    0.000    0.000 
#    0.000    0.000    0.000    0.000    0.000    0.000 
#
# Total GULP energy -347129.247492 kJ/mol
# GULP energy per Si atom -12397.473125 kJ/mol
# Density = 1.776881 g / cm^3
# Si number density = 17.809344 Si / 1000 Ang^3
#
#
#
# Elastic Constant Matrix: (Units=GPa)
#
#
# Indices 1 2 3 4 5 6 
#
# 1 108.0725 47.6965 42.1291 0.0000 0.6119 0.0000
# 2 47.6965 123.7968 60.2834 0.0000 6.0016 0.0000
# 3 42.1291 60.2834 83.4661 0.0000 16.5407 0.0000
# 4 0.0000 0.0000 0.0000-2076.8267 0.0000 -636.8750
# 5 0.6119 6.0016 16.5407 0.0000 40.2475 0.0000
# 6 0.0000 0.0000 0.0000 -636.8750 0.0000 -182.2768
#
#
#
# Elastic Compliance Matrix: (Units=1/GPa)
#
#
# Indices 1 2 3 4 5 6 
#
# 1 0.012202 -0.002466 -0.004806 0.000000 0.002157 0.000000
# 2 -0.002466 0.013108 -0.008538 0.000000 0.001592 0.000000
# 3 -0.004806 -0.008538 0.022107 0.000000 -0.007739 0.000000
# 4 0.000000 0.000000 0.000000 0.006738 0.000000 -0.023542
# 5 0.002157 0.001592 -0.007739 0.000000 0.027757 0.000000
# 6 0.000000 0.000000 0.000000 -0.023542 0.000000 0.076771
#
#
# Mechanical properties :
#
#
# Convention : Reuss Voigt Hill
#
# Bulk Modulus (GPa) = 63.29852 68.39483 65.84668
# Shear Modulus (GPa) = 25.56640 -432.75613 -203.59486
#
# Velocity S-wave (km/s) = 3.79299 -15.60517 -10.70361
# Velocity P-wave (km/s) = 7.40283 16.91768 10.75653
#
# Compressibility (1/GPa) = 0.01579816
#
# Stress axis : x y z
#
# Youngs Moduli (GPa) = 81.95074 76.28672 45.23423
#
# Poissons Ratio (x) = 0.18811 0.21738
# Poissons Ratio (y) = 0.20207 0.38623
# Poissons Ratio (z) = 0.39383 0.65137
#
# Static dielectric constant tensor:
#      x y z
#    x 3.523610 0.000000 0.073890 
#    y 0.000000 3.266590 0.000000 
#    z 0.073890 0.000000 3.302230 
# 
# 
# High freq. dielectric constant tensor:
#      x y z
#    x 1.701640 0.000000 -0.000670 
#    y 0.000000 1.656510 0.000000 
#    z -0.000670 0.000000 1.703930 
# 
# From -- ./inp_files/98029.got.cif
#   From: 2010.06.25/outbox.cif.g09.slc.cpg/sg12_50_cif.got.tgz:98029.got - 2010.06.28 00:19:55.
