data_PCOD8091549
_publ_section_title
;
Structure prediction by ZEFSAII (Michael W. Deem and Ramdas Pophale) SiO2 
 PCOD8091549
Probable space group: C 2/M
;
_chemical_formula_sum "Si O2"
_cell_formula_units_Z 44
_cell_length_a 14.807707
_cell_length_b 14.370467
_cell_length_c 22.050345
_cell_angle_alpha 90.000000
_cell_angle_beta 29.776347
_cell_angle_gamma 90.000000
_cell_volume 2330.207069
_symmetry_space_group_name_H-M "C 2/M"
_symmetry_group_IT_number 12
_symmetry_cell_setting 'monoclinic'
loop_
_space_group_symop_operation_xyz
x,y,z
-x,y,-z
-x,-y,-z
x,-y,z
1/2+x,1/2+y,z
1/2-x,1/2+y,-z
1/2-x,1/2-y,-z
1/2+x,1/2-y,z
loop_
_atom_site_type_symbol
_atom_site_label
_atom_site_fract_x
_atom_site_fract_y
_atom_site_fract_z
Si Si1 0.205160 0.741774 0.252759
Si Si2 0.469877 0.395253 0.449675
Si Si3 0.873712 0.305687 0.382451
Si Si4 0.500000 0.169430 0.000000
Si Si5 0.321050 0.106269 0.986861
Si Si6 0.524197 0.268725 0.803481
O O1 0.090723 0.835156 0.333368
O O2 0.301690 0.702967 0.256928
O O3 0.062357 0.666964 0.306953
O O4 0.353565 0.762174 0.115188
O O5 0.500000 0.357406 0.500000
O O6 0.540271 0.500000 0.401811
O O7 0.251502 0.392680 0.564357
O O8 0.750000 0.250000 0.500000
O O9 0.917837 0.239111 0.299752
O O10 0.404734 0.105184 0.005454
O O11 0.119775 0.148766 0.104771
O O12 0.314023 0.000000 0.966944
O O13 0.446921 0.168224 0.869513
#
# Coordination Sequence:
#
# PCOD8091549 Si02
#       6
#     8   8   8   4   8   8
#     4  10  20  35  58  79 111 146 184 225 280 334
#     4  10  20  34  54  81 110 141 182 230 280 331
#     4  10  20  36  55  79 109 149 183 225 275 333
#     4  10  19  34  56  86 109 140 185 234 284 332
#     4  10  21  35  55  82 114 149 186 232 282 333
#     4  10  20  37  55  81 114 148 187 230 281 337
#
# _framework density 18.882442000000001
#
# number of rings (size 3 to 8) (size 9 to 14) (size 15 to 20)
#    0.000    2.000    3.636    0.273    0.000    4.364 
#    0.000    0.909    0.000    1.091    0.000    5.091 
#    0.000    0.000    0.000    0.000    0.000    0.000 
#
# Total GULP energy -272684.622856 kJ/mol
# GULP energy per Si atom -12394.755584 kJ/mol
# Density = 1.883946 g / cm^3
# Si number density = 18.882442 Si / 1000 Ang^3
#
#
#
# Elastic Constant Matrix: (Units=GPa)
#
#
# Indices 1 2 3 4 5 6 
#
# 1 132.5702 30.7140 61.8893 0.0008 -18.7804 -0.0001
# 2 30.7140 63.3879 16.9188 -0.0117 -8.9655 0.0011
# 3 61.8893 16.9188 102.3201 -0.0339 -8.9312 0.0034
# 4 0.0008 -0.0117 -0.0339 17.8069 0.0012 -4.3631
# 5 -18.7804 -8.9655 -8.9312 0.0012 46.0720 0.0006
# 6 -0.0001 0.0011 0.0034 -4.3631 0.0006 15.3536
#
#
#
# Elastic Compliance Matrix: (Units=1/GPa)
#
#
# Indices 1 2 3 4 5 6 
#
# 1 0.011688 -0.003597 -0.006225 -0.000016 0.002857 -0.000003
# 2 -0.003597 0.017956 -0.000627 0.000011 0.001906 0.000002
# 3 -0.006225 -0.000627 0.013641 0.000027 -0.000015 0.000005
# 4 -0.000016 0.000011 0.000027 0.060361 -0.000001 0.017153
# 5 0.002857 0.001906 -0.000015 -0.000001 0.023238 -0.000001
# 6 -0.000003 0.000002 0.000005 0.017153 -0.000001 0.070006
#
#
# Mechanical properties :
#
#
# Convention : Reuss Voigt Hill
#
# Bulk Modulus (GPa) = 44.67102 57.48028 51.07565
# Shear Modulus (GPa) = 22.19762 28.43024 25.31393
#
# Velocity S-wave (km/s) = 3.43238 3.88447 3.66540
# Velocity P-wave (km/s) = 6.27830 7.11520 6.70981
#
# Compressibility (1/GPa) = 0.02238588
#
# Stress axis : x y z
#
# Youngs Moduli (GPa) = 85.56110 55.69208 73.30908
#
# Poissons Ratio (x) = 0.20035 0.45636
# Poissons Ratio (y) = 0.30780 0.04594
# Poissons Ratio (z) = 0.53263 0.03490
#
# Static dielectric constant tensor:
#      x y z
#    x 3.898820 0.000030 -0.272960 
#    y 0.000030 3.000660 0.000000 
#    z -0.272960 0.000000 3.716020 
# 
# 
# High freq. dielectric constant tensor:
#      x y z
#    x 1.753840 0.000000 -0.006270 
#    y 0.000000 1.677370 0.000000 
#    z -0.006270 0.000000 1.751110 
# 
# From -- ./inp_files/167056.got.cif
#   From: 2010.06.25/outbox.cif.g09.slc.cpg/sg12_84_cif.got.tgz:167056.got - 2010.06.28 00:19:55.
