data_PCOD8091077
_publ_section_title
;
Structure prediction by ZEFSAII (Michael W. Deem and Ramdas Pophale) SiO2 
 PCOD8091077
Probable space group: C 2/M
;
_chemical_formula_sum "Si O2"
_cell_formula_units_Z 64
_cell_length_a 29.980794
_cell_length_b 9.243478
_cell_length_c 18.653048
_cell_angle_alpha 90.000000
_cell_angle_beta 39.633655
_cell_angle_gamma 90.000000
_cell_volume 3297.349130
_symmetry_space_group_name_H-M "C 2/M"
_symmetry_group_IT_number 12
_symmetry_cell_setting 'monoclinic'
loop_
_space_group_symop_operation_xyz
x,y,z
-x,y,-z
-x,-y,-z
x,-y,z
1/2+x,1/2+y,z
1/2-x,1/2+y,-z
1/2-x,1/2-y,-z
1/2+x,1/2-y,z
loop_
_atom_site_type_symbol
_atom_site_label
_atom_site_fract_x
_atom_site_fract_y
_atom_site_fract_z
Si Si1 0.790125 0.166384 0.082755
Si Si2 0.284766 0.671680 0.248785
Si Si3 0.844314 0.167319 0.526354
Si Si4 0.066404 0.171647 0.872656
Si Si5 0.560566 0.328128 0.718626
Si Si6 0.078536 0.835522 0.425994
Si Si7 0.915639 0.172349 0.834146
Si Si8 0.139736 0.665684 0.229106
O O1 0.778369 0.234904 0.175932
O O2 0.722893 0.183460 0.114581
O O3 0.808557 0.000000 0.074111
O O4 0.855689 0.236475 0.960608
O O5 0.274444 0.500000 0.266059
O O6 0.225071 0.742270 0.371550
O O7 0.361225 0.719780 0.180949
O O8 0.875414 0.221951 0.411594
O O9 0.906073 0.188642 0.508837
O O10 0.822428 0.000000 0.549377
O O11 0.067166 0.235002 0.790727
O O12 0.060101 0.000000 0.877541
O O13 0.000000 0.233340 0.000000
O O14 0.558281 0.500000 0.723373
O O15 0.488461 0.270420 0.774532
O O16 0.127091 0.721787 0.324998
O O17 0.000000 0.799205 0.500000
O O18 0.097249 0.000000 0.380817
O O19 0.904964 0.237365 0.768975
O O20 0.912220 0.000000 0.831162
O O21 0.116217 0.500000 0.250880
#
# Coordination Sequence:
#
# PCOD8091077 Si02
#       8
#     8   8   8   8   8   8   8   8
#     4   9  18  32  51  76 106 139 175 218 268 318
#     4  10  19  34  56  81 110 141 177 221 268 321
#     4  10  20  34  52  76 108 142 178 220 265 317
#     4   9  17  31  56  87 110 134 175 223 267 313
#     4   9  18  33  53  78 106 136 177 225 265 306
#     4  10  20  35  54  74  99 141 193 230 259 309
#     4  10  19  34  55  75 102 142 182 223 267 315
#     4  11  21  33  49  76 111 139 172 220 274 328
#
# _framework density 19.409531000000001
#
# number of rings (size 3 to 8) (size 9 to 14) (size 15 to 20)
#    0.000    2.250    1.250    2.250    0.000    5.750 
#    0.000    3.125    0.000    1.125    0.000    0.000 
#    0.000    0.000    0.000    0.000    0.000    0.000 
#
# Total GULP energy -396728.110697 kJ/mol
# GULP energy per Si atom -12397.753459 kJ/mol
# Density = 1.936535 g / cm^3
# Si number density = 19.409531 Si / 1000 Ang^3
#
#
#
# Elastic Constant Matrix: (Units=GPa)
#
#
# Indices 1 2 3 4 5 6 
#
# 1 112.8051 24.1342 42.4051 0.0069 1.9562 0.0000
# 2 24.1342 34.8193 27.3952 0.0183 -3.5763 -0.0013
# 3 42.4051 27.3952 117.5216 0.0119 2.7986 -0.0116
# 4 0.0069 0.0183 0.0119 24.5319 -0.0003 -2.5289
# 5 1.9562 -3.5763 2.7986 -0.0003 37.0958 -0.0029
# 6 0.0000 -0.0013 -0.0116 -2.5289 -0.0029 16.8988
#
#
#
# Elastic Compliance Matrix: (Units=1/GPa)
#
#
# Indices 1 2 3 4 5 6 
#
# 1 0.011098 -0.005701 -0.002653 0.000002 -0.000935 -0.000002
# 2 -0.005701 0.038706 -0.007074 -0.000024 0.004566 -0.000005
# 3 -0.002653 -0.007074 0.011149 0.000001 -0.001383 0.000007
# 4 0.000002 -0.000024 0.000001 0.041402 -0.000002 0.006196
# 5 -0.000935 0.004566 -0.001383 -0.000002 0.027551 0.000004
# 6 -0.000002 -0.000005 0.000007 0.006196 0.000004 0.060103
#
#
# Mechanical properties :
#
#
# Convention : Reuss Voigt Hill
#
# Bulk Modulus (GPa) = 33.22743 50.33501 41.78122
# Shear Modulus (GPa) = 21.65461 27.11941 24.38701
#
# Velocity S-wave (km/s) = 3.34379 3.74200 3.54848
# Velocity P-wave (km/s) = 5.66252 6.68278 6.19369
#
# Compressibility (1/GPa) = 0.03009562
#
# Stress axis : x y z
#
# Youngs Moduli (GPa) = 90.10494 25.83569 89.69801
#
# Poissons Ratio (x) = 0.14728 0.23800
# Poissons Ratio (y) = 0.51367 0.63456
# Poissons Ratio (z) = 0.23908 0.18277
#
# Static dielectric constant tensor:
#      x y z
#    x 3.626380 -0.000020 0.080330 
#    y -0.000020 3.060140 0.000040 
#    z 0.080330 0.000040 3.725180 
# 
# 
# High freq. dielectric constant tensor:
#      x y z
#    x 1.762040 0.000000 0.000040 
#    y 0.000000 1.702640 0.000000 
#    z 0.000040 0.000000 1.768150 
# 
# From -- ./inp_files/295654.got.cif
#   From: 2010.06.25/outbox.cif.g09.slc.cpg/sg12_148_cif.got.tgz:295654.got - 2010.06.28 00:19:55.
