data_PCOD8091354
_publ_section_title
;
Structure prediction by ZEFSAII (Michael W. Deem and Ramdas Pophale) SiO2 
 PCOD8091354
Probable space group: C 2/M
;
_chemical_formula_sum "Si O2"
_cell_formula_units_Z 56
_cell_length_a 19.361304
_cell_length_b 9.349541
_cell_length_c 25.802379
_cell_angle_alpha 90.000000
_cell_angle_beta 139.998045
_cell_angle_gamma 90.000000
_cell_volume 3002.408638
_symmetry_space_group_name_H-M "C 2/M"
_symmetry_group_IT_number 12
_symmetry_cell_setting 'monoclinic'
loop_
_space_group_symop_operation_xyz
x,y,z
-x,y,-z
-x,-y,-z
x,-y,z
1/2+x,1/2+y,z
1/2-x,1/2+y,-z
1/2-x,1/2-y,-z
1/2+x,1/2-y,z
loop_
_atom_site_type_symbol
_atom_site_label
_atom_site_fract_x
_atom_site_fract_y
_atom_site_fract_z
Si Si1 0.314425 0.838591 0.177977
Si Si2 0.684907 0.341688 0.922601
Si Si3 0.076901 0.668929 0.498810
Si Si4 0.175998 0.829310 0.355963
Si Si5 0.963111 0.667040 0.640172
Si Si6 0.582248 0.334800 0.089552
Si Si7 0.440612 0.658938 0.811572
O O1 0.310910 0.725817 0.130876
O O2 0.415212 0.804680 0.272276
O O3 0.205677 0.816726 0.146679
O O4 0.321837 0.000000 0.159991
O O5 0.735308 0.500000 0.948807
O O6 0.564615 0.349188 0.871702
O O7 0.750000 0.250000 0.000000
O O8 0.066172 0.500000 0.494846
O O9 0.200025 0.715666 0.577735
O O10 0.041295 0.723015 0.421512
O O11 0.000000 0.734735 0.500000
O O12 0.121833 0.755012 0.374412
O O13 0.120103 0.766767 0.271578
O O14 0.160135 0.000000 0.352779
O O15 0.931889 0.500000 0.626081
O O16 0.547249 0.500000 0.074981
O O17 0.571874 0.260013 0.140298
O O18 0.500000 0.264588 0.000000
O O19 0.390310 0.500000 0.787770
#
# Coordination Sequence:
#
# PCOD8091354 Si02
#       7
#     8   8   8   8   8   8   8
#     4  10  20  33  53  79 107 139 176 221 272 318
#     4  11  21  35  55  79 108 139 178 221 264 315
#     4   9  19  33  54  84 112 138 175 225 271 312
#     4  10  19  34  56  79 106 142 181 219 264 319
#     4  10  20  34  53  80 111 141 175 218 270 323
#     4   9  17  30  49  73 101 133 175 224 267 309
#     4   9  18  31  51  78 103 135 180 223 259 306
#
# _framework density 18.651693000000002
#
# number of rings (size 3 to 8) (size 9 to 14) (size 15 to 20)
#    0.000    2.286    1.429    1.714    2.000    2.286 
#    0.000    0.000    0.000    7.286    0.000    0.000 
#    0.000    0.000    0.000    0.000    0.000    0.000 
#
# Total GULP energy -347069.772288 kJ/mol
# GULP energy per Si atom -12395.349010 kJ/mol
# Density = 1.860924 g / cm^3
# Si number density = 18.651693 Si / 1000 Ang^3
#
#
#
# Elastic Constant Matrix: (Units=GPa)
#
#
# Indices 1 2 3 4 5 6 
#
# 1 156.9765 41.0590 78.0867 0.0000 -15.8247 0.0000
# 2 41.0590 56.1335 39.8524 0.0000 -6.4322 0.0000
# 3 78.0867 39.8524 150.9352 0.0000 -14.6263 0.0000
# 4 0.0000 0.0000 0.0000 21.7383 0.0000 0.2282
# 5 -15.8247 -6.4322 -14.6263 0.0000 41.7742 0.0000
# 6 0.0000 0.0000 0.0000 0.2282 0.0000 24.7291
#
#
#
# Elastic Compliance Matrix: (Units=1/GPa)
#
#
# Indices 1 2 3 4 5 6 
#
# 1 0.009420 -0.004128 -0.003622 0.000000 0.001665 0.000000
# 2 -0.004128 0.023812 -0.004087 0.000000 0.000672 0.000000
# 3 -0.003622 -0.004087 0.009714 0.000000 0.001400 0.000000
# 4 0.000000 0.000000 0.000000 0.046006 0.000000 -0.000424
# 5 0.001665 0.000672 0.001400 0.000000 0.025162 0.000000
# 6 0.000000 0.000000 0.000000 -0.000424 0.000000 0.040442
#
#
# Mechanical properties :
#
#
# Convention : Reuss Voigt Hill
#
# Bulk Modulus (GPa) = 51.88655 75.78236 63.83445
# Shear Modulus (GPa) = 27.07767 31.31811 29.19789
#
# Velocity S-wave (km/s) = 3.81432 4.10213 3.96084
# Velocity P-wave (km/s) = 6.87589 7.94702 7.43078
#
# Compressibility (1/GPa) = 0.01927282
#
# Stress axis : x y z
#
# Youngs Moduli (GPa) = 106.16143 41.99507 102.94488
#
# Poissons Ratio (x) = 0.17334 0.37288
# Poissons Ratio (y) = 0.43821 0.42070
# Poissons Ratio (z) = 0.38453 0.17162
#
# Static dielectric constant tensor:
#      x y z
#    x 3.681850 0.000000 -0.174660 
#    y 0.000000 3.290230 0.000000 
#    z -0.174660 0.000000 3.769700 
# 
# 
# High freq. dielectric constant tensor:
#      x y z
#    x 1.735110 0.000000 -0.005240 
#    y 0.000000 1.670500 0.000000 
#    z -0.005240 0.000000 1.745030 
# 
# From -- ./inp_files/363145.got.cif
#   From: 2010.06.25/outbox.cif.g09.slc.cpg/sg12_182_cif.got.tgz:363145.got - 2010.06.28 00:19:55.
