data_PCOD8091021
_publ_section_title
;
Structure prediction by ZEFSAII (Michael W. Deem and Ramdas Pophale) SiO2 
 PCOD8091021
Probable space group: C 2/M
;
_chemical_formula_sum "Si O2"
_cell_formula_units_Z 64
_cell_length_a 32.468196
_cell_length_b 8.979399
_cell_length_c 12.179068
_cell_angle_alpha 90.000000
_cell_angle_beta 92.300044
_cell_angle_gamma 90.000000
_cell_volume 3547.884393
_symmetry_space_group_name_H-M "C 2/M"
_symmetry_group_IT_number 12
_symmetry_cell_setting 'monoclinic'
loop_
_space_group_symop_operation_xyz
x,y,z
-x,y,-z
-x,-y,-z
x,-y,z
1/2+x,1/2+y,z
1/2-x,1/2+y,-z
1/2-x,1/2-y,-z
1/2+x,1/2-y,z
loop_
_atom_site_type_symbol
_atom_site_label
_atom_site_fract_x
_atom_site_fract_y
_atom_site_fract_z
Si Si1 0.232748 0.176999 0.107301
Si Si2 0.980257 0.175361 0.610097
Si Si3 0.434173 0.825551 0.981617
Si Si4 0.812977 0.674457 0.509357
Si Si5 0.994993 0.325326 0.173495
Si Si6 0.241461 0.825237 0.670778
Si Si7 0.886267 0.823959 0.630349
Si Si8 0.861125 0.825425 0.869416
O O1 0.257461 0.242183 0.213067
O O2 0.185241 0.224965 0.112168
O O3 0.238311 0.000000 0.104790
O O4 0.250000 0.250000 0.000000
O O5 0.932834 0.225469 0.610896
O O6 0.000000 0.235476 0.500000
O O7 0.006937 0.243632 0.711021
O O8 0.984150 0.000000 0.620025
O O9 0.465428 0.768563 0.890770
O O10 0.390282 0.746440 0.964774
O O11 0.427497 0.000000 0.969199
O O12 0.453359 0.786163 0.102362
O O13 0.814993 0.500000 0.483648
O O14 0.796999 0.759770 0.400281
O O15 0.783418 0.708729 0.609390
O O16 0.858019 0.737494 0.540527
O O17 0.998449 0.500000 0.193403
O O18 0.234791 0.000000 0.688800
O O19 0.874531 0.769106 0.750794
O O20 0.879297 0.000000 0.615936
O O21 0.866466 0.000000 0.878906
#
# Coordination Sequence:
#
# PCOD8091021 Si02
#       8
#     8   8   8   8   8   8   8   8
#     4  11  23  39  57  80 112 145 182 224 273 332
#     4  10  21  36  54  78 109 145 181 218 266 321
#     4   9  18  32  53  80 109 138 176 224 271 316
#     4  10  20  33  55  85 112 141 182 227 272 323
#     4   9  18  33  52  78 109 141 176 220 270 317
#     4  10  20  35  56  82 112 145 180 223 276 323
#     4  10  19  34  54  79 110 141 180 229 273 312
#     4  10  20  34  55  82 108 139 182 226 266 315
#
# _framework density 18.038920000000001
#
# number of rings (size 3 to 8) (size 9 to 14) (size 15 to 20)
#    0.000    2.125    2.500    1.875    0.000    3.750 
#    0.000    2.500    0.000    4.500    0.000    0.000 
#    0.000    0.000    0.000    0.000    0.000    0.000 
#
# Total GULP energy -396896.803642 kJ/mol
# GULP energy per Si atom -12403.025114 kJ/mol
# Density = 1.799786 g / cm^3
# Si number density = 18.038920 Si / 1000 Ang^3
#
#
#
# Elastic Constant Matrix: (Units=GPa)
#
#
# Indices 1 2 3 4 5 6 
#
# 1 111.5723 42.1350 73.8306 0.0000 10.4897 0.0000
# 2 42.1350 54.2961 50.4695 0.0000 5.8671 0.0000
# 3 73.8306 50.4695 148.6066 0.0000 8.2914 0.0000
# 4 0.0000 0.0000 0.0000 34.6573 0.0000 7.9620
# 5 10.4897 5.8671 8.2914 0.0000 32.2821 0.0000
# 6 0.0000 0.0000 0.0000 7.9620 0.0000 29.8471
#
#
#
# Elastic Compliance Matrix: (Units=1/GPa)
#
#
# Indices 1 2 3 4 5 6 
#
# 1 0.015088 -0.006733 -0.005077 0.000000 -0.002375 0.000000
# 2 -0.006733 0.030132 -0.006802 0.000000 -0.001541 0.000000
# 3 -0.005077 -0.006802 0.011566 0.000000 -0.000085 0.000000
# 4 0.000000 0.000000 0.000000 0.030738 0.000000 -0.008200
# 5 -0.002375 -0.001541 -0.000085 0.000000 0.032051 0.000000
# 6 0.000000 0.000000 0.000000 -0.008200 0.000000 0.035691
#
#
# Mechanical properties :
#
#
# Convention : Reuss Voigt Hill
#
# Bulk Modulus (GPa) = 51.11919 71.92724 61.52321
# Shear Modulus (GPa) = 25.12411 29.22662 27.17537
#
# Velocity S-wave (km/s) = 3.73604 4.02953 3.88556
# Velocity P-wave (km/s) = 6.85641 7.84917 7.36953
#
# Compressibility (1/GPa) = 0.01956213
#
# Stress axis : x y z
#
# Youngs Moduli (GPa) = 66.27583 33.18731 86.45711
#
# Poissons Ratio (x) = 0.22345 0.43894
# Poissons Ratio (y) = 0.44624 0.58810
# Poissons Ratio (z) = 0.33648 0.22575
#
# Static dielectric constant tensor:
#      x y z
#    x 3.328220 0.000000 0.090890 
#    y 0.000000 3.219460 0.000000 
#    z 0.090890 0.000000 3.318390 
# 
# 
# High freq. dielectric constant tensor:
#      x y z
#    x 1.691480 0.000000 0.020130 
#    y 0.000000 1.697990 0.000000 
#    z 0.020130 0.000000 1.693690 
# 
# From -- ./inp_files/187453.got.cif
#   From: 2010.06.25/outbox.cif.g09.slc.cpg/sg12_94_cif.got.tgz:187453.got - 2010.06.28 00:19:55.
