data_PCOD8091711
_publ_section_title
;
Structure prediction by ZEFSAII (Michael W. Deem and Ramdas Pophale) SiO2 
 PCOD8091711
Probable space group: C 2/M
;
_chemical_formula_sum "Si O2"
_cell_formula_units_Z 56
_cell_length_a 23.226544
_cell_length_b 9.002869
_cell_length_c 14.135648
_cell_angle_alpha 90.000000
_cell_angle_beta 92.722049
_cell_angle_gamma 90.000000
_cell_volume 2952.507053
_symmetry_space_group_name_H-M "C 2/M"
_symmetry_group_IT_number 12
_symmetry_cell_setting 'monoclinic'
loop_
_space_group_symop_operation_xyz
x,y,z
-x,y,-z
-x,-y,-z
x,-y,z
1/2+x,1/2+y,z
1/2-x,1/2+y,-z
1/2-x,1/2-y,-z
1/2+x,1/2-y,z
loop_
_atom_site_type_symbol
_atom_site_label
_atom_site_fract_x
_atom_site_fract_y
_atom_site_fract_z
Si Si1 0.707382 0.670930 0.216332
Si Si2 0.198782 0.166600 0.879715
Si Si3 0.725235 0.174907 0.590534
Si Si4 0.077927 0.826152 0.159172
Si Si5 0.102310 0.328756 0.971257
Si Si6 0.470049 0.171847 0.223799
Si Si7 0.626734 0.331841 0.682747
O O1 0.720435 0.500000 0.195216
O O2 0.738748 0.763653 0.136074
O O3 0.731080 0.714082 0.321208
O O4 0.640035 0.707663 0.209100
O O5 0.165566 0.261265 0.956489
O O6 0.162432 0.169497 0.781541
O O7 0.206492 0.000000 0.918948
O O8 0.750000 0.250000 0.500000
O O9 0.662233 0.243076 0.606006
O O10 0.718766 0.000000 0.574699
O O11 0.031987 0.750058 0.224828
O O12 0.064895 0.000000 0.150996
O O13 0.072528 0.757005 0.054752
O O14 0.109540 0.500000 0.999265
O O15 0.061220 0.307051 0.878673
O O16 0.433810 0.249389 0.304588
O O17 0.477646 0.000000 0.250106
O O18 0.615424 0.500000 0.647253
#
# Coordination Sequence:
#
# PCOD8091711 Si02
#       7
#     8   8   8   8   8   8   8
#     4   9  20  36  51  71 102 135 164 199 250 305
#     4   9  17  30  50  73  97 128 168 211 250 293
#     4  10  19  34  57  83 107 129 157 197 246 300
#     4  11  22  34  49  70  98 135 175 212 249 290
#     4  10  20  33  49  70  98 133 173 215 256 293
#     4  10  20  34  51  72 100 135 173 211 251 292
#     4   9  17  31  52  78 103 129 164 204 246 292
#
# _framework density 18.966930999999999
#
# number of rings (size 3 to 8) (size 9 to 14) (size 15 to 20)
#    0.000    2.286    0.000    3.000    0.000    9.143 
#    0.000    0.000    0.000    0.857    0.000    6.000 
#    0.000    0.000    0.000    0.000    0.000    0.000 
#
# Total GULP energy -347287.482991 kJ/mol
# GULP energy per Si atom -12403.124393 kJ/mol
# Density = 1.892376 g / cm^3
# Si number density = 18.966931 Si / 1000 Ang^3
#
#
#
# Elastic Constant Matrix: (Units=GPa)
#
#
# Indices 1 2 3 4 5 6 
#
# 1 137.4698 78.4206 37.1201 0.0000 -36.4240 0.0000
# 2 78.4206 135.7385 25.8401 0.0000 -21.9624 0.0000
# 3 37.1201 25.8401 32.8793 0.0000 -24.7831 0.0000
# 4 0.0000 0.0000 0.0000 27.6319 0.0000 -11.1584
# 5 -36.4240 -21.9624 -24.7831 0.0000 32.6497 0.0000
# 6 0.0000 0.0000 0.0000 -11.1584 0.0000 37.8981
#
#
#
# Elastic Compliance Matrix: (Units=1/GPa)
#
#
# Indices 1 2 3 4 5 6 
#
# 1 0.014158 -0.005879 -0.005701 0.000000 0.007512 0.000000
# 2 -0.005879 0.011137 -0.003301 0.000000 -0.001572 0.000000
# 3 -0.005701 -0.003301 0.077077 0.000000 0.049925 0.000000
# 4 0.000000 0.000000 0.000000 0.041074 0.000000 0.012093
# 5 0.007512 -0.001572 0.049925 0.000000 0.075848 0.000000
# 6 0.000000 0.000000 0.000000 0.012093 0.000000 0.029947
#
#
# Mechanical properties :
#
#
# Convention : Reuss Voigt Hill
#
# Bulk Modulus (GPa) = 13.77218 65.42770 39.59994
# Shear Modulus (GPa) = 16.49041 30.61639 23.55340
#
# Velocity S-wave (km/s) = 2.95181 4.02207 3.52776
# Velocity P-wave (km/s) = 4.34678 7.49266 6.12513
#
# Compressibility (1/GPa) = 0.07261014
#
# Stress axis : x y z
#
# Youngs Moduli (GPa) = 70.63258 89.78739 12.97403
#
# Poissons Ratio (x) = 0.52782 0.07397
# Poissons Ratio (y) = 0.41522 0.04283
# Poissons Ratio (z) = 0.40269 0.29641
#
# Static dielectric constant tensor:
#      x y z
#    x 3.544830 0.000000 -0.220830 
#    y 0.000000 3.662870 0.000000 
#    z -0.220830 0.000000 3.154870 
# 
# 
# High freq. dielectric constant tensor:
#      x y z
#    x 1.739160 0.000000 -0.023220 
#    y 0.000000 1.753370 0.000000 
#    z -0.023220 0.000000 1.699260 
# 
# From -- ./inp_files/230869.got.cif
#   From: 2010.06.25/outbox.cif.g09.slc.cpg/sg12_116_cif.got.tgz:230869.got - 2010.06.28 00:19:55.
