data_PCOD8091002
_publ_section_title
;
Structure prediction by ZEFSAII (Michael W. Deem and Ramdas Pophale) SiO2 
 PCOD8091002
Probable space group: C 2/M
;
_chemical_formula_sum "Si O2"
_cell_formula_units_Z 56
_cell_length_a 29.356052
_cell_length_b 8.800622
_cell_length_c 12.770320
_cell_angle_alpha 90.000000
_cell_angle_beta 120.096061
_cell_angle_gamma 90.000000
_cell_volume 2854.448603
_symmetry_space_group_name_H-M "C 2/M"
_symmetry_group_IT_number 12
_symmetry_cell_setting 'monoclinic'
loop_
_space_group_symop_operation_xyz
x,y,z
-x,y,-z
-x,-y,-z
x,-y,z
1/2+x,1/2+y,z
1/2-x,1/2+y,-z
1/2-x,1/2-y,-z
1/2+x,1/2-y,z
loop_
_atom_site_type_symbol
_atom_site_label
_atom_site_fract_x
_atom_site_fract_y
_atom_site_fract_z
Si Si1 0.286959 0.826772 0.959341
Si Si2 0.057680 0.318455 0.037236
Si Si3 0.237823 0.180250 0.285627
Si Si4 0.645004 0.820435 0.535540
Si Si5 0.906715 0.327248 0.142325
Si Si6 0.558006 0.181803 0.596024
Si Si7 0.645887 0.820350 0.299659
O O1 0.286046 0.736819 0.850500
O O2 0.269811 0.000000 0.919304
O O3 0.250000 0.750000 0.000000
O O4 0.344279 0.818146 0.075064
O O5 0.060008 0.500000 0.038425
O O6 0.099806 0.258436 0.170644
O O7 0.071595 0.249446 0.938916
O O8 0.000000 0.258253 0.000000
O O9 0.297259 0.243077 0.367736
O O10 0.201534 0.243676 0.336728
O O11 0.236834 0.000000 0.287980
O O12 0.600520 0.752610 0.561828
O O13 0.630564 0.774267 0.400192
O O14 0.645868 0.000000 0.548386
O O15 0.926588 0.500000 0.163572
O O16 0.929038 0.250511 0.273804
O O17 0.500000 0.240073 0.500000
O O18 0.560831 0.000000 0.599552
O O19 0.653114 0.000000 0.295931
#
# Coordination Sequence:
#
# PCOD8091002 Si02
#       7
#     8   8   8   8   8   8   8
#     4  11  21  35  55  80 111 145 179 219 265 315
#     4   9  17  28  48  77 105 134 171 221 275 321
#     4  11  21  35  53  77 110 143 178 220 268 320
#     4   9  19  32  48  73 106 142 177 221 269 317
#     4   9  17  30  47  72 106 137 169 214 263 313
#     4   9  17  28  45  71 104 138 170 210 267 324
#     4  10  19  34  54  78 108 139 178 222 269 324
#
# _framework density 19.618500000000001
#
# number of rings (size 3 to 8) (size 9 to 14) (size 15 to 20)
#    0.000    2.286    1.429    2.143    2.000    2.286 
#    0.000    0.714    0.000    0.429    0.000    0.000 
#    0.000    7.429    0.000    0.000    0.000    0.000 
#
# Total GULP energy -347162.754796 kJ/mol
# GULP energy per Si atom -12398.669814 kJ/mol
# Density = 1.957385 g / cm^3
# Si number density = 19.618500 Si / 1000 Ang^3
#
#
#
# Elastic Constant Matrix: (Units=GPa)
#
#
# Indices 1 2 3 4 5 6 
#
# 1 152.0933 21.6593 75.2333 0.0000 -2.6980 0.0000
# 2 21.6593 27.4454 16.7353 0.0000 -0.7085 0.0000
# 3 75.2333 16.7353 167.2587 0.0000 -6.9265 0.0000
# 4 0.0000 0.0000 0.0000 11.1563 0.0000 0.3454
# 5 -2.6980 -0.7085 -6.9265 0.0000 36.6735 0.0000
# 6 0.0000 0.0000 0.0000 0.3454 0.0000 22.0638
#
#
#
# Elastic Compliance Matrix: (Units=1/GPa)
#
#
# Indices 1 2 3 4 5 6 
#
# 1 0.009050 -0.004963 -0.003578 0.000000 -0.000106 0.000000
# 2 -0.004963 0.041525 -0.001920 0.000000 0.000075 0.000000
# 3 -0.003578 -0.001920 0.007829 0.000000 0.001178 0.000000
# 4 0.000000 0.000000 0.000000 0.089679 0.000000 -0.001404
# 5 -0.000106 0.000075 0.001178 0.000000 0.027484 0.000000
# 6 0.000000 0.000000 0.000000 -0.001404 0.000000 0.045345
#
#
# Mechanical properties :
#
#
# Convention : Reuss Voigt Hill
#
# Bulk Modulus (GPa) = 26.67908 63.78368 45.23138
# Shear Modulus (GPa) = 19.65971 29.52336 24.59154
#
# Velocity S-wave (km/s) = 3.16903 3.88348 3.54430
# Velocity P-wave (km/s) = 5.19796 7.25887 6.31308
#
# Compressibility (1/GPa) = 0.03748255
#
# Stress axis : x y z
#
# Youngs Moduli (GPa) = 110.49900 24.08203 127.72648
#
# Poissons Ratio (x) = 0.11951 0.45707
# Poissons Ratio (y) = 0.54837 0.24517
# Poissons Ratio (z) = 0.39542 0.04623
#
# Static dielectric constant tensor:
#      x y z
#    x 3.720330 0.000000 0.031070 
#    y 0.000000 2.930360 0.000000 
#    z 0.031070 0.000000 3.568730 
# 
# 
# High freq. dielectric constant tensor:
#      x y z
#    x 1.778810 0.000000 -0.005430 
#    y 0.000000 1.696540 0.000000 
#    z -0.005430 0.000000 1.781710 
# 
# From -- ./inp_files/186818.got.cif
#   From: 2010.06.25/outbox.cif.g09.slc.cpg/sg12_94_cif.got.tgz:186818.got - 2010.06.28 00:19:55.
