data_PCOD8091328
_publ_section_title
;
Structure prediction by ZEFSAII (Michael W. Deem and Ramdas Pophale) SiO2 
 PCOD8091328
Probable space group: C 2/M
;
_chemical_formula_sum "Si O2"
_cell_formula_units_Z 40
_cell_length_a 13.540912
_cell_length_b 13.216264
_cell_length_c 19.440976
_cell_angle_alpha 90.000000
_cell_angle_beta 136.043850
_cell_angle_gamma 90.000000
_cell_volume 2414.913103
_symmetry_space_group_name_H-M "C 2/M"
_symmetry_group_IT_number 12
_symmetry_cell_setting 'monoclinic'
loop_
_space_group_symop_operation_xyz
x,y,z
-x,y,-z
-x,-y,-z
x,-y,z
1/2+x,1/2+y,z
1/2-x,1/2+y,-z
1/2-x,1/2-y,-z
1/2+x,1/2-y,z
loop_
_atom_site_type_symbol
_atom_site_label
_atom_site_fract_x
_atom_site_fract_y
_atom_site_fract_z
Si Si1 0.621847 0.116944 0.613380
Si Si2 0.060681 0.117356 0.267442
Si Si3 0.920720 0.616936 0.891045
Si Si4 0.112662 0.724952 0.887853
Si Si5 0.137734 0.243031 0.751374
O O1 0.500000 0.151748 0.500000
O O2 0.771115 0.136436 0.650391
O O3 0.604552 0.181622 0.673331
O O4 0.604757 0.000000 0.625721
O O5 0.985417 0.173315 0.164804
O O6 0.995556 0.165238 0.305249
O O7 0.021729 0.000000 0.243604
O O8 0.878791 0.500000 0.874818
O O9 0.779041 0.680020 0.807422
O O10 0.025883 0.634334 0.879626
O O11 0.000000 0.653148 0.000000
O O12 0.156153 0.692941 0.831765
O O13 0.250000 0.750000 0.000000
#
# Coordination Sequence:
#
# PCOD8091328 Si02
#       5
#     8   8   8   8   8
#     4  10  21  38  58  79 107 144 182 225 280 324
#     4   9  19  35  54  79 107 142 179 216 266 325
#     4  11  20  33  54  79 110 147 179 215 266 321
#     4  10  20  32  53  82 111 139 178 218 263 322
#     4  10  19  34  56  78 105 144 177 224 263 320
#
# _framework density 16.563742999999999
#
# number of rings (size 3 to 8) (size 9 to 14) (size 15 to 20)
#    1.200    0.800    4.000    0.600    0.000    2.400 
#    0.000    0.000    0.000    6.000    0.000    0.000 
#    0.000    0.000    0.000    0.000    0.000    0.000 
#
# Total GULP energy -247869.333526 kJ/mol
# GULP energy per Si atom -12393.466676 kJ/mol
# Density = 1.652604 g / cm^3
# Si number density = 16.563743 Si / 1000 Ang^3
#
#
#
# Elastic Constant Matrix: (Units=GPa)
#
#
# Indices 1 2 3 4 5 6 
#
# 1 99.4869 38.7195 58.3387 0.0000 0.5318 0.0000
# 2 38.7195 71.9549 56.5952 0.0000 -2.2330 0.0000
# 3 58.3387 56.5952 129.2784 0.0000 5.2528 0.0000
# 4 0.0000 0.0000 0.0000 28.2643 0.0000 -3.3424
# 5 0.5318 -2.2330 5.2528 0.0000 28.9370 0.0000
# 6 0.0000 0.0000 0.0000 -3.3424 0.0000 32.5087
#
#
#
# Elastic Compliance Matrix: (Units=1/GPa)
#
#
# Indices 1 2 3 4 5 6 
#
# 1 0.014395 -0.003994 -0.004760 0.000000 0.000291 0.000000
# 2 -0.003994 0.022630 -0.008240 0.000000 0.003315 0.000000
# 3 -0.004760 -0.008240 0.013613 0.000000 -0.003019 0.000000
# 4 0.000000 0.000000 0.000000 0.035816 0.000000 0.003682
# 5 0.000291 0.003315 -0.003019 0.000000 0.035356 0.000000
# 6 0.000000 0.000000 0.000000 0.003682 0.000000 0.031140
#
#
# Mechanical properties :
#
#
# Convention : Reuss Voigt Hill
#
# Bulk Modulus (GPa) = 60.04969 67.55855 63.80412
# Shear Modulus (GPa) = 25.97585 27.74646 26.86115
#
# Velocity S-wave (km/s) = 3.96439 4.09728 4.03138
# Velocity P-wave (km/s) = 7.56886 7.95356 7.76359
#
# Compressibility (1/GPa) = 0.01665288
#
# Stress axis : x y z
#
# Youngs Moduli (GPa) = 69.46711 44.18881 73.45995
#
# Poissons Ratio (x) = 0.17647 0.34964
# Poissons Ratio (y) = 0.27742 0.60528
# Poissons Ratio (z) = 0.33064 0.36410
#
# Static dielectric constant tensor:
#      x y z
#    x 3.255320 0.000000 0.064230 
#    y 0.000000 2.989440 0.000000 
#    z 0.064230 0.000000 2.965180 
# 
# 
# High freq. dielectric constant tensor:
#      x y z
#    x 1.651530 0.000000 0.010820 
#    y 0.000000 1.627260 0.000000 
#    z 0.010820 0.000000 1.623200 
# 
# From -- ./inp_files/268247.got.cif
#   From: 2010.06.25/outbox.cif.g09.slc.cpg/sg12_135_cif.got.tgz:268247.got - 2010.06.28 00:19:55.
