data_PCOD8091640
_publ_section_title
;
Structure prediction by ZEFSAII (Michael W. Deem and Ramdas Pophale) SiO2 
 PCOD8091640
Probable space group: C 2/M
;
_chemical_formula_sum "Si O2"
_cell_formula_units_Z 64
_cell_length_a 19.680303
_cell_length_b 9.039509
_cell_length_c 31.220005
_cell_angle_alpha 90.000000
_cell_angle_beta 37.318369
_cell_angle_gamma 90.000000
_cell_volume 3367.104632
_symmetry_space_group_name_H-M "C 2/M"
_symmetry_group_IT_number 12
_symmetry_cell_setting 'monoclinic'
loop_
_space_group_symop_operation_xyz
x,y,z
-x,y,-z
-x,-y,-z
x,-y,z
1/2+x,1/2+y,z
1/2-x,1/2+y,-z
1/2-x,1/2-y,-z
1/2+x,1/2-y,z
loop_
_atom_site_type_symbol
_atom_site_label
_atom_site_fract_x
_atom_site_fract_y
_atom_site_fract_z
Si Si1 0.508207 0.175422 0.298414
Si Si2 0.413343 0.674236 0.182891
Si Si3 0.863181 0.324183 0.958591
Si Si4 0.126156 0.661630 0.949427
Si Si5 0.889931 0.674387 0.533399
Si Si6 0.152192 0.173885 0.687710
Si Si7 0.364589 0.827707 0.450188
Si Si8 0.240672 0.825812 0.817752
O O1 0.448057 0.248776 0.287919
O O2 0.450803 0.225854 0.371215
O O3 0.633742 0.237088 0.241558
O O4 0.505328 0.000000 0.292937
O O5 0.435670 0.500000 0.166065
O O6 0.531030 0.758745 0.119963
O O7 0.360618 0.709840 0.255639
O O8 0.326171 0.734477 0.190483
O O9 0.860451 0.500000 0.952979
O O10 0.750000 0.250000 0.000000
O O11 0.871124 0.278065 0.003960
O O12 0.186110 0.500000 0.915674
O O13 0.181429 0.781444 0.891240
O O14 0.000000 0.640283 0.000000
O O15 0.888032 0.500000 0.542252
O O16 0.772832 0.737429 0.611272
O O17 0.907791 0.717221 0.475170
O O18 0.000000 0.745449 0.500000
O O19 0.143586 0.000000 0.682983
O O20 0.250000 0.750000 0.500000
O O21 0.342712 0.000000 0.457953
O O22 0.244813 0.000000 0.812034
#
# Coordination Sequence:
#
# PCOD8091640 Si02
#       8
#     8   8   8   8   8   8   8   8
#     4  10  22  37  55  83 116 149 185 232 284 332
#     4  10  22  39  58  83 116 150 188 234 281 333
#     4  11  24  41  62  86 115 149 188 233 282 338
#     4  10  21  40  62  84 111 145 188 236 282 330
#     4   9  18  32  55  84 109 142 188 233 277 326
#     4  10  21  37  57  82 113 149 190 233 277 333
#     4  10  19  34  57  81 110 145 186 233 280 330
#     4  10  22  38  58  85 115 149 188 231 282 336
#
# _framework density 19.007428000000001
#
# number of rings (size 3 to 8) (size 9 to 14) (size 15 to 20)
#    0.000    2.000    2.500    0.375    3.500    2.250 
#    0.000    0.000    0.000    1.500    0.000    0.000 
#    0.000    0.000    0.000    0.000    0.000    0.000 
#
# Total GULP energy -396741.668928 kJ/mol
# GULP energy per Si atom -12398.177154 kJ/mol
# Density = 1.896417 g / cm^3
# Si number density = 19.007428 Si / 1000 Ang^3
#
#
#
# Elastic Constant Matrix: (Units=GPa)
#
#
# Indices 1 2 3 4 5 6 
#
# 1 125.4047 31.3183 55.3375 0.0010 -5.9779 0.0086
# 2 31.3183 26.8374 28.0439 -0.0019 -0.7211 0.0043
# 3 55.3375 28.0439 120.0697 0.0011 -2.0089 -0.0003
# 4 0.0010 -0.0019 0.0011 25.8476 0.0011 -2.9465
# 5 -5.9779 -0.7211 -2.0089 0.0011 41.4347 0.0002
# 6 0.0086 0.0043 -0.0003 -2.9465 0.0002 21.3837
#
#
#
# Elastic Compliance Matrix: (Units=1/GPa)
#
#
# Indices 1 2 3 4 5 6 
#
# 1 0.012097 -0.010951 -0.002994 -0.000002 0.001410 -0.000003
# 2 -0.010951 0.059208 -0.008798 0.000004 -0.000976 -0.000007
# 3 -0.002994 -0.008798 0.011763 -0.000001 -0.000015 0.000003
# 4 -0.000002 0.000004 -0.000001 0.039306 -0.000001 0.005416
# 5 0.001410 -0.000976 -0.000015 -0.000001 0.024320 -0.000001
# 6 -0.000003 -0.000007 0.000003 0.005416 -0.000001 0.047511
#
#
# Mechanical properties :
#
#
# Convention : Reuss Voigt Hill
#
# Bulk Modulus (GPa) = 26.60817 55.74568 41.17692
# Shear Modulus (GPa) = 19.82407 28.24066 24.03237
#
# Velocity S-wave (km/s) = 3.23300 3.85875 3.55965
# Velocity P-wave (km/s) = 5.28825 7.01750 6.21333
#
# Compressibility (1/GPa) = 0.03758244
#
# Stress axis : x y z
#
# Youngs Moduli (GPa) = 82.66250 16.88964 85.01121
#
# Poissons Ratio (x) = 0.18495 0.25454
# Poissons Ratio (y) = 0.90520 0.74795
# Poissons Ratio (z) = 0.24751 0.14860
#
# Static dielectric constant tensor:
#      x y z
#    x 3.684760 -0.000060 -0.031710 
#    y -0.000060 3.273960 -0.000010 
#    z -0.031710 -0.000010 3.620450 
# 
# 
# High freq. dielectric constant tensor:
#      x y z
#    x 1.754760 0.000000 0.001420 
#    y 0.000000 1.714300 0.000000 
#    z 0.001420 0.000000 1.749380 
# 
# From -- ./inp_files/346156.got.cif
#   From: 2010.06.25/outbox.cif.g09.slc.cpg/sg12_174_cif.got.tgz:346156.got - 2010.06.28 00:19:55.
