data_PCOD8091260
_publ_section_title
;
Structure prediction by ZEFSAII (Michael W. Deem and Ramdas Pophale) SiO2 
 PCOD8091260
Probable space group: C 2/M
;
_chemical_formula_sum "Si O2"
_cell_formula_units_Z 40
_cell_length_a 27.482240
_cell_length_b 7.539052
_cell_length_c 26.872042
_cell_angle_alpha 90.000000
_cell_angle_beta 157.551639
_cell_angle_gamma 90.000000
_cell_volume 2125.998858
_symmetry_space_group_name_H-M "C 2/M"
_symmetry_group_IT_number 12
_symmetry_cell_setting 'monoclinic'
loop_
_space_group_symop_operation_xyz
x,y,z
-x,y,-z
-x,-y,-z
x,-y,z
1/2+x,1/2+y,z
1/2-x,1/2+y,-z
1/2-x,1/2-y,-z
1/2+x,1/2-y,z
loop_
_atom_site_type_symbol
_atom_site_label
_atom_site_fract_x
_atom_site_fract_y
_atom_site_fract_z
Si Si1 0.408022 0.210295 0.549960
Si Si2 0.970091 0.500000 0.890337
Si Si3 0.895720 0.705963 0.645538
Si Si4 0.121196 0.800375 0.264754
Si Si5 0.914739 0.294339 0.371110
Si Si6 0.792509 0.500000 0.816316
O O1 0.459885 0.270589 0.653857
O O2 0.264862 0.280291 0.403473
O O3 0.505556 0.279039 0.600674
O O4 0.397213 0.000000 0.538561
O O5 0.960820 0.676901 0.848640
O O6 0.860232 0.500000 0.827388
O O7 0.108789 0.500000 0.045417
O O8 0.920287 0.500000 0.677349
O O9 0.750000 0.750000 0.500000
O O10 0.942424 0.803742 0.739848
O O11 0.118666 0.000000 0.240792
O O12 0.875645 0.500000 0.327627
O O13 0.000000 0.266783 0.500000
O O14 0.788611 0.179184 0.256628
#
# Coordination Sequence:
#
# PCOD8091260 Si02
#       6
#     8   4   8   8   8   4
#     4   8  16  29  52  85 114 143 173 219 283 330
#     4  11  24  40  56  76 110 148 187 234 269 316
#     4   9  15  27  47  80 118 143 175 220 272 329
#     4  10  19  34  55  82 112 145 182 226 276 327
#     4  10  20  37  59  84 114 142 175 226 277 333
#     4  11  25  40  56  82 107 145 194 224 269 332
#
# _framework density 18.814685999999998
#
# number of rings (size 3 to 8) (size 9 to 14) (size 15 to 20)
#    0.000    2.400    1.000    3.300    0.000    4.000 
#    3.600    2.000    0.000    1.200    0.000    0.000 
#    0.000    0.000    0.000    0.000    0.000    0.000 
#
# Total GULP energy -247861.786895 kJ/mol
# GULP energy per Si atom -12393.089345 kJ/mol
# Density = 1.877186 g / cm^3
# Si number density = 18.814686 Si / 1000 Ang^3
#
#
#
# Elastic Constant Matrix: (Units=GPa)
#
#
# Indices 1 2 3 4 5 6 
#
# 1 144.9970 40.7145 55.8586 0.0000 -13.4153 0.0000
# 2 40.7145 95.7717 47.0871 0.0000 -8.2942 0.0003
# 3 55.8586 47.0871 84.5719 0.0002 -10.4909 0.0001
# 4 0.0000 0.0000 0.0002 12.0780 0.0001 -2.9098
# 5 -13.4153 -8.2942 -10.4909 0.0001 25.7342 0.0000
# 6 0.0000 0.0003 0.0001 -2.9098 0.0000 17.9423
#
#
#
# Elastic Compliance Matrix: (Units=1/GPa)
#
#
# Indices 1 2 3 4 5 6 
#
# 1 0.009504 -0.001229 -0.005295 0.000000 0.002400 0.000000
# 2 -0.001229 0.014587 -0.007169 0.000000 0.001138 0.000000
# 3 -0.005295 -0.007169 0.019679 0.000000 0.002952 0.000000
# 4 0.000000 0.000000 0.000000 0.086162 0.000000 0.013973
# 5 0.002400 0.001138 0.002952 0.000000 0.041680 0.000000
# 6 0.000000 0.000000 0.000000 0.013973 0.000000 0.058000
#
#
# Mechanical properties :
#
#
# Convention : Reuss Voigt Hill
#
# Bulk Modulus (GPa) = 61.03443 68.07345 64.55394
# Shear Modulus (GPa) = 19.05058 23.26291 21.15675
#
# Velocity S-wave (km/s) = 3.18549 3.52010 3.35697
# Velocity P-wave (km/s) = 6.78528 7.26505 7.02926
#
# Compressibility (1/GPa) = 0.01638420
#
# Stress axis : x y z
#
# Youngs Moduli (GPa) = 105.22214 68.55352 50.81529
#
# Poissons Ratio (x) = 0.08425 0.26907
# Poissons Ratio (y) = 0.12932 0.36428
# Poissons Ratio (z) = 0.55717 0.49144
#
# Static dielectric constant tensor:
#      x y z
#    x 4.179130 0.000000 -0.134570 
#    y 0.000000 3.399060 0.000000 
#    z -0.134570 0.000000 3.000140 
# 
# 
# High freq. dielectric constant tensor:
#      x y z
#    x 1.754260 0.000000 -0.016650 
#    y 0.000000 1.735020 0.000000 
#    z -0.016650 0.000000 1.670610 
# 
# From -- ./inp_files/179430.got.cif
#   From: 2010.06.25/outbox.cif.g09.slc.cpg/sg12_90_cif.got.tgz:179430.got - 2010.06.28 00:19:55.
