data_PCOD8091970
_publ_section_title
;
Structure prediction by ZEFSAII (Michael W. Deem and Ramdas Pophale) SiO2 
 PCOD8091970
Probable space group: C 2/M
;
_chemical_formula_sum "Si O2"
_cell_formula_units_Z 56
_cell_length_a 19.848175
_cell_length_b 11.059682
_cell_length_c 14.931779
_cell_angle_alpha 90.000000
_cell_angle_beta 68.874005
_cell_angle_gamma 90.000000
_cell_volume 3057.445371
_symmetry_space_group_name_H-M "C 2/M"
_symmetry_group_IT_number 12
_symmetry_cell_setting 'monoclinic'
loop_
_space_group_symop_operation_xyz
x,y,z
-x,y,-z
-x,-y,-z
x,-y,z
1/2+x,1/2+y,z
1/2-x,1/2+y,-z
1/2-x,1/2-y,-z
1/2+x,1/2-y,z
loop_
_atom_site_type_symbol
_atom_site_label
_atom_site_fract_x
_atom_site_fract_y
_atom_site_fract_z
Si Si1 0.411489 0.000000 0.439127
Si Si2 0.421356 0.361168 0.791872
Si Si3 0.306613 0.357943 0.991546
Si Si4 0.342101 0.765506 0.682935
Si Si5 0.190670 0.861199 0.803537
Si Si6 0.079678 0.140632 0.712992
Si Si7 0.573386 0.000000 0.356597
Si Si8 0.334625 0.757797 0.477942
O O1 0.491584 0.000000 0.357692
O O2 0.422920 0.000000 0.538901
O O3 0.364726 0.886224 0.429915
O O4 0.437913 0.500000 0.793335
O O5 0.375581 0.319328 0.899782
O O6 0.376091 0.343609 0.722507
O O7 0.500290 0.296182 0.750155
O O8 0.281472 0.500000 0.982832
O O9 0.250000 0.250000 0.000000
O O10 0.330569 0.350194 0.082911
O O11 0.258674 0.778590 0.747034
O O12 0.384960 0.882681 0.698397
O O13 0.352312 0.737488 0.573565
O O14 0.125203 0.808396 0.775408
O O15 0.208704 0.000000 0.768388
O O16 0.122378 0.158739 0.599455
O O17 0.070476 0.000000 0.731729
O O18 0.250000 0.750000 0.500000
#
# Coordination Sequence:
#
# PCOD8091970 Si02
#       8
#     4   8   8   8   8   8   4   8
#     4   9  20  34  48  76 107 136 184 236 277 313
#     4  10  22  38  55  83 116 146 179 229 285 340
#     4  10  20  36  61  90 115 145 190 238 288 340
#     4  11  19  33  57  79 109 143 189 225 277 329
#     4  10  19  34  58  86 106 141 190 235 275 327
#     4  10  22  38  57  80 114 148 186 230 279 330
#     4   9  18  32  54  76 101 134 184 242 273 311
#     4  11  22  34  54  79 110 149 189 227 272 332
#
# _framework density 18.315944999999999
#
# number of rings (size 3 to 8) (size 9 to 14) (size 15 to 20)
#    0.000    1.857    3.571    0.857    1.000    2.857 
#    0.000    4.286    1.571    0.000    0.000    1.000 
#    0.000    0.000    0.000    0.000    0.000    0.000 
#
# Total GULP energy -347053.042678 kJ/mol
# GULP energy per Si atom -12394.751524 kJ/mol
# Density = 1.827426 g / cm^3
# Si number density = 18.315945 Si / 1000 Ang^3
#
#
#
# Elastic Constant Matrix: (Units=GPa)
#
#
# Indices 1 2 3 4 5 6 
#
# 1 152.1413 35.5571 69.0085 0.0000 -16.5662 0.0000
# 2 35.5571 35.5866 20.6855 0.0000 -6.5954 0.0000
# 3 69.0085 20.6855 124.7991 0.0000 -3.3176 0.0000
# 4 0.0000 0.0000 0.0000 26.7820 0.0000 -0.5563
# 5 -16.5662 -6.5954 -3.3176 0.0000 34.9644 0.0000
# 6 0.0000 0.0000 0.0000 -0.5563 0.0000 25.3023
#
#
#
# Elastic Compliance Matrix: (Units=1/GPa)
#
#
# Indices 1 2 3 4 5 6 
#
# 1 0.010775 -0.007469 -0.004633 0.000000 0.003257 0.000000
# 2 -0.007469 0.037321 -0.001968 0.000000 0.003314 0.000000
# 3 -0.004633 -0.001968 0.010860 0.000000 -0.001536 0.000000
# 4 0.000000 0.000000 0.000000 0.037356 0.000000 0.000821
# 5 0.003257 0.003314 -0.001536 0.000000 0.030623 0.000000
# 6 0.000000 0.000000 0.000000 0.000821 0.000000 0.039540
#
#
# Mechanical properties :
#
#
# Convention : Reuss Voigt Hill
#
# Bulk Modulus (GPa) = 32.45079 62.55880 47.50480
# Shear Modulus (GPa) = 24.40367 29.89480 27.14924
#
# Velocity S-wave (km/s) = 3.65413 4.04440 3.85421
# Velocity P-wave (km/s) = 5.96316 7.48593 6.76751
#
# Compressibility (1/GPa) = 0.03081589
#
# Stress axis : x y z
#
# Youngs Moduli (GPa) = 92.81100 26.79430 92.07870
#
# Poissons Ratio (x) = 0.20012 0.42663
# Poissons Ratio (y) = 0.69319 0.18121
# Poissons Ratio (z) = 0.43003 0.05273
#
# Static dielectric constant tensor:
#      x y z
#    x 3.765120 0.000000 -0.285410 
#    y 0.000000 3.332970 0.000000 
#    z -0.285410 0.000000 3.530230 
# 
# 
# High freq. dielectric constant tensor:
#      x y z
#    x 1.715070 0.000000 -0.009970 
#    y 0.000000 1.690460 0.000000 
#    z -0.009970 0.000000 1.711890 
# 
# From -- ./inp_files/223771.got.cif
#   From: 2010.06.25/outbox.cif.g09.slc.cpg/sg12_112_cif.got.tgz:223771.got - 2010.06.28 00:19:55.
