data_PCOD8091632
_publ_section_title
;
Structure prediction by ZEFSAII (Michael W. Deem and Ramdas Pophale) SiO2 
 PCOD8091632
Probable space group: C 2/M
;
_chemical_formula_sum "Si O2"
_cell_formula_units_Z 56
_cell_length_a 21.216075
_cell_length_b 8.977655
_cell_length_c 18.187980
_cell_angle_alpha 90.000000
_cell_angle_beta 122.578267
_cell_angle_gamma 90.000000
_cell_volume 2919.194954
_symmetry_space_group_name_H-M "C 2/M"
_symmetry_group_IT_number 12
_symmetry_cell_setting 'monoclinic'
loop_
_space_group_symop_operation_xyz
x,y,z
-x,y,-z
-x,-y,-z
x,-y,z
1/2+x,1/2+y,z
1/2-x,1/2+y,-z
1/2-x,1/2-y,-z
1/2+x,1/2-y,z
loop_
_atom_site_type_symbol
_atom_site_label
_atom_site_fract_x
_atom_site_fract_y
_atom_site_fract_z
Si Si1 0.241075 0.329444 0.389030
Si Si2 0.078184 0.672915 0.022698
Si Si3 0.283034 0.169826 0.792295
Si Si4 0.141653 0.327051 0.759371
Si Si5 0.330727 0.824765 0.058389
Si Si6 0.365643 0.173626 0.546603
Si Si7 0.989524 0.823803 0.409405
O O1 0.265726 0.500000 0.416657
O O2 0.209338 0.299428 0.288994
O O3 0.314570 0.229170 0.446900
O O4 0.175414 0.284790 0.403498
O O5 0.063018 0.500000 0.998653
O O6 0.135730 0.701273 0.124490
O O7 0.112625 0.739220 0.968428
O O8 0.000000 0.748790 0.000000
O O9 0.226067 0.284143 0.792914
O O10 0.257066 0.000000 0.792023
O O11 0.127855 0.500000 0.734494
O O12 0.130638 0.290780 0.838796
O O13 0.087712 0.232479 0.673309
O O14 0.317263 0.000000 0.038740
O O15 0.250000 0.750000 0.000000
O O16 0.443951 0.258179 0.597723
O O17 0.381195 0.000000 0.547426
O O18 0.000000 0.768774 0.500000
O O19 0.990451 0.000000 0.405840
#
# Coordination Sequence:
#
# PCOD8091632 Si02
#       7
#     8   8   8   8   8   8   8
#     4   9  19  34  54  80 109 146 188 228 277 341
#     4   9  18  33  56  84 111 144 188 235 280 330
#     4  10  19  34  57  81 108 146 190 232 276 336
#     4  11  23  36  56  86 115 148 189 237 290 342
#     4  10  20  36  59  85 114 149 189 236 285 341
#     4  10  20  35  55  80 111 145 182 232 286 336
#     4  11  24  40  57  79 111 149 191 237 282 339
#
# _framework density 19.183371999999999
#
# number of rings (size 3 to 8) (size 9 to 14) (size 15 to 20)
#    0.000    2.000    1.429    2.143    0.000    7.429 
#    0.000    4.286    0.000    1.714    0.000    0.000 
#    0.000    0.000    0.000    0.000    0.000    0.000 
#
# Total GULP energy -347242.154746 kJ/mol
# GULP energy per Si atom -12401.505527 kJ/mol
# Density = 1.913971 g / cm^3
# Si number density = 19.183372 Si / 1000 Ang^3
#
#
#
# Elastic Constant Matrix: (Units=GPa)
#
#
# Indices 1 2 3 4 5 6 
#
# 1 128.9972 30.0625 51.8971 0.0000 3.7394 0.0000
# 2 30.0625 50.8839 32.6279 0.0000 -0.1301 0.0000
# 3 51.8971 32.6279 120.1145 0.0000 -8.2436 0.0000
# 4 0.0000 0.0000 0.0000 21.3536 0.0000 4.2333
# 5 3.7394 -0.1301 -8.2436 0.0000 28.7497 0.0000
# 6 0.0000 0.0000 0.0000 4.2333 0.0000 31.0414
#
#
#
# Elastic Compliance Matrix: (Units=1/GPa)
#
#
# Indices 1 2 3 4 5 6 
#
# 1 0.010101 -0.003720 -0.003514 0.000000 -0.002338 0.000000
# 2 -0.003720 0.025258 -0.005317 0.000000 -0.000926 0.000000
# 3 -0.003514 -0.005317 0.011545 0.000000 0.003743 0.000000
# 4 0.000000 0.000000 0.000000 0.048132 0.000000 -0.006564
# 5 -0.002338 -0.000926 0.003743 0.000000 0.036156 0.000000
# 6 0.000000 0.000000 0.000000 -0.006564 0.000000 0.033110
#
#
# Mechanical properties :
#
#
# Convention : Reuss Voigt Hill
#
# Bulk Modulus (GPa) = 45.87085 58.79673 52.33379
# Shear Modulus (GPa) = 25.42317 28.58949 27.00633
#
# Velocity S-wave (km/s) = 3.64438 3.86466 3.75613
# Velocity P-wave (km/s) = 6.45541 7.11551 6.79348
#
# Compressibility (1/GPa) = 0.02180034
#
# Stress axis : x y z
#
# Youngs Moduli (GPa) = 99.00394 39.59198 86.61808
#
# Poissons Ratio (x) = 0.14729 0.30438
# Poissons Ratio (y) = 0.36832 0.46056
# Poissons Ratio (z) = 0.34790 0.21052
#
# Static dielectric constant tensor:
#      x y z
#    x 3.697170 0.000000 -0.153790 
#    y 0.000000 3.383590 0.000000 
#    z -0.153790 0.000000 3.602730 
# 
# 
# High freq. dielectric constant tensor:
#      x y z
#    x 1.751920 0.000000 -0.006440 
#    y 0.000000 1.728930 0.000000 
#    z -0.006440 0.000000 1.753550 
# 
# From -- ./inp_files/281041.got.cif
#   From: 2010.06.25/outbox.cif.g09.slc.cpg/sg12_141_cif.got.tgz:281041.got - 2010.06.28 00:19:55.
