data_PCOD8091424
_publ_section_title
;
Structure prediction by ZEFSAII (Michael W. Deem and Ramdas Pophale) SiO2 
 PCOD8091424
Probable space group: C 2/M
;
_chemical_formula_sum "Si O2"
_cell_formula_units_Z 40
_cell_length_a 9.440717
_cell_length_b 17.587854
_cell_length_c 16.523951
_cell_angle_alpha 90.000000
_cell_angle_beta 140.653028
_cell_angle_gamma 90.000000
_cell_volume 1739.527536
_symmetry_space_group_name_H-M "C 2/M"
_symmetry_group_IT_number 12
_symmetry_cell_setting 'monoclinic'
loop_
_space_group_symop_operation_xyz
x,y,z
-x,y,-z
-x,-y,-z
x,-y,z
1/2+x,1/2+y,z
1/2-x,1/2+y,-z
1/2-x,1/2-y,-z
1/2+x,1/2-y,z
loop_
_atom_site_type_symbol
_atom_site_label
_atom_site_fract_x
_atom_site_fract_y
_atom_site_fract_z
Si Si1 0.549506 0.194597 0.429189
Si Si2 0.883362 0.656457 0.111544
Si Si3 0.239874 0.082332 0.902885
Si Si4 0.257773 0.089769 0.612965
Si Si5 0.236097 0.728971 0.174282
O O1 0.500000 0.174489 0.500000
O O2 0.750000 0.250000 0.500000
O O3 0.606874 0.117355 0.406471
O O4 0.336769 0.240270 0.302293
O O5 0.744009 0.702137 0.115065
O O6 0.105939 0.617121 0.247500
O O7 0.976622 0.711536 0.080131
O O8 0.718424 0.598893 0.990657
O O9 0.138414 0.151873 0.804160
O O10 0.122786 0.000000 0.832393
O O11 0.500000 0.074426 0.000000
O O12 0.000000 0.120796 0.500000
O O13 0.255365 0.000000 0.610504
#
# Coordination Sequence:
#
# PCOD8091424 Si02
#       5
#     8   8   8   8   8
#     4  11  21  36  56  80 111 145 184 227 273 325
#     4  10  19  34  56  81 109 142 179 222 270 322
#     4   9  18  33  54  80 108 139 178 223 269 317
#     4  10  21  36  56  83 112 144 184 228 275 328
#     4  10  20  33  54  79 106 140 180 221 266 322
#
# _framework density 22.99475
#
# number of rings (size 3 to 8) (size 9 to 14) (size 15 to 20)
#    0.000    2.000    0.000    5.400    0.000    1.200 
#    0.000    1.000    0.000   12.600    0.000    0.000 
#    0.000    0.800    0.000    0.000    0.000    0.000 
#
# Total GULP energy -247816.298476 kJ/mol
# GULP energy per Si atom -12390.814924 kJ/mol
# Density = 2.294241 g / cm^3
# Si number density = 22.994750 Si / 1000 Ang^3
#
#
#
# Elastic Constant Matrix: (Units=GPa)
#
#
# Indices 1 2 3 4 5 6 
#
# 1 93.4123 25.9103 23.2045 0.0001 -25.5400 0.0001
# 2 25.9103 88.9995 27.3269 0.0000 -13.7726 0.0000
# 3 23.2045 27.3269 70.7913 0.0002 -20.7980 0.0000
# 4 0.0001 0.0000 0.0002 30.0141 0.0002 -0.2665
# 5 -25.5400 -13.7726 -20.7980 0.0002 36.3818 0.0001
# 6 0.0001 0.0000 0.0000 -0.2665 0.0001 21.9999
#
#
#
# Elastic Compliance Matrix: (Units=1/GPa)
#
#
# Indices 1 2 3 4 5 6 
#
# 1 0.013907 -0.002409 -0.001236 0.000000 0.008144 0.000000
# 2 -0.002409 0.013344 -0.004055 0.000000 0.001042 0.000000
# 3 -0.001236 -0.004055 0.018497 0.000000 0.008171 0.000000
# 4 0.000000 0.000000 0.000000 0.033321 0.000000 0.000404
# 5 0.008144 0.001042 0.008171 0.000000 0.038269 0.000000
# 6 0.000000 0.000000 0.000000 0.000404 0.000000 0.045460
#
#
# Mechanical properties :
#
#
# Convention : Reuss Voigt Hill
#
# Bulk Modulus (GPa) = 32.95107 45.12073 39.03590
# Shear Modulus (GPa) = 26.55131 29.46324 28.00728
#
# Velocity S-wave (km/s) = 3.40173 3.58341 3.49375
# Velocity P-wave (km/s) = 5.45802 6.06514 5.76957
#
# Compressibility (1/GPa) = 0.03034803
#
# Stress axis : x y z
#
# Youngs Moduli (GPa) = 71.90511 74.94170 54.06222
#
# Poissons Ratio (x) = 0.18053 0.06682
# Poissons Ratio (y) = 0.17322 0.21923
# Poissons Ratio (z) = 0.08887 0.30390
#
# Static dielectric constant tensor:
#      x y z
#    x 3.962460 0.000000 0.135570 
#    y 0.000000 4.637070 0.000000 
#    z 0.135570 0.000000 4.271330 
# 
# 
# High freq. dielectric constant tensor:
#      x y z
#    x 1.893470 0.000000 -0.029180 
#    y 0.000000 1.909580 0.000000 
#    z -0.029180 0.000000 1.901720 
# 
# From -- ./inp_files/246849.got.cif
#   From: 2010.06.25/outbox.cif.g09.slc.cpg/sg12_124_cif.got.tgz:246849.got - 2010.06.28 00:19:55.
