data_PCOD8091908
_publ_section_title
;
Structure prediction by ZEFSAII (Michael W. Deem and Ramdas Pophale) SiO2 
 PCOD8091908
Probable space group: C 2/M
;
_chemical_formula_sum "Si O2"
_cell_formula_units_Z 64
_cell_length_a 13.268066
_cell_length_b 13.551777
_cell_length_c 18.018483
_cell_angle_alpha 90.000000
_cell_angle_beta 99.574395
_cell_angle_gamma 90.000000
_cell_volume 3194.699733
_symmetry_space_group_name_H-M "C 2/M"
_symmetry_group_IT_number 12
_symmetry_cell_setting 'monoclinic'
loop_
_space_group_symop_operation_xyz
x,y,z
-x,y,-z
-x,-y,-z
x,-y,z
1/2+x,1/2+y,z
1/2-x,1/2+y,-z
1/2-x,1/2-y,-z
1/2+x,1/2-y,z
loop_
_atom_site_type_symbol
_atom_site_label
_atom_site_fract_x
_atom_site_fract_y
_atom_site_fract_z
Si Si1 0.896065 0.747991 0.588053
Si Si2 0.383097 0.387041 0.997631
Si Si3 0.337284 0.387800 0.162728
Si Si4 0.535366 0.292708 0.241641
Si Si5 0.917408 0.388780 0.403505
Si Si6 0.246066 0.886978 0.504819
Si Si7 0.591946 0.890110 0.767564
Si Si8 0.211915 0.797534 0.150997
O O1 0.918068 0.795991 0.670330
O O2 0.862799 0.836506 0.528232
O O3 0.800820 0.669776 0.580181
O O4 0.992874 0.688751 0.566567
O O5 0.358988 0.500000 0.972345
O O6 0.319551 0.312394 0.938289
O O7 0.500000 0.361390 0.000000
O O8 0.358415 0.366327 0.079566
O O9 0.303019 0.500000 0.173363
O O10 0.438521 0.366070 0.223782
O O11 0.245133 0.314845 0.173725
O O12 0.498623 0.182047 0.217477
O O13 0.619631 0.327853 0.193548
O O14 0.961561 0.500000 0.419577
O O15 0.819301 0.372304 0.442566
O O16 0.881025 0.372120 0.315135
O O17 0.226910 0.000000 0.524252
O O18 0.694408 0.871465 0.825543
O O19 0.552221 0.000000 0.778259
#
# Coordination Sequence:
#
# PCOD8091908 Si02
#       8
#     8   8   8   8   8   8   8   8
#     4  10  20  33  53  78 107 136 173 221 265 309
#     4  10  19  34  58  84 107 135 173 217 262 303
#     4  10  22  38  55  80 109 138 175 216 259 309
#     4  10  21  35  53  77 107 142 175 213 262 314
#     4   9  17  33  56  78 102 136 178 221 264 308
#     4  10  20  34  54  79 103 134 178 221 264 312
#     4   9  19  33  51  79 108 136 177 222 261 306
#     4  11  20  34  57  79 106 143 178 212 256 310
#
# _framework density 20.033183000000001
#
# number of rings (size 3 to 8) (size 9 to 14) (size 15 to 20)
#    0.000    2.125    1.250    2.250    0.000    3.000 
#    0.000    0.000    0.000    7.125    0.000    0.000 
#    0.000    0.000    0.000    0.000    0.000    0.000 
#
# Total GULP energy -396765.717525 kJ/mol
# GULP energy per Si atom -12398.928673 kJ/mol
# Density = 1.998759 g / cm^3
# Si number density = 20.033183 Si / 1000 Ang^3
#
#
#
# Elastic Constant Matrix: (Units=GPa)
#
#
# Indices 1 2 3 4 5 6 
#
# 1 45.3983 7.5705 13.8737 0.0000 14.9919 0.0000
# 2 7.5705 95.9150 20.0859 0.0000 21.1321 0.0000
# 3 13.8737 20.0859 100.6276 0.0000 25.4450 0.0000
# 4 0.0000 0.0000 0.0000 17.7920 0.0000 10.5870
# 5 14.9919 21.1321 25.4450 0.0000 25.9062 0.0000
# 6 0.0000 0.0000 0.0000 10.5870 0.0000 14.2687
#
#
#
# Elastic Compliance Matrix: (Units=1/GPa)
#
#
# Indices 1 2 3 4 5 6 
#
# 1 0.027445 0.001628 0.000323 0.000000 -0.017528 0.000000
# 2 0.001628 0.012808 0.000132 0.000000 -0.011519 0.000000
# 3 0.000323 0.000132 0.013226 0.000000 -0.013285 0.000000
# 4 0.000000 0.000000 0.000000 0.100637 0.000000 -0.074670
# 5 -0.017528 -0.011519 -0.013285 0.000000 0.071189 0.000000
# 6 0.000000 0.000000 0.000000 -0.074670 0.000000 0.125486
#
#
# Mechanical properties :
#
#
# Convention : Reuss Voigt Hill
#
# Bulk Modulus (GPa) = 17.34759 36.11122 26.72940
# Shear Modulus (GPa) = 13.66718 24.95411 19.31064
#
# Velocity S-wave (km/s) = 2.61478 3.53319 3.10810
# Velocity P-wave (km/s) = 4.21833 5.89147 5.12366
#
# Compressibility (1/GPa) = 0.05764491
#
# Stress axis : x y z
#
# Youngs Moduli (GPa) = 36.43619 78.07826 75.60804
#
# Poissons Ratio (x) = -0.12710 -0.02445
# Poissons Ratio (y) = -0.05931 -0.00996
# Poissons Ratio (z) = -0.01178 -0.01029
#
# Static dielectric constant tensor:
#      x y z
#    x 3.445680 0.000000 0.162070 
#    y 0.000000 3.690960 0.000000 
#    z 0.162070 0.000000 3.754940 
# 
# 
# High freq. dielectric constant tensor:
#      x y z
#    x 1.763170 0.000000 0.021970 
#    y 0.000000 1.781400 0.000000 
#    z 0.021970 0.000000 1.786080 
# 
# From -- ./inp_files/309944.got.cif
#   From: 2010.06.25/outbox.cif.g09.slc.cpg/sg12_155_cif.got.tgz:309944.got - 2010.06.28 00:19:55.
