data_PCOD8091714
_publ_section_title
;
Structure prediction by ZEFSAII (Michael W. Deem and Ramdas Pophale) SiO2 
 PCOD8091714
Probable space group: C 2/M
;
_chemical_formula_sum "Si O2"
_cell_formula_units_Z 48
_cell_length_a 25.195553
_cell_length_b 8.847361
_cell_length_c 20.590164
_cell_angle_alpha 90.000000
_cell_angle_beta 35.032807
_cell_angle_gamma 90.000000
_cell_volume 2634.775858
_symmetry_space_group_name_H-M "C 2/M"
_symmetry_group_IT_number 12
_symmetry_cell_setting 'monoclinic'
loop_
_space_group_symop_operation_xyz
x,y,z
-x,y,-z
-x,-y,-z
x,-y,z
1/2+x,1/2+y,z
1/2-x,1/2+y,-z
1/2-x,1/2-y,-z
1/2+x,1/2-y,z
loop_
_atom_site_type_symbol
_atom_site_label
_atom_site_fract_x
_atom_site_fract_y
_atom_site_fract_z
Si Si1 0.811246 0.320901 0.258629
Si Si2 0.697575 0.820541 0.877504
Si Si3 0.193509 0.178939 0.497658
Si Si4 0.498831 0.179529 0.876157
Si Si5 0.303167 0.823493 0.886838
Si Si6 0.008849 0.323634 0.718935
O O1 0.818433 0.500000 0.252744
O O2 0.779908 0.267768 0.218507
O O3 0.738024 0.264329 0.385352
O O4 0.913142 0.255280 0.173019
O O5 0.771358 0.743592 0.850387
O O6 0.704480 0.000000 0.879431
O O7 0.595103 0.760519 0.997316
O O8 0.250000 0.250000 0.500000
O O9 0.087772 0.232170 0.602240
O O10 0.199569 0.000000 0.498208
O O11 0.504084 0.237237 0.797156
O O12 0.498230 0.000000 0.878040
O O13 0.411897 0.789653 0.781765
O O14 0.282373 0.000000 0.910744
O O15 0.250000 0.750000 0.000000
O O16 0.034161 0.500000 0.692091
#
# Coordination Sequence:
#
# PCOD8091714 Si02
#       6
#     8   8   8   8   8   8
#     4   9  18  32  54  82 111 141 182 223 268 329
#     4  10  19  34  57  83 109 144 181 223 276 327
#     4  11  21  35  56  83 112 146 184 227 272 322
#     4   9  15  29  54  82 109 137 174 222 273 326
#     4  11  22  37  57  81 111 145 183 227 273 327
#     4  10  20  36  56  80 108 142 185 228 269 323
#
# _framework density 18.217869
#
# number of rings (size 3 to 8) (size 9 to 14) (size 15 to 20)
#    0.000    2.000    3.333    1.500    0.000    3.333 
#    0.000    2.500    0.000    6.000    0.000    0.000 
#    0.000    0.000    0.000    0.000    0.000    0.000 
#
# Total GULP energy -297605.540211 kJ/mol
# GULP energy per Si atom -12400.230842 kJ/mol
# Density = 1.817640 g / cm^3
# Si number density = 18.217869 Si / 1000 Ang^3
#
#
#
# Elastic Constant Matrix: (Units=GPa)
#
#
# Indices 1 2 3 4 5 6 
#
# 1 166.9099 43.7324 82.0185 -0.0005 10.4791 0.0002
# 2 43.7324 47.8527 40.0876 0.0003 -4.2090 0.0002
# 3 82.0185 40.0876 142.9077 0.0002 7.0981 -0.0003
# 4 -0.0005 0.0003 0.0002 26.6142 -0.0001 -2.7593
# 5 10.4791 -4.2090 7.0981 -0.0001 30.3469 0.0001
# 6 0.0002 0.0002 -0.0003 -2.7593 0.0001 29.3073
#
#
#
# Elastic Compliance Matrix: (Units=1/GPa)
#
#
# Indices 1 2 3 4 5 6 
#
# 1 0.009550 -0.005961 -0.003647 0.000000 -0.003272 0.000000
# 2 -0.005961 0.032028 -0.005955 0.000000 0.007894 0.000000
# 3 -0.003647 -0.005955 0.010866 0.000000 -0.002108 0.000000
# 4 0.000000 0.000000 0.000000 0.037944 0.000000 0.003572
# 5 -0.003272 0.007894 -0.002108 0.000000 0.035670 0.000000
# 6 0.000000 0.000000 0.000000 0.003572 0.000000 0.034458
#
#
# Mechanical properties :
#
#
# Convention : Reuss Voigt Hill
#
# Bulk Modulus (GPa) = 46.90718 76.59417 61.75067
# Shear Modulus (GPa) = 25.15741 30.04245 27.59993
#
# Velocity S-wave (km/s) = 3.72010 4.06527 3.89651
# Velocity P-wave (km/s) = 6.65252 8.01062 7.36295
#
# Compressibility (1/GPa) = 0.02131870
#
# Stress axis : x y z
#
# Youngs Moduli (GPa) = 104.70715 31.22222 92.03300
#
# Poissons Ratio (x) = 0.18612 0.33561
# Poissons Ratio (y) = 0.62416 0.54809
# Poissons Ratio (z) = 0.38182 0.18594
#
# Static dielectric constant tensor:
#      x y z
#    x 3.518940 0.000000 0.029940 
#    y 0.000000 3.070520 0.000000 
#    z 0.029940 0.000000 3.550300 
# 
# 
# High freq. dielectric constant tensor:
#      x y z
#    x 1.710860 0.000000 -0.001190 
#    y 0.000000 1.673810 0.000000 
#    z -0.001190 0.000000 1.710690 
# 
# From -- ./inp_files/327172.got.cif
#   From: 2010.06.25/outbox.cif.g09.slc.cpg/sg12_164_cif.got.tgz:327172.got - 2010.06.28 00:19:55.
