data_PCOD8091223
_publ_section_title
;
Structure prediction by ZEFSAII (Michael W. Deem and Ramdas Pophale) SiO2 
 PCOD8091223
Probable space group: C 2/M
;
_chemical_formula_sum "Si O2"
_cell_formula_units_Z 48
_cell_length_a 12.262715
_cell_length_b 27.998071
_cell_length_c 14.790957
_cell_angle_alpha 90.000000
_cell_angle_beta 149.979473
_cell_angle_gamma 90.000000
_cell_volume 2540.682557
_symmetry_space_group_name_H-M "C 2/M"
_symmetry_group_IT_number 12
_symmetry_cell_setting 'monoclinic'
loop_
_space_group_symop_operation_xyz
x,y,z
-x,y,-z
-x,-y,-z
x,-y,z
1/2+x,1/2+y,z
1/2-x,1/2+y,-z
1/2-x,1/2-y,-z
1/2+x,1/2-y,z
loop_
_atom_site_type_symbol
_atom_site_label
_atom_site_fract_x
_atom_site_fract_y
_atom_site_fract_z
Si Si1 0.993440 0.617866 0.770468
Si Si2 0.512746 0.278914 0.754255
Si Si3 0.905523 0.944688 0.528019
Si Si4 0.682286 0.945336 0.057216
Si Si5 0.692665 0.691278 0.066321
Si Si6 0.309141 0.700191 0.430782
O O1 0.817834 0.581247 0.601908
O O2 0.851070 0.658558 0.718532
O O3 0.142828 0.645857 0.803467
O O4 0.151394 0.589893 0.951477
O O5 0.686725 0.242075 0.834052
O O6 0.413018 0.312209 0.603889
O O7 0.317105 0.249914 0.659317
O O8 0.613998 0.311791 0.905246
O O9 0.000000 0.924970 0.500000
O O10 0.080642 0.935750 0.731657
O O11 0.848222 0.000000 0.474452
O O12 0.659266 0.000000 0.007756
O O13 0.500000 0.933712 0.000000
O O14 0.500000 0.686385 0.000000
O O15 0.500000 0.707652 0.500000
#
# Coordination Sequence:
#
# PCOD8091223 Si02
#       6
#     8   8   8   8   8   8
#     4  11  22  32  53  84 113 140 186 232 279 335
#     4   9  20  37  56  77 108 150 194 225 277 344
#     4  10  19  34  55  80 115 151 182 223 282 348
#     4  10  20  34  55  81 115 155 182 219 285 349
#     4  10  21  38  57  79 110 149 193 240 284 329
#     4  10  20  33  53  82 114 144 180 231 281 329
#
# _framework density 18.892561000000001
#
# number of rings (size 3 to 8) (size 9 to 14) (size 15 to 20)
#    0.000    2.000    1.667    2.000    2.333    0.000 
#    0.000    1.667    0.000    2.000    0.000    2.333 
#    0.000    0.000    0.000    0.000    0.000    0.000 
#
# Total GULP energy -297505.032572 kJ/mol
# GULP energy per Si atom -12396.043024 kJ/mol
# Density = 1.884956 g / cm^3
# Si number density = 18.892561 Si / 1000 Ang^3
#
#
#
# Elastic Constant Matrix: (Units=GPa)
#
#
# Indices 1 2 3 4 5 6 
#
# 1 86.4317 41.6659 41.5541 0.0001 30.7458 0.0002
# 2 41.6659 71.8562 37.3767 0.0000 5.9801 0.0000
# 3 41.5541 37.3767 99.2631 0.0002 9.4770 0.0001
# 4 0.0001 0.0000 0.0002 61.6296 0.0000 29.0930
# 5 30.7458 5.9801 9.4770 0.0000 33.5895 0.0000
# 6 0.0002 0.0000 0.0001 29.0930 0.0000 41.0502
#
#
#
# Elastic Compliance Matrix: (Units=1/GPa)
#
#
# Indices 1 2 3 4 5 6 
#
# 1 0.026982 -0.011262 -0.005024 0.000000 -0.021276 0.000000
# 2 -0.011262 0.022060 -0.004318 0.000000 0.007599 0.000000
# 3 -0.005024 -0.004318 0.013659 0.000000 0.001513 0.000000
# 4 0.000000 0.000000 0.000000 0.024384 0.000000 -0.017281
# 5 -0.021276 0.007599 0.001513 0.000000 0.047466 0.000000
# 6 0.000000 0.000000 0.000000 -0.017281 0.000000 0.036608
#
#
# Mechanical properties :
#
#
# Convention : Reuss Voigt Hill
#
# Bulk Modulus (GPa) = 46.52300 55.41603 50.96952
# Shear Modulus (GPa) = 22.77592 36.38416 29.58004
#
# Velocity S-wave (km/s) = 3.47587 4.39321 3.96118
# Velocity P-wave (km/s) = 6.38650 7.42493 6.92521
#
# Compressibility (1/GPa) = 0.02149474
#
# Stress axis : x y z
#
# Youngs Moduli (GPa) = 37.06121 45.33011 73.21431
#
# Poissons Ratio (x) = 0.51051 0.36780
# Poissons Ratio (y) = 0.41739 0.31611
# Poissons Ratio (z) = 0.18618 0.19572
#
# Static dielectric constant tensor:
#      x y z
#    x 3.102500 0.000000 0.058150 
#    y 0.000000 3.460310 0.000000 
#    z 0.058150 0.000000 3.888260 
# 
# 
# High freq. dielectric constant tensor:
#      x y z
#    x 1.686200 0.000000 0.011000 
#    y 0.000000 1.730590 0.000000 
#    z 0.011000 0.000000 1.758560 
# 
# From -- ./inp_files/209277.got.cif
#   From: 2010.06.25/outbox.cif.g09.slc.cpg/sg12_105_cif.got.tgz:209277.got - 2010.06.28 00:19:55.
