data_PCOD8091389
_publ_section_title
;
Structure prediction by ZEFSAII (Michael W. Deem and Ramdas Pophale) SiO2 
 PCOD8091389
Probable space group: C 2/M
;
_chemical_formula_sum "Si O2"
_cell_formula_units_Z 64
_cell_length_a 29.952449
_cell_length_b 9.128740
_cell_length_c 12.043025
_cell_angle_alpha 90.000000
_cell_angle_beta 93.088277
_cell_angle_gamma 90.000000
_cell_volume 3288.119442
_symmetry_space_group_name_H-M "C 2/M"
_symmetry_group_IT_number 12
_symmetry_cell_setting 'monoclinic'
loop_
_space_group_symop_operation_xyz
x,y,z
-x,y,-z
-x,-y,-z
x,-y,z
1/2+x,1/2+y,z
1/2-x,1/2+y,-z
1/2-x,1/2-y,-z
1/2+x,1/2-y,z
loop_
_atom_site_type_symbol
_atom_site_label
_atom_site_fract_x
_atom_site_fract_y
_atom_site_fract_z
Si Si1 0.346673 0.334340 0.090809
Si Si2 0.085276 0.327303 0.751994
Si Si3 0.336794 0.168845 0.871695
Si Si4 0.387446 0.826782 0.484124
Si Si5 0.239044 0.166780 0.789861
Si Si6 0.286984 0.173998 0.430017
Si Si7 0.584194 0.829665 0.278446
Si Si8 0.001955 0.674421 0.126696
O O1 0.364119 0.500000 0.088501
O O2 0.372056 0.250838 0.191350
O O3 0.293860 0.327102 0.109186
O O4 0.356997 0.260433 0.975150
O O5 0.091881 0.500000 0.766640
O O6 0.084068 0.283095 0.621437
O O7 0.040988 0.273035 0.809227
O O8 0.287364 0.222549 0.835056
O O9 0.367796 0.197158 0.770094
O O10 0.337067 0.000000 0.908314
O O11 0.336321 0.769821 0.471681
O O12 0.412540 0.761292 0.596640
O O13 0.385100 0.000000 0.495925
O O14 0.220915 0.278348 0.696772
O O15 0.242082 0.000000 0.743202
O O16 0.250000 0.250000 0.500000
O O17 0.282654 0.000000 0.439861
O O18 0.544938 0.759115 0.197602
O O19 0.572775 0.000000 0.286498
O O20 0.004563 0.500000 0.121409
O O21 0.000000 0.736484 0.000000
#
# Coordination Sequence:
#
# PCOD8091389 Si02
#       8
#     8   8   8   8   8   8   8   8
#     4  11  22  35  53  79 112 143 182 230 274 329
#     4  10  19  34  56  80 108 143 184 224 272 332
#     4  10  20  35  56  77 106 145 182 225 279 335
#     4   9  18  32  51  77 108 142 181 224 271 324
#     4  10  21  36  53  78 108 143 184 227 277 329
#     4  11  21  34  53  77 109 148 190 232 272 324
#     4   9  17  31  52  80 110 137 173 227 280 321
#     4   9  17  29  50  82 112 138 176 226 275 326
#
# _framework density 19.464013999999999
#
# number of rings (size 3 to 8) (size 9 to 14) (size 15 to 20)
#    0.000    2.125    1.250    2.625    0.000    5.500 
#    0.000    2.500    0.000    4.125    0.000    0.875 
#    0.000    0.000    0.000    0.000    0.000    0.000 
#
# Total GULP energy -396763.308442 kJ/mol
# GULP energy per Si atom -12398.853389 kJ/mol
# Density = 1.941971 g / cm^3
# Si number density = 19.464014 Si / 1000 Ang^3
#
#
#
# Elastic Constant Matrix: (Units=GPa)
#
#
# Indices 1 2 3 4 5 6 
#
# 1 119.0457 20.5768 63.9192 0.0000 3.1498 0.0000
# 2 20.5768 37.7335 30.9951 0.0000 0.5480 0.0000
# 3 63.9192 30.9951 166.3634 0.0000 8.1884 0.0000
# 4 0.0000 0.0000 0.0000 19.8925 0.0000 1.0272
# 5 3.1498 0.5480 8.1884 0.0000 34.2097 0.0000
# 6 0.0000 0.0000 0.0000 1.0272 0.0000 17.6334
#
#
#
# Elastic Compliance Matrix: (Units=1/GPa)
#
#
# Indices 1 2 3 4 5 6 
#
# 1 0.010854 -0.002946 -0.003617 0.000000 -0.000086 0.000000
# 2 -0.002946 0.032118 -0.004898 0.000000 0.000929 0.000000
# 3 -0.003617 -0.004898 0.008392 0.000000 -0.001597 0.000000
# 4 0.000000 0.000000 0.000000 0.050422 0.000000 -0.002937
# 5 -0.000086 0.000929 -0.001597 0.000000 0.029607 0.000000
# 6 0.000000 0.000000 0.000000 -0.002937 0.000000 0.056882
#
#
# Mechanical properties :
#
#
# Convention : Reuss Voigt Hill
#
# Bulk Modulus (GPa) = 35.15997 61.56940 48.36469
# Shear Modulus (GPa) = 22.65765 28.19056 25.42411
#
# Velocity S-wave (km/s) = 3.41556 3.80984 3.61807
# Velocity P-wave (km/s) = 5.80156 7.14523 6.50816
#
# Compressibility (1/GPa) = 0.02844143
#
# Stress axis : x y z
#
# Youngs Moduli (GPa) = 92.13397 31.13534 119.16548
#
# Poissons Ratio (x) = 0.09174 0.43102
# Poissons Ratio (y) = 0.27147 0.58362
# Poissons Ratio (z) = 0.33325 0.15249
#
# Static dielectric constant tensor:
#      x y z
#    x 3.672090 0.000000 0.049830 
#    y 0.000000 3.145560 0.000000 
#    z 0.049830 0.000000 3.812480 
# 
# 
# High freq. dielectric constant tensor:
#      x y z
#    x 1.763420 0.000000 -0.002650 
#    y 0.000000 1.707830 0.000000 
#    z -0.002650 0.000000 1.771460 
# 
# From -- ./inp_files/187502.got.cif
#   From: 2010.06.25/outbox.cif.g09.slc.cpg/sg12_94_cif.got.tgz:187502.got - 2010.06.28 00:19:55.
