data_PCOD8091942
_publ_section_title
;
Structure prediction by ZEFSAII (Michael W. Deem and Ramdas Pophale) SiO2 
 PCOD8091942
Probable space group: C 2/M
;
_chemical_formula_sum "Si O2"
_cell_formula_units_Z 64
_cell_length_a 17.044333
_cell_length_b 9.418534
_cell_length_c 28.959229
_cell_angle_alpha 90.000000
_cell_angle_beta 136.256975
_cell_angle_gamma 90.000000
_cell_volume 3214.367028
_symmetry_space_group_name_H-M "C 2/M"
_symmetry_group_IT_number 12
_symmetry_cell_setting 'monoclinic'
loop_
_space_group_symop_operation_xyz
x,y,z
-x,y,-z
-x,-y,-z
x,-y,z
1/2+x,1/2+y,z
1/2-x,1/2+y,-z
1/2-x,1/2-y,-z
1/2+x,1/2-y,z
loop_
_atom_site_type_symbol
_atom_site_label
_atom_site_fract_x
_atom_site_fract_y
_atom_site_fract_z
Si Si1 0.190396 0.164576 0.040346
Si Si2 0.084039 0.162481 0.575793
Si Si3 0.520277 0.337024 0.722815
Si Si4 0.835016 0.651224 0.686275
Si Si5 0.235587 0.653671 0.142069
Si Si6 0.422507 0.167483 0.087340
Si Si7 0.164999 0.277289 0.212189
Si Si8 0.396843 0.840382 0.325823
O O1 0.177371 0.222297 0.087161
O O2 0.320180 0.184482 0.079798
O O3 0.153037 0.000000 0.022669
O O4 0.108917 0.260293 0.974453
O O5 0.212350 0.175224 0.610998
O O6 0.069382 0.268048 0.612076
O O7 0.000000 0.213791 0.500000
O O8 0.057378 0.000000 0.579384
O O9 0.498895 0.500000 0.699943
O O10 0.414653 0.282080 0.707742
O O11 0.630106 0.319361 0.801481
O O12 0.533413 0.245113 0.682646
O O13 0.886528 0.500000 0.690974
O O14 0.816924 0.631909 0.733834
O O15 0.210100 0.500000 0.108251
O O16 0.191106 0.642612 0.175509
O O17 0.530200 0.257614 0.152604
O O18 0.451687 0.000000 0.092839
O O19 0.260125 0.153308 0.257044
O O20 0.442002 0.000000 0.345767
#
# Coordination Sequence:
#
# PCOD8091942 Si02
#       8
#     8   8   8   8   8   8   8   8
#     4  10  22  37  53  75 104 138 178 227 278 326
#     4   9  19  37  60  85 116 153 188 224 270 324
#     4  10  21  36  56  82 113 147 184 228 275 326
#     4  10  19  34  58  85 112 142 181 226 272 323
#     4  10  20  35  54  76 104 140 180 221 272 330
#     4  10  20  37  58  76 100 139 183 223 271 332
#     4  10  21  35  56  82 107 138 179 225 272 325
#     4  10  21  37  58  85 115 146 183 228 276 324
#
# _framework density 19.910609000000001
#
# number of rings (size 3 to 8) (size 9 to 14) (size 15 to 20)
#    0.000    2.125    0.000    3.000    0.000   11.250 
#    0.000    2.500    0.000    0.000    0.000    0.000 
#    0.000    0.000    0.000    0.000    0.000    0.000 
#
# Total GULP energy -396516.882021 kJ/mol
# GULP energy per Si atom -12391.152563 kJ/mol
# Density = 1.986529 g / cm^3
# Si number density = 19.910609 Si / 1000 Ang^3
#
#
#
# Elastic Constant Matrix: (Units=GPa)
#
#
# Indices 1 2 3 4 5 6 
#
# 1 69.2041 36.6607 39.6287 0.0000 -3.3292 0.0000
# 2 36.6607 117.2409 40.7462 0.0000 -16.6120 0.0000
# 3 39.6287 40.7462 119.0487 0.0000 -3.3163 0.0000
# 4 0.0000 0.0000 0.0000 18.5263 0.0000 0.9901
# 5 -3.3292 -16.6120 -3.3163 0.0000 26.1778 0.0000
# 6 0.0000 0.0000 0.0000 0.9901 0.0000 16.1689
#
#
#
# Elastic Compliance Matrix: (Units=1/GPa)
#
#
# Indices 1 2 3 4 5 6 
#
# 1 0.019691 -0.004556 -0.005024 0.000000 -0.001024 0.000000
# 2 -0.004556 0.011680 -0.002299 0.000000 0.006541 0.000000
# 3 -0.005024 -0.002299 0.010839 0.000000 -0.000725 0.000000
# 4 0.000000 0.000000 0.000000 0.054155 0.000000 -0.003316
# 5 -0.001024 0.006541 -0.000725 0.000000 0.042129 0.000000
# 6 0.000000 0.000000 0.000000 -0.003316 0.000000 0.062050
#
#
# Mechanical properties :
#
#
# Convention : Reuss Voigt Hill
#
# Bulk Modulus (GPa) = 54.19398 59.95164 57.07281
# Shear Modulus (GPa) = 21.69640 24.73846 23.21743
#
# Velocity S-wave (km/s) = 3.30463 3.52870 3.41850
# Velocity P-wave (km/s) = 6.46827 6.83945 6.65645
#
# Compressibility (1/GPa) = 0.01845223
#
# Stress axis : x y z
#
# Youngs Moduli (GPa) = 50.78374 85.61685 92.26096
#
# Poissons Ratio (x) = 0.39011 0.46350
# Poissons Ratio (y) = 0.23139 0.21208
# Poissons Ratio (z) = 0.25513 0.19681
#
# Static dielectric constant tensor:
#      x y z
#    x 3.519590 0.000000 0.103650 
#    y 0.000000 3.468720 0.000000 
#    z 0.103650 0.000000 3.623900 
# 
# 
# High freq. dielectric constant tensor:
#      x y z
#    x 1.769670 0.000000 0.000850 
#    y 0.000000 1.770240 0.000000 
#    z 0.000850 0.000000 1.768940 
# 
# From -- ./inp_files/378404.got.cif
#   From: 2010.06.25/outbox.cif.g09.slc.cpg/sg12_190_cif.got.tgz:378404.got - 2010.06.28 00:19:55.
