data_PCOD8091583
_publ_section_title
;
Structure prediction by ZEFSAII (Michael W. Deem and Ramdas Pophale) SiO2 
 PCOD8091583
Probable space group: C 2/M
;
_chemical_formula_sum "Si O2"
_cell_formula_units_Z 64
_cell_length_a 29.332536
_cell_length_b 9.436334
_cell_length_c 18.319852
_cell_angle_alpha 90.000000
_cell_angle_beta 139.222928
_cell_angle_gamma 90.000000
_cell_volume 3311.816624
_symmetry_space_group_name_H-M "C 2/M"
_symmetry_group_IT_number 12
_symmetry_cell_setting 'monoclinic'
loop_
_space_group_symop_operation_xyz
x,y,z
-x,y,-z
-x,-y,-z
x,-y,z
1/2+x,1/2+y,z
1/2-x,1/2+y,-z
1/2-x,1/2-y,-z
1/2+x,1/2-y,z
loop_
_atom_site_type_symbol
_atom_site_label
_atom_site_fract_x
_atom_site_fract_y
_atom_site_fract_z
Si Si1 0.079851 0.164642 0.578516
Si Si2 0.346902 0.838456 0.209508
Si Si3 0.707100 0.832557 0.249972
Si Si4 0.203529 0.841516 0.101992
Si Si5 0.902961 0.840041 0.146086
Si Si6 0.557931 0.832708 0.129421
Si Si7 0.553223 0.336815 0.270622
Si Si8 0.851915 0.832634 0.487521
O O1 0.125403 0.257758 0.686905
O O2 0.098731 0.215996 0.519678
O O3 0.000000 0.194133 0.500000
O O4 0.099018 0.000000 0.612960
O O5 0.263145 0.829147 0.112372
O O6 0.373690 0.769857 0.168162
O O7 0.373210 0.000000 0.243019
O O8 0.716208 0.769081 0.181203
O O9 0.634309 0.781947 0.196164
O O10 0.771919 0.780645 0.379121
O O11 0.708854 0.000000 0.242326
O O12 0.202825 0.000000 0.134847
O O13 0.130709 0.807892 0.973707
O O14 0.985581 0.822689 0.239609
O O15 0.884236 0.000000 0.148721
O O16 0.542464 0.757201 0.186481
O O17 0.555094 0.000000 0.138872
O O18 0.500000 0.785796 0.000000
O O19 0.565058 0.500000 0.261280
O O20 0.617196 0.276218 0.397912
O O21 0.854652 0.000000 0.495077
#
# Coordination Sequence:
#
# PCOD8091583 Si02
#       8
#     8   8   8   8   8   8   8   8
#     4  10  19  34  57  79 106 150 195 230 269 325
#     4  11  22  34  51  81 116 146 183 233 285 332
#     4  10  20  36  59  81 108 149 187 225 279 339
#     4  10  21  36  54  81 114 145 186 236 281 329
#     4  10  21  37  56  78 109 150 191 232 278 334
#     4  10  22  39  58  84 115 144 179 224 279 342
#     4  10  21  38  60  84 109 140 185 234 274 322
#     4   9  18  34  55  81 109 140 184 229 269 323
#
# _framework density 19.324741
#
# number of rings (size 3 to 8) (size 9 to 14) (size 15 to 20)
#    0.000    2.000    1.250    2.250    0.000    5.000 
#    0.000    1.250    0.000    0.000    0.000    0.000 
#    0.000    0.000    0.000    0.000    0.000    0.000 
#
# Total GULP energy -396804.126421 kJ/mol
# GULP energy per Si atom -12400.128951 kJ/mol
# Density = 1.928076 g / cm^3
# Si number density = 19.324741 Si / 1000 Ang^3
#
#
#
# Elastic Constant Matrix: (Units=GPa)
#
#
# Indices 1 2 3 4 5 6 
#
# 1 79.4332 26.6958 41.3174 0.0000 3.9420 0.0000
# 2 26.6958 37.8158 31.2301 0.0000 -3.2461 0.0000
# 3 41.3174 31.2301 135.9102 0.0000 3.2821 0.0000
# 4 0.0000 0.0000 0.0000 20.0116 0.0000 1.1735
# 5 3.9420 -3.2461 3.2821 0.0000 31.4596 0.0000
# 6 0.0000 0.0000 0.0000 1.1735 0.0000 -1.3390
#
#
#
# Elastic Compliance Matrix: (Units=1/GPa)
#
#
# Indices 1 2 3 4 5 6 
#
# 1 0.017749 -0.010354 -0.002944 0.000000 -0.002985 0.000000
# 2 -0.010354 0.039230 -0.006011 0.000000 0.005972 0.000000
# 3 -0.002944 -0.006011 0.009665 0.000000 -0.001260 0.000000
# 4 0.000000 0.000000 0.000000 0.047529 0.000000 0.041652
# 5 -0.002985 0.005972 -0.001260 0.000000 0.032909 0.000000
# 6 0.000000 0.000000 0.000000 0.041652 0.000000 -0.710318
#
#
# Mechanical properties :
#
#
# Convention : Reuss Voigt Hill
#
# Bulk Modulus (GPa) = 35.68327 50.18288 42.93307
# Shear Modulus (GPa) = -9.70352 20.28748 5.29198
#
# Velocity S-wave (km/s) = -2.24326 3.24361 1.65662
# Velocity P-wave (km/s) = 3.43447 6.32871 5.09157
#
# Compressibility (1/GPa) = 0.02802434
#
# Stress axis : x y z
#
# Youngs Moduli (GPa) = 56.34212 25.49049 103.47081
#
# Poissons Ratio (x) = 0.26393 0.30466
# Poissons Ratio (y) = 0.58338 0.62197
# Poissons Ratio (z) = 0.16589 0.15322
#
# Static dielectric constant tensor:
#      x y z
#    x 3.655590 0.000000 0.302990 
#    y 0.000000 3.361800 0.000000 
#    z 0.302990 0.000000 3.906680 
# 
# 
# High freq. dielectric constant tensor:
#      x y z
#    x 1.749350 0.000000 0.008980 
#    y 0.000000 1.733300 0.000000 
#    z 0.008980 0.000000 1.766990 
# 
# From -- ./inp_files/295800.got.cif
#   From: 2010.06.25/outbox.cif.g09.slc.cpg/sg12_148_cif.got.tgz:295800.got - 2010.06.28 00:19:55.
