data_PCOD8091248
_publ_section_title
;
Structure prediction by ZEFSAII (Michael W. Deem and Ramdas Pophale) SiO2 
 PCOD8091248
Probable space group: C 2/M
;
_chemical_formula_sum "Si O2"
_cell_formula_units_Z 64
_cell_length_a 30.321093
_cell_length_b 23.129871
_cell_length_c 9.422195
_cell_angle_alpha 90.000000
_cell_angle_beta 149.590781
_cell_angle_gamma 90.000000
_cell_volume 3344.789029
_symmetry_space_group_name_H-M "C 2/M"
_symmetry_group_IT_number 12
_symmetry_cell_setting 'monoclinic'
loop_
_space_group_symop_operation_xyz
x,y,z
-x,y,-z
-x,-y,-z
x,-y,z
1/2+x,1/2+y,z
1/2-x,1/2+y,-z
1/2-x,1/2-y,-z
1/2+x,1/2-y,z
loop_
_atom_site_type_symbol
_atom_site_label
_atom_site_fract_x
_atom_site_fract_y
_atom_site_fract_z
Si Si1 0.796852 0.065718 0.185596
Si Si2 0.913407 0.343921 0.174263
Si Si3 0.902579 0.135141 0.275582
Si Si4 0.975517 0.676891 0.770480
Si Si5 0.225190 0.434188 0.280522
Si Si6 0.364949 0.934494 0.449266
Si Si7 0.220099 0.065894 0.265798
Si Si8 0.152270 0.259246 0.780409
O O1 0.877906 0.102167 0.352328
O O2 0.795648 0.072995 0.350862
O O3 0.811208 0.000000 0.175624
O O4 0.703784 0.086107 0.862579
O O5 0.851399 0.303852 0.098524
O O6 0.000000 0.360770 0.500000
O O7 0.941079 0.314089 0.101500
O O8 0.863352 0.401878 0.999137
O O9 0.890123 0.202332 0.270708
O O10 0.000000 0.121656 0.500000
O O11 0.841993 0.111589 0.982154
O O12 0.945213 0.609839 0.675179
O O13 0.899818 0.719291 0.503394
O O14 0.000000 0.693432 0.000000
O O15 0.196467 0.500000 0.221288
O O16 0.272320 0.411568 0.552509
O O17 0.316289 0.931953 0.465192
O O18 0.399066 0.000000 0.514291
O O19 0.183156 0.000000 0.153947
O O20 0.250000 0.250000 0.000000
#
# Coordination Sequence:
#
# PCOD8091248 Si02
#       8
#     8   8   8   8   8   8   8   8
#     4   9  18  33  55  82 110 141 180 221 264 320
#     4  10  21  36  54  81 115 145 182 224 265 315
#     4  11  21  37  59  79 102 138 184 230 275 327
#     4  11  22  36  55  83 117 142 174 232 282 310
#     4  10  19  34  55  81 115 149 180 217 265 320
#     4   9  17  32  54  80 112 153 190 210 248 325
#     4   9  19  35  56  83 112 142 181 225 267 319
#     4  11  23  42  61  76 103 147 191 225 269 331
#
# _framework density 19.134242
#
# number of rings (size 3 to 8) (size 9 to 14) (size 15 to 20)
#    0.000    2.000    0.000    6.750    0.000    2.000 
#    0.000    6.875    0.000    2.250    0.000    0.000 
#    0.000    0.000    0.000    0.000    0.000    0.000 
#
# Total GULP energy -396760.823369 kJ/mol
# GULP energy per Si atom -12398.775730 kJ/mol
# Density = 1.909069 g / cm^3
# Si number density = 19.134242 Si / 1000 Ang^3
#
#
#
# Elastic Constant Matrix: (Units=GPa)
#
#
# Indices 1 2 3 4 5 6 
#
# 1 129.2775 34.1121 63.5382 0.0000 -16.2653 0.0000
# 2 34.1121 86.6377 53.6470 0.0000 -5.3080 0.0000
# 3 63.5382 53.6470 75.0909 0.0000 -8.7554 0.0000
# 4 0.0000 0.0000 0.0000 13.4025 0.0000 7.2212
# 5 -16.2653 -5.3080 -8.7554 0.0000 40.9198 0.0000
# 6 0.0000 0.0000 0.0000 7.2212 0.0000 23.9227
#
#
#
# Elastic Compliance Matrix: (Units=1/GPa)
#
#
# Indices 1 2 3 4 5 6 
#
# 1 0.014082 0.003229 -0.013867 0.000000 0.003049 0.000000
# 2 0.003229 0.021449 -0.018032 0.000000 0.000208 0.000000
# 3 -0.013867 -0.018032 0.037965 0.000000 0.000272 0.000000
# 4 0.000000 0.000000 0.000000 0.089105 0.000000 -0.026897
# 5 0.003049 0.000208 0.000272 0.000000 0.025735 0.000000
# 6 0.000000 0.000000 0.000000 -0.026897 0.000000 0.049920
#
#
# Mechanical properties :
#
#
# Convention : Reuss Voigt Hill
#
# Bulk Modulus (GPa) = 61.89441 65.95560 63.92501
# Shear Modulus (GPa) = 16.61226 24.96289 20.78758
#
# Velocity S-wave (km/s) = 2.94971 3.61587 3.29964
# Velocity P-wave (km/s) = 6.63466 7.20954 6.92807
#
# Compressibility (1/GPa) = 0.01615655
#
# Stress axis : x y z
#
# Youngs Moduli (GPa) = 71.01025 46.62183 26.34020
#
# Poissons Ratio (x) = -0.15053 0.36526
# Poissons Ratio (y) = -0.22927 0.47496
# Poissons Ratio (z) = 0.98470 0.84067
#
# Static dielectric constant tensor:
#      x y z
#    x 3.817060 0.000000 -0.190230 
#    y 0.000000 3.519720 0.000000 
#    z -0.190230 0.000000 3.235370 
# 
# 
# High freq. dielectric constant tensor:
#      x y z
#    x 1.761050 0.000000 -0.010790 
#    y 0.000000 1.742260 0.000000 
#    z -0.010790 0.000000 1.714700 
# 
# From -- ./inp_files/113667.got.cif
#   From: 2010.06.25/outbox.cif.g09.slc.cpg/sg12_57_cif.got.tgz:113667.got - 2010.06.28 00:19:55.
