data_PCOD8091496
_publ_section_title
;
Structure prediction by ZEFSAII (Michael W. Deem and Ramdas Pophale) SiO2 
 PCOD8091496
Probable space group: C 2/M
;
_chemical_formula_sum "Si O2"
_cell_formula_units_Z 48
_cell_length_a 19.390811
_cell_length_b 13.504291
_cell_length_c 12.823678
_cell_angle_alpha 90.000000
_cell_angle_beta 46.844899
_cell_angle_gamma 90.000000
_cell_volume 2449.675409
_symmetry_space_group_name_H-M "C 2/M"
_symmetry_group_IT_number 12
_symmetry_cell_setting 'monoclinic'
loop_
_space_group_symop_operation_xyz
x,y,z
-x,y,-z
-x,-y,-z
x,-y,z
1/2+x,1/2+y,z
1/2-x,1/2+y,-z
1/2-x,1/2-y,-z
1/2+x,1/2-y,z
loop_
_atom_site_type_symbol
_atom_site_label
_atom_site_fract_x
_atom_site_fract_y
_atom_site_fract_z
Si Si1 0.858798 0.710120 0.767265
Si Si2 0.081593 0.238339 0.990772
Si Si3 0.777553 0.613173 0.462214
Si Si4 0.499060 0.883369 0.238493
Si Si5 0.760891 0.262301 0.666965
Si Si6 0.319516 0.614532 0.950133
O O1 0.850196 0.713677 0.650168
O O2 0.836926 0.821591 0.828237
O O3 0.961198 0.669071 0.697061
O O4 0.784209 0.634246 0.896200
O O5 0.102372 0.147201 0.046060
O O6 0.052130 0.337176 0.083747
O O7 0.173494 0.266702 0.829952
O O8 0.000000 0.200512 0.000000
O O9 0.756320 0.500000 0.463252
O O10 0.888462 0.640072 0.343140
O O11 0.739931 0.641860 0.616372
O O12 0.719867 0.671929 0.432671
O O13 0.518757 0.000000 0.220920
O O14 0.331862 0.500000 0.909099
#
# Coordination Sequence:
#
# PCOD8091496 Si02
#       6
#     8   8   8   8   8   8
#     4   9  19  33  54  79 112 145 179 230 279 328
#     4  10  19  34  56  83 111 144 184 227 279 322
#     4  10  22  38  57  82 112 147 185 229 278 330
#     4  10  20  35  59  90 115 137 180 236 285 332
#     4  10  21  37  55  79 113 149 181 224 273 335
#     4   9  18  32  50  78 112 145 182 224 275 332
#
# _framework density 19.594432999999999
#
# number of rings (size 3 to 8) (size 9 to 14) (size 15 to 20)
#    0.000    2.333    1.667    1.500    0.000    6.000 
#    0.000    1.667    0.000    0.000    0.000    4.667 
#    0.000    0.000    0.000    0.000    0.000    0.000 
#
# Total GULP energy -297547.542979 kJ/mol
# GULP energy per Si atom -12397.814291 kJ/mol
# Density = 1.954984 g / cm^3
# Si number density = 19.594433 Si / 1000 Ang^3
#
#
#
# Elastic Constant Matrix: (Units=GPa)
#
#
# Indices 1 2 3 4 5 6 
#
# 1 74.7077 11.0724 9.3378 0.0000 13.5390 0.0000
# 2 11.0724 106.3874 19.5882 0.0000 -2.0176 0.0000
# 3 9.3378 19.5882 57.9786 0.0000 17.4843 0.0000
# 4 0.0000 0.0000 0.0000 18.6515 0.0000 -5.0843
# 5 13.5390 -2.0176 17.4843 0.0000 24.9008 0.0000
# 6 0.0000 0.0000 0.0000 -5.0843 0.0000 22.9254
#
#
#
# Elastic Compliance Matrix: (Units=1/GPa)
#
#
# Indices 1 2 3 4 5 6 
#
# 1 0.015199 -0.001928 0.000942 0.000000 -0.009082 0.000000
# 2 -0.001928 0.010600 -0.004879 0.000000 0.005333 0.000000
# 3 0.000942 -0.004879 0.024127 0.000000 -0.017848 0.000000
# 4 0.000000 0.000000 0.000000 0.057065 0.000000 0.012656
# 5 -0.009082 0.005333 -0.017848 0.000000 0.058062 0.000000
# 6 0.000000 0.000000 0.000000 0.012656 0.000000 0.046426
#
#
# Mechanical properties :
#
#
# Convention : Reuss Voigt Hill
#
# Bulk Modulus (GPa) = 26.18000 35.45227 30.81613
# Shear Modulus (GPa) = 21.19187 26.56724 23.87956
#
# Velocity S-wave (km/s) = 3.29222 3.68619 3.49476
# Velocity P-wave (km/s) = 5.27651 6.02077 5.66088
#
# Compressibility (1/GPa) = 0.03819710
#
# Stress axis : x y z
#
# Youngs Moduli (GPa) = 65.79257 94.34289 41.44772
#
# Poissons Ratio (x) = 0.18185 -0.03905
# Poissons Ratio (y) = 0.12682 0.20221
# Poissons Ratio (z) = -0.06198 0.46028
#
# Static dielectric constant tensor:
#      x y z
#    x 3.976070 0.000000 0.133780 
#    y 0.000000 3.360910 0.000000 
#    z 0.133780 0.000000 3.392410 
# 
# 
# High freq. dielectric constant tensor:
#      x y z
#    x 1.778050 0.000000 0.012490 
#    y 0.000000 1.750810 0.000000 
#    z 0.012490 0.000000 1.742820 
# 
# From -- ./inp_files/165454.got.cif
#   From: 2010.06.25/outbox.cif.g09.slc.cpg/sg12_83_cif.got.tgz:165454.got - 2010.06.28 00:19:55.
