data_PCOD8091575
_publ_section_title
;
Structure prediction by ZEFSAII (Michael W. Deem and Ramdas Pophale) SiO2 
 PCOD8091575
Probable space group: C 2/M
;
_chemical_formula_sum "Si O2"
_cell_formula_units_Z 56
_cell_length_a 15.851759
_cell_length_b 9.281484
_cell_length_c 22.935483
_cell_angle_alpha 90.000000
_cell_angle_beta 58.054455
_cell_angle_gamma 90.000000
_cell_volume 2863.392643
_symmetry_space_group_name_H-M "C 2/M"
_symmetry_group_IT_number 12
_symmetry_cell_setting 'monoclinic'
loop_
_space_group_symop_operation_xyz
x,y,z
-x,y,-z
-x,-y,-z
x,-y,z
1/2+x,1/2+y,z
1/2-x,1/2+y,-z
1/2-x,1/2-y,-z
1/2+x,1/2-y,z
loop_
_atom_site_type_symbol
_atom_site_label
_atom_site_fract_x
_atom_site_fract_y
_atom_site_fract_z
Si Si1 0.060812 0.331316 0.419739
Si Si2 0.284916 0.669906 0.341157
Si Si3 0.327572 0.164850 0.933205
Si Si4 0.622691 0.837077 0.212236
Si Si5 0.473249 0.670657 0.341041
Si Si6 0.027603 0.665788 0.926938
Si Si7 0.322760 0.661840 0.201664
O O1 0.060793 0.500000 0.403349
O O2 0.172621 0.270757 0.390426
O O3 0.000000 0.300076 0.500000
O O4 0.005661 0.246989 0.388413
O O5 0.276712 0.500000 0.337378
O O6 0.357451 0.709312 0.368708
O O7 0.333121 0.728147 0.262947
O O8 0.328835 0.218587 0.865967
O O9 0.437560 0.189855 0.916307
O O10 0.294349 0.000000 0.949200
O O11 0.250000 0.250000 0.000000
O O12 0.536353 0.729091 0.263328
O O13 0.705483 0.837144 0.231884
O O14 0.580397 0.000000 0.219119
O O15 0.489040 0.500000 0.341010
O O16 0.057164 0.500000 0.923866
O O17 0.122857 0.743850 0.866278
O O18 0.000000 0.732248 0.000000
O O19 0.365881 0.500000 0.182148
#
# Coordination Sequence:
#
# PCOD8091575 Si02
#       7
#     8   8   8   8   8   8   8
#     4  10  21  41  66  87 117 162 199 232 286 355
#     4   9  19  37  58  85 119 152 190 237 290 345
#     4  10  21  35  52  76 106 144 189 240 290 344
#     4  10  20  36  57  80 110 149 195 241 285 347
#     4  11  22  36  59  89 120 152 190 244 297 339
#     4  10  21  35  49  72 109 144 178 232 295 345
#     4  10  19  34  57  78 104 144 188 236 281 336
#
# _framework density 19.557220000000001
#
# number of rings (size 3 to 8) (size 9 to 14) (size 15 to 20)
#    0.000    2.000    1.429    2.143    0.000    2.857 
#    0.000    2.143    0.000    0.000    0.000    0.000 
#    0.000    0.000    0.000    0.000    0.000    0.000 
#
# Total GULP energy -347176.719987 kJ/mol
# GULP energy per Si atom -12399.168571 kJ/mol
# Density = 1.951271 g / cm^3
# Si number density = 19.557220 Si / 1000 Ang^3
#
#
#
# Elastic Constant Matrix: (Units=GPa)
#
#
# Indices 1 2 3 4 5 6 
#
# 1 121.9419 46.3806 66.2154 0.0000 5.9439 0.0000
# 2 46.3806 65.2475 51.4756 0.0000 -0.4492 0.0001
# 3 66.2154 51.4756 125.0100 0.0000 -1.0721 0.0000
# 4 0.0000 0.0000 0.0000 30.0729 0.0000 3.6748
# 5 5.9439 -0.4492 -1.0721 0.0000 29.2343 0.0000
# 6 0.0000 0.0001 0.0000 3.6748 0.0000 21.9978
#
#
#
# Elastic Compliance Matrix: (Units=1/GPa)
#
#
# Indices 1 2 3 4 5 6 
#
# 1 0.012966 -0.005627 -0.004576 0.000000 -0.002891 0.000000
# 2 -0.005627 0.025143 -0.007362 0.000000 0.001260 0.000000
# 3 -0.004576 -0.007362 0.013466 0.000000 0.001311 0.000000
# 4 0.000000 0.000000 0.000000 0.033945 0.000000 -0.005671
# 5 -0.002891 0.001260 0.001311 0.000000 0.034862 0.000000
# 6 0.000000 0.000000 0.000000 -0.005671 0.000000 0.046406
#
#
# Mechanical properties :
#
#
# Convention : Reuss Voigt Hill
#
# Bulk Modulus (GPa) = 60.80604 71.14917 65.97761
# Shear Modulus (GPa) = 24.10809 26.13620 25.12215
#
# Velocity S-wave (km/s) = 3.51478 3.65964 3.58794
# Velocity P-wave (km/s) = 6.90148 7.36996 7.13956
#
# Compressibility (1/GPa) = 0.01644573
#
# Stress axis : x y z
#
# Youngs Moduli (GPa) = 77.12202 39.77295 74.26279
#
# Poissons Ratio (x) = 0.22380 0.33981
# Poissons Ratio (y) = 0.43396 0.54670
# Poissons Ratio (z) = 0.35290 0.29280
#
# Static dielectric constant tensor:
#      x y z
#    x 3.634400 0.000000 0.093240 
#    y 0.000000 3.373800 0.000000 
#    z 0.093240 0.000000 3.550750 
# 
# 
# High freq. dielectric constant tensor:
#      x y z
#    x 1.772730 0.000000 0.006940 
#    y 0.000000 1.737240 0.000000 
#    z 0.006940 0.000000 1.765930 
# 
# From -- ./inp_files/308964.got.cif
#   From: 2010.06.25/outbox.cif.g09.slc.cpg/sg12_155_cif.got.tgz:308964.got - 2010.06.28 00:19:55.
