data_PCOD8091351
_publ_section_title
;
Structure prediction by ZEFSAII (Michael W. Deem and Ramdas Pophale) SiO2 
 PCOD8091351
Probable space group: C 2/M
;
_chemical_formula_sum "Si O2"
_cell_formula_units_Z 64
_cell_length_a 15.703286
_cell_length_b 9.218800
_cell_length_c 23.949800
_cell_angle_alpha 90.000000
_cell_angle_beta 80.084665
_cell_angle_gamma 90.000000
_cell_volume 3415.316471
_symmetry_space_group_name_H-M "C 2/M"
_symmetry_group_IT_number 12
_symmetry_cell_setting 'monoclinic'
loop_
_space_group_symop_operation_xyz
x,y,z
-x,y,-z
-x,-y,-z
x,-y,z
1/2+x,1/2+y,z
1/2-x,1/2+y,-z
1/2-x,1/2-y,-z
1/2+x,1/2-y,z
loop_
_atom_site_type_symbol
_atom_site_label
_atom_site_fract_x
_atom_site_fract_y
_atom_site_fract_z
Si Si1 0.935849 0.172800 0.760245
Si Si2 0.034576 0.827881 0.369009
Si Si3 0.770083 0.332614 0.824542
Si Si4 0.417050 0.330927 0.175447
Si Si5 0.026803 0.831979 0.058633
Si Si6 0.801957 0.666379 0.947053
Si Si7 0.683084 0.330622 0.434032
Si Si8 0.147764 0.830626 0.565535
O O1 0.948906 0.225537 0.695583
O O2 0.847070 0.234967 0.793635
O O3 0.016230 0.236929 0.787164
O O4 0.930441 0.000000 0.765612
O O5 0.111663 0.768192 0.399325
O O6 0.942070 0.767940 0.400169
O O7 0.032852 0.000000 0.373772
O O8 0.788328 0.500000 0.806644
O O9 0.680972 0.272606 0.806734
O O10 0.755837 0.318568 0.892579
O O11 0.414253 0.500000 0.187542
O O12 0.447587 0.300542 0.108874
O O13 0.103938 0.733078 0.070951
O O14 0.055758 0.000000 0.056922
O O15 0.000000 0.784380 0.000000
O O16 0.808917 0.500000 0.964919
O O17 0.750000 0.750000 0.000000
O O18 0.699521 0.500000 0.422715
O O19 0.773333 0.249698 0.412675
O O20 0.648099 0.297985 0.499746
O O21 0.157988 0.000000 0.577107
#
# Coordination Sequence:
#
# PCOD8091351 Si02
#       8
#     8   8   8   8   8   8   8   8
#     4  10  20  36  56  77 102 137 182 225 260 312
#     4   9  18  32  52  76 103 139 181 219 262 316
#     4  10  21  38  57  78 106 140 175 216 267 318
#     4   9  18  34  55  75 100 136 173 209 260 317
#     4  10  19  34  56  79 106 138 173 213 264 323
#     4  11  22  35  54  80 111 140 174 218 266 322
#     4   9  17  31  51  76 108 141 174 218 269 313
#     4   9  17  31  52  77 105 140 180 218 259 315
#
# _framework density 18.739113
#
# number of rings (size 3 to 8) (size 9 to 14) (size 15 to 20)
#    0.000    2.375    1.250    1.500    0.000    5.250 
#    0.000    4.375    0.000    3.000    0.000    0.000 
#    0.000    0.000    0.000    0.000    0.000    0.000 
#
# Total GULP energy -396777.617390 kJ/mol
# GULP energy per Si atom -12399.300543 kJ/mol
# Density = 1.869646 g / cm^3
# Si number density = 18.739113 Si / 1000 Ang^3
#
#
#
# Elastic Constant Matrix: (Units=GPa)
#
#
# Indices 1 2 3 4 5 6 
#
# 1 176.5601 36.9141 69.8001 0.0000 0.2827 0.0000
# 2 36.9141 41.0260 25.7304 0.0000 -2.5066 0.0000
# 3 69.8001 25.7304 102.5121 0.0000 4.2311 0.0000
# 4 0.0000 0.0000 0.0000 16.1160 0.0000 -2.0395
# 5 0.2827 -2.5066 4.2311 0.0000 26.0151 0.0000
# 6 0.0000 0.0000 0.0000 -2.0395 0.0000 29.0796
#
#
#
# Elastic Compliance Matrix: (Units=1/GPa)
#
#
# Indices 1 2 3 4 5 6 
#
# 1 0.008465 -0.004729 -0.004585 0.000000 0.000198 0.000000
# 2 -0.004729 0.031989 -0.004972 0.000000 0.003942 0.000000
# 3 -0.004585 -0.004972 0.014238 0.000000 -0.002745 0.000000
# 4 0.000000 0.000000 0.000000 0.062606 0.000000 0.004391
# 5 0.000198 0.003942 -0.002745 0.000000 0.039263 0.000000
# 6 0.000000 0.000000 0.000000 0.004391 0.000000 0.034696
#
#
# Mechanical properties :
#
#
# Convention : Reuss Voigt Hill
#
# Bulk Modulus (GPa) = 38.28457 64.99861 51.64159
# Shear Modulus (GPa) = 21.87848 26.75236 24.31542
#
# Velocity S-wave (km/s) = 3.42062 3.78249 3.60610
# Velocity P-wave (km/s) = 6.00629 7.33741 6.70497
#
# Compressibility (1/GPa) = 0.02612019
#
# Stress axis : x y z
#
# Youngs Moduli (GPa) = 118.13814 31.26102 70.23442
#
# Poissons Ratio (x) = 0.14782 0.32201
# Poissons Ratio (y) = 0.55864 0.34921
# Poissons Ratio (z) = 0.54164 0.15543
#
# Static dielectric constant tensor:
#      x y z
#    x 3.885000 0.000000 0.108610 
#    y 0.000000 3.222820 0.000000 
#    z 0.108610 0.000000 3.487630 
# 
# 
# High freq. dielectric constant tensor:
#      x y z
#    x 1.743800 0.000000 0.000670 
#    y 0.000000 1.692830 0.000000 
#    z 0.000670 0.000000 1.726830 
# 
# From -- ./inp_files/359710.got.cif
#   From: 2010.06.25/outbox.cif.g09.slc.cpg/sg12_180_cif.got.tgz:359710.got - 2010.06.28 00:19:55.
