data_PCOD8091816
_publ_section_title
;
Structure prediction by ZEFSAII (Michael W. Deem and Ramdas Pophale) SiO2 
 PCOD8091816
Probable space group: C 2/M
;
_chemical_formula_sum "Si O2"
_cell_formula_units_Z 56
_cell_length_a 30.238405
_cell_length_b 8.707077
_cell_length_c 11.653782
_cell_angle_alpha 90.000000
_cell_angle_beta 64.070714
_cell_angle_gamma 90.000000
_cell_volume 2759.429851
_symmetry_space_group_name_H-M "C 2/M"
_symmetry_group_IT_number 12
_symmetry_cell_setting 'monoclinic'
loop_
_space_group_symop_operation_xyz
x,y,z
-x,y,-z
-x,-y,-z
x,-y,z
1/2+x,1/2+y,z
1/2-x,1/2+y,-z
1/2-x,1/2-y,-z
1/2+x,1/2-y,z
loop_
_atom_site_type_symbol
_atom_site_label
_atom_site_fract_x
_atom_site_fract_y
_atom_site_fract_z
Si Si1 0.347317 0.819368 0.624937
Si Si2 0.237566 0.179057 0.135792
Si Si3 0.542975 0.818175 0.530732
Si Si4 0.302682 0.676207 0.454291
Si Si5 0.677190 0.326184 0.825250
Si Si6 0.432088 0.320181 0.023331
Si Si7 0.978423 0.681797 0.190863
O O1 0.314300 0.741208 0.759574
O O2 0.404022 0.770943 0.580789
O O3 0.333051 0.768688 0.513633
O O4 0.339622 0.000000 0.643088
O O5 0.280750 0.213690 0.177227
O O6 0.232292 0.000000 0.125637
O O7 0.250000 0.250000 0.000000
O O8 0.500000 0.746640 0.500000
O O9 0.536994 0.756119 0.666795
O O10 0.537617 0.000000 0.540321
O O11 0.297386 0.500000 0.500131
O O12 0.250000 0.750000 0.500000
O O13 0.330540 0.691098 0.302033
O O14 0.693449 0.500000 0.837002
O O15 0.624847 0.286005 0.941862
O O16 0.443850 0.500000 0.000903
O O17 0.443941 0.265659 0.138456
O O18 0.464650 0.226485 0.895282
O O19 0.971942 0.500000 0.185593
#
# Coordination Sequence:
#
# PCOD8091816 Si02
#       7
#     8   8   8   8   8   8   8
#     4  11  22  39  63  90 122 157 199 252 304 357
#     4  12  26  43  63  85 117 157 198 243 293 356
#     4   9  20  38  60  86 117 155 199 246 295 347
#     4  11  21  35  59  89 122 158 197 246 300 359
#     4  10  22  39  59  86 120 156 199 244 295 358
#     4  10  20  35  57  84 118 156 190 240 301 352
#     4  10  19  34  57  86 117 152 198 247 292 352
#
# _framework density 20.294049000000001
#
# number of rings (size 3 to 8) (size 9 to 14) (size 15 to 20)
#    0.000    1.571    1.429    4.714    0.000    2.857 
#    0.000    3.571    0.000    6.000    0.000    0.000 
#    0.000    0.000    0.000    0.000    0.000    0.000 
#
# Total GULP energy -347266.026160 kJ/mol
# GULP energy per Si atom -12402.358077 kJ/mol
# Density = 2.024786 g / cm^3
# Si number density = 20.294049 Si / 1000 Ang^3
#
#
#
# Elastic Constant Matrix: (Units=GPa)
#
#
# Indices 1 2 3 4 5 6 
#
# 1 121.1531 36.9642 51.7944 0.0000 -16.4481 0.0000
# 2 36.9642 90.9069 39.1984 0.0000 -6.8372 0.0000
# 3 51.7944 39.1984 128.7456 0.0000 -8.9529 0.0000
# 4 0.0000 0.0000 0.0000 26.8926 0.0000 2.7608
# 5 -16.4481 -6.8372 -8.9529 0.0000 29.9327 0.0000
# 6 0.0000 0.0000 0.0000 2.7608 0.0000 25.4670
#
#
#
# Elastic Compliance Matrix: (Units=1/GPa)
#
#
# Indices 1 2 3 4 5 6 
#
# 1 0.011125 -0.002752 -0.003325 0.000000 0.004490 0.000000
# 2 -0.002752 0.013437 -0.002937 0.000000 0.000679 0.000000
# 3 -0.003325 -0.002937 0.010034 0.000000 0.000503 0.000000
# 4 0.000000 0.000000 0.000000 0.037603 0.000000 -0.004076
# 5 0.004490 0.000679 0.000503 0.000000 0.036181 0.000000
# 6 0.000000 0.000000 0.000000 -0.004076 0.000000 0.039708
#
#
# Mechanical properties :
#
#
# Convention : Reuss Voigt Hill
#
# Bulk Modulus (GPa) = 60.35911 66.30219 63.33065
# Shear Modulus (GPa) = 29.13090 30.64837 29.88963
#
# Velocity S-wave (km/s) = 3.79283 3.89036 3.84191
# Velocity P-wave (km/s) = 6.99911 7.27472 7.13825
#
# Compressibility (1/GPa) = 0.01656751
#
# Stress axis : x y z
#
# Youngs Moduli (GPa) = 89.88854 74.42387 99.65947
#
# Poissons Ratio (x) = 0.20481 0.33141
# Poissons Ratio (y) = 0.24737 0.29266
# Poissons Ratio (z) = 0.29892 0.21856
#
# Static dielectric constant tensor:
#      x y z
#    x 3.840180 0.000000 0.003780 
#    y 0.000000 3.812790 0.000000 
#    z 0.003780 0.000000 3.933670 
# 
# 
# High freq. dielectric constant tensor:
#      x y z
#    x 1.794260 0.000000 -0.013530 
#    y 0.000000 1.787860 0.000000 
#    z -0.013530 0.000000 1.798870 
# 
# From -- ./inp_files/186476.got.cif
#   From: 2010.06.25/outbox.cif.g09.slc.cpg/sg12_94_cif.got.tgz:186476.got - 2010.06.28 00:19:55.
