data_PCOD8091004
_publ_section_title
;
Structure prediction by ZEFSAII (Michael W. Deem and Ramdas Pophale) SiO2 
 PCOD8091004
Probable space group: C 2/M
;
_chemical_formula_sum "Si O2"
_cell_formula_units_Z 56
_cell_length_a 33.495254
_cell_length_b 8.872362
_cell_length_c 12.580515
_cell_angle_alpha 90.000000
_cell_angle_beta 120.801226
_cell_angle_gamma 90.000000
_cell_volume 3211.354846
_symmetry_space_group_name_H-M "C 2/M"
_symmetry_group_IT_number 12
_symmetry_cell_setting 'monoclinic'
loop_
_space_group_symop_operation_xyz
x,y,z
-x,y,-z
-x,-y,-z
x,-y,z
1/2+x,1/2+y,z
1/2-x,1/2+y,-z
1/2-x,1/2-y,-z
1/2+x,1/2-y,z
loop_
_atom_site_type_symbol
_atom_site_label
_atom_site_fract_x
_atom_site_fract_y
_atom_site_fract_z
Si Si1 0.944706 0.323229 0.807762
Si Si2 0.804493 0.821265 0.742800
Si Si3 0.950650 0.324473 0.058827
Si Si4 0.701991 0.179132 0.657758
Si Si5 0.636264 0.676244 0.980278
Si Si6 0.644009 0.678261 0.397802
Si Si7 0.204500 0.177821 0.887837
O O1 0.933667 0.500000 0.780538
O O2 0.940704 0.272030 0.924774
O O3 0.909456 0.224590 0.690489
O O4 0.996496 0.285908 0.836563
O O5 0.751622 0.764142 0.680570
O O6 0.833936 0.753889 0.881345
O O7 0.825970 0.762758 0.661680
O O8 0.805895 0.000000 0.749277
O O9 0.941776 0.500000 0.056190
O O10 0.915650 0.242434 0.091407
O O11 0.661946 0.238128 0.526397
O O12 0.692791 0.249915 0.759549
O O13 0.700065 0.000000 0.664524
O O14 0.632250 0.500000 0.991407
O O15 0.660897 0.716506 0.903472
O O16 0.648070 0.500000 0.418375
O O17 0.212411 0.000000 0.888130
O O18 0.250000 0.250000 0.000000
#
# Coordination Sequence:
#
# PCOD8091004 Si02
#       7
#     8   8   8   8   8   8   8
#     4   9  18  33  51  76 110 142 172 214 264 314
#     4   9  18  33  51  76 109 142 174 213 260 314
#     4   9  18  32  52  79 108 138 176 216 261 317
#     4  11  22  38  55  74 107 146 183 221 265 311
#     4  10  19  34  54  78 109 139 173 219 266 310
#     4  11  21  34  53  79 109 142 181 217 259 319
#     4  11  22  37  56  78 106 141 181 224 264 308
#
# _framework density 17.438122
#
# number of rings (size 3 to 8) (size 9 to 14) (size 15 to 20)
#    0.000    2.000    2.857    2.571    0.000    1.714 
#    0.000    3.571    0.000    0.857    0.000    6.000 
#    0.000    0.000    0.000    0.000    0.000    0.000 
#
# Total GULP energy -347248.672568 kJ/mol
# GULP energy per Si atom -12401.738306 kJ/mol
# Density = 1.739843 g / cm^3
# Si number density = 17.438122 Si / 1000 Ang^3
#
#
#
# Elastic Constant Matrix: (Units=GPa)
#
#
# Indices 1 2 3 4 5 6 
#
# 1 132.7294 53.3722 67.0762 0.0000 7.2091 0.0000
# 2 53.3722 57.5736 39.6211 0.0000 -5.2499 0.0000
# 3 67.0762 39.6211 119.3383 0.0000 -6.1029 0.0000
# 4 0.0000 0.0000 0.0000 28.6387 0.0000 1.9229
# 5 7.2091 -5.2499 -6.1029 0.0000 24.1637 0.0000
# 6 0.0000 0.0000 0.0000 1.9229 0.0000 29.8293
#
#
#
# Elastic Compliance Matrix: (Units=1/GPa)
#
#
# Indices 1 2 3 4 5 6 
#
# 1 0.015104 -0.011174 -0.005201 0.000000 -0.008248 0.000000
# 2 -0.011174 0.031003 -0.003543 0.000000 0.009175 0.000000
# 3 -0.005201 -0.003543 0.012683 0.000000 0.003985 0.000000
# 4 0.000000 0.000000 0.000000 0.035070 0.000000 -0.002261
# 5 -0.008248 0.009175 0.003985 0.000000 0.046845 0.000000
# 6 0.000000 0.000000 0.000000 -0.002261 0.000000 0.033670
#
#
# Mechanical properties :
#
#
# Convention : Reuss Voigt Hill
#
# Bulk Modulus (GPa) = 52.76388 69.97558 61.36973
# Shear Modulus (GPa) = 22.67268 26.49781 24.58525
#
# Velocity S-wave (km/s) = 3.60971 3.90235 3.75888
# Velocity P-wave (km/s) = 6.90629 7.77943 7.35582
#
# Compressibility (1/GPa) = 0.01895236
#
# Stress axis : x y z
#
# Youngs Moduli (GPa) = 66.20774 32.25492 78.84465
#
# Poissons Ratio (x) = 0.36043 0.41009
# Poissons Ratio (y) = 0.73983 0.27936
# Poissons Ratio (z) = 0.34436 0.11429
#
# Static dielectric constant tensor:
#      x y z
#    x 3.393140 0.000000 0.030330 
#    y 0.000000 3.108780 0.000000 
#    z 0.030330 0.000000 3.085220 
# 
# 
# High freq. dielectric constant tensor:
#      x y z
#    x 1.674590 0.000000 0.007760 
#    y 0.000000 1.667150 0.000000 
#    z 0.007760 0.000000 1.659960 
# 
# From -- ./inp_files/186862.got.cif
#   From: 2010.06.25/outbox.cif.g09.slc.cpg/sg12_94_cif.got.tgz:186862.got - 2010.06.28 00:19:55.
