data_PCOD8091227
_publ_section_title
;
Structure prediction by ZEFSAII (Michael W. Deem and Ramdas Pophale) SiO2 
 PCOD8091227
Probable space group: C 2/M
;
_chemical_formula_sum "Si O2"
_cell_formula_units_Z 56
_cell_length_a 23.678952
_cell_length_b 8.922087
_cell_length_c 15.039953
_cell_angle_alpha 90.000000
_cell_angle_beta 60.576725
_cell_angle_gamma 90.000000
_cell_volume 2767.583330
_symmetry_space_group_name_H-M "C 2/M"
_symmetry_group_IT_number 12
_symmetry_cell_setting 'monoclinic'
loop_
_space_group_symop_operation_xyz
x,y,z
-x,y,-z
-x,-y,-z
x,-y,z
1/2+x,1/2+y,z
1/2-x,1/2+y,-z
1/2-x,1/2-y,-z
1/2+x,1/2-y,z
loop_
_atom_site_type_symbol
_atom_site_label
_atom_site_fract_x
_atom_site_fract_y
_atom_site_fract_z
Si Si1 0.239810 0.175587 0.787565
Si Si2 0.935216 0.326526 0.806014
Si Si3 0.131124 0.826899 0.294499
Si Si4 0.192407 0.675618 0.987492
Si Si5 0.290169 0.676122 0.388184
Si Si6 0.930686 0.664494 0.509977
Si Si7 0.922919 0.329137 0.311009
O O1 0.307744 0.224834 0.778319
O O2 0.187795 0.259383 0.890509
O O3 0.237769 0.226568 0.686017
O O4 0.228743 0.000000 0.805717
O O5 0.932589 0.500000 0.777207
O O6 0.926489 0.221748 0.726441
O O7 0.007546 0.293942 0.790363
O O8 0.879033 0.288330 0.919361
O O9 0.112314 0.792541 0.410868
O O10 0.148735 0.000000 0.270181
O O11 0.206524 0.500000 0.974327
O O12 0.250000 0.750000 0.000000
O O13 0.283907 0.500000 0.406599
O O14 0.250000 0.750000 0.500000
O O15 0.365609 0.720623 0.325076
O O16 0.897656 0.500000 0.548799
O O17 0.936309 0.702566 0.403341
O O18 0.000000 0.663274 0.500000
O O19 0.901076 0.500000 0.309747
#
# Coordination Sequence:
#
# PCOD8091227 Si02
#       7
#     8   8   8   8   8   8   8
#     4  11  24  42  62  85 121 165 208 252 310 374
#     4  10  21  39  60  86 123 162 197 240 306 376
#     4  12  23  33  54  88 122 155 198 253 307 357
#     4  11  22  37  63  95 126 162 205 256 310 366
#     4  11  25  44  66  91 121 163 208 259 311 365
#     4  10  19  34  55  80 116 159 197 235 299 374
#     4  10  21  39  63  87 117 163 205 249 305 367
#
# _framework density 20.234261
#
# number of rings (size 3 to 8) (size 9 to 14) (size 15 to 20)
#    0.000    1.286    2.857    3.429    0.000    7.714 
#    0.000    0.714    0.000    4.286    0.000    0.000 
#    0.000    0.000    0.000    0.000    0.000    0.000 
#
# Total GULP energy -347115.259217 kJ/mol
# GULP energy per Si atom -12396.973543 kJ/mol
# Density = 2.018821 g / cm^3
# Si number density = 20.234261 Si / 1000 Ang^3
#
#
#
# Elastic Constant Matrix: (Units=GPa)
#
#
# Indices 1 2 3 4 5 6 
#
# 1 89.8468 37.5219 35.2809 0.0000 -14.1215 0.0000
# 2 37.5219 86.6395 53.0911 0.0000 -1.0540 0.0001
# 3 35.2809 53.0911 117.4088 0.0000 -12.4171 0.0000
# 4 0.0000 0.0000 0.0000 34.3036 0.0000 0.0493
# 5 -14.1215 -1.0540 -12.4171 0.0000 33.8082 0.0000
# 6 0.0000 0.0001 0.0000 0.0493 0.0000 23.9826
#
#
#
# Elastic Compliance Matrix: (Units=1/GPa)
#
#
# Indices 1 2 3 4 5 6 
#
# 1 0.014843 -0.005514 -0.001383 0.000000 0.005520 0.000000
# 2 -0.005514 0.018179 -0.007020 0.000000 -0.004314 0.000000
# 3 -0.001383 -0.007020 0.012509 0.000000 0.003798 0.000000
# 4 0.000000 0.000000 0.000000 0.029152 0.000000 -0.000060
# 5 0.005520 -0.004314 0.003798 0.000000 0.033145 0.000000
# 6 0.000000 0.000000 0.000000 -0.000060 0.000000 0.041697
#
#
# Mechanical properties :
#
#
# Convention : Reuss Voigt Hill
#
# Bulk Modulus (GPa) = 56.50443 60.63143 58.56793
# Shear Modulus (GPa) = 27.28399 29.61895 28.45147
#
# Velocity S-wave (km/s) = 3.67605 3.83012 3.75387
# Velocity P-wave (km/s) = 6.78259 7.04198 6.91350
#
# Compressibility (1/GPa) = 0.01769773
#
# Stress axis : x y z
#
# Youngs Moduli (GPa) = 67.36963 55.00839 79.94295
#
# Poissons Ratio (x) = 0.30329 0.11060
# Poissons Ratio (y) = 0.37144 0.56119
# Poissons Ratio (z) = 0.09320 0.38615
#
# Static dielectric constant tensor:
#      x y z
#    x 3.778980 0.000000 -0.127250 
#    y 0.000000 3.667260 0.000000 
#    z -0.127250 0.000000 4.012190 
# 
# 
# High freq. dielectric constant tensor:
#      x y z
#    x 1.777200 0.000000 -0.014840 
#    y 0.000000 1.785040 0.000000 
#    z -0.014840 0.000000 1.795750 
# 
# From -- ./inp_files/238404.got.cif
#   From: 2010.06.25/outbox.cif.g09.slc.cpg/sg12_120_cif.got.tgz:238404.got - 2010.06.28 00:19:55.
