data_PCOD8091331
_publ_section_title
;
Structure prediction by ZEFSAII (Michael W. Deem and Ramdas Pophale) SiO2 
 PCOD8091331
Probable space group: C 2/M
;
_chemical_formula_sum "Si O2"
_cell_formula_units_Z 36
_cell_length_a 8.736170
_cell_length_b 29.827051
_cell_length_c 9.968206
_cell_angle_alpha 90.000000
_cell_angle_beta 46.380136
_cell_angle_gamma 90.000000
_cell_volume 1880.384277
_symmetry_space_group_name_H-M "C 2/M"
_symmetry_group_IT_number 12
_symmetry_cell_setting 'monoclinic'
loop_
_space_group_symop_operation_xyz
x,y,z
-x,y,-z
-x,-y,-z
x,-y,z
1/2+x,1/2+y,z
1/2-x,1/2+y,-z
1/2-x,1/2-y,-z
1/2+x,1/2-y,z
loop_
_atom_site_type_symbol
_atom_site_label
_atom_site_fract_x
_atom_site_fract_y
_atom_site_fract_z
Si Si1 0.949996 0.949302 0.180447
Si Si2 0.115720 0.867484 0.236891
Si Si3 0.000000 0.584373 0.500000
Si Si4 0.626738 0.204596 0.055668
Si Si5 0.674732 0.147475 0.615925
O O1 0.699633 0.947176 0.354915
O O2 0.072340 0.917279 0.209617
O O3 0.027897 0.000000 0.159489
O O4 0.000000 0.933734 0.000000
O O5 0.272984 0.873295 0.268565
O O6 0.896738 0.842278 0.408624
O O7 0.216339 0.837577 0.058567
O O8 0.965609 0.614265 0.388146
O O9 0.465601 0.192566 0.275411
O O10 0.500000 0.213860 0.000000
O O11 0.750000 0.250000 0.000000
#
# Coordination Sequence:
#
# PCOD8091331 Si02
#       5
#     8   8   4   8   8
#     4  10  20  34  54  80 107 137 174 215 260 310
#     4   9  19  37  54  73 107 140 172 213 258 309
#     4  10  19  34  56  78 106 138 174 218 259 304
#     4  10  21  35  54  78 104 135 173 215 260 312
#     4   9  19  35  54  76 103 139 173 211 260 306
#
# _framework density 19.145023999999999
#
# number of rings (size 3 to 8) (size 9 to 14) (size 15 to 20)
#    0.000    2.444    0.000    1.667    0.000    5.333 
#    0.000   12.222    0.000    8.667    0.000    0.000 
#    0.000    0.000    0.000    0.000    0.000    0.000 
#
# Total GULP energy -223135.863092 kJ/mol
# GULP energy per Si atom -12396.436838 kJ/mol
# Density = 1.910145 g / cm^3
# Si number density = 19.145024 Si / 1000 Ang^3
#
#
#
# Elastic Constant Matrix: (Units=GPa)
#
#
# Indices 1 2 3 4 5 6 
#
# 1 77.6499 54.8609 30.9967 0.0000 -2.7709 0.0000
# 2 54.8609 109.6260 50.3517 0.0000 -4.0686 0.0000
# 3 30.9967 50.3517 97.7221 0.0000 -0.8279 0.0000
# 4 0.0000 0.0000 0.0000 23.2120 0.0000 -11.7623
# 5 -2.7709 -4.0686 -0.8279 0.0000 19.3882 0.0000
# 6 0.0000 0.0000 0.0000 -11.7623 0.0000 24.5902
#
#
#
# Elastic Compliance Matrix: (Units=1/GPa)
#
#
# Indices 1 2 3 4 5 6 
#
# 1 0.020117 -0.009312 -0.001576 0.000000 0.000854 0.000000
# 2 -0.009312 0.016359 -0.005459 0.000000 0.001869 0.000000
# 3 -0.001576 -0.005459 0.013539 0.000000 -0.000793 0.000000
# 4 0.000000 0.000000 0.000000 0.056864 0.000000 0.027200
# 5 0.000854 0.001869 -0.000793 0.000000 0.052058 0.000000
# 6 0.000000 0.000000 0.000000 0.027200 0.000000 0.053677
#
#
# Mechanical properties :
#
#
# Convention : Reuss Voigt Hill
#
# Bulk Modulus (GPa) = 57.73400 61.93519 59.83460
# Shear Modulus (GPa) = 19.91385 23.35734 21.63559
#
# Velocity S-wave (km/s) = 3.22865 3.49667 3.36533
# Velocity P-wave (km/s) = 6.64233 6.98019 6.81335
#
# Compressibility (1/GPa) = 0.01732081
#
# Stress axis : x y z
#
# Youngs Moduli (GPa) = 49.71009 61.12929 73.85951
#
# Poissons Ratio (x) = 0.56922 0.11638
# Poissons Ratio (y) = 0.46289 0.40324
# Poissons Ratio (z) = 0.07833 0.33374
#
# Static dielectric constant tensor:
#      x y z
#    x 3.796900 0.000000 -0.424000 
#    y 0.000000 3.317400 0.000000 
#    z -0.424000 0.000000 4.173280 
# 
# 
# High freq. dielectric constant tensor:
#      x y z
#    x 1.747780 0.000000 -0.008920 
#    y 0.000000 1.723120 0.000000 
#    z -0.008920 0.000000 1.759330 
# 
# From -- ./inp_files/39520.got.cif
#   From: 2010.06.25/outbox.cif.g09.slc.cpg/sg12_20_cif.got.tgz:39520.got - 2010.06.28 00:19:55.
