data_PCOD8091468
_publ_section_title
;
Structure prediction by ZEFSAII (Michael W. Deem and Ramdas Pophale) SiO2 
 PCOD8091468
Probable space group: C 2/M
;
_chemical_formula_sum "Si O2"
_cell_formula_units_Z 56
_cell_length_a 14.445919
_cell_length_b 8.383121
_cell_length_c 23.819910
_cell_angle_alpha 90.000000
_cell_angle_beta 81.950756
_cell_angle_gamma 90.000000
_cell_volume 2856.216867
_symmetry_space_group_name_H-M "C 2/M"
_symmetry_group_IT_number 12
_symmetry_cell_setting 'monoclinic'
loop_
_space_group_symop_operation_xyz
x,y,z
-x,y,-z
-x,-y,-z
x,-y,z
1/2+x,1/2+y,z
1/2-x,1/2+y,-z
1/2-x,1/2-y,-z
1/2+x,1/2-y,z
loop_
_atom_site_type_symbol
_atom_site_label
_atom_site_fract_x
_atom_site_fract_y
_atom_site_fract_z
Si Si1 0.179114 0.311902 0.847980
Si Si2 0.057124 0.814207 0.759525
Si Si3 0.479129 0.310813 0.064877
Si Si4 0.083800 0.317925 0.636678
Si Si5 0.612643 0.687574 0.150178
Si Si6 0.551748 0.683168 0.439085
Si Si7 0.244710 0.316222 0.437993
O O1 0.180627 0.500000 0.836260
O O2 0.137786 0.222517 0.797549
O O3 0.116729 0.273216 0.907804
O O4 0.283632 0.241689 0.849629
O O5 0.074521 0.710202 0.703339
O O6 0.955595 0.765377 0.792646
O O7 0.061009 0.000000 0.743792
O O8 0.465443 0.500000 0.071671
O O9 0.565342 0.250505 0.096363
O O10 0.500000 0.256832 0.000000
O O11 0.059409 0.500000 0.624806
O O12 0.188872 0.281602 0.608940
O O13 0.014386 0.203432 0.608726
O O14 0.622202 0.500000 0.145037
O O15 0.500000 0.738641 0.500000
O O16 0.583606 0.500000 0.441362
O O17 0.640945 0.795232 0.422932
O O18 0.274756 0.500000 0.435220
O O19 0.250000 0.250000 0.500000
#
# Coordination Sequence:
#
# PCOD8091468 Si02
#       7
#     8   8   8   8   8   8   8
#     4  10  19  34  56  82 112 147 190 239 291 341
#     4  10  21  40  60  80 111 149 191 236 288 348
#     4   9  18  34  54  79 114 155 195 232 280 344
#     4  12  25  41  62  89 120 153 193 242 295 354
#     4   8  17  34  56  79 109 150 187 231 287 338
#     4  11  23  40  63  88 117 153 191 233 287 347
#     4  12  24  40  62  88 117 152 192 236 289 349
#
# _framework density 19.606354
#
# number of rings (size 3 to 8) (size 9 to 14) (size 15 to 20)
#    0.000    1.714    1.429    4.714    0.000    2.571 
#    0.000   11.429    0.000    0.000    0.000    0.000 
#    0.000    0.000    0.000    0.000    0.000    0.000 
#
# Total GULP energy -347291.849247 kJ/mol
# GULP energy per Si atom -12403.280330 kJ/mol
# Density = 1.956173 g / cm^3
# Si number density = 19.606354 Si / 1000 Ang^3
#
#
#
# Elastic Constant Matrix: (Units=GPa)
#
#
# Indices 1 2 3 4 5 6 
#
# 1 157.9794 16.8555 59.1511 0.0000 -2.6398 0.0000
# 2 16.8555 60.3625 19.3764 0.0000 -4.7374 0.0000
# 3 59.1511 19.3764 125.6471 0.0000 -11.0004 0.0000
# 4 0.0000 0.0000 0.0000 27.8785 0.0000 0.4123
# 5 -2.6398 -4.7374 -11.0004 0.0000 20.6798 0.0000
# 6 0.0000 0.0000 0.0000 0.4123 0.0000 29.3239
#
#
#
# Elastic Compliance Matrix: (Units=1/GPa)
#
#
# Indices 1 2 3 4 5 6 
#
# 1 0.007773 -0.001110 -0.003591 0.000000 -0.001172 0.000000
# 2 -0.001110 0.017732 -0.001960 0.000000 0.002878 0.000000
# 3 -0.003591 -0.001960 0.010354 0.000000 0.004600 0.000000
# 4 0.000000 0.000000 0.000000 0.035877 0.000000 -0.000504
# 5 -0.001172 0.002878 0.004600 0.000000 0.051313 0.000000
# 6 0.000000 0.000000 0.000000 -0.000504 0.000000 0.034109
#
#
# Mechanical properties :
#
#
# Convention : Reuss Voigt Hill
#
# Bulk Modulus (GPa) = 44.37036 59.41720 51.89378
# Shear Modulus (GPa) = 28.09105 32.15019 30.12062
#
# Velocity S-wave (km/s) = 3.78928 4.05382 3.92378
# Velocity P-wave (km/s) = 6.46719 7.23064 6.85954
#
# Compressibility (1/GPa) = 0.02253757
#
# Stress axis : x y z
#
# Youngs Moduli (GPa) = 128.64568 56.39680 96.57813
#
# Poissons Ratio (x) = 0.06260 0.34680
# Poissons Ratio (y) = 0.14278 0.18929
# Poissons Ratio (z) = 0.46195 0.11054
#
# Static dielectric constant tensor:
#      x y z
#    x 3.806220 0.000000 -0.009660 
#    y 0.000000 3.502920 0.000000 
#    z -0.009660 0.000000 3.593310 
# 
# 
# High freq. dielectric constant tensor:
#      x y z
#    x 1.771750 0.000000 -0.000780 
#    y 0.000000 1.757940 0.000000 
#    z -0.000780 0.000000 1.761290 
# 
# From -- ./inp_files/309039.got.cif
#   From: 2010.06.25/outbox.cif.g09.slc.cpg/sg12_155_cif.got.tgz:309039.got - 2010.06.28 00:19:55.
