data_PCOD8091456
_publ_section_title
;
Structure prediction by ZEFSAII (Michael W. Deem and Ramdas Pophale) SiO2 
 PCOD8091456
Probable space group: C 2/M
;
_chemical_formula_sum "Si O2"
_cell_formula_units_Z 40
_cell_length_a 19.138019
_cell_length_b 9.375022
_cell_length_c 16.993192
_cell_angle_alpha 90.000000
_cell_angle_beta 44.441996
_cell_angle_gamma 90.000000
_cell_volume 2134.804867
_symmetry_space_group_name_H-M "C 2/M"
_symmetry_group_IT_number 12
_symmetry_cell_setting 'monoclinic'
loop_
_space_group_symop_operation_xyz
x,y,z
-x,y,-z
-x,-y,-z
x,-y,z
1/2+x,1/2+y,z
1/2-x,1/2+y,-z
1/2-x,1/2-y,-z
1/2+x,1/2-y,z
loop_
_atom_site_type_symbol
_atom_site_label
_atom_site_fract_x
_atom_site_fract_y
_atom_site_fract_z
Si Si1 0.187315 0.331530 0.984504
Si Si2 0.220867 0.332976 0.779587
Si Si3 0.349155 0.161756 0.416747
Si Si4 0.463083 0.168414 0.173924
Si Si5 0.895029 0.337024 0.555963
O O1 0.190651 0.500000 0.000079
O O2 0.074331 0.269775 0.074146
O O3 0.250000 0.250000 0.000000
O O4 0.232752 0.297694 0.862107
O O5 0.233797 0.500000 0.752943
O O6 0.111820 0.282534 0.835715
O O7 0.304903 0.253747 0.662571
O O8 0.250000 0.250000 0.500000
O O9 0.421170 0.223738 0.291258
O O10 0.404258 0.173272 0.454999
O O11 0.319845 0.000000 0.419306
O O12 0.473326 0.000000 0.164076
O O13 0.880008 0.500000 0.596114
O O14 0.000000 0.273658 0.500000
#
# Coordination Sequence:
#
# PCOD8091456 Si02
#       5
#     8   8   8   8   8
#     4  10  22  38  58  83 109 141 181 225 274 326
#     4  10  20  37  59  82 106 141 187 227 268 318
#     4  10  19  34  56  82 108 141 181 220 267 320
#     4   9  18  35  59  80 105 142 183 224 264 316
#     4  10  22  36  54  82 114 147 181 219 270 328
#
# _framework density 18.737075999999998
#
# number of rings (size 3 to 8) (size 9 to 14) (size 15 to 20)
#    0.000    2.200    2.000    0.600    2.800    3.600 
#    0.000    2.000    0.000    2.400    0.000    0.000 
#    0.000    0.000    0.000    0.000    0.000    0.000 
#
# Total GULP energy -247967.815650 kJ/mol
# GULP energy per Si atom -12398.390782 kJ/mol
# Density = 1.869443 g / cm^3
# Si number density = 18.737076 Si / 1000 Ang^3
#
#
#
# Elastic Constant Matrix: (Units=GPa)
#
#
# Indices 1 2 3 4 5 6 
#
# 1 135.7851 33.2856 40.8748 0.0000 -0.0203 0.0000
# 2 33.2856 38.9752 26.5437 0.0000 2.1765 0.0000
# 3 40.8748 26.5437 85.0190 0.0000 5.7291 0.0000
# 4 0.0000 0.0000 0.0000 27.4881 0.0000 0.0846
# 5 -0.0203 2.1765 5.7291 0.0000 37.5168 0.0000
# 6 0.0000 0.0000 0.0000 0.0846 0.0000 29.1150
#
#
#
# Elastic Compliance Matrix: (Units=1/GPa)
#
#
# Indices 1 2 3 4 5 6 
#
# 1 0.009789 -0.006557 -0.002713 0.000000 0.000800 0.000000
# 2 -0.006557 0.036982 -0.008335 0.000000 -0.000876 0.000000
# 3 -0.002713 -0.008335 0.015799 0.000000 -0.001931 0.000000
# 4 0.000000 0.000000 0.000000 0.036380 0.000000 -0.000106
# 5 0.000800 -0.000876 -0.001931 0.000000 0.027001 0.000000
# 6 0.000000 0.000000 0.000000 -0.000106 0.000000 0.034347
#
#
# Mechanical properties :
#
#
# Convention : Reuss Voigt Hill
#
# Bulk Modulus (GPa) = 36.54901 51.24307 43.89604
# Shear Modulus (GPa) = 24.43479 29.42900 26.93190
#
# Velocity S-wave (km/s) = 3.61513 3.96742 3.79536
# Velocity P-wave (km/s) = 6.08064 6.95666 6.53335
#
# Compressibility (1/GPa) = 0.02736052
#
# Stress axis : x y z
#
# Youngs Moduli (GPa) = 102.15914 27.03994 63.29630
#
# Poissons Ratio (x) = 0.17729 0.17172
# Poissons Ratio (y) = 0.66983 0.52757
# Poissons Ratio (z) = 0.27715 0.22537
#
# Static dielectric constant tensor:
#      x y z
#    x 3.890640 0.000000 0.311180 
#    y 0.000000 3.197990 0.000000 
#    z 0.311180 0.000000 4.142620 
# 
# 
# High freq. dielectric constant tensor:
#      x y z
#    x 1.742260 0.000000 0.006470 
#    y 0.000000 1.694300 0.000000 
#    z 0.006470 0.000000 1.737660 
# 
# From -- ./inp_files/140826.got.cif
#   From: 2010.06.25/outbox.cif.g09.slc.cpg/sg12_71_cif.got.tgz:140826.got - 2010.06.28 00:19:55.
