data_PCOD8091565
_publ_section_title
;
Structure prediction by ZEFSAII (Michael W. Deem and Ramdas Pophale) SiO2 
 PCOD8091565
Probable space group: C 2/M
;
_chemical_formula_sum "Si O2"
_cell_formula_units_Z 52
_cell_length_a 14.385759
_cell_length_b 17.302397
_cell_length_c 10.771698
_cell_angle_alpha 90.000000
_cell_angle_beta 91.516734
_cell_angle_gamma 90.000000
_cell_volume 2680.223647
_symmetry_space_group_name_H-M "C 2/M"
_symmetry_group_IT_number 12
_symmetry_cell_setting 'monoclinic'
loop_
_space_group_symop_operation_xyz
x,y,z
-x,y,-z
-x,-y,-z
x,-y,z
1/2+x,1/2+y,z
1/2-x,1/2+y,-z
1/2-x,1/2-y,-z
1/2+x,1/2-y,z
loop_
_atom_site_type_symbol
_atom_site_label
_atom_site_fract_x
_atom_site_fract_y
_atom_site_fract_z
Si Si1 0.000000 0.305539 0.000000
Si Si2 0.539217 0.413450 0.368361
Si Si3 0.585601 0.088089 0.191853
Si Si4 0.256753 0.187566 0.682326
Si Si5 0.067179 0.788832 0.771624
Si Si6 0.557611 0.862917 0.626732
Si Si7 0.231756 0.147010 0.403693
O O1 0.950742 0.250342 0.096989
O O2 0.076090 0.361925 0.065965
O O3 0.500000 0.384799 0.500000
O O4 0.504120 0.500000 0.340815
O O5 0.502025 0.359457 0.256356
O O6 0.651600 0.413779 0.367347
O O7 0.661793 0.129320 0.279564
O O8 0.488322 0.087739 0.263868
O O9 0.614012 0.000000 0.161201
O O10 0.172617 0.179439 0.777118
O O11 0.218385 0.165505 0.547016
O O12 0.290409 0.276478 0.679046
O O13 0.053996 0.727690 0.659235
O O14 0.500000 0.878738 0.500000
O O15 0.665532 0.888160 0.617489
#
# Coordination Sequence:
#
# PCOD8091565 Si02
#       7
#     4   8   8   8   8   8   8
#     4  10  23  42  63  78 104 158 206 250 279 320
#     4  11  22  35  56  87 124 150 175 228 297 353
#     4  11  23  38  57  86 121 152 189 238 296 347
#     4  10  20  34  60  87 112 152 191 238 279 340
#     4  10  21  38  62  83 111 150 204 241 275 333
#     4  10  19  34  58  85 115 152 189 234 282 339
#     4  10  19  34  56  88 121 151 189 226 278 351
#
# _framework density 19.401365999999999
#
# number of rings (size 3 to 8) (size 9 to 14) (size 15 to 20)
#    0.000    1.692    3.077    2.538    2.154    2.769 
#    0.000    1.923    0.000    5.538    0.000    0.000 
#    0.000    0.000    0.000    0.000    0.000    0.000 
#
# Total GULP energy -322388.875706 kJ/mol
# GULP energy per Si atom -12399.572143 kJ/mol
# Density = 1.935721 g / cm^3
# Si number density = 19.401366 Si / 1000 Ang^3
#
#
#
# Elastic Constant Matrix: (Units=GPa)
#
#
# Indices 1 2 3 4 5 6 
#
# 1 126.2920 46.0530 42.5021 0.0000 -11.3107 0.0000
# 2 46.0530 89.9880 39.7306 0.0000 4.2434 0.0000
# 3 42.5021 39.7306 88.2757 0.0000 -6.0007 0.0000
# 4 0.0000 0.0000 0.0000 20.0592 0.0000 0.1583
# 5 -11.3107 4.2434 -6.0007 0.0000 17.9228 0.0000
# 6 0.0000 0.0000 0.0000 0.1583 0.0000 21.6038
#
#
#
# Elastic Compliance Matrix: (Units=1/GPa)
#
#
# Indices 1 2 3 4 5 6 
#
# 1 0.011290 -0.004926 -0.002717 0.000000 0.007382 0.000000
# 2 -0.004926 0.016569 -0.005693 0.000000 -0.008938 0.000000
# 3 -0.002717 -0.005693 0.015527 0.000000 0.004832 0.000000
# 4 0.000000 0.000000 0.000000 0.049855 0.000000 -0.000365
# 5 0.007382 -0.008938 0.004832 0.000000 0.064187 0.000000
# 6 0.000000 0.000000 0.000000 -0.000365 0.000000 0.046291
#
#
# Mechanical properties :
#
#
# Convention : Reuss Voigt Hill
#
# Bulk Modulus (GPa) = 59.83167 62.34745 61.08956
# Shear Modulus (GPa) = 21.18986 23.66849 22.42917
#
# Velocity S-wave (km/s) = 3.30841 3.49655 3.40378
# Velocity P-wave (km/s) = 6.74536 6.96466 6.85589
#
# Compressibility (1/GPa) = 0.01671356
#
# Stress axis : x y z
#
# Youngs Moduli (GPa) = 88.57375 60.35484 64.40485
#
# Poissons Ratio (x) = 0.29734 0.17497
# Poissons Ratio (y) = 0.43636 0.36664
# Poissons Ratio (z) = 0.24063 0.34358
#
# Static dielectric constant tensor:
#      x y z
#    x 3.606530 0.000000 -0.106060 
#    y 0.000000 3.402200 0.000000 
#    z -0.106060 0.000000 3.325620 
# 
# 
# High freq. dielectric constant tensor:
#      x y z
#    x 1.761780 0.000000 -0.004500 
#    y 0.000000 1.745560 0.000000 
#    z -0.004500 0.000000 1.728920 
# 
# From -- ./inp_files/144895.got.cif
#   From: 2010.06.25/outbox.cif.g09.slc.cpg/sg12_73_cif.got.tgz:144895.got - 2010.06.28 00:19:55.
