data_PCOD8091061
_publ_section_title
;
Structure prediction by ZEFSAII (Michael W. Deem and Ramdas Pophale) SiO2 
 PCOD8091061
Probable space group: C 2/M
;
_chemical_formula_sum "Si O2"
_cell_formula_units_Z 40
_cell_length_a 20.197159
_cell_length_b 11.782430
_cell_length_c 18.025436
_cell_angle_alpha 90.000000
_cell_angle_beta 152.345051
_cell_angle_gamma 90.000000
_cell_volume 1990.972622
_symmetry_space_group_name_H-M "C 2/M"
_symmetry_group_IT_number 12
_symmetry_cell_setting 'monoclinic'
loop_
_space_group_symop_operation_xyz
x,y,z
-x,y,-z
-x,-y,-z
x,-y,z
1/2+x,1/2+y,z
1/2-x,1/2+y,-z
1/2-x,1/2-y,-z
1/2+x,1/2-y,z
loop_
_atom_site_type_symbol
_atom_site_label
_atom_site_fract_x
_atom_site_fract_y
_atom_site_fract_z
Si Si1 0.289878 0.000000 0.237873
Si Si2 0.616717 0.779549 0.416808
Si Si3 0.099005 0.500000 0.487376
Si Si4 0.023493 0.628827 0.855653
Si Si5 0.650233 0.264399 0.108442
Si Si6 0.220059 0.127763 0.635522
O O1 0.199811 0.887759 0.130673
O O2 0.428284 0.000000 0.323447
O O3 0.327701 0.000000 0.361035
O O4 0.750000 0.750000 0.500000
O O5 0.482792 0.801308 0.228749
O O6 0.596989 0.680319 0.459175
O O7 0.656197 0.892685 0.500004
O O8 0.072447 0.500000 0.887842
O O9 0.869843 0.627569 0.741871
O O10 0.137546 0.687601 0.022427
O O11 0.766571 0.204058 0.277115
O O12 0.500000 0.276824 0.000000
O O13 0.175198 0.000000 0.612884
#
# Coordination Sequence:
#
# PCOD8091061 Si02
#       6
#     4   8   4   8   8   8
#     4  11  23  38  58  84 119 158 193 233 294 351
#     4  10  19  34  58  84 110 146 192 243 283 343
#     4  11  22  40  62  82 115 156 195 233 293 359
#     4   9  17  30  52  81 111 146 183 236 295 335
#     4  10  19  34  54  85 114 149 195 241 279 340
#     4   9  17  30  51  82 114 141 185 241 286 331
#
# _framework density 20.090684
#
# number of rings (size 3 to 8) (size 9 to 14) (size 15 to 20)
#    0.000    2.200    3.000    0.900    1.400    2.400 
#    1.800    1.000    0.000    3.600    0.000    0.000 
#    0.000    0.000    0.000    0.000    0.000    0.000 
#
# Total GULP energy -247907.799479 kJ/mol
# GULP energy per Si atom -12395.389974 kJ/mol
# Density = 2.004496 g / cm^3
# Si number density = 20.090684 Si / 1000 Ang^3
#
#
#
# Elastic Constant Matrix: (Units=GPa)
#
#
# Indices 1 2 3 4 5 6 
#
# 1 49.4169 39.4194 36.2069 0.0000 -17.8361 0.0000
# 2 39.4194 171.6171 63.7059 0.0000 -23.1948 0.0000
# 3 36.2069 63.7059 99.3826 0.0001 -40.3764 0.0000
# 4 0.0000 0.0000 0.0001 39.3147 0.0000 -19.1260
# 5 -17.8361 -23.1948 -40.3764 0.0000 32.1387 0.0000
# 6 0.0000 0.0000 0.0000 -19.1260 0.0000 16.6419
#
#
#
# Elastic Compliance Matrix: (Units=1/GPa)
#
#
# Indices 1 2 3 4 5 6 
#
# 1 0.029892 -0.003841 -0.005749 0.000000 0.006595 0.000000
# 2 -0.003841 0.008167 -0.004712 0.000000 -0.002158 0.000000
# 3 -0.005749 -0.004712 0.025530 0.000000 0.025482 0.000000
# 4 0.000000 0.000000 0.000000 0.057690 0.000000 0.066301
# 5 0.006595 -0.002158 0.025482 0.000000 0.065232 -0.000001
# 6 0.000000 0.000000 0.000000 0.066301 -0.000001 0.136287
#
#
# Mechanical properties :
#
#
# Convention : Reuss Voigt Hill
#
# Bulk Modulus (GPa) = 28.58380 66.56457 47.57418
# Shear Modulus (GPa) = 13.77167 29.69135 21.73151
#
# Velocity S-wave (km/s) = 2.62100 3.84847 3.29244
# Velocity P-wave (km/s) = 4.83919 7.27679 6.17938
#
# Compressibility (1/GPa) = 0.03498485
#
# Stress axis : x y z
#
# Youngs Moduli (GPa) = 33.45360 122.44747 39.16937
#
# Poissons Ratio (x) = 0.47027 0.22519
# Poissons Ratio (y) = 0.12848 0.18458
# Poissons Ratio (z) = 0.19233 0.57703
#
# Static dielectric constant tensor:
#      x y z
#    x 3.474140 0.000000 -0.501770 
#    y 0.000000 3.667720 0.000000 
#    z -0.501770 0.000000 3.755100 
# 
# 
# High freq. dielectric constant tensor:
#      x y z
#    x 1.756940 0.000000 -0.041260 
#    y 0.000000 1.798330 0.000000 
#    z -0.041260 0.000000 1.764220 
# 
# From -- ./inp_files/283421.got.cif
#   From: 2010.06.25/outbox.cif.g09.slc.cpg/sg12_142_cif.got.tgz:283421.got - 2010.06.28 00:19:55.
