data_PCOD8091234
_publ_section_title
;
Structure prediction by ZEFSAII (Michael W. Deem and Ramdas Pophale) SiO2 
 PCOD8091234
Probable space group: C 2/M
;
_chemical_formula_sum "Si O2"
_cell_formula_units_Z 40
_cell_length_a 17.865321
_cell_length_b 27.936397
_cell_length_c 8.138615
_cell_angle_alpha 90.000000
_cell_angle_beta 149.678356
_cell_angle_gamma 90.000000
_cell_volume 2050.677200
_symmetry_space_group_name_H-M "C 2/M"
_symmetry_group_IT_number 12
_symmetry_cell_setting 'monoclinic'
loop_
_space_group_symop_operation_xyz
x,y,z
-x,y,-z
-x,-y,-z
x,-y,z
1/2+x,1/2+y,z
1/2-x,1/2+y,-z
1/2-x,1/2-y,-z
1/2+x,1/2-y,z
loop_
_atom_site_type_symbol
_atom_site_label
_atom_site_fract_x
_atom_site_fract_y
_atom_site_fract_z
Si Si1 0.163851 0.052585 0.879097
Si Si2 0.767099 0.200776 0.840973
Si Si3 0.047322 0.292600 0.900846
Si Si4 0.057474 0.118920 0.935623
Si Si5 0.774833 0.857202 0.186389
O O1 0.260561 0.089699 0.953099
O O2 0.000000 0.047381 0.500000
O O3 0.145831 0.074037 0.027397
O O4 0.240721 0.000000 0.029426
O O5 0.593311 0.207447 0.483905
O O6 0.846821 0.250614 0.960465
O O7 0.795446 0.181151 0.078422
O O8 0.828583 0.162771 0.824232
O O9 0.140185 0.341728 0.050427
O O10 0.000000 0.286529 0.000000
O O11 0.927939 0.139823 0.574930
O O12 0.000000 0.100579 0.000000
#
# Coordination Sequence:
#
# PCOD8091234 Si02
#       5
#     8   8   8   8   8
#     4   8  16  32  55  81 107 138 176 217 263 318
#     4  11  22  36  53  77 109 145 181 214 261 317
#     4  12  23  36  55  80 110 141 179 222 264 310
#     4  10  19  34  55  81 111 139 176 224 268 309
#     4  10  21  36  55  78 107 143 179 218 264 319
#
# _framework density 19.505751
#
# number of rings (size 3 to 8) (size 9 to 14) (size 15 to 20)
#    0.000    1.800    0.000    6.600    0.000    2.000 
#    0.000    0.000    0.000   10.200    0.000    0.000 
#    0.000    0.000    0.000    0.000    0.000    0.000 
#
# Total GULP energy -247929.822889 kJ/mol
# GULP energy per Si atom -12396.491144 kJ/mol
# Density = 1.946135 g / cm^3
# Si number density = 19.505751 Si / 1000 Ang^3
#
#
#
# Elastic Constant Matrix: (Units=GPa)
#
#
# Indices 1 2 3 4 5 6 
#
# 1 84.5484 56.3589 24.6471 0.0000 -4.8062 0.0000
# 2 56.3589 151.7789 40.2135 0.0000 12.6768 0.0000
# 3 24.6471 40.2135 70.7183 0.0000 7.2204 0.0000
# 4 0.0000 0.0000 0.0000 25.9452 0.0000 20.5090
# 5 -4.8062 12.6768 7.2204 0.0000 29.4447 0.0000
# 6 0.0000 0.0000 0.0000 20.5090 0.0000 46.7724
#
#
#
# Elastic Compliance Matrix: (Units=1/GPa)
#
#
# Indices 1 2 3 4 5 6 
#
# 1 0.017124 -0.006035 -0.003166 0.000000 0.006170 0.000000
# 2 -0.006035 0.010041 -0.003143 0.000000 -0.004537 0.000000
# 3 -0.003166 -0.003143 0.017381 0.000000 -0.003426 0.000000
# 4 0.000000 0.000000 0.000000 0.058989 0.000000 -0.025866
# 5 0.006170 -0.004537 -0.003426 0.000000 0.037763 0.000000
# 6 0.000000 0.000000 0.000000 -0.025866 0.000000 0.032722
#
#
# Mechanical properties :
#
#
# Convention : Reuss Voigt Hill
#
# Bulk Modulus (GPa) = 50.35893 61.05387 55.70640
# Shear Modulus (GPa) = 24.35123 32.82086 28.58604
#
# Velocity S-wave (km/s) = 3.53712 4.10643 3.83236
# Velocity P-wave (km/s) = 6.52343 7.33840 6.94288
#
# Compressibility (1/GPa) = 0.01985745
#
# Stress axis : x y z
#
# Youngs Moduli (GPa) = 58.39702 99.58952 57.53289
#
# Poissons Ratio (x) = 0.60102 0.18217
# Poissons Ratio (y) = 0.35242 0.18084
# Poissons Ratio (z) = 0.18491 0.31304
#
# Static dielectric constant tensor:
#      x y z
#    x 3.658540 0.000000 0.073400 
#    y 0.000000 3.944520 0.000000 
#    z 0.073400 0.000000 3.419330 
# 
# 
# High freq. dielectric constant tensor:
#      x y z
#    x 1.763700 0.000000 -0.001340 
#    y 0.000000 1.756930 0.000000 
#    z -0.001340 0.000000 1.739550 
# 
# From -- ./inp_files/40343.got.cif
#   From: 2010.06.25/outbox.cif.g09.slc.cpg/sg12_21_cif.got.tgz:40343.got - 2010.06.28 00:19:55.
