data_PCOD8091852
_publ_section_title
;
Structure prediction by ZEFSAII (Michael W. Deem and Ramdas Pophale) SiO2 
 PCOD8091852
Probable space group: C 2/M
;
_chemical_formula_sum "Si O2"
_cell_formula_units_Z 64
_cell_length_a 20.592637
_cell_length_b 9.352314
_cell_length_c 24.246201
_cell_angle_alpha 90.000000
_cell_angle_beta 132.450542
_cell_angle_gamma 90.000000
_cell_volume 3445.472996
_symmetry_space_group_name_H-M "C 2/M"
_symmetry_group_IT_number 12
_symmetry_cell_setting 'monoclinic'
loop_
_space_group_symop_operation_xyz
x,y,z
-x,y,-z
-x,-y,-z
x,-y,z
1/2+x,1/2+y,z
1/2-x,1/2+y,-z
1/2-x,1/2-y,-z
1/2+x,1/2-y,z
loop_
_atom_site_type_symbol
_atom_site_label
_atom_site_fract_x
_atom_site_fract_y
_atom_site_fract_z
Si Si1 0.765222 0.333310 0.866138
Si Si2 0.819095 0.669428 0.697635
Si Si3 0.006062 0.337809 0.144148
Si Si4 0.616528 0.157943 0.822494
Si Si5 0.325636 0.830114 0.575570
Si Si6 0.925819 0.843352 0.000829
Si Si7 0.326223 0.333404 0.301168
Si Si8 0.481095 0.835888 0.344340
O O1 0.779439 0.500000 0.884166
O O2 0.692888 0.275870 0.867703
O O3 0.734026 0.297654 0.786304
O O4 0.854820 0.253641 0.929685
O O5 0.827637 0.500000 0.701572
O O6 0.902382 0.727225 0.780283
O O7 0.822763 0.726826 0.637130
O O8 0.728305 0.716540 0.675922
O O9 0.019865 0.500000 0.129652
O O10 0.933843 0.336963 0.149801
O O11 0.968493 0.236616 0.076322
O O12 0.548522 0.192438 0.734975
O O13 0.657800 0.000000 0.836780
O O14 0.250000 0.750000 0.500000
O O15 0.416760 0.788805 0.596946
O O16 0.310687 0.000000 0.565526
O O17 0.887974 0.000000 0.997302
O O18 0.000000 0.872971 0.000000
O O19 0.348263 0.500000 0.316399
O O20 0.420310 0.253274 0.352042
O O21 0.471242 0.000000 0.356261
#
# Coordination Sequence:
#
# PCOD8091852 Si02
#       8
#     8   8   8   8   8   8   8   8
#     4  10  20  34  53  78 106 138 178 222 268 317
#     4   9  17  34  58  82 107 137 180 224 265 317
#     4  10  19  34  58  80 100 135 182 225 266 315
#     4   9  17  32  55  80 103 135 175 218 268 318
#     4  10  20  36  58  83 110 142 176 215 263 317
#     4  11  24  38  50  70 104 142 177 220 275 325
#     4   9  18  32  55  83 107 137 180 228 267 306
#     4   9  17  33  55  79 109 143 177 211 262 326
#
# _framework density 18.575099999999999
#
# number of rings (size 3 to 8) (size 9 to 14) (size 15 to 20)
#    0.000    2.375    1.250    1.500    0.000    4.000 
#    0.000    2.500    0.000    3.750    0.000    0.000 
#    0.000    0.000    0.000    0.000    0.000    0.000 
#
# Total GULP energy -396698.826487 kJ/mol
# GULP energy per Si atom -12396.838328 kJ/mol
# Density = 1.853282 g / cm^3
# Si number density = 18.575100 Si / 1000 Ang^3
#
#
#
# Elastic Constant Matrix: (Units=GPa)
#
#
# Indices 1 2 3 4 5 6 
#
# 1 117.6014 47.4862 47.3135 0.0000 17.0532 0.0000
# 2 47.4862 81.9418 42.0334 0.0000 15.5920 0.0000
# 3 47.3135 42.0334 67.2125 0.0000 25.5752 0.0000
# 4 0.0000 0.0000 0.0000 31.0881 0.0000 4.5138
# 5 17.0532 15.5920 25.5752 0.0000 25.3372 0.0000
# 6 0.0000 0.0000 0.0000 4.5138 0.0000 27.3602
#
#
#
# Elastic Compliance Matrix: (Units=1/GPa)
#
#
# Indices 1 2 3 4 5 6 
#
# 1 0.012739 -0.004092 -0.006664 0.000000 0.000670 0.000000
# 2 -0.004092 0.019285 -0.009275 0.000000 0.000248 0.000000
# 3 -0.006664 -0.009275 0.034893 0.000000 -0.025028 0.000000
# 4 0.000000 0.000000 0.000000 0.032956 0.000000 -0.005437
# 5 0.000670 0.000248 -0.025028 0.000000 0.064127 0.000000
# 6 0.000000 0.000000 0.000000 -0.005437 0.000000 0.037446
#
#
# Mechanical properties :
#
#
# Convention : Reuss Voigt Hill
#
# Bulk Modulus (GPa) = 37.23433 60.04688 48.64061
# Shear Modulus (GPa) = 19.96327 25.41860 22.69093
#
# Velocity S-wave (km/s) = 3.28187 3.70323 3.49890
# Velocity P-wave (km/s) = 5.86939 7.11913 6.52425
#
# Compressibility (1/GPa) = 0.02685693
#
# Stress axis : x y z
#
# Youngs Moduli (GPa) = 78.49709 51.85247 28.65927
#
# Poissons Ratio (x) = 0.21217 0.19098
# Poissons Ratio (y) = 0.32119 0.26581
# Poissons Ratio (z) = 0.52309 0.48092
#
# Static dielectric constant tensor:
#      x y z
#    x 3.618270 0.000000 0.061500 
#    y 0.000000 3.437190 0.000000 
#    z 0.061500 0.000000 3.241900 
# 
# 
# High freq. dielectric constant tensor:
#      x y z
#    x 1.730860 0.000000 0.007500 
#    y 0.000000 1.707690 0.000000 
#    z 0.007500 0.000000 1.704690 
# 
# From -- ./inp_files/346228.got.cif
#   From: 2010.06.25/outbox.cif.g09.slc.cpg/sg12_174_cif.got.tgz:346228.got - 2010.06.28 00:19:55.
