data_PCOD8091312
_publ_section_title
;
Structure prediction by ZEFSAII (Michael W. Deem and Ramdas Pophale) SiO2 
 PCOD8091312
Probable space group: C 2/M
;
_chemical_formula_sum "Si O2"
_cell_formula_units_Z 64
_cell_length_a 14.587424
_cell_length_b 9.383681
_cell_length_c 29.259829
_cell_angle_alpha 90.000000
_cell_angle_beta 119.681716
_cell_angle_gamma 90.000000
_cell_volume 3479.671359
_symmetry_space_group_name_H-M "C 2/M"
_symmetry_group_IT_number 12
_symmetry_cell_setting 'monoclinic'
loop_
_space_group_symop_operation_xyz
x,y,z
-x,y,-z
-x,-y,-z
x,-y,z
1/2+x,1/2+y,z
1/2-x,1/2+y,-z
1/2-x,1/2-y,-z
1/2+x,1/2-y,z
loop_
_atom_site_type_symbol
_atom_site_label
_atom_site_fract_x
_atom_site_fract_y
_atom_site_fract_z
Si Si1 0.457419 0.331758 0.622849
Si Si2 0.098433 0.834589 0.992498
Si Si3 0.053784 0.162092 0.819330
Si Si4 0.229167 0.831225 0.360388
Si Si5 0.868614 0.162813 0.261546
Si Si6 0.684301 0.665784 0.248552
Si Si7 0.335126 0.833880 0.077850
Si Si8 0.035991 0.332709 0.559386
O O1 0.452542 0.500000 0.612867
O O2 0.353460 0.274084 0.622768
O O3 0.558214 0.289633 0.678295
O O4 0.461210 0.250762 0.575811
O O5 0.100181 0.743101 0.946646
O O6 0.085113 0.000000 0.975788
O O7 0.209362 0.807552 0.045363
O O8 0.000000 0.785668 0.000000
O O9 0.067460 0.187089 0.769011
O O10 0.126974 0.270332 0.864915
O O11 0.931837 0.194034 0.799777
O O12 0.083483 0.000000 0.840211
O O13 0.199636 0.769628 0.303227
O O14 0.344458 0.780137 0.404027
O O15 0.219656 0.000000 0.356128
O O16 0.763764 0.257008 0.233812
O O17 0.834048 0.000000 0.258426
O O18 0.711755 0.500000 0.255577
O O19 0.362256 0.000000 0.081842
O O20 0.024332 0.500000 0.565860
O O21 0.000000 0.291218 0.500000
#
# Coordination Sequence:
#
# PCOD8091312 Si02
#       8
#     8   8   8   8   8   8   8   8
#     4  10  19  34  56  77 101 137 178 217 263 322
#     4   9  19  38  62  83 109 149 190 222 264 324
#     4  10  21  37  55  77 111 149 183 217 266 329
#     4   9  17  33  55  75 101 138 175 211 262 326
#     4  10  20  34  53  79 106 136 178 225 268 312
#     4  10  19  34  56  77 100 142 186 214 258 325
#     4  10  21  36  56  85 116 144 181 230 274 310
#     4  10  21  36  54  78 107 137 173 222 274 321
#
# _framework density 18.392541000000001
#
# number of rings (size 3 to 8) (size 9 to 14) (size 15 to 20)
#    0.000    2.250    2.500    0.375    0.000    3.500 
#    0.000    5.000    0.000    0.000    0.000    0.000 
#    0.000    0.000    0.000    0.000    0.000    0.000 
#
# Total GULP energy -396862.448750 kJ/mol
# GULP energy per Si atom -12401.951523 kJ/mol
# Density = 1.835068 g / cm^3
# Si number density = 18.392541 Si / 1000 Ang^3
#
#
#
# Elastic Constant Matrix: (Units=GPa)
#
#
# Indices 1 2 3 4 5 6 
#
# 1 100.8403 31.5002 9.7064 0.0000 3.7433 0.0000
# 2 31.5002 50.0599 31.3006 0.0000 0.4866 0.0000
# 3 9.7064 31.3006 76.5831 0.0000 2.2873 0.0000
# 4 0.0000 0.0000 0.0000 28.4260 0.0000 -4.7366
# 5 3.7433 0.4866 2.2873 0.0000 19.7565 0.0000
# 6 0.0000 0.0000 0.0000 -4.7366 0.0000 28.6907
#
#
#
# Elastic Compliance Matrix: (Units=1/GPa)
#
#
# Indices 1 2 3 4 5 6 
#
# 1 0.012732 -0.009436 0.002316 0.000000 -0.002448 0.000000
# 2 -0.009436 0.033834 -0.012705 0.000000 0.002425 0.000000
# 3 0.002316 -0.012705 0.018023 0.000000 -0.002212 0.000000
# 4 0.000000 0.000000 0.000000 0.036174 0.000000 0.005972
# 5 -0.002448 0.002425 -0.002212 0.000000 0.051276 0.000000
# 6 0.000000 0.000000 0.000000 0.005972 0.000000 0.035840
#
#
# Mechanical properties :
#
#
# Convention : Reuss Voigt Hill
#
# Bulk Modulus (GPa) = 40.09739 41.38864 40.74302
# Shear Modulus (GPa) = 21.20049 25.70637 23.45343
#
# Velocity S-wave (km/s) = 3.39878 3.74257 3.57481
# Velocity P-wave (km/s) = 6.10332 6.42087 6.26411
#
# Compressibility (1/GPa) = 0.02493928
#
# Stress axis : x y z
#
# Youngs Moduli (GPa) = 78.54070 29.55593 55.48484
#
# Poissons Ratio (x) = 0.27889 -0.12851
# Poissons Ratio (y) = 0.74112 0.70493
# Poissons Ratio (z) = -0.18191 0.37551
#
# Static dielectric constant tensor:
#      x y z
#    x 3.470360 0.000000 0.055300 
#    y 0.000000 3.190310 0.000000 
#    z 0.055300 0.000000 3.306750 
# 
# 
# High freq. dielectric constant tensor:
#      x y z
#    x 1.721320 0.000000 0.000880 
#    y 0.000000 1.694970 0.000000 
#    z 0.000880 0.000000 1.709860 
# 
# From -- ./inp_files/338794.got.cif
#   From: 2010.06.25/outbox.cif.g09.slc.cpg/sg12_170_cif.got.tgz:338794.got - 2010.06.28 00:19:55.
