data_PCOD8091451
_publ_section_title
;
Structure prediction by ZEFSAII (Michael W. Deem and Ramdas Pophale) SiO2 
 PCOD8091451
Probable space group: C 2/M
;
_chemical_formula_sum "Si O2"
_cell_formula_units_Z 48
_cell_length_a 15.639659
_cell_length_b 15.202229
_cell_length_c 31.275741
_cell_angle_alpha 90.000000
_cell_angle_beta 161.206015
_cell_angle_gamma 90.000000
_cell_volume 2395.644019
_symmetry_space_group_name_H-M "C 2/M"
_symmetry_group_IT_number 12
_symmetry_cell_setting 'monoclinic'
loop_
_space_group_symop_operation_xyz
x,y,z
-x,y,-z
-x,-y,-z
x,-y,z
1/2+x,1/2+y,z
1/2-x,1/2+y,-z
1/2-x,1/2-y,-z
1/2+x,1/2-y,z
loop_
_atom_site_type_symbol
_atom_site_label
_atom_site_fract_x
_atom_site_fract_y
_atom_site_fract_z
Si Si1 0.156449 0.759654 0.616266
Si Si2 0.116649 0.899720 0.454094
Si Si3 0.266239 0.658850 0.032463
Si Si4 0.315223 0.099291 0.306471
Si Si5 0.715098 0.274791 0.865710
Si Si6 0.711280 0.599122 0.782948
O O1 0.168538 0.669437 0.648061
O O2 0.460184 0.789254 0.748524
O O3 0.000000 0.736187 0.500000
O O4 0.018433 0.839183 0.574851
O O5 0.433670 0.884858 0.605832
O O6 0.010721 0.874205 0.356869
O O7 0.041067 0.000000 0.429265
O O8 0.542696 0.611314 0.149960
O O9 0.275292 0.664396 0.087984
O O10 0.250000 0.750000 0.000000
O O11 0.999038 0.604897 0.895494
O O12 0.328501 0.000000 0.331519
O O13 0.681382 0.335509 0.808241
O O14 0.000000 0.223036 0.000000
O O15 0.665994 0.500000 0.777835
#
# Coordination Sequence:
#
# PCOD8091451 Si02
#       6
#     8   8   8   8   8   8
#     4  11  22  36  58  83 113 152 191 238 291 344
#     4  10  22  39  58  82 115 155 198 240 283 339
#     4  10  20  34  54  80 115 151 183 224 275 343
#     4  10  21  37  58  86 117 149 188 236 289 343
#     4   9  20  33  50  80 110 141 180 228 283 337
#     4  10  19  34  56  81 112 149 188 234 289 344
#
# _framework density 20.036365
#
# number of rings (size 3 to 8) (size 9 to 14) (size 15 to 20)
#    0.000    2.000    0.000    4.000    0.000    9.000 
#    0.000    0.000    0.000    0.500    0.000    0.000 
#    0.000    0.000    0.000    0.000    0.000    0.000 
#
# Total GULP energy -297422.148988 kJ/mol
# GULP energy per Si atom -12392.589541 kJ/mol
# Density = 1.999076 g / cm^3
# Si number density = 20.036365 Si / 1000 Ang^3
#
#
#
# Elastic Constant Matrix: (Units=GPa)
#
#
# Indices 1 2 3 4 5 6 
#
# 1 69.4374 48.3385 37.6161 -0.0465 21.0598 -0.0097
# 2 48.3385 85.6023 36.1574 -0.0017 8.3960 0.0095
# 3 37.6161 36.1574 127.8268 -0.0262 44.4069 0.0610
# 4 -0.0465 -0.0017 -0.0262 28.4993 0.0085 9.0558
# 5 21.0598 8.3960 44.4069 0.0085 32.9173 -0.0111
# 6 -0.0097 0.0095 0.0610 9.0558 -0.0111 12.1527
#
#
#
# Elastic Compliance Matrix: (Units=1/GPa)
#
#
# Indices 1 2 3 4 5 6 
#
# 1 0.029733 -0.015830 0.001757 0.000066 -0.017356 -0.000038
# 2 -0.015830 0.021872 -0.005851 -0.000049 0.012442 0.000047
# 3 0.001757 -0.005851 0.016624 0.000073 -0.022059 -0.000152
# 4 0.000066 -0.000049 0.000073 0.045975 -0.000152 -0.034259
# 5 -0.017356 0.012442 -0.022059 -0.000152 0.068068 0.000262
# 6 -0.000038 0.000047 -0.000152 -0.034259 0.000262 0.107816
#
#
# Mechanical properties :
#
#
# Convention : Reuss Voigt Hill
#
# Bulk Modulus (GPa) = 35.23250 58.56561 46.89906
# Shear Modulus (GPa) = 14.73205 25.43085 20.08145
#
# Velocity S-wave (km/s) = 2.71452 3.56650 3.16927
# Velocity P-wave (km/s) = 5.23901 6.80095 6.07043
#
# Compressibility (1/GPa) = 0.02838288
#
# Stress axis : x y z
#
# Youngs Moduli (GPa) = 33.63216 45.72068 60.15338
#
# Poissons Ratio (x) = 0.72376 -0.10572
# Poissons Ratio (y) = 0.53240 0.35194
# Poissons Ratio (z) = -0.05911 0.26750
#
# Static dielectric constant tensor:
#      x y z
#    x 3.566050 -0.000030 0.412560 
#    y -0.000030 3.439160 -0.000670 
#    z 0.412560 -0.000670 4.577200 
# 
# 
# High freq. dielectric constant tensor:
#      x y z
#    x 1.763640 0.000000 0.017560 
#    y 0.000000 1.751990 -0.000010 
#    z 0.017560 -0.000010 1.816780 
# 
# From -- ./inp_files/142733.got.cif
#   From: 2010.06.25/outbox.cif.g09.slc.cpg/sg12_72_cif.got.tgz:142733.got - 2010.06.28 00:19:55.
