data_PCOD8091971
_publ_section_title
;
Structure prediction by ZEFSAII (Michael W. Deem and Ramdas Pophale) SiO2 
 PCOD8091971
Probable space group: C 2/M
;
_chemical_formula_sum "Si O2"
_cell_formula_units_Z 64
_cell_length_a 13.671367
_cell_length_b 13.593994
_cell_length_c 28.909257
_cell_angle_alpha 90.000000
_cell_angle_beta 139.817341
_cell_angle_gamma 90.000000
_cell_volume 3466.635137
_symmetry_space_group_name_H-M "C 2/M"
_symmetry_group_IT_number 12
_symmetry_cell_setting 'monoclinic'
loop_
_space_group_symop_operation_xyz
x,y,z
-x,y,-z
-x,-y,-z
x,-y,z
1/2+x,1/2+y,z
1/2-x,1/2+y,-z
1/2-x,1/2-y,-z
1/2+x,1/2-y,z
loop_
_atom_site_type_symbol
_atom_site_label
_atom_site_fract_x
_atom_site_fract_y
_atom_site_fract_z
Si Si1 0.849376 0.615499 0.666336
Si Si2 0.151558 0.748979 0.418071
Si Si3 0.338797 0.114606 0.425490
Si Si4 0.185009 0.266312 0.670379
Si Si5 0.206919 0.889784 0.955485
Si Si6 0.130195 0.889226 0.193336
Si Si7 0.174551 0.388124 0.823504
Si Si8 0.161893 0.202285 0.036221
O O1 0.815172 0.500000 0.656059
O O2 0.820696 0.651222 0.603118
O O3 0.739312 0.669577 0.662739
O O4 0.020313 0.642946 0.742152
O O5 0.250000 0.750000 0.500000
O O6 0.200650 0.841196 0.404782
O O7 0.975628 0.760462 0.365695
O O8 0.500000 0.158624 0.500000
O O9 0.325201 0.140181 0.366931
O O10 0.331588 0.000000 0.430781
O O11 0.301576 0.301398 0.751499
O O12 0.327544 0.815163 0.976719
O O13 0.049580 0.876685 0.871510
O O14 0.270292 0.000000 0.972053
O O15 0.185170 0.870458 0.001831
O O16 0.187687 0.874516 0.162072
O O17 0.175694 0.000000 0.226883
O O18 0.162680 0.500000 0.836754
O O19 0.205827 0.319439 0.878859
O O20 0.000000 0.181466 0.000000
#
# Coordination Sequence:
#
# PCOD8091971 Si02
#       8
#     8   8   8   8   8   8   8   8
#     4  10  23  39  58  83 112 149 187 228 278 336
#     4  11  22  37  56  82 111 140 179 225 277 330
#     4  10  21  36  55  79 105 137 177 220 270 325
#     4  11  21  37  60  79 112 143 182 230 274 333
#     4  10  22  37  55  83 116 150 190 232 278 332
#     4  10  19  34  59  86 108 144 192 234 279 326
#     4  10  19  34  58  86 111 142 190 235 277 325
#     4  11  21  35  58  84 115 152 188 231 281 329
#
# _framework density 18.461706
#
# number of rings (size 3 to 8) (size 9 to 14) (size 15 to 20)
#    0.000    1.625    3.750    1.500    0.000    2.250 
#    0.000    0.625    0.000    0.750    0.000    0.000 
#    0.000    0.000    0.000    0.000    0.000    0.000 
#
# Total GULP energy -396828.708669 kJ/mol
# GULP energy per Si atom -12400.897146 kJ/mol
# Density = 1.841969 g / cm^3
# Si number density = 18.461706 Si / 1000 Ang^3
#
#
#
# Elastic Constant Matrix: (Units=GPa)
#
#
# Indices 1 2 3 4 5 6 
#
# 1 83.6403 32.1881 20.5789 0.0000 -7.4545 0.0000
# 2 32.1881 91.1540 34.4038 0.0000 -11.5256 0.0000
# 3 20.5789 34.4038 86.3140 0.0000 -20.1103 0.0000
# 4 0.0000 0.0000 0.0000 29.8799 0.0000 0.7241
# 5 -7.4545 -11.5256 -20.1103 0.0000 24.0563 0.0000
# 6 0.0000 0.0000 0.0000 0.7241 0.0000 9.7542
#
#
#
# Elastic Compliance Matrix: (Units=1/GPa)
#
#
# Indices 1 2 3 4 5 6 
#
# 1 0.014050 -0.004299 -0.001368 0.000000 0.001150 0.000000
# 2 -0.004299 0.014336 -0.004221 0.000000 0.002007 0.000000
# 3 -0.001368 -0.004221 0.016175 0.000000 0.011075 0.000000
# 4 0.000000 0.000000 0.000000 0.033528 0.000000 -0.002489
# 5 0.001150 0.002007 0.011075 0.000000 0.052146 0.000000
# 6 0.000000 0.000000 0.000000 -0.002489 0.000000 0.102705
#
#
# Mechanical properties :
#
#
# Convention : Reuss Voigt Hill
#
# Bulk Modulus (GPa) = 40.35105 48.38331 44.36718
# Shear Modulus (GPa) = 19.15881 24.33393 21.74637
#
# Velocity S-wave (km/s) = 3.22492 3.63447 3.43580
# Velocity P-wave (km/s) = 5.98088 6.62395 6.31061
#
# Compressibility (1/GPa) = 0.02478250
#
# Stress axis : x y z
#
# Youngs Moduli (GPa) = 71.17621 69.75613 61.82488
#
# Poissons Ratio (x) = 0.29991 0.08458
# Poissons Ratio (y) = 0.30602 0.26098
# Poissons Ratio (z) = 0.09737 0.29446
#
# Static dielectric constant tensor:
#      x y z
#    x 3.370440 0.000000 -0.039490 
#    y 0.000000 3.302490 0.000000 
#    z -0.039490 0.000000 3.440580 
# 
# 
# High freq. dielectric constant tensor:
#      x y z
#    x 1.717390 0.000000 -0.005800 
#    y 0.000000 1.710210 0.000000 
#    z -0.005800 0.000000 1.722000 
# 
# From -- ./inp_files/358404.got.cif
#   From: 2010.06.25/outbox.cif.g09.slc.cpg/sg12_180_cif.got.tgz:358404.got - 2010.06.28 00:19:55.
