data_PCOD8091236
_publ_section_title
;
Structure prediction by ZEFSAII (Michael W. Deem and Ramdas Pophale) SiO2 
 PCOD8091236
Probable space group: C 2/M
;
_chemical_formula_sum "Si O2"
_cell_formula_units_Z 56
_cell_length_a 24.016855
_cell_length_b 9.165863
_cell_length_c 13.852532
_cell_angle_alpha 90.000000
_cell_angle_beta 95.665057
_cell_angle_gamma 90.000000
_cell_volume 3034.536392
_symmetry_space_group_name_H-M "C 2/M"
_symmetry_group_IT_number 12
_symmetry_cell_setting 'monoclinic'
loop_
_space_group_symop_operation_xyz
x,y,z
-x,y,-z
-x,-y,-z
x,-y,z
1/2+x,1/2+y,z
1/2-x,1/2+y,-z
1/2-x,1/2-y,-z
1/2+x,1/2-y,z
loop_
_atom_site_type_symbol
_atom_site_label
_atom_site_fract_x
_atom_site_fract_y
_atom_site_fract_z
Si Si1 0.060540 0.169735 0.262223
Si Si2 0.942931 0.668491 0.540680
Si Si3 0.639751 0.670330 0.941428
Si Si4 0.671312 0.668311 0.160025
Si Si5 0.781721 0.830143 0.221972
Si Si6 0.128176 0.334307 0.654240
Si Si7 0.047778 0.329595 0.814294
O O1 0.069430 0.231747 0.370319
O O2 0.116889 0.197254 0.213633
O O3 0.012081 0.252625 0.196265
O O4 0.045106 0.000000 0.266058
O O5 0.948543 0.500000 0.574535
O O6 0.891632 0.690917 0.458341
O O7 0.000000 0.719807 0.500000
O O8 0.623895 0.500000 0.937306
O O9 0.689038 0.706873 0.874768
O O10 0.584519 0.761386 0.906275
O O11 0.660459 0.722276 0.049294
O O12 0.689002 0.500000 0.162931
O O13 0.721080 0.759137 0.215554
O O14 0.819236 0.768871 0.315855
O O15 0.774613 0.000000 0.237779
O O16 0.147654 0.500000 0.674686
O O17 0.076486 0.298138 0.716090
O O18 0.039802 0.500000 0.832950
#
# Coordination Sequence:
#
# PCOD8091236 Si02
#       7
#     8   8   8   8   8   8   8
#     4  11  23  36  53  80 112 147 183 221 267 323
#     4  10  19  36  59  83 109 140 179 220 271 327
#     4   9  19  36  57  81 108 141 182 228 272 319
#     4  10  22  39  55  74 110 153 184 216 271 330
#     4  10  20  34  57  85 108 134 182 234 268 309
#     4   9  18  34  57  81 108 141 174 215 273 329
#     4  10  19  34  55  81 111 143 179 223 272 324
#
# _framework density 18.454218999999998
#
# number of rings (size 3 to 8) (size 9 to 14) (size 15 to 20)
#    0.000    2.143    1.429    1.714    0.000    4.286 
#    0.000    3.571    0.000    0.000    0.000    0.000 
#    0.000    0.000    0.000    0.000    0.000    0.000 
#
# Total GULP energy -347335.238461 kJ/mol
# GULP energy per Si atom -12404.829945 kJ/mol
# Density = 1.841222 g / cm^3
# Si number density = 18.454219 Si / 1000 Ang^3
#
#
#
# Elastic Constant Matrix: (Units=GPa)
#
#
# Indices 1 2 3 4 5 6 
#
# 1 98.5158 67.5746 43.2817 0.0000 24.8667 0.0000
# 2 67.5746 95.4792 36.0837 0.0000 18.4073 0.0000
# 3 43.2817 36.0837 49.8955 0.0000 21.6741 0.0000
# 4 0.0000 0.0000 0.0000 31.6808 0.0000 5.5411
# 5 24.8667 18.4073 21.6741 0.0000 22.9063 0.0000
# 6 0.0000 0.0000 0.0000 5.5411 0.0000 31.3045
#
#
#
# Elastic Compliance Matrix: (Units=1/GPa)
#
#
# Indices 1 2 3 4 5 6 
#
# 1 0.024752 -0.012603 -0.008632 0.000000 -0.008575 0.000000
# 2 -0.012603 0.020945 -0.004833 0.000000 0.001423 0.000000
# 3 -0.008632 -0.004833 0.042900 0.000000 -0.027338 0.000000
# 4 0.000000 0.000000 0.000000 0.032573 0.000000 -0.005766
# 5 -0.008575 0.001423 -0.027338 0.000000 0.077689 0.000000
# 6 0.000000 0.000000 0.000000 -0.005766 0.000000 0.032965
#
#
# Mechanical properties :
#
#
# Convention : Reuss Voigt Hill
#
# Bulk Modulus (GPa) = 27.42603 59.75226 43.58914
# Shear Modulus (GPa) = 16.88538 23.64170 20.26354
#
# Velocity S-wave (km/s) = 3.02816 3.58313 3.31727
# Velocity P-wave (km/s) = 5.20771 7.04041 6.19224
#
# Compressibility (1/GPa) = 0.03646171
#
# Stress axis : x y z
#
# Youngs Moduli (GPa) = 40.40087 47.74395 23.30980
#
# Poissons Ratio (x) = 0.60169 0.20121
# Poissons Ratio (y) = 0.50915 0.11266
# Poissons Ratio (z) = 0.34874 0.23076
#
# Static dielectric constant tensor:
#      x y z
#    x 3.243900 0.000000 0.102290 
#    y 0.000000 3.413410 0.000000 
#    z 0.102290 0.000000 3.381720 
# 
# 
# High freq. dielectric constant tensor:
#      x y z
#    x 1.706900 0.000000 0.015390 
#    y 0.000000 1.719500 0.000000 
#    z 0.015390 0.000000 1.715750 
# 
# From -- ./inp_files/237882.got.cif
#   From: 2010.06.25/outbox.cif.g09.slc.cpg/sg12_119_cif.got.tgz:237882.got - 2010.06.28 00:19:55.
