data_PCOD8091991
_publ_section_title
;
Structure prediction by ZEFSAII (Michael W. Deem and Ramdas Pophale) SiO2 
 PCOD8091991
Probable space group: C 2/M
;
_chemical_formula_sum "Si O2"
_cell_formula_units_Z 56
_cell_length_a 29.284242
_cell_length_b 8.657442
_cell_length_c 11.279606
_cell_angle_alpha 90.000000
_cell_angle_beta 102.659051
_cell_angle_gamma 90.000000
_cell_volume 2790.165681
_symmetry_space_group_name_H-M "C 2/M"
_symmetry_group_IT_number 12
_symmetry_cell_setting 'monoclinic'
loop_
_space_group_symop_operation_xyz
x,y,z
-x,y,-z
-x,-y,-z
x,-y,z
1/2+x,1/2+y,z
1/2-x,1/2+y,-z
1/2-x,1/2-y,-z
1/2+x,1/2-y,z
loop_
_atom_site_type_symbol
_atom_site_label
_atom_site_fract_x
_atom_site_fract_y
_atom_site_fract_z
Si Si1 0.176309 0.820356 0.231598
Si Si2 0.125921 0.817058 0.432359
Si Si3 0.581150 0.321086 0.053798
Si Si4 0.458314 0.821626 0.738479
Si Si5 0.852934 0.179349 0.291035
Si Si6 0.935872 0.676527 0.203507
Si Si7 0.238356 0.682127 0.866643
O O1 0.162037 0.752955 0.352653
O O2 0.135297 0.787216 0.114186
O O3 0.224405 0.748189 0.207856
O O4 0.184047 0.000000 0.253922
O O5 0.075822 0.735786 0.385430
O O6 0.146281 0.770811 0.571186
O O7 0.118141 0.000000 0.415578
O O8 0.573128 0.500000 0.017612
O O9 0.549129 0.278506 0.147463
O O10 0.567038 0.215212 0.936551
O O11 0.511082 0.797378 0.722683
O O12 0.448342 0.000000 0.762694
O O13 0.902986 0.212804 0.261458
O O14 0.813683 0.276110 0.201715
O O15 0.841265 0.000000 0.269954
O O16 0.920239 0.500000 0.213640
O O17 0.243809 0.500000 0.878684
O O18 0.250000 0.750000 0.000000
#
# Coordination Sequence:
#
# PCOD8091991 Si02
#       7
#     8   8   8   8   8   8   8
#     4   8  17  35  58  82 109 144 183 226 275 327
#     4   9  20  40  61  81 109 147 193 238 281 337
#     4  10  19  34  58  86 116 149 188 233 281 337
#     4  10  21  36  56  83 115 149 188 236 286 339
#     4  11  24  40  58  82 113 148 190 240 288 338
#     4  11  23  37  54  80 115 153 191 234 287 343
#     4  11  22  38  61  87 117 150 185 228 281 342
#
# _framework density 20.070492999999999
#
# number of rings (size 3 to 8) (size 9 to 14) (size 15 to 20)
#    0.000    2.000    0.000    4.286    0.000    7.429 
#    0.000    9.286    0.000    0.000    0.000    0.000 
#    0.000    0.000    0.000    0.000    0.000    0.000 
#
# Total GULP energy -347256.989886 kJ/mol
# GULP energy per Si atom -12402.035353 kJ/mol
# Density = 2.002481 g / cm^3
# Si number density = 20.070493 Si / 1000 Ang^3
#
#
#
# Elastic Constant Matrix: (Units=GPa)
#
#
# Indices 1 2 3 4 5 6 
#
# 1 126.0536 29.8032 51.5641 0.0000 5.7595 0.0000
# 2 29.8032 49.3693 33.4399 0.0000 4.1647 0.0000
# 3 51.5641 33.4399 119.4402 0.0000 -0.0561 0.0000
# 4 0.0000 0.0000 0.0000 28.3903 0.0000 1.3862
# 5 5.7595 4.1647 -0.0561 0.0000 15.6160 0.0000
# 6 0.0000 0.0000 0.0000 1.3862 0.0000 28.1548
#
#
#
# Elastic Compliance Matrix: (Units=1/GPa)
#
#
# Indices 1 2 3 4 5 6 
#
# 1 0.010337 -0.003673 -0.003436 0.000000 -0.002845 0.000000
# 2 -0.003673 0.027020 -0.005982 0.000000 -0.005873 0.000000
# 3 -0.003436 -0.005982 0.011532 0.000000 0.002904 0.000000
# 4 0.000000 0.000000 0.000000 0.035308 0.000000 -0.001738
# 5 -0.002845 -0.005873 0.002904 0.000000 0.066663 0.000000
# 6 0.000000 0.000000 0.000000 -0.001738 0.000000 0.035603
#
#
# Mechanical properties :
#
#
# Convention : Reuss Voigt Hill
#
# Bulk Modulus (GPa) = 44.03817 58.27529 51.15673
# Shear Modulus (GPa) = 22.70521 26.43594 24.57058
#
# Velocity S-wave (km/s) = 3.36709 3.63320 3.50267
# Velocity P-wave (km/s) = 6.09145 6.83363 6.47319
#
# Compressibility (1/GPa) = 0.02270757
#
# Stress axis : x y z
#
# Youngs Moduli (GPa) = 96.74020 37.00947 86.71737
#
# Poissons Ratio (x) = 0.13594 0.29792
# Poissons Ratio (y) = 0.35534 0.51873
# Poissons Ratio (z) = 0.33236 0.22139
#
# Static dielectric constant tensor:
#      x y z
#    x 3.941090 0.000000 -0.075090 
#    y 0.000000 3.546270 0.000000 
#    z -0.075090 0.000000 3.643260 
# 
# 
# High freq. dielectric constant tensor:
#      x y z
#    x 1.791060 0.000000 -0.000320 
#    y 0.000000 1.775490 0.000000 
#    z -0.000320 0.000000 1.780340 
# 
# From -- ./inp_files/187777.got.cif
#   From: 2010.06.25/outbox.cif.g09.slc.cpg/sg12_94_cif.got.tgz:187777.got - 2010.06.28 00:19:55.
