data_PCOD8091659
_publ_section_title
;
Structure prediction by ZEFSAII (Michael W. Deem and Ramdas Pophale) SiO2 
 PCOD8091659
Probable space group: C 2/M
;
_chemical_formula_sum "Si O2"
_cell_formula_units_Z 40
_cell_length_a 21.541631
_cell_length_b 17.678487
_cell_length_c 16.152332
_cell_angle_alpha 90.000000
_cell_angle_beta 21.893196
_cell_angle_gamma 90.000000
_cell_volume 2293.639715
_symmetry_space_group_name_H-M "C 2/M"
_symmetry_group_IT_number 12
_symmetry_cell_setting 'monoclinic'
loop_
_space_group_symop_operation_xyz
x,y,z
-x,y,-z
-x,-y,-z
x,-y,z
1/2+x,1/2+y,z
1/2-x,1/2+y,-z
1/2-x,1/2-y,-z
1/2+x,1/2-y,z
loop_
_atom_site_type_symbol
_atom_site_label
_atom_site_fract_x
_atom_site_fract_y
_atom_site_fract_z
Si Si1 0.858352 0.915468 0.368056
Si Si2 0.317879 0.725060 0.689877
Si Si3 0.191581 0.414515 0.749389
Si Si4 0.779961 0.304123 0.574909
Si Si5 0.012454 0.766686 0.169670
O O1 0.736078 0.909073 0.597657
O O2 0.753944 0.890058 0.414698
O O3 0.014835 0.857796 0.184752
O O4 0.926870 0.000000 0.270804
O O5 0.500000 0.733680 0.500000
O O6 0.302841 0.643718 0.664359
O O7 0.280216 0.794456 0.673293
O O8 0.189584 0.734353 0.923916
O O9 0.226926 0.500000 0.737788
O O10 0.000000 0.392874 0.000000
O O11 0.631337 0.250276 0.721883
O O12 0.958872 0.276011 0.319833
#
# Coordination Sequence:
#
# PCOD8091659 Si02
#       5
#     8   8   8   8   8
#     4   9  17  32  58  81  97 130 178 227 269 293
#     4  12  22  32  51  79 112 146 171 205 261 325
#     4  10  19  34  57  82 107 132 171 223 268 311
#     4   9  17  34  53  77 101 134 175 225 251 303
#     4   9  18  34  55  76 103 134 179 223 256 301
#
# _framework density 17.439532
#
# number of rings (size 3 to 8) (size 9 to 14) (size 15 to 20)
#    1.200    1.000    2.000    3.000    0.000    1.200 
#    0.000    2.000    0.000    2.400    0.000    0.000 
#    0.000    0.000    0.000    0.000    0.000    0.000 
#
# Total GULP energy -247798.875179 kJ/mol
# GULP energy per Si atom -12389.943759 kJ/mol
# Density = 1.739984 g / cm^3
# Si number density = 17.439532 Si / 1000 Ang^3
#
#
#
# Elastic Constant Matrix: (Units=GPa)
#
#
# Indices 1 2 3 4 5 6 
#
# 1 21.4476 3.2710 10.4822 0.0107 -5.0431 -0.0084
# 2 3.2710 80.5302 6.1127 0.0144 0.9888 -0.0101
# 3 10.4822 6.1127 87.0300 0.0104 -2.5707 -0.0115
# 4 0.0107 0.0144 0.0104 21.3236 -0.0044 6.6098
# 5 -5.0431 0.9888 -2.5707 -0.0044 19.6001 0.0014
# 6 -0.0084 -0.0101 -0.0115 6.6098 0.0014 18.4127
#
#
#
# Elastic Compliance Matrix: (Units=1/GPa)
#
#
# Indices 1 2 3 4 5 6 
#
# 1 0.052803 -0.001859 -0.005848 -0.000029 0.012913 0.000029
# 2 -0.001859 0.012561 -0.000694 -0.000010 -0.001203 0.000009
# 3 -0.005848 -0.000694 0.012247 -0.000004 0.000137 0.000006
# 4 -0.000029 -0.000010 -0.000004 0.052768 0.000006 -0.018943
# 5 0.012913 -0.001203 0.000137 0.000006 0.054421 -0.000001
# 6 0.000029 0.000009 0.000006 -0.018943 -0.000001 0.061110
#
#
# Mechanical properties :
#
#
# Convention : Reuss Voigt Hill
#
# Bulk Modulus (GPa) = 16.44485 25.41550 20.93017
# Shear Modulus (GPa) = 17.66892 23.14343 20.40617
#
# Velocity S-wave (km/s) = 3.18646 3.64685 3.42440
# Velocity P-wave (km/s) = 4.79460 5.68663 5.25956
#
# Compressibility (1/GPa) = 0.06080933
#
# Stress axis : x y z
#
# Youngs Moduli (GPa) = 18.93820 79.61358 81.65003
#
# Poissons Ratio (x) = 0.14804 0.47747
# Poissons Ratio (y) = 0.03521 0.05665
# Poissons Ratio (z) = 0.11075 0.05524
#
# Static dielectric constant tensor:
#      x y z
#    x 2.883880 0.000000 0.232230 
#    y 0.000000 3.318480 0.000000 
#    z 0.232230 0.000000 3.105880 
# 
# 
# High freq. dielectric constant tensor:
#      x y z
#    x 1.634410 0.000000 0.026920 
#    y 0.000000 1.667490 0.000000 
#    z 0.026920 0.000000 1.668200 
# 
# From -- ./inp_files/88976.got.cif
#   From: 2010.06.25/outbox.cif.g09.slc.cpg/sg12_45_cif.got.tgz:88976.got - 2010.06.28 00:19:55.
