data_PCOD8091327
_publ_section_title
;
Structure prediction by ZEFSAII (Michael W. Deem and Ramdas Pophale) SiO2 
 PCOD8091327
Probable space group: C 2/M
;
_chemical_formula_sum "Si O2"
_cell_formula_units_Z 64
_cell_length_a 5.500426
_cell_length_b 27.340883
_cell_length_c 22.321562
_cell_angle_alpha 90.000000
_cell_angle_beta 82.413637
_cell_angle_gamma 90.000000
_cell_volume 3327.479025
_symmetry_space_group_name_H-M "C 2/M"
_symmetry_group_IT_number 12
_symmetry_cell_setting 'monoclinic'
loop_
_space_group_symop_operation_xyz
x,y,z
-x,y,-z
-x,-y,-z
x,-y,z
1/2+x,1/2+y,z
1/2-x,1/2+y,-z
1/2-x,1/2-y,-z
1/2+x,1/2-y,z
loop_
_atom_site_type_symbol
_atom_site_label
_atom_site_fract_x
_atom_site_fract_y
_atom_site_fract_z
Si Si1 0.687419 0.766049 0.697321
Si Si2 0.429115 0.442824 0.127396
Si Si3 0.642839 0.626481 0.556790
Si Si4 0.405083 0.945520 0.622050
Si Si5 0.460991 0.058025 0.069426
Si Si6 0.238526 0.127042 0.333194
Si Si7 0.516497 0.554478 0.738738
Si Si8 0.671986 0.772577 0.436147
O O1 0.433952 0.741460 0.731213
O O2 0.625220 0.823668 0.691592
O O3 0.790828 0.738673 0.635011
O O4 0.435750 0.500000 0.112893
O O5 0.192767 0.420348 0.099998
O O6 0.387563 0.431586 0.198726
O O7 0.695248 0.420711 0.099165
O O8 0.500000 0.620345 0.500000
O O9 0.760174 0.573673 0.568198
O O10 0.488221 0.644476 0.619442
O O11 0.839506 0.669980 0.547557
O O12 0.620209 0.907438 0.625079
O O13 0.243994 0.945699 0.686889
O O14 0.504513 0.000000 0.605272
O O15 0.457656 0.000000 0.077167
O O16 0.500000 0.074209 0.000000
O O17 0.177191 0.094998 0.276391
O O18 0.393532 0.500000 0.743431
O O19 0.398033 0.754020 0.463760
#
# Coordination Sequence:
#
# PCOD8091327 Si02
#       8
#     8   8   8   8   8   8   8   8
#     4  10  19  34  56  78 105 130 160 200 249 325
#     4   9  17  28  44  67  98 133 176 221 255 290
#     4  11  24  38  54  76 101 128 163 212 269 331
#     4  10  22  39  56  72  95 129 176 225 270 313
#     4   9  16  26  42  66  99 138 176 214 253 293
#     4  11  21  36  57  74  99 130 169 214 266 322
#     4   9  20  34  51  75 100 133 178 229 264 293
#     4  10  19  36  56  82 107 129 155 195 247 323
#
# _framework density 19.233781
#
# number of rings (size 3 to 8) (size 9 to 14) (size 15 to 20)
#    0.000    2.125    2.500    2.250    3.500    3.250 
#    0.000    0.625    0.000    0.000    0.000    0.000 
#    0.000    0.000    0.000    0.000    0.000   12.500 
#
# Total GULP energy -396569.387886 kJ/mol
# GULP energy per Si atom -12392.793371 kJ/mol
# Density = 1.919000 g / cm^3
# Si number density = 19.233781 Si / 1000 Ang^3
#
#
#
# Elastic Constant Matrix: (Units=GPa)
#
#
# Indices 1 2 3 4 5 6 
#
# 1 125.1379 30.1743 31.3731 0.0000 10.0778 0.0000
# 2 30.1743 101.6171 21.3787 0.0000 5.9816 0.0000
# 3 31.3731 21.3787 80.2162 0.0000 20.0970 0.0000
# 4 0.0000 0.0000 0.0000 6.8301 0.0000 2.6717
# 5 10.0778 5.9816 20.0970 0.0000 24.6693 0.0000
# 6 0.0000 0.0000 0.0000 2.6717 0.0000 21.6657
#
#
#
# Elastic Compliance Matrix: (Units=1/GPa)
#
#
# Indices 1 2 3 4 5 6 
#
# 1 0.009286 -0.002105 -0.002825 0.000000 -0.000982 0.000000
# 2 -0.002105 0.010905 -0.002055 0.000000 -0.000110 0.000000
# 3 -0.002825 -0.002055 0.017219 0.000000 -0.012376 0.000000
# 4 0.000000 0.000000 0.000000 0.153830 0.000000 -0.018970
# 5 -0.000982 -0.000110 -0.012376 0.000000 0.051046 0.000000
# 6 0.000000 0.000000 0.000000 -0.018970 0.000000 0.048495
#
#
# Mechanical properties :
#
#
# Convention : Reuss Voigt Hill
#
# Bulk Modulus (GPa) = 42.66337 52.53593 47.59965
# Shear Modulus (GPa) = 15.99663 25.56937 20.78300
#
# Velocity S-wave (km/s) = 2.88704 3.65005 3.29073
# Velocity P-wave (km/s) = 5.77434 6.71845 6.26420
#
# Compressibility (1/GPa) = 0.02343931
#
# Stress axis : x y z
#
# Youngs Moduli (GPa) = 107.68781 91.70185 58.07406
#
# Poissons Ratio (x) = 0.19306 0.16405
# Poissons Ratio (y) = 0.22672 0.11937
# Poissons Ratio (z) = 0.30419 0.18849
#
# Static dielectric constant tensor:
#      x y z
#    x 4.099710 0.000000 0.084620 
#    y 0.000000 3.347080 0.000000 
#    z 0.084620 0.000000 3.213290 
# 
# 
# High freq. dielectric constant tensor:
#      x y z
#    x 1.772030 0.000000 0.007350 
#    y 0.000000 1.711210 0.000000 
#    z 0.007350 0.000000 1.710320 
# 
# From -- ./inp_files/331396.got.cif
#   From: 2010.06.25/outbox.cif.g09.slc.cpg/sg12_166_cif.got.tgz:331396.got - 2010.06.28 00:19:55.
