data_PCOD8091566
_publ_section_title
;
Structure prediction by ZEFSAII (Michael W. Deem and Ramdas Pophale) SiO2 
 PCOD8091566
Probable space group: C 2/M
;
_chemical_formula_sum "Si O2"
_cell_formula_units_Z 44
_cell_length_a 18.174234
_cell_length_b 22.652388
_cell_length_c 6.325599
_cell_angle_alpha 90.000000
_cell_angle_beta 50.852761
_cell_angle_gamma 90.000000
_cell_volume 2019.613290
_symmetry_space_group_name_H-M "C 2/M"
_symmetry_group_IT_number 12
_symmetry_cell_setting 'monoclinic'
loop_
_space_group_symop_operation_xyz
x,y,z
-x,y,-z
-x,-y,-z
x,-y,z
1/2+x,1/2+y,z
1/2-x,1/2+y,-z
1/2-x,1/2-y,-z
1/2+x,1/2-y,z
loop_
_atom_site_type_symbol
_atom_site_label
_atom_site_fract_x
_atom_site_fract_y
_atom_site_fract_z
Si Si1 0.908983 0.218509 0.518433
Si Si2 0.500000 0.649286 0.000000
Si Si3 0.746458 0.863968 0.756245
Si Si4 0.164809 0.566976 0.279390
Si Si5 0.152949 0.065510 0.773907
Si Si6 0.404661 0.163048 0.305435
O O1 0.812175 0.184161 0.764672
O O2 0.891811 0.287837 0.512557
O O3 0.000000 0.207433 0.500000
O O4 0.931451 0.191389 0.251836
O O5 0.567973 0.606722 0.015411
O O6 0.811053 0.912173 0.520429
O O7 0.682829 0.830346 0.697391
O O8 0.673928 0.897902 0.043048
O O9 0.126700 0.500000 0.313112
O O10 0.268513 0.565923 0.189668
O O11 0.094486 0.600659 0.569826
O O12 0.113902 0.000000 0.808336
O O13 0.500000 0.170603 0.000000
#
# Coordination Sequence:
#
# PCOD8091566 Si02
#       6
#     8   4   8   8   8   8
#     4  11  23  39  63  91 123 158 199 244 297 360
#     4  10  19  34  56  88 125 160 196 240 294 356
#     4  10  22  40  63  90 121 159 198 245 301 355
#     4  10  22  40  63  88 118 156 202 250 299 352
#     4   9  18  34  57  88 123 159 197 241 294 357
#     4  11  25  42  62  87 123 158 202 248 300 352
#
# _framework density 21.786349000000001
#
# number of rings (size 3 to 8) (size 9 to 14) (size 15 to 20)
#    0.000    1.818    0.909    2.455    2.545    1.818 
#    0.000    0.909    0.000    8.727    0.000    0.000 
#    0.000    0.000    0.000    0.000    0.000    0.000 
#
# Total GULP energy -272720.965781 kJ/mol
# GULP energy per Si atom -12396.407535 kJ/mol
# Density = 2.173676 g / cm^3
# Si number density = 21.786349 Si / 1000 Ang^3
#
#
#
# Elastic Constant Matrix: (Units=GPa)
#
#
# Indices 1 2 3 4 5 6 
#
# 1 71.9980 30.7057 4.6846 0.0000 2.4568 0.0000
# 2 30.7057 128.0182 23.6044 0.0000 -3.9818 0.0000
# 3 4.6846 23.6044 50.6313 0.0000 -0.0410 0.0000
# 4 0.0000 0.0000 0.0000 28.0421 0.0000 -0.4407
# 5 2.4568 -3.9818 -0.0410 0.0000 26.5525 0.0000
# 6 0.0000 0.0000 0.0000 -0.4407 0.0000 32.9356
#
#
#
# Elastic Compliance Matrix: (Units=1/GPa)
#
#
# Indices 1 2 3 4 5 6 
#
# 1 0.015584 -0.003867 0.000359 0.000000 -0.002021 0.000000
# 2 -0.003867 0.009549 -0.004093 0.000000 0.001783 0.000000
# 3 0.000359 -0.004093 0.021625 0.000000 -0.000614 0.000000
# 4 0.000000 0.000000 0.000000 0.035668 0.000000 0.000477
# 5 -0.002021 0.001783 -0.000614 0.000000 0.038115 0.000000
# 6 0.000000 0.000000 0.000000 0.000477 0.000000 0.030369
#
#
# Mechanical properties :
#
#
# Convention : Reuss Voigt Hill
#
# Bulk Modulus (GPa) = 31.68833 40.95966 36.32399
# Shear Modulus (GPa) = 28.30790 30.28289 29.29540
#
# Velocity S-wave (km/s) = 3.60855 3.73231 3.67095
# Velocity P-wave (km/s) = 5.65144 6.11677 5.88870
#
# Compressibility (1/GPa) = 0.03155736
#
# Stress axis : x y z
#
# Youngs Moduli (GPa) = 64.16805 104.72335 46.24316
#
# Poissons Ratio (x) = 0.40497 -0.01661
# Poissons Ratio (y) = 0.24814 0.18925
# Poissons Ratio (z) = -0.02305 0.42858
#
# Static dielectric constant tensor:
#      x y z
#    x 3.864500 0.000000 -0.120640 
#    y 0.000000 4.246120 0.000000 
#    z -0.120640 0.000000 3.710140 
# 
# 
# High freq. dielectric constant tensor:
#      x y z
#    x 1.852340 0.000000 -0.006010 
#    y 0.000000 1.868760 0.000000 
#    z -0.006010 0.000000 1.838200 
# 
# From -- ./inp_files/11655.got.cif
#   From: 2010.06.25/outbox.cif.g09.slc.cpg/sg12_6_cif.got.tgz:11655.got - 2010.06.28 00:19:55.
