data_PCOD8091885
_publ_section_title
;
Structure prediction by ZEFSAII (Michael W. Deem and Ramdas Pophale) SiO2 
 PCOD8091885
Probable space group: C 2/M
;
_chemical_formula_sum "Si O2"
_cell_formula_units_Z 56
_cell_length_a 27.846126
_cell_length_b 9.057124
_cell_length_c 19.589632
_cell_angle_alpha 90.000000
_cell_angle_beta 142.072827
_cell_angle_gamma 90.000000
_cell_volume 3036.797793
_symmetry_space_group_name_H-M "C 2/M"
_symmetry_group_IT_number 12
_symmetry_cell_setting 'monoclinic'
loop_
_space_group_symop_operation_xyz
x,y,z
-x,y,-z
-x,-y,-z
x,-y,z
1/2+x,1/2+y,z
1/2-x,1/2+y,-z
1/2-x,1/2-y,-z
1/2+x,1/2-y,z
loop_
_atom_site_type_symbol
_atom_site_label
_atom_site_fract_x
_atom_site_fract_y
_atom_site_fract_z
Si Si1 0.802122 0.330535 0.900392
Si Si2 0.454138 0.171753 0.144766
Si Si3 0.630909 0.174723 0.562812
Si Si4 0.964983 0.169415 0.886778
Si Si5 0.805955 0.169355 0.769078
Si Si6 0.373358 0.672950 0.301229
Si Si7 0.001285 0.825740 0.334742
O O1 0.803755 0.500000 0.881509
O O2 0.832817 0.247300 0.868390
O O3 0.713960 0.283579 0.821728
O O4 0.861568 0.298719 0.029136
O O5 0.501573 0.218316 0.130883
O O6 0.481026 0.271558 0.237013
O O7 0.470615 0.000000 0.178414
O O8 0.720601 0.222587 0.648349
O O9 0.603670 0.237524 0.605342
O O10 0.580818 0.248079 0.447009
O O11 0.618555 0.000000 0.548145
O O12 0.871091 0.196167 0.784140
O O13 0.983913 0.000000 0.887534
O O14 0.000000 0.205650 0.000000
O O15 0.800763 0.000000 0.783877
O O16 0.381138 0.500000 0.326751
O O17 0.431486 0.721576 0.306754
O O18 0.013954 0.000000 0.347904
#
# Coordination Sequence:
#
# PCOD8091885 Si02
#       7
#     8   8   8   8   8   8   8
#     4   9  18  33  53  79 110 140 173 218 268 316
#     4  11  23  36  53  80 113 143 177 221 270 319
#     4  10  20  35  57  83 110 138 177 225 268 311
#     4  10  19  34  58  83 109 140 176 215 261 322
#     4   9  18  33  55  83 109 137 174 218 264 314
#     4   9  19  36  57  80 106 141 183 221 262 317
#     4  11  23  38  55  75 106 148 187 221 263 317
#
# _framework density 18.440477999999999
#
# number of rings (size 3 to 8) (size 9 to 14) (size 15 to 20)
#    0.000    2.143    1.429    1.714    0.000    5.429 
#    0.000    0.714    0.000    0.000    0.000    0.000 
#    0.000    0.000    0.000    0.000    0.000    0.000 
#
# Total GULP energy -347218.696837 kJ/mol
# GULP energy per Si atom -12400.667744 kJ/mol
# Density = 1.839851 g / cm^3
# Si number density = 18.440478 Si / 1000 Ang^3
#
#
#
# Elastic Constant Matrix: (Units=GPa)
#
#
# Indices 1 2 3 4 5 6 
#
# 1 57.4726 22.0743 38.7036 0.0000 7.2870 0.0000
# 2 22.0743 56.1491 37.3787 0.0000 0.2259 0.0000
# 3 38.7036 37.3787 110.7070 0.0000 -0.4033 0.0000
# 4 0.0000 0.0000 0.0000 31.0014 0.0000 -3.4211
# 5 7.2870 0.2259 -0.4033 0.0000 22.0171 0.0000
# 6 0.0000 0.0000 0.0000 -3.4211 0.0000 28.8190
#
#
#
# Elastic Compliance Matrix: (Units=1/GPa)
#
#
# Indices 1 2 3 4 5 6 
#
# 1 0.025239 -0.005152 -0.007115 0.000000 -0.008431 0.000000
# 2 -0.005152 0.024028 -0.006307 0.000000 0.001343 0.000000
# 3 -0.007115 -0.006307 0.013659 0.000000 0.002670 0.000000
# 4 0.000000 0.000000 0.000000 0.032685 0.000000 0.003880
# 5 -0.008431 0.001343 0.002670 0.000000 0.048245 0.000000
# 6 0.000000 0.000000 0.000000 0.003880 0.000000 0.035160
#
#
# Mechanical properties :
#
#
# Convention : Reuss Voigt Hill
#
# Bulk Modulus (GPa) = 38.79102 46.73799 42.76450
# Shear Modulus (GPa) = 22.24639 24.77897 23.51268
#
# Velocity S-wave (km/s) = 3.47708 3.66967 3.57467
# Velocity P-wave (km/s) = 6.09931 6.58450 6.34654
#
# Compressibility (1/GPa) = 0.02577916
#
# Stress axis : x y z
#
# Youngs Moduli (GPa) = 39.62188 41.61774 73.21018
#
# Poissons Ratio (x) = 0.21441 0.52087
# Poissons Ratio (y) = 0.20413 0.46172
# Poissons Ratio (z) = 0.28190 0.26247
#
# Static dielectric constant tensor:
#      x y z
#    x 3.395720 0.000000 0.342720 
#    y 0.000000 3.386250 0.000000 
#    z 0.342720 0.000000 3.559910 
# 
# 
# High freq. dielectric constant tensor:
#      x y z
#    x 1.704410 0.000000 0.020870 
#    y 0.000000 1.718870 0.000000 
#    z 0.020870 0.000000 1.717060 
# 
# From -- ./inp_files/281708.got.cif
#   From: 2010.06.25/outbox.cif.g09.slc.cpg/sg12_141_cif.got.tgz:281708.got - 2010.06.28 00:19:55.
