data_PCOD8091300
_publ_section_title
;
Structure prediction by ZEFSAII (Michael W. Deem and Ramdas Pophale) SiO2 
 PCOD8091300
Probable space group: C 2/M
;
_chemical_formula_sum "Si O2"
_cell_formula_units_Z 48
_cell_length_a 19.319934
_cell_length_b 8.785278
_cell_length_c 29.881452
_cell_angle_alpha 90.000000
_cell_angle_beta 148.850560
_cell_angle_gamma 90.000000
_cell_volume 2623.504515
_symmetry_space_group_name_H-M "C 2/M"
_symmetry_group_IT_number 12
_symmetry_cell_setting 'monoclinic'
loop_
_space_group_symop_operation_xyz
x,y,z
-x,y,-z
-x,-y,-z
x,-y,z
1/2+x,1/2+y,z
1/2-x,1/2+y,-z
1/2-x,1/2-y,-z
1/2+x,1/2-y,z
loop_
_atom_site_type_symbol
_atom_site_label
_atom_site_fract_x
_atom_site_fract_y
_atom_site_fract_z
Si Si1 0.890421 0.679287 0.975143
Si Si2 0.472103 0.679802 0.868036
Si Si3 0.595810 0.822913 0.259699
Si Si4 0.376572 0.818644 0.402743
Si Si5 0.874210 0.677378 0.207686
Si Si6 0.174917 0.321090 0.722441
O O1 0.900591 0.500000 0.986624
O O2 0.742985 0.724388 0.878574
O O3 0.000000 0.738874 0.000000
O O4 0.914481 0.756301 0.036552
O O5 0.486726 0.500000 0.871981
O O6 0.487508 0.750553 0.827277
O O7 0.329128 0.731664 0.808907
O O8 0.738727 0.744692 0.346449
O O9 0.512111 0.793489 0.258424
O O10 0.616761 0.000000 0.261646
O O11 0.500000 0.754987 0.500000
O O12 0.395174 0.758642 0.361723
O O13 0.369040 0.000000 0.401004
O O14 0.832045 0.500000 0.182981
O O15 0.896409 0.733863 0.271398
O O16 0.169277 0.500000 0.715970
#
# Coordination Sequence:
#
# PCOD8091300 Si02
#       6
#     8   8   8   8   8   8
#     4  11  22  33  50  79 110 137 176 228 267 298
#     4  10  19  34  56  75 100 143 185 218 256 312
#     4  10  21  35  53  78 109 137 170 222 273 311
#     4   9  18  35  59  82 103 134 176 216 258 320
#     4  10  20  35  53  74 104 144 181 215 262 317
#     4   8  15  30  53  76  97 132 178 214 249 306
#
# _framework density 18.296137999999999
#
# number of rings (size 3 to 8) (size 9 to 14) (size 15 to 20)
#    0.000    2.333    1.667    2.500    0.000    3.000 
#    0.000    0.833    0.000    0.000    0.000    0.000 
#    0.000    0.000    0.000    0.000    0.000    0.000 
#
# Total GULP energy -297556.581181 kJ/mol
# GULP energy per Si atom -12398.190883 kJ/mol
# Density = 1.825450 g / cm^3
# Si number density = 18.296138 Si / 1000 Ang^3
#
#
#
# Elastic Constant Matrix: (Units=GPa)
#
#
# Indices 1 2 3 4 5 6 
#
# 1 131.9573 28.9772 58.5981 0.0000 -12.5828 0.0000
# 2 28.9772 49.2845 25.4877 0.0000 -3.1229 0.0003
# 3 58.5981 25.4877 122.3993 0.0001 -20.3362 0.0000
# 4 0.0000 0.0000 0.0001 22.1933 0.0000 2.4113
# 5 -12.5828 -3.1229 -20.3362 0.0000 24.4338 0.0000
# 6 0.0000 0.0003 0.0000 2.4113 0.0000 23.1199
#
#
#
# Elastic Compliance Matrix: (Units=1/GPa)
#
#
# Indices 1 2 3 4 5 6 
#
# 1 0.010310 -0.003973 -0.003842 0.000000 0.001604 0.000000
# 2 -0.003973 0.024301 -0.003461 0.000000 -0.001820 0.000000
# 3 -0.003842 -0.003461 0.011985 0.000000 0.007554 0.000000
# 4 0.000000 0.000000 0.000000 0.045575 0.000000 -0.004753
# 5 0.001604 -0.001820 0.007554 0.000000 0.047808 0.000000
# 6 0.000000 0.000000 0.000000 -0.004753 0.000000 0.043749
#
#
# Mechanical properties :
#
#
# Convention : Reuss Voigt Hill
#
# Bulk Modulus (GPa) = 41.59019 58.86303 50.22661
# Shear Modulus (GPa) = 23.33259 26.65461 24.99360
#
# Velocity S-wave (km/s) = 3.57497 3.82100 3.70003
# Velocity P-wave (km/s) = 6.31044 7.19089 6.76500
#
# Compressibility (1/GPa) = 0.02404413
#
# Stress axis : x y z
#
# Youngs Moduli (GPa) = 96.99598 41.15112 83.43770
#
# Poissons Ratio (x) = 0.16350 0.32056
# Poissons Ratio (y) = 0.38538 0.28874
# Poissons Ratio (z) = 0.37265 0.14240
#
# Static dielectric constant tensor:
#      x y z
#    x 3.691640 0.000000 -0.273420 
#    y 0.000000 3.224970 0.000000 
#    z -0.273420 0.000000 3.330470 
# 
# 
# High freq. dielectric constant tensor:
#      x y z
#    x 1.713640 0.000000 -0.014590 
#    y 0.000000 1.698430 0.000000 
#    z -0.014590 0.000000 1.692920 
# 
# From -- ./inp_files/230361.got.cif
#   From: 2010.06.25/outbox.cif.g09.slc.cpg/sg12_116_cif.got.tgz:230361.got - 2010.06.28 00:19:55.
