data_PCOD8091531
_publ_section_title
;
Structure prediction by ZEFSAII (Michael W. Deem and Ramdas Pophale) SiO2 
 PCOD8091531
Probable space group: C 2/M
;
_chemical_formula_sum "Si O2"
_cell_formula_units_Z 44
_cell_length_a 25.299390
_cell_length_b 10.046564
_cell_length_c 24.453293
_cell_angle_alpha 90.000000
_cell_angle_beta 159.308379
_cell_angle_gamma 90.000000
_cell_volume 2196.116383
_symmetry_space_group_name_H-M "C 2/M"
_symmetry_group_IT_number 12
_symmetry_cell_setting 'monoclinic'
loop_
_space_group_symop_operation_xyz
x,y,z
-x,y,-z
-x,-y,-z
x,-y,z
1/2+x,1/2+y,z
1/2-x,1/2+y,-z
1/2-x,1/2-y,-z
1/2+x,1/2-y,z
loop_
_atom_site_type_symbol
_atom_site_label
_atom_site_fract_x
_atom_site_fract_y
_atom_site_fract_z
Si Si1 0.461492 0.849644 0.628101
Si Si2 0.382014 0.152024 0.112660
Si Si3 0.000000 0.246743 0.500000
Si Si4 0.462049 0.847497 0.066942
Si Si5 0.798341 0.149005 0.398319
Si Si6 0.722127 0.149004 0.799072
O O1 0.482274 0.827963 0.712965
O O2 0.337113 0.749785 0.484768
O O3 0.621539 0.820785 0.754858
O O4 0.409259 0.000000 0.563868
O O5 0.445879 0.186450 0.115191
O O6 0.322523 0.000000 0.058043
O O7 0.250000 0.250000 0.000000
O O8 0.083681 0.155473 0.536847
O O9 0.121807 0.339196 0.647580
O O10 0.633089 0.818838 0.215694
O O11 0.416663 0.000000 0.010617
O O12 0.357757 0.753615 0.929204
O O13 0.802075 0.000000 0.426496
O O14 0.788418 0.000000 0.865560
#
# Coordination Sequence:
#
# PCOD8091531 Si02
#       6
#     8   8   4   8   8   8
#     4   9  19  35  56  82 114 149 186 226 272 328
#     4  10  19  34  56  84 116 151 183 222 273 329
#     4  10  22  40  60  80 108 146 190 236 282 332
#     4  10  22  37  56  85 119 145 181 234 279 325
#     4  10  22  39  57  82 112 148 190 233 280 330
#     4  10  20  37  60  84 111 145 187 231 278 334
#
# _framework density 20.035367999999998
#
# number of rings (size 3 to 8) (size 9 to 14) (size 15 to 20)
#    0.000    2.182    1.818    0.545    0.000    7.273 
#    0.000    2.727    0.000    0.000    0.000    0.000 
#    0.000    0.000    0.000    0.000    0.000    0.000 
#
# Total GULP energy -272833.138166 kJ/mol
# GULP energy per Si atom -12401.506280 kJ/mol
# Density = 1.998977 g / cm^3
# Si number density = 20.035368 Si / 1000 Ang^3
#
#
#
# Elastic Constant Matrix: (Units=GPa)
#
#
# Indices 1 2 3 4 5 6 
#
# 1 57.1791 22.9349 33.7700 0.0000 -11.3953 -0.0001
# 2 22.9349 120.1433 79.5410 0.0011 -3.3250 0.0011
# 3 33.7700 79.5410 123.2253 0.0021 -8.9319 0.0023
# 4 0.0000 0.0011 0.0021 40.9714 0.0008 -3.3495
# 5 -11.3953 -3.3250 -8.9319 0.0008 29.3555 0.0007
# 6 -0.0001 0.0011 0.0023 -3.3495 0.0007 17.1681
#
#
#
# Elastic Compliance Matrix: (Units=1/GPa)
#
#
# Indices 1 2 3 4 5 6 
#
# 1 0.022181 -0.000614 -0.005178 0.000000 0.006965 0.000001
# 2 -0.000614 0.014596 -0.009357 0.000000 -0.001432 0.000000
# 3 -0.005178 -0.009357 0.015698 -0.000001 0.001707 -0.000002
# 4 0.000000 0.000000 -0.000001 0.024803 -0.000001 0.004839
# 5 0.006965 -0.001432 0.001707 -0.000001 0.037126 -0.000002
# 6 0.000001 0.000000 -0.000002 0.004839 -0.000002 0.059192
#
#
# Mechanical properties :
#
#
# Convention : Reuss Voigt Hill
#
# Bulk Modulus (GPa) = 45.09013 63.67105 54.38059
# Shear Modulus (GPa) = 23.66471 28.45245 26.05858
#
# Velocity S-wave (km/s) = 3.44051 3.77252 3.61034
# Velocity P-wave (km/s) = 6.19168 7.12911 6.67687
#
# Compressibility (1/GPa) = 0.02217780
#
# Stress axis : x y z
#
# Youngs Moduli (GPa) = 45.08326 68.51289 63.70287
#
# Poissons Ratio (x) = 0.04203 0.32984
# Poissons Ratio (y) = 0.02766 0.59608
# Poissons Ratio (z) = 0.23344 0.64108
#
# Static dielectric constant tensor:
#      x y z
#    x 3.658840 0.000000 -0.056980 
#    y 0.000000 3.617050 0.000000 
#    z -0.056980 0.000000 3.493980 
# 
# 
# High freq. dielectric constant tensor:
#      x y z
#    x 1.775430 0.000000 -0.010290 
#    y 0.000000 1.784340 0.000000 
#    z -0.010290 0.000000 1.771460 
# 
# From -- ./inp_files/107843.got.cif
#   From: 2010.06.25/outbox.cif.g09.slc.cpg/sg12_54_cif.got.tgz:107843.got - 2010.06.28 00:19:55.
