data_PCOD8091933
_publ_section_title
;
Structure prediction by ZEFSAII (Michael W. Deem and Ramdas Pophale) SiO2 
 PCOD8091933
Probable space group: C 2/M
;
_chemical_formula_sum "Si O2"
_cell_formula_units_Z 48
_cell_length_a 25.761978
_cell_length_b 15.812831
_cell_length_c 10.896850
_cell_angle_alpha 90.000000
_cell_angle_beta 29.029353
_cell_angle_gamma 90.000000
_cell_volume 2154.081743
_symmetry_space_group_name_H-M "C 2/M"
_symmetry_group_IT_number 12
_symmetry_cell_setting 'monoclinic'
loop_
_space_group_symop_operation_xyz
x,y,z
-x,y,-z
-x,-y,-z
x,-y,z
1/2+x,1/2+y,z
1/2-x,1/2+y,-z
1/2-x,1/2-y,-z
1/2+x,1/2-y,z
loop_
_atom_site_type_symbol
_atom_site_label
_atom_site_fract_x
_atom_site_fract_y
_atom_site_fract_z
Si Si1 0.087469 0.592293 0.608217
Si Si2 0.260444 0.094689 0.940940
Si Si3 0.106483 0.818926 0.095940
Si Si4 0.297718 0.753603 0.535313
Si Si5 0.550367 0.597624 0.762982
Si Si6 0.432444 0.146128 0.751892
O O1 0.104027 0.500000 0.637716
O O2 0.163004 0.601718 0.334406
O O3 0.115817 0.668758 0.641924
O O4 0.964930 0.597029 0.810232
O O5 0.148735 0.136035 0.131955
O O6 0.308737 0.138582 0.964371
O O7 0.236504 0.000000 0.029998
O O8 0.202051 0.772268 0.825791
O O9 0.031752 0.743058 0.297893
O O10 0.042329 0.885043 0.145170
O O11 0.250000 0.750000 0.500000
O O12 0.352813 0.663876 0.455439
O O13 0.589552 0.500000 0.667257
O O14 0.500000 0.612499 0.000000
O O15 0.500000 0.106936 0.500000
#
# Coordination Sequence:
#
# PCOD8091933 Si02
#       6
#     8   8   8   8   8   8
#     4   9  18  33  57  85 112 148 193 243 294 351
#     4   9  18  32  53  84 110 143 198 245 282 349
#     4  11  21  37  62  85 119 160 201 247 305 356
#     4  11  22  38  61  89 120 154 202 258 303 358
#     4  11  23  41  65  90 119 163 209 249 300 367
#     4  10  19  34  58  84 116 156 198 239 298 359
#
# _framework density 22.283276000000001
#
# number of rings (size 3 to 8) (size 9 to 14) (size 15 to 20)
#    0.000    1.833    3.333    1.500    0.000    3.333 
#    0.000    1.667    0.000    2.500    0.000    0.000 
#    0.000    0.000    0.000    0.000    0.000    0.000 
#
# Total GULP energy -297383.680637 kJ/mol
# GULP energy per Si atom -12390.986693 kJ/mol
# Density = 2.223256 g / cm^3
# Si number density = 22.283276 Si / 1000 Ang^3
#
#
#
# Elastic Constant Matrix: (Units=GPa)
#
#
# Indices 1 2 3 4 5 6 
#
# 1 139.9968 69.2225 16.3730 0.0000 -32.6250 0.0000
# 2 69.2225 169.3518 11.7395 0.0000 -16.4649 0.0000
# 3 16.3730 11.7395 23.4312 0.0000 -11.1823 0.0000
# 4 0.0000 0.0000 0.0000 25.9240 0.0000 -5.9196
# 5 -32.6250 -16.4649 -11.1823 0.0000 26.8715 0.0000
# 6 0.0000 0.0000 0.0000 -5.9196 0.0000 36.8672
#
#
#
# Elastic Compliance Matrix: (Units=1/GPa)
#
#
# Indices 1 2 3 4 5 6 
#
# 1 0.011754 -0.003609 -0.000811 0.000000 0.011722 0.000000
# 2 -0.003609 0.007437 -0.001399 0.000000 -0.000406 0.000000
# 3 -0.000811 -0.001399 0.053739 0.000000 0.020521 0.000000
# 4 0.000000 0.000000 0.000000 0.040042 0.000000 0.006429
# 5 0.011722 -0.000406 0.020521 0.000000 0.059737 0.000000
# 6 0.000000 0.000000 0.000000 0.006429 0.000000 0.028157
#
#
# Mechanical properties :
#
#
# Convention : Reuss Voigt Hill
#
# Bulk Modulus (GPa) = 16.31481 58.60553 37.46017
# Shear Modulus (GPa) = 21.46532 33.62885 27.54708
#
# Velocity S-wave (km/s) = 3.10706 3.88899 3.51981
# Velocity P-wave (km/s) = 4.49547 6.82078 5.77634
#
# Compressibility (1/GPa) = 0.06129399
#
# Stress axis : x y z
#
# Youngs Moduli (GPa) = 85.07873 134.45724 18.60840
#
# Poissons Ratio (x) = 0.48519 0.01509
# Poissons Ratio (y) = 0.30701 0.02602
# Poissons Ratio (z) = 0.06901 0.18804
#
# Static dielectric constant tensor:
#      x y z
#    x 4.312590 0.000000 -0.345850 
#    y 0.000000 4.194310 0.000000 
#    z -0.345850 0.000000 3.620250 
# 
# 
# High freq. dielectric constant tensor:
#      x y z
#    x 1.891920 0.000000 -0.022500 
#    y 0.000000 1.889310 0.000000 
#    z -0.022500 0.000000 1.825420 
# 
# From -- ./inp_files/143115.got.cif
#   From: 2010.06.25/outbox.cif.g09.slc.cpg/sg12_72_cif.got.tgz:143115.got - 2010.06.28 00:19:55.
