data_PCOD8091896
_publ_section_title
;
Structure prediction by ZEFSAII (Michael W. Deem and Ramdas Pophale) SiO2 
 PCOD8091896
Probable space group: C 2/M
;
_chemical_formula_sum "Si O2"
_cell_formula_units_Z 64
_cell_length_a 15.644609
_cell_length_b 8.897613
_cell_length_c 23.696172
_cell_angle_alpha 90.000000
_cell_angle_beta 79.300848
_cell_angle_gamma 90.000000
_cell_volume 3241.156857
_symmetry_space_group_name_H-M "C 2/M"
_symmetry_group_IT_number 12
_symmetry_cell_setting 'monoclinic'
loop_
_space_group_symop_operation_xyz
x,y,z
-x,y,-z
-x,-y,-z
x,-y,z
1/2+x,1/2+y,z
1/2-x,1/2+y,-z
1/2-x,1/2-y,-z
1/2+x,1/2-y,z
loop_
_atom_site_type_symbol
_atom_site_label
_atom_site_fract_x
_atom_site_fract_y
_atom_site_fract_z
Si Si1 0.911009 0.677859 0.678010
Si Si2 0.803813 0.171625 0.444717
Si Si3 0.446764 0.177563 0.254231
Si Si4 0.863612 0.173918 0.937440
Si Si5 0.308842 0.326137 0.072471
Si Si6 0.039984 0.678649 0.875981
Si Si7 0.981096 0.677308 0.439969
Si Si8 0.723575 0.672285 0.679071
O O1 0.914166 0.500000 0.682083
O O2 0.811628 0.731657 0.698924
O O3 0.974143 0.747185 0.718303
O O4 0.941912 0.725226 0.611587
O O5 0.750000 0.250000 0.500000
O O6 0.896009 0.248216 0.425385
O O7 0.757209 0.186818 0.390031
O O8 0.815410 0.000000 0.461211
O O9 0.458980 0.231850 0.188893
O O10 0.355115 0.228172 0.290094
O O11 0.448482 0.000000 0.257752
O O12 0.787530 0.255010 0.911156
O O13 0.955706 0.250929 0.915295
O O14 0.867060 0.000000 0.919250
O O15 0.845978 0.193029 0.005525
O O16 0.302982 0.500000 0.090984
O O17 0.372180 0.239301 0.106811
O O18 0.036507 0.500000 0.883199
O O19 0.966076 0.500000 0.443875
O O20 0.000000 0.740637 0.500000
O O21 0.703251 0.500000 0.697387
#
# Coordination Sequence:
#
# PCOD8091896 Si02
#       8
#     8   8   8   8   8   8   8   8
#     4   9  18  36  59  79 108 147 185 228 285 346
#     4  11  22  35  54  83 117 147 186 233 287 351
#     4  10  22  40  59  82 113 153 197 241 290 346
#     4  10  21  38  61  90 123 158 200 250 304 359
#     4  10  21  38  61  89 122 161 202 247 303 358
#     4  11  23  37  57  87 122 160 207 250 294 358
#     4  10  19  34  58  83 110 146 187 230 286 351
#     4  10  21  38  60  84 110 146 192 239 287 348
#
# _framework density 19.746034999999999
#
# number of rings (size 3 to 8) (size 9 to 14) (size 15 to 20)
#    0.000    1.875    1.250    2.625    0.000    7.750 
#    0.000    2.500    0.000    0.000    0.000    0.000 
#    0.000    0.000    0.000    0.000    0.000    0.000 
#
# Total GULP energy -396820.648024 kJ/mol
# GULP energy per Si atom -12400.645251 kJ/mol
# Density = 1.970109 g / cm^3
# Si number density = 19.746035 Si / 1000 Ang^3
#
#
#
# Elastic Constant Matrix: (Units=GPa)
#
#
# Indices 1 2 3 4 5 6 
#
# 1 109.3499 7.1160 24.5471 0.0000 23.9877 0.0000
# 2 7.1160 40.4859 23.4259 0.0000 6.2491 0.0000
# 3 24.5471 23.4259 65.3456 0.0000 18.4296 0.0000
# 4 0.0000 0.0000 0.0000 22.7759 0.0000 1.0938
# 5 23.9877 6.2491 18.4296 0.0000 27.5989 0.0000
# 6 0.0000 0.0000 0.0000 1.0938 0.0000 34.1309
#
#
#
# Elastic Compliance Matrix: (Units=1/GPa)
#
#
# Indices 1 2 3 4 5 6 
#
# 1 0.011485 0.000505 -0.002030 0.000000 -0.008741 0.000000
# 2 0.000505 0.031192 -0.011404 0.000000 0.000113 0.000000
# 3 -0.002030 -0.011404 0.023320 0.000000 -0.011226 0.000000
# 4 0.000000 0.000000 0.000000 0.043974 0.000000 -0.001409
# 5 -0.008741 0.000113 -0.011226 0.000000 0.051301 0.000000
# 6 0.000000 0.000000 0.000000 -0.001409 0.000000 0.029344
#
#
# Mechanical properties :
#
#
# Convention : Reuss Voigt Hill
#
# Bulk Modulus (GPa) = 24.91298 36.15106 30.53202
# Shear Modulus (GPa) = 21.75292 27.57398 24.66345
#
# Velocity S-wave (km/s) = 3.32269 3.74094 3.53800
# Velocity P-wave (km/s) = 5.23110 6.08336 5.67326
#
# Compressibility (1/GPa) = 0.04013972
#
# Stress axis : x y z
#
# Youngs Moduli (GPa) = 87.06739 32.05937 42.88147
#
# Poissons Ratio (x) = -0.01620 0.08706
# Poissons Ratio (y) = -0.04399 0.48901
# Poissons Ratio (z) = 0.17678 0.36560
#
# Static dielectric constant tensor:
#      x y z
#    x 3.776930 0.000000 0.230450 
#    y 0.000000 3.437680 0.000000 
#    z 0.230450 0.000000 3.729830 
# 
# 
# High freq. dielectric constant tensor:
#      x y z
#    x 1.785420 0.000000 0.005860 
#    y 0.000000 1.757340 0.000000 
#    z 0.005860 0.000000 1.768710 
# 
# From -- ./inp_files/338707.got.cif
#   From: 2010.06.25/outbox.cif.g09.slc.cpg/sg12_170_cif.got.tgz:338707.got - 2010.06.28 00:19:55.
