data_PCOD8091949
_publ_section_title
;
Structure prediction by ZEFSAII (Michael W. Deem and Ramdas Pophale) SiO2 
 PCOD8091949
Probable space group: C 2/M
;
_chemical_formula_sum "Si O2"
_cell_formula_units_Z 64
_cell_length_a 24.839153
_cell_length_b 8.842151
_cell_length_c 15.115274
_cell_angle_alpha 90.000000
_cell_angle_beta 88.492114
_cell_angle_gamma 90.000000
_cell_volume 3318.641328
_symmetry_space_group_name_H-M "C 2/M"
_symmetry_group_IT_number 12
_symmetry_cell_setting 'monoclinic'
loop_
_space_group_symop_operation_xyz
x,y,z
-x,y,-z
-x,-y,-z
x,-y,z
1/2+x,1/2+y,z
1/2-x,1/2+y,-z
1/2-x,1/2-y,-z
1/2+x,1/2-y,z
loop_
_atom_site_type_symbol
_atom_site_label
_atom_site_fract_x
_atom_site_fract_y
_atom_site_fract_z
Si Si1 0.691987 0.164638 0.587356
Si Si2 0.442726 0.824151 0.819602
Si Si3 0.437197 0.334173 0.995322
Si Si4 0.334193 0.323344 0.238120
Si Si5 0.744924 0.820519 0.098443
Si Si6 0.185392 0.835646 0.423876
Si Si7 0.564986 0.177088 0.827843
Si Si8 0.839933 0.178483 0.767872
O O1 0.694107 0.279820 0.669274
O O2 0.752785 0.138655 0.554788
O O3 0.659912 0.232518 0.503346
O O4 0.666683 0.000000 0.613137
O O5 0.504861 0.775909 0.799121
O O6 0.403062 0.723648 0.762219
O O7 0.433741 0.000000 0.800729
O O8 0.424967 0.787210 0.920443
O O9 0.410245 0.500000 0.978273
O O10 0.414827 0.265969 0.086422
O O11 0.500000 0.358341 0.000000
O O12 0.347088 0.500000 0.234912
O O13 0.296768 0.276021 0.156287
O O14 0.389993 0.228461 0.243265
O O15 0.691702 0.759616 0.150619
O O16 0.739812 0.000000 0.089143
O O17 0.750000 0.750000 0.000000
O O18 0.181006 0.763105 0.326249
O O19 0.156025 0.000000 0.425416
O O20 0.565729 0.000000 0.847498
O O21 0.832118 0.000000 0.780014
#
# Coordination Sequence:
#
# PCOD8091949 Si02
#       8
#     8   8   8   8   8   8   8   8
#     4  10  19  34  58  85 113 144 181 229 280 332
#     4  10  21  36  54  79 109 145 189 235 281 330
#     4   9  17  31  51  74 101 136 183 233 276 320
#     4  11  23  38  58  83 114 150 190 233 280 337
#     4  11  25  41  57  80 115 157 195 232 279 335
#     4   9  19  35  56  84 114 144 180 226 278 334
#     4  10  21  36  55  78 108 146 189 235 282 330
#     4  11  22  38  60  84 115 151 189 232 279 336
#
# _framework density 19.285
#
# number of rings (size 3 to 8) (size 9 to 14) (size 15 to 20)
#    0.000    1.875    1.250    2.625    1.750    6.000 
#    0.000    0.000    0.000    0.750    0.000    5.250 
#    0.000    0.000    0.000    0.000    0.000    0.000 
#
# Total GULP energy -396576.701986 kJ/mol
# GULP energy per Si atom -12393.021937 kJ/mol
# Density = 1.924111 g / cm^3
# Si number density = 19.285000 Si / 1000 Ang^3
#
#
#
# Elastic Constant Matrix: (Units=GPa)
#
#
# Indices 1 2 3 4 5 6 
#
# 1 81.8160 36.0703 29.2694 0.0000 3.2057 0.0000
# 2 36.0703 82.3856 42.0117 0.0000 1.2429 0.0000
# 3 29.2694 42.0117 121.1809 0.0000 10.1304 0.0000
# 4 0.0000 0.0000 0.0000 29.7307 0.0000 -1.0094
# 5 3.2057 1.2429 10.1304 0.0000 15.5529 0.0000
# 6 0.0000 0.0000 0.0000 -1.0094 0.0000 25.9354
#
#
#
# Elastic Compliance Matrix: (Units=1/GPa)
#
#
# Indices 1 2 3 4 5 6 
#
# 1 0.015466 -0.005969 -0.001522 0.000000 -0.001719 0.000000
# 2 -0.005969 0.017125 -0.004742 0.000000 0.002950 0.000000
# 3 -0.001522 -0.004742 0.010794 0.000000 -0.006338 0.000000
# 4 0.000000 0.000000 0.000000 0.033680 0.000000 0.001311
# 5 -0.001719 0.002950 -0.006338 0.000000 0.068543 0.000000
# 6 0.000000 0.000000 0.000000 0.001311 0.000000 0.038608
#
#
# Mechanical properties :
#
#
# Convention : Reuss Voigt Hill
#
# Bulk Modulus (GPa) = 52.86032 55.56505 54.21268
# Shear Modulus (GPa) = 23.25697 26.11254 24.68475
#
# Velocity S-wave (km/s) = 3.47646 3.68371 3.58159
# Velocity P-wave (km/s) = 6.60182 6.85333 6.72875
#
# Compressibility (1/GPa) = 0.01891778
#
# Stress axis : x y z
#
# Youngs Moduli (GPa) = 64.65707 58.39395 92.64729
#
# Poissons Ratio (x) = 0.34856 0.14106
# Poissons Ratio (y) = 0.38595 0.43932
# Poissons Ratio (z) = 0.09844 0.27690
#
# Static dielectric constant tensor:
#      x y z
#    x 3.400470 0.000000 0.108210 
#    y 0.000000 3.791300 0.000000 
#    z 0.108210 0.000000 3.471630 
# 
# 
# High freq. dielectric constant tensor:
#      x y z
#    x 1.725130 0.000000 0.002870 
#    y 0.000000 1.763970 0.000000 
#    z 0.002870 0.000000 1.739100 
# 
# From -- ./inp_files/238638.got.cif
#   From: 2010.06.25/outbox.cif.g09.slc.cpg/sg12_120_cif.got.tgz:238638.got - 2010.06.28 00:19:55.
