data_PCOD8091596
_publ_section_title
;
Structure prediction by ZEFSAII (Michael W. Deem and Ramdas Pophale) SiO2 
 PCOD8091596
Probable space group: C 2/M
;
_chemical_formula_sum "Si O2"
_cell_formula_units_Z 56
_cell_length_a 20.150246
_cell_length_b 9.124287
_cell_length_c 18.945143
_cell_angle_alpha 90.000000
_cell_angle_beta 120.335777
_cell_angle_gamma 90.000000
_cell_volume 3006.272904
_symmetry_space_group_name_H-M "C 2/M"
_symmetry_group_IT_number 12
_symmetry_cell_setting 'monoclinic'
loop_
_space_group_symop_operation_xyz
x,y,z
-x,y,-z
-x,-y,-z
x,-y,z
1/2+x,1/2+y,z
1/2-x,1/2+y,-z
1/2-x,1/2-y,-z
1/2+x,1/2-y,z
loop_
_atom_site_type_symbol
_atom_site_label
_atom_site_fract_x
_atom_site_fract_y
_atom_site_fract_z
Si Si1 0.063939 0.329407 0.476506
Si Si2 0.020383 0.826100 0.310752
Si Si3 0.416897 0.674719 0.931589
Si Si4 0.696641 0.172703 0.648507
Si Si5 0.632550 0.325490 0.248070
Si Si6 0.633657 0.829670 0.761556
Si Si7 0.272238 0.669641 0.941124
O O1 0.058787 0.500000 0.452954
O O2 0.147681 0.287541 0.552731
O O3 0.000000 0.290935 0.500000
O O4 0.051626 0.232275 0.401495
O O5 0.937176 0.762776 0.246538
O O6 0.076786 0.769926 0.279641
O O7 0.016055 0.000000 0.311485
O O8 0.416756 0.500000 0.929769
O O9 0.397197 0.735624 0.843079
O O10 0.352669 0.730062 0.952726
O O11 0.500000 0.735746 0.000000
O O12 0.782420 0.238942 0.689693
O O13 0.652651 0.232086 0.693927
O O14 0.703219 0.000000 0.661853
O O15 0.634852 0.500000 0.247121
O O16 0.707244 0.801207 0.848765
O O17 0.610091 0.000000 0.747038
O O18 0.280175 0.500000 0.963716
O O19 0.250000 0.750000 0.000000
#
# Coordination Sequence:
#
# PCOD8091596 Si02
#       7
#     8   8   8   8   8   8   8
#     4  10  19  34  57  80 103 141 187 224 260 318
#     4  11  23  34  52  84 116 139 168 227 285 320
#     4   9  17  31  53  79 107 141 179 218 261 316
#     4   9  16  32  57  76  98 140 190 225 251 306
#     4   9  18  33  51  77 109 141 179 221 268 317
#     4  10  19  36  58  78 104 146 191 220 253 316
#     4  10  21  35  57  85 112 141 179 226 268 315
#
# _framework density 18.627717000000001
#
# number of rings (size 3 to 8) (size 9 to 14) (size 15 to 20)
#    0.000    2.286    2.857    0.429    2.000    1.429 
#    0.000    0.000    0.000    4.714    0.000    0.000 
#    0.000    0.000    0.000    0.000    0.000    0.000 
#
# Total GULP energy -347183.549463 kJ/mol
# GULP energy per Si atom -12399.412481 kJ/mol
# Density = 1.858532 g / cm^3
# Si number density = 18.627717 Si / 1000 Ang^3
#
#
#
# Elastic Constant Matrix: (Units=GPa)
#
#
# Indices 1 2 3 4 5 6 
#
# 1 176.3529 38.7103 76.7167 0.0000 6.6055 0.0000
# 2 38.7103 34.7473 32.6891 0.0000 -2.5563 0.0000
# 3 76.7167 32.6891 107.5325 0.0000 4.5139 0.0000
# 4 0.0000 0.0000 0.0000 22.7928 0.0000 -2.2947
# 5 6.6055 -2.5563 4.5139 0.0000 37.7245 0.0000
# 6 0.0000 0.0000 0.0000 -2.2947 0.0000 22.0588
#
#
#
# Elastic Compliance Matrix: (Units=1/GPa)
#
#
# Indices 1 2 3 4 5 6 
#
# 1 0.008996 -0.005805 -0.004594 0.000000 -0.001419 0.000000
# 2 -0.005805 0.044731 -0.009675 0.000000 0.005205 0.000000
# 3 -0.004594 -0.009675 0.015590 0.000000 -0.001717 0.000000
# 4 0.000000 0.000000 0.000000 0.044338 0.000000 0.004612
# 5 -0.001419 0.005205 -0.001717 0.000000 0.027315 0.000000
# 6 0.000000 0.000000 0.000000 0.004612 0.000000 0.045813
#
#
# Mechanical properties :
#
#
# Convention : Reuss Voigt Hill
#
# Bulk Modulus (GPa) = 34.28214 68.31833 51.30023
# Shear Modulus (GPa) = 21.12789 27.88299 24.50544
#
# Velocity S-wave (km/s) = 3.37147 3.87312 3.63097
# Velocity P-wave (km/s) = 5.79651 7.53370 6.72146
#
# Compressibility (1/GPa) = 0.02916971
#
# Stress axis : x y z
#
# Youngs Moduli (GPa) = 111.15743 22.35585 64.14281
#
# Poissons Ratio (x) = 0.12977 0.29467
# Poissons Ratio (y) = 0.64525 0.62059
# Poissons Ratio (z) = 0.51066 0.21629
#
# Static dielectric constant tensor:
#      x y z
#    x 3.687330 0.000000 0.157770 
#    y 0.000000 3.039340 0.000000 
#    z 0.157770 0.000000 3.480630 
# 
# 
# High freq. dielectric constant tensor:
#      x y z
#    x 1.736680 0.000000 0.007550 
#    y 0.000000 1.669220 0.000000 
#    z 0.007550 0.000000 1.736730 
# 
# From -- ./inp_files/275647.got.cif
#   From: 2010.06.25/outbox.cif.g09.slc.cpg/sg12_138_cif.got.tgz:275647.got - 2010.06.28 00:19:55.
