data_PCOD8091362
_publ_section_title
;
Structure prediction by ZEFSAII (Michael W. Deem and Ramdas Pophale) SiO2 
 PCOD8091362
Probable space group: C 2/M
;
_chemical_formula_sum "Si O2"
_cell_formula_units_Z 56
_cell_length_a 14.472375
_cell_length_b 8.865012
_cell_length_c 26.083092
_cell_angle_alpha 90.000000
_cell_angle_beta 64.946902
_cell_angle_gamma 90.000000
_cell_volume 3031.558931
_symmetry_space_group_name_H-M "C 2/M"
_symmetry_group_IT_number 12
_symmetry_cell_setting 'monoclinic'
loop_
_space_group_symop_operation_xyz
x,y,z
-x,y,-z
-x,-y,-z
x,-y,z
1/2+x,1/2+y,z
1/2-x,1/2+y,-z
1/2-x,1/2-y,-z
1/2+x,1/2-y,z
loop_
_atom_site_type_symbol
_atom_site_label
_atom_site_fract_x
_atom_site_fract_y
_atom_site_fract_z
Si Si1 0.323840 0.677861 0.234787
Si Si2 0.320146 0.176463 0.440932
Si Si3 0.765301 0.677162 0.850349
Si Si4 0.005928 0.171574 0.440176
Si Si5 0.474257 0.820175 0.849736
Si Si6 0.764035 0.827743 0.646480
Si Si7 0.954266 0.178029 0.064687
O O1 0.343262 0.500000 0.227604
O O2 0.252321 0.731118 0.204180
O O3 0.433198 0.759069 0.206585
O O4 0.267145 0.720627 0.299964
O O5 0.250000 0.250000 0.500000
O O6 0.436789 0.220142 0.422186
O O7 0.291117 0.234025 0.391327
O O8 0.302062 0.000000 0.448550
O O9 0.778423 0.500000 0.848524
O O10 0.868585 0.745754 0.850440
O O11 0.665065 0.725247 0.906306
O O12 0.116464 0.185817 0.390437
O O13 0.000000 0.228818 0.500000
O O14 0.965157 0.000000 0.447359
O O15 0.482859 0.761417 0.905726
O O16 0.476738 0.000000 0.849091
O O17 0.732558 0.000000 0.666090
O O18 0.966500 0.000000 0.070801
O O19 0.000000 0.230720 0.000000
#
# Coordination Sequence:
#
# PCOD8091362 Si02
#       7
#     8   8   8   8   8   8   8
#     4  10  21  38  57  78 106 139 182 227 270 327
#     4  11  22  37  57  81 109 142 180 220 270 329
#     4   8  17  34  54  76 106 144 179 220 271 318
#     4  10  20  38  58  79 110 143 174 216 270 325
#     4  10  19  34  56  79 108 144 182 226 275 320
#     4  10  22  39  57  79 111 144 175 221 278 327
#     4   9  18  34  54  79 114 151 185 222 267 319
#
# _framework density 18.472345000000001
#
# number of rings (size 3 to 8) (size 9 to 14) (size 15 to 20)
#    0.000    2.286    1.429    2.143    0.000    4.000 
#    0.000   11.429    0.000    0.000    0.000    0.000 
#    0.000    0.000    0.000    0.000    0.000    0.000 
#
# Total GULP energy -347203.910705 kJ/mol
# GULP energy per Si atom -12400.139668 kJ/mol
# Density = 1.843030 g / cm^3
# Si number density = 18.472345 Si / 1000 Ang^3
#
#
#
# Elastic Constant Matrix: (Units=GPa)
#
#
# Indices 1 2 3 4 5 6 
#
# 1 151.1376 34.1921 62.6311 0.0000 8.1673 0.0000
# 2 34.1921 49.0383 37.3028 0.0000 3.4923 0.0000
# 3 62.6311 37.3028 142.7503 0.0000 1.6277 0.0000
# 4 0.0000 0.0000 0.0000 31.7455 0.0000 1.0956
# 5 8.1673 3.4923 1.6277 0.0000 19.1135 0.0000
# 6 0.0000 0.0000 0.0000 1.0956 0.0000 24.6834
#
#
#
# Elastic Compliance Matrix: (Units=1/GPa)
#
#
# Indices 1 2 3 4 5 6 
#
# 1 0.008801 -0.003772 -0.002843 0.000000 -0.002829 0.000000
# 2 -0.003772 0.027391 -0.005469 0.000000 -0.002927 0.000000
# 3 -0.002843 -0.005469 0.009666 0.000000 0.001391 0.000000
# 4 0.000000 0.000000 0.000000 0.031549 0.000000 -0.001400
# 5 -0.002829 -0.002927 0.001391 0.000000 0.053944 0.000000
# 6 0.000000 0.000000 0.000000 -0.001400 0.000000 0.040575
#
#
# Mechanical properties :
#
#
# Convention : Reuss Voigt Hill
#
# Bulk Modulus (GPa) = 46.10710 67.90870 57.00790
# Shear Modulus (GPa) = 24.59099 29.02848 26.80974
#
# Velocity S-wave (km/s) = 3.65256 3.96846 3.81378
# Velocity P-wave (km/s) = 6.54237 7.60529 7.09376
#
# Compressibility (1/GPa) = 0.02168863
#
# Stress axis : x y z
#
# Youngs Moduli (GPa) = 113.62244 36.50795 103.45358
#
# Poissons Ratio (x) = 0.13771 0.29417
# Poissons Ratio (y) = 0.42860 0.56583
# Poissons Ratio (z) = 0.32308 0.19968
#
# Static dielectric constant tensor:
#      x y z
#    x 3.703090 0.000000 0.086190 
#    y 0.000000 3.331700 0.000000 
#    z 0.086190 0.000000 3.392340 
# 
# 
# High freq. dielectric constant tensor:
#      x y z
#    x 1.725540 0.000000 0.000470 
#    y 0.000000 1.703840 0.000000 
#    z 0.000470 0.000000 1.718300 
# 
# From -- ./inp_files/337856.got.cif
#   From: 2010.06.25/outbox.cif.g09.slc.cpg/sg12_169_cif.got.tgz:337856.got - 2010.06.28 00:19:55.
