data_PCOD8091261
_publ_section_title
;
Structure prediction by ZEFSAII (Michael W. Deem and Ramdas Pophale) SiO2 
 PCOD8091261
Probable space group: C 2/M
;
_chemical_formula_sum "Si O2"
_cell_formula_units_Z 56
_cell_length_a 27.251646
_cell_length_b 10.287402
_cell_length_c 29.439187
_cell_angle_alpha 90.000000
_cell_angle_beta 20.579341
_cell_angle_gamma 90.000000
_cell_volume 2901.046386
_symmetry_space_group_name_H-M "C 2/M"
_symmetry_group_IT_number 12
_symmetry_cell_setting 'monoclinic'
loop_
_space_group_symop_operation_xyz
x,y,z
-x,y,-z
-x,-y,-z
x,-y,z
1/2+x,1/2+y,z
1/2-x,1/2+y,-z
1/2-x,1/2-y,-z
1/2+x,1/2-y,z
loop_
_atom_site_type_symbol
_atom_site_label
_atom_site_fract_x
_atom_site_fract_y
_atom_site_fract_z
Si Si1 0.764153 0.649312 0.873317
Si Si2 0.966465 0.142824 0.157101
Si Si3 0.945223 0.356327 0.338673
Si Si4 0.212556 0.776735 0.604508
Si Si5 0.708863 0.347955 0.225824
Si Si6 0.188654 0.349764 0.763755
Si Si7 0.404608 0.352710 0.505605
O O1 0.785612 0.500000 0.837009
O O2 0.722922 0.750830 0.869464
O O3 0.906161 0.700829 0.773780
O O4 0.633240 0.654789 0.021679
O O5 0.881615 0.147362 0.277724
O O6 0.929558 0.254933 0.153052
O O7 0.935138 0.000000 0.162973
O O8 0.970141 0.500000 0.298224
O O9 0.891938 0.271505 0.343325
O O10 0.832078 0.364002 0.477487
O O11 0.296449 0.662676 0.557625
O O12 0.709783 0.500000 0.208770
O O13 0.799477 0.334818 0.192835
O O14 0.553953 0.286232 0.367810
O O15 0.153594 0.500000 0.781017
O O16 0.333499 0.305140 0.614065
O O17 0.446873 0.500000 0.474884
#
# Coordination Sequence:
#
# PCOD8091261 Si02
#       7
#     8   8   8   8   8   8   8
#     4  10  22  39  55  78 115 152 183 222 276 324
#     4  10  22  39  57  79 112 149 184 225 272 328
#     4  10  20  35  56  82 110 142 181 225 274 327
#     4  10  19  34  58  82 107 139 183 227 269 322
#     4  10  19  34  55  82 112 145 186 229 272 324
#     4   9  19  34  56  82 111 144 183 230 277 324
#     4   9  16  30  53  81 111 141 176 223 278 326
#
# _framework density 19.303380000000001
#
# number of rings (size 3 to 8) (size 9 to 14) (size 15 to 20)
#    0.000    2.286    1.429    1.286    0.000    4.571 
#    0.000    3.571    0.000    2.571    0.000    0.000 
#    0.000    0.000    0.000    0.000    0.000    0.000 
#
# Total GULP energy -346945.782688 kJ/mol
# GULP energy per Si atom -12390.920810 kJ/mol
# Density = 1.925944 g / cm^3
# Si number density = 19.303380 Si / 1000 Ang^3
#
#
#
# Elastic Constant Matrix: (Units=GPa)
#
#
# Indices 1 2 3 4 5 6 
#
# 1 86.1422 38.1706 40.2585 0.0091 -7.8927 0.0024
# 2 38.1706 77.2573 35.0713 0.0290 -7.1936 0.0083
# 3 40.2585 35.0713 113.1948 0.0856 -10.2268 0.0029
# 4 0.0091 0.0290 0.0856 24.2363 -0.0060 -1.3258
# 5 -7.8927 -7.1936 -10.2268 -0.0060 17.8058 -0.0059
# 6 0.0024 0.0083 0.0029 -1.3258 -0.0059 19.8836
#
#
#
# Elastic Compliance Matrix: (Units=1/GPa)
#
#
# Indices 1 2 3 4 5 6 
#
# 1 0.016276 -0.006140 -0.003648 0.000015 0.002639 0.000003
# 2 -0.006140 0.017599 -0.003030 -0.000008 0.002648 -0.000006
# 3 -0.003648 -0.003030 0.011406 -0.000034 0.003710 -0.000001
# 4 0.000015 -0.000008 -0.000034 0.041412 -0.000001 0.002761
# 5 0.002639 0.002648 0.003710 -0.000001 0.060532 0.000016
# 6 0.000003 -0.000006 -0.000001 0.002761 0.000016 0.050477
#
#
# Mechanical properties :
#
#
# Convention : Reuss Voigt Hill
#
# Bulk Modulus (GPa) = 50.90166 55.95501 53.42833
# Shear Modulus (GPa) = 21.75000 23.25806 22.50403
#
# Velocity S-wave (km/s) = 3.36034 3.47489 3.41810
# Velocity P-wave (km/s) = 6.44069 6.71937 6.58150
#
# Compressibility (1/GPa) = 0.01964573
#
# Stress axis : x y z
#
# Youngs Moduli (GPa) = 61.44029 56.82054 87.67550
#
# Poissons Ratio (x) = 0.34886 0.31984
# Poissons Ratio (y) = 0.37723 0.26564
# Poissons Ratio (z) = 0.22413 0.17216
#
# Static dielectric constant tensor:
#      x y z
#    x 3.328850 -0.000020 -0.005180 
#    y -0.000020 3.438620 0.000030 
#    z -0.005180 0.000030 3.713070 
# 
# 
# High freq. dielectric constant tensor:
#      x y z
#    x 1.732610 0.000000 -0.002360 
#    y 0.000000 1.738550 0.000000 
#    z -0.002360 0.000000 1.764320 
# 
# From -- ./inp_files/383817.got.cif
#   From: 2010.06.25/outbox.cif.g09.slc.cpg/sg12_192_cif.got.tgz:383817.got - 2010.06.28 00:19:55.
