data_PCOD8091084
_publ_section_title
;
Structure prediction by ZEFSAII (Michael W. Deem and Ramdas Pophale) SiO2 
 PCOD8091084
Probable space group: C 2/M
;
_chemical_formula_sum "Si O2"
_cell_formula_units_Z 64
_cell_length_a 18.365379
_cell_length_b 10.192827
_cell_length_c 35.331240
_cell_angle_alpha 90.000000
_cell_angle_beta 148.843233
_cell_angle_gamma 90.000000
_cell_volume 3421.876043
_symmetry_space_group_name_H-M "C 2/M"
_symmetry_group_IT_number 12
_symmetry_cell_setting 'monoclinic'
loop_
_space_group_symop_operation_xyz
x,y,z
-x,y,-z
-x,-y,-z
x,-y,z
1/2+x,1/2+y,z
1/2-x,1/2+y,-z
1/2-x,1/2-y,-z
1/2+x,1/2-y,z
loop_
_atom_site_type_symbol
_atom_site_label
_atom_site_fract_x
_atom_site_fract_y
_atom_site_fract_z
Si Si1 0.449240 0.153399 0.417014
Si Si2 0.834707 0.148911 0.304530
Si Si3 0.543639 0.147029 0.142625
Si Si4 0.976793 0.148723 0.289664
Si Si5 0.787491 0.351247 0.075143
Si Si6 0.214050 0.651394 0.579607
Si Si7 0.205704 0.645207 0.836085
Si Si8 0.991251 0.273404 0.954645
O O1 0.397657 0.247912 0.361454
O O2 0.602819 0.204645 0.499096
O O3 0.340970 0.173049 0.402850
O O4 0.452295 0.000000 0.405728
O O5 0.685594 0.208124 0.223493
O O6 0.943311 0.143890 0.318683
O O7 0.820511 0.000000 0.314956
O O8 0.403402 0.215026 0.098201
O O9 0.556000 0.140450 0.102341
O O10 0.538378 0.000000 0.155487
O O11 0.866782 0.240255 0.219407
O O12 0.131339 0.215037 0.354593
O O13 0.968957 0.000000 0.269129
O O14 0.756784 0.500000 0.049248
O O15 0.846733 0.342694 0.144117
O O16 0.641206 0.276516 0.007222
O O17 0.231597 0.500000 0.578014
O O18 0.168188 0.500000 0.803601
O O19 0.375762 0.659110 0.909503
O O20 0.000000 0.347327 0.000000
#
# Coordination Sequence:
#
# PCOD8091084 Si02
#       8
#     8   8   8   8   8   8   8   8
#     4   9  18  36  59  83 107 138 181 222 262 308
#     4  10  21  35  52  77 113 149 174 210 269 322
#     4  10  20  35  51  74 109 146 177 214 270 324
#     4  10  20  36  55  76 108 147 178 211 264 322
#     4   9  19  34  53  74 102 139 176 221 274 319
#     4   8  17  35  59  81 107 142 178 220 265 310
#     4  10  20  34  54  80 105 136 179 223 267 315
#     4  10  19  34  55  76 101 136 180 226 267 313
#
# _framework density 18.703191
#
# number of rings (size 3 to 8) (size 9 to 14) (size 15 to 20)
#    0.000    2.500    1.250    1.500    1.750    2.750 
#    0.000    3.750    0.000    2.250    0.000    0.000 
#    0.000    0.000    0.000    0.000    0.000    0.000 
#
# Total GULP energy -396445.281524 kJ/mol
# GULP energy per Si atom -12388.915048 kJ/mol
# Density = 1.866062 g / cm^3
# Si number density = 18.703191 Si / 1000 Ang^3
#
#
#
# Elastic Constant Matrix: (Units=GPa)
#
#
# Indices 1 2 3 4 5 6 
#
# 1 92.3901 22.8628 38.2384 -0.0001 8.3506 0.0000
# 2 22.8628 68.7287 44.0334 0.0000 -7.1531 0.0000
# 3 38.2384 44.0334 100.0785 -0.0002 0.5166 0.0000
# 4 -0.0001 0.0000 -0.0002 18.0490 0.0000 -6.2793
# 5 8.3506 -7.1531 0.5166 0.0000 35.8730 0.0000
# 6 0.0000 0.0000 0.0000 -6.2793 0.0000 20.0985
#
#
#
# Elastic Compliance Matrix: (Units=1/GPa)
#
#
# Indices 1 2 3 4 5 6 
#
# 1 0.013390 -0.002160 -0.004148 0.000000 -0.003488 0.000000
# 2 -0.002160 0.021253 -0.008551 0.000000 0.004864 0.000000
# 3 -0.004148 -0.008551 0.015344 0.000000 -0.000961 0.000000
# 4 0.000000 0.000000 0.000000 0.062161 0.000000 0.019421
# 5 -0.003488 0.004864 -0.000961 0.000000 0.029672 0.000000
# 6 0.000000 0.000000 0.000000 0.019421 0.000000 0.055823
#
#
# Mechanical properties :
#
#
# Convention : Reuss Voigt Hill
#
# Bulk Modulus (GPa) = 49.33352 52.38515 50.85933
# Shear Modulus (GPa) = 21.35683 25.20828 23.28256
#
# Velocity S-wave (km/s) = 3.38284 3.67523 3.53206
# Velocity P-wave (km/s) = 6.45697 6.78817 6.62464
#
# Compressibility (1/GPa) = 0.02027019
#
# Stress axis : x y z
#
# Youngs Moduli (GPa) = 74.68208 47.05184 65.17081
#
# Poissons Ratio (x) = 0.10162 0.27032
# Poissons Ratio (y) = 0.16130 0.55728
# Poissons Ratio (z) = 0.30977 0.40234
#
# Static dielectric constant tensor:
#      x y z
#    x 4.010940 0.000000 0.485860 
#    y 0.000000 3.127340 0.000000 
#    z 0.485860 0.000000 3.678150 
# 
# 
# High freq. dielectric constant tensor:
#      x y z
#    x 1.737130 0.000000 0.010950 
#    y 0.000000 1.689260 0.000000 
#    z 0.010950 0.000000 1.728420 
# 
# From -- ./inp_files/379093.got.cif
#   From: 2010.06.25/outbox.cif.g09.slc.cpg/sg12_190_cif.got.tgz:379093.got - 2010.06.28 00:19:55.
