data_PCOD8091732
_publ_section_title
;
Structure prediction by ZEFSAII (Michael W. Deem and Ramdas Pophale) SiO2 
 PCOD8091732
Probable space group: C 2/M
;
_chemical_formula_sum "Si O2"
_cell_formula_units_Z 64
_cell_length_a 15.486020
_cell_length_b 9.281391
_cell_length_c 33.352096
_cell_angle_alpha 90.000000
_cell_angle_beta 45.488007
_cell_angle_gamma 90.000000
_cell_volume 3418.445964
_symmetry_space_group_name_H-M "C 2/M"
_symmetry_group_IT_number 12
_symmetry_cell_setting 'monoclinic'
loop_
_space_group_symop_operation_xyz
x,y,z
-x,y,-z
-x,-y,-z
x,-y,z
1/2+x,1/2+y,z
1/2-x,1/2+y,-z
1/2-x,1/2-y,-z
1/2+x,1/2-y,z
loop_
_atom_site_type_symbol
_atom_site_label
_atom_site_fract_x
_atom_site_fract_y
_atom_site_fract_z
Si Si1 0.300550 0.332184 0.825361
Si Si2 0.546066 0.833700 0.941413
Si Si3 0.582691 0.668873 0.367791
Si Si4 0.633229 0.334933 0.052311
Si Si5 0.266244 0.171003 0.239101
Si Si6 0.488610 0.665957 0.825728
Si Si7 0.378766 0.831479 0.562875
Si Si8 0.807331 0.831559 0.444331
O O1 0.317685 0.500000 0.813224
O O2 0.188222 0.302885 0.891563
O O3 0.281635 0.263329 0.787535
O O4 0.421990 0.274788 0.807305
O O5 0.484813 0.730830 0.929401
O O6 0.514057 0.000000 0.942264
O O7 0.500000 0.789822 0.000000
O O8 0.591182 0.500000 0.373569
O O9 0.673165 0.719017 0.303566
O O10 0.623978 0.747961 0.394556
O O11 0.448462 0.711010 0.396225
O O12 0.649732 0.500000 0.033966
O O13 0.611630 0.320882 0.106704
O O14 0.750000 0.250000 0.000000
O O15 0.396871 0.234750 0.205202
O O16 0.280539 0.000000 0.232210
O O17 0.530686 0.500000 0.807882
O O18 0.500000 0.786447 0.500000
O O19 0.261514 0.787680 0.574391
O O20 0.378603 0.000000 0.572797
O O21 0.750000 0.750000 0.500000
O O22 0.788769 0.000000 0.458231
#
# Coordination Sequence:
#
# PCOD8091732 Si02
#       8
#     8   8   8   8   8   8   8   8
#     4   9  18  35  59  81 108 149 189 228 281 340
#     4  10  19  34  57  83 112 147 188 233 287 348
#     4  10  22  37  56  84 115 150 190 232 279 339
#     4  11  22  35  54  83 118 149 189 239 290 347
#     4  10  21  39  59  81 112 150 194 234 278 338
#     4  10  21  38  60  85 111 148 194 237 282 339
#     4  10  20  35  57  86 116 148 188 233 281 335
#     4  10  20  35  56  83 115 150 187 229 280 334
#
# _framework density 18.721957
#
# number of rings (size 3 to 8) (size 9 to 14) (size 15 to 20)
#    0.000    2.000    2.500    1.125    0.000    5.000 
#    0.000    3.750    0.000    0.000    0.000    0.000 
#    0.000    0.000    0.000    0.000    0.000    0.000 
#
# Total GULP energy -396779.266153 kJ/mol
# GULP energy per Si atom -12399.352067 kJ/mol
# Density = 1.867935 g / cm^3
# Si number density = 18.721957 Si / 1000 Ang^3
#
#
#
# Elastic Constant Matrix: (Units=GPa)
#
#
# Indices 1 2 3 4 5 6 
#
# 1 152.3511 34.0376 57.1065 -0.0004 12.4470 -0.0005
# 2 34.0376 41.1840 30.6776 -0.0006 3.0701 -0.0009
# 3 57.1065 30.6776 119.8425 0.0000 10.6371 0.0003
# 4 -0.0004 -0.0006 0.0000 20.6347 0.0000 4.0863
# 5 12.4470 3.0701 10.6371 0.0000 29.6429 0.0002
# 6 -0.0005 -0.0009 0.0003 4.0863 0.0002 27.4001
#
#
#
# Elastic Compliance Matrix: (Units=1/GPa)
#
#
# Indices 1 2 3 4 5 6 
#
# 1 0.008926 -0.005177 -0.002730 0.000000 -0.002232 0.000000
# 2 -0.005177 0.033009 -0.006065 0.000001 0.000932 0.000001
# 3 -0.002730 -0.006065 0.011403 0.000000 -0.002318 0.000000
# 4 0.000000 0.000001 0.000000 0.049937 0.000000 -0.007447
# 5 -0.002232 0.000932 -0.002318 0.000000 0.035407 0.000000
# 6 0.000000 0.000001 0.000000 -0.007447 0.000000 0.037607
#
#
# Mechanical properties :
#
#
# Convention : Reuss Voigt Hill
#
# Bulk Modulus (GPa) = 39.38070 61.89121 50.63596
# Shear Modulus (GPa) = 23.50742 28.30596 25.90669
#
# Velocity S-wave (km/s) = 3.54730 3.89255 3.72393
# Velocity P-wave (km/s) = 6.15288 7.30291 6.75242
#
# Compressibility (1/GPa) = 0.02539315
#
# Stress axis : x y z
#
# Youngs Moduli (GPa) = 112.03059 30.29506 87.69261
#
# Poissons Ratio (x) = 0.15685 0.23940
# Poissons Ratio (y) = 0.58001 0.53188
# Poissons Ratio (z) = 0.30584 0.18375
#
# Static dielectric constant tensor:
#      x y z
#    x 3.922490 0.000000 0.125840 
#    y 0.000000 3.384680 0.000000 
#    z 0.125840 0.000000 3.595140 
# 
# 
# High freq. dielectric constant tensor:
#      x y z
#    x 1.743080 0.000000 0.001730 
#    y 0.000000 1.707000 0.000000 
#    z 0.001730 0.000000 1.727320 
# 
# From -- ./inp_files/359711.got.cif
#   From: 2010.06.25/outbox.cif.g09.slc.cpg/sg12_180_cif.got.tgz:359711.got - 2010.06.28 00:19:55.
