data_PCOD8091343
_publ_section_title
;
Structure prediction by ZEFSAII (Michael W. Deem and Ramdas Pophale) SiO2 
 PCOD8091343
Probable space group: C 2/M
;
_chemical_formula_sum "Si O2"
_cell_formula_units_Z 64
_cell_length_a 28.305972
_cell_length_b 19.784528
_cell_length_c 15.023670
_cell_angle_alpha 90.000000
_cell_angle_beta 156.239373
_cell_angle_gamma 90.000000
_cell_volume 3389.961785
_symmetry_space_group_name_H-M "C 2/M"
_symmetry_group_IT_number 12
_symmetry_cell_setting 'monoclinic'
loop_
_space_group_symop_operation_xyz
x,y,z
-x,y,-z
-x,-y,-z
x,-y,z
1/2+x,1/2+y,z
1/2-x,1/2+y,-z
1/2-x,1/2-y,-z
1/2+x,1/2-y,z
loop_
_atom_site_type_symbol
_atom_site_label
_atom_site_fract_x
_atom_site_fract_y
_atom_site_fract_z
Si Si1 0.137489 0.674781 0.736244
Si Si2 0.977379 0.820162 0.217560
Si Si3 0.775812 0.077019 0.860056
Si Si4 0.130725 0.577771 0.234294
Si Si5 0.778286 0.923628 0.659806
Si Si6 0.751198 0.174582 0.307968
Si Si7 0.191116 0.712531 0.016231
Si Si8 0.404761 0.709114 0.900358
O O1 0.173085 0.608920 0.741958
O O2 0.192244 0.741199 0.784420
O O3 0.000000 0.682649 0.500000
O O4 0.185808 0.665109 0.920454
O O5 0.111296 0.830843 0.474025
O O6 0.901217 0.888469 0.096013
O O7 0.921987 0.761847 0.183734
O O8 0.973513 0.796466 0.110046
O O9 0.735155 0.085295 0.687106
O O10 0.790262 0.000000 0.912941
O O11 0.132217 0.500000 0.208786
O O12 0.172233 0.587557 0.407816
O O13 0.215372 0.613528 0.309755
O O14 0.000000 0.607832 0.000000
O O15 0.872668 0.864656 0.804326
O O16 0.831325 0.000000 0.738521
O O17 0.690840 0.168773 0.106497
O O18 0.711466 0.244717 0.287446
O O19 0.500000 0.743984 0.000000
#
# Coordination Sequence:
#
# PCOD8091343 Si02
#       8
#     8   8   8   8   8   8   8   8
#     4  10  19  34  56  79 105 134 167 210 261 315
#     4   9  19  34  52  75 104 137 170 208 259 310
#     4   9  19  36  56  78 102 129 170 220 260 301
#     4  10  22  37  51  72 105 144 180 212 255 312
#     4   9  19  36  55  74 103 142 174 207 259 312
#     4  11  21  34  54  77 105 140 176 214 257 306
#     4   9  20  35  52  78 107 136 168 207 258 311
#     4  10  20  32  50  80 107 131 173 222 259 295
#
# _framework density 18.879269000000001
#
# number of rings (size 3 to 8) (size 9 to 14) (size 15 to 20)
#    0.000    2.375    0.000    2.625    0.000    6.000 
#    0.000    3.125    0.000    0.750    0.000    0.000 
#    0.000    0.000    0.000    0.000    0.000    0.000 
#
# Total GULP energy -396705.073562 kJ/mol
# GULP energy per Si atom -12397.033549 kJ/mol
# Density = 1.883630 g / cm^3
# Si number density = 18.879269 Si / 1000 Ang^3
#
#
#
# Elastic Constant Matrix: (Units=GPa)
#
#
# Indices 1 2 3 4 5 6 
#
# 1 102.9125 42.3925 44.9258 0.0000 4.6438 0.0000
# 2 42.3925 69.0575 30.0909 0.0000 -8.6844 0.0000
# 3 44.9258 30.0909 91.4532 0.0000 8.2660 0.0000
# 4 0.0000 0.0000 0.0000 17.3984 0.0000 -3.7706
# 5 4.6438 -8.6844 8.2660 0.0000 34.5786 0.0000
# 6 0.0000 0.0000 0.0000 -3.7706 0.0000 26.3731
#
#
#
# Elastic Compliance Matrix: (Units=1/GPa)
#
#
# Indices 1 2 3 4 5 6 
#
# 1 0.014958 -0.007520 -0.004621 0.000000 -0.002793 0.000000
# 2 -0.007520 0.021860 -0.004176 0.000000 0.007498 0.000000
# 3 -0.004621 -0.004176 0.014940 0.000000 -0.004000 0.000000
# 4 0.000000 0.000000 0.000000 0.059314 0.000000 0.008480
# 5 -0.002793 0.007498 -0.004000 0.000000 0.032134 0.000000
# 6 0.000000 0.000000 0.000000 0.008480 0.000000 0.039130
#
#
# Mechanical properties :
#
#
# Convention : Reuss Voigt Hill
#
# Bulk Modulus (GPa) = 52.29219 55.36016 53.82617
# Shear Modulus (GPa) = 22.58912 25.40427 23.99670
#
# Velocity S-wave (km/s) = 3.46280 3.67225 3.56906
# Velocity P-wave (km/s) = 6.61410 6.88240 6.74958
#
# Compressibility (1/GPa) = 0.01912332
#
# Stress axis : x y z
#
# Youngs Moduli (GPa) = 66.85341 45.74653 66.93279
#
# Poissons Ratio (x) = 0.34401 0.30932
# Poissons Ratio (y) = 0.50273 0.27952
# Poissons Ratio (z) = 0.30896 0.19104
#
# Static dielectric constant tensor:
#      x y z
#    x 3.573970 0.000000 -0.049790 
#    y 0.000000 3.418570 0.000000 
#    z -0.049790 0.000000 3.295450 
# 
# 
# High freq. dielectric constant tensor:
#      x y z
#    x 1.741710 0.000000 -0.003030 
#    y 0.000000 1.719460 0.000000 
#    z -0.003030 0.000000 1.724310 
# 
# From -- ./inp_files/251943.got.cif
#   From: 2010.06.25/outbox.cif.g09.slc.cpg/sg12_126_cif.got.tgz:251943.got - 2010.06.28 00:19:55.
