data_PCOD8091877
_publ_section_title
;
Structure prediction by ZEFSAII (Michael W. Deem and Ramdas Pophale) SiO2 
 PCOD8091877
Probable space group: C 2/M
;
_chemical_formula_sum "Si O2"
_cell_formula_units_Z 56
_cell_length_a 19.321676
_cell_length_b 8.855521
_cell_length_c 19.267464
_cell_angle_alpha 90.000000
_cell_angle_beta 120.045474
_cell_angle_gamma 90.000000
_cell_volume 2853.743353
_symmetry_space_group_name_H-M "C 2/M"
_symmetry_group_IT_number 12
_symmetry_cell_setting 'monoclinic'
loop_
_space_group_symop_operation_xyz
x,y,z
-x,y,-z
-x,-y,-z
x,-y,z
1/2+x,1/2+y,z
1/2-x,1/2+y,-z
1/2-x,1/2-y,-z
1/2+x,1/2-y,z
loop_
_atom_site_type_symbol
_atom_site_label
_atom_site_fract_x
_atom_site_fract_y
_atom_site_fract_z
Si Si1 0.794673 0.820722 0.311843
Si Si2 0.903921 0.178542 0.151218
Si Si3 0.239567 0.320340 0.137697
Si Si4 0.784031 0.322170 0.587289
Si Si5 0.033060 0.827873 0.585411
Si Si6 0.550750 0.672671 0.316782
Si Si7 0.920772 0.821379 0.001330
O O1 0.745330 0.762927 0.220342
O O2 0.764805 0.760836 0.371003
O O3 0.884141 0.755126 0.347344
O O4 0.791034 0.000000 0.307620
O O5 0.817286 0.239890 0.133404
O O6 0.976438 0.239435 0.235495
O O7 0.901821 0.000000 0.158295
O O8 0.924266 0.229863 0.083313
O O9 0.234547 0.500000 0.129142
O O10 0.158526 0.250576 0.069150
O O11 0.776761 0.500000 0.574306
O O12 0.750000 0.250000 0.500000
O O13 0.873608 0.279163 0.653433
O O14 0.000000 0.744207 0.500000
O O15 0.967082 0.819378 0.610951
O O16 0.053691 0.000000 0.575632
O O17 0.570033 0.500000 0.304137
O O18 0.913633 0.000000 0.991063
O O19 0.000000 0.763964 0.000000
#
# Coordination Sequence:
#
# PCOD8091877 Si02
#       7
#     8   8   8   8   8   8   8
#     4   9  18  33  54  81 108 137 181 231 268 308
#     4   9  18  35  58  82 109 144 184 223 268 324
#     4  10  19  36  60  83 107 139 185 233 270 310
#     4  11  23  38  55  79 112 147 182 224 274 326
#     4   9  15  27  52  81 103 131 176 223 263 310
#     4  10  19  34  58  83 107 140 181 224 272 324
#     4  10  22  37  54  81 116 149 178 214 269 336
#
# _framework density 19.623348
#
# number of rings (size 3 to 8) (size 9 to 14) (size 15 to 20)
#    0.000    2.286    1.429    1.714    2.000    2.571 
#    0.000    2.143    0.000    4.714    0.000    0.000 
#    0.000    0.000    0.000    0.000    0.000    0.000 
#
# Total GULP energy -347025.356615 kJ/mol
# GULP energy per Si atom -12393.762736 kJ/mol
# Density = 1.957868 g / cm^3
# Si number density = 19.623348 Si / 1000 Ang^3
#
#
#
# Elastic Constant Matrix: (Units=GPa)
#
#
# Indices 1 2 3 4 5 6 
#
# 1 121.7600 22.4802 50.0250 0.0000 -2.4044 0.0000
# 2 22.4802 25.0243 19.8307 0.0000 -1.8082 0.0000
# 3 50.0250 19.8307 136.4071 0.0000 -5.4447 0.0000
# 4 0.0000 0.0000 0.0000 26.8960 0.0000 5.2224
# 5 -2.4044 -1.8082 -5.4447 0.0000 41.8392 0.0000
# 6 0.0000 0.0000 0.0000 5.2224 0.0000 17.7021
#
#
#
# Elastic Compliance Matrix: (Units=1/GPa)
#
#
# Indices 1 2 3 4 5 6 
#
# 1 0.010757 -0.007392 -0.002873 0.000000 -0.000075 0.000000
# 2 -0.007392 0.050294 -0.004555 0.000000 0.001156 0.000000
# 3 -0.002873 -0.004555 0.009080 0.000000 0.000820 0.000000
# 4 0.000000 0.000000 0.000000 0.039439 0.000000 -0.011635
# 5 -0.000075 0.001156 0.000820 0.000000 0.024053 0.000000
# 6 0.000000 0.000000 0.000000 -0.011635 0.000000 0.059923
#
#
# Mechanical properties :
#
#
# Convention : Reuss Voigt Hill
#
# Bulk Modulus (GPa) = 24.69674 51.98481 38.34078
# Shear Modulus (GPa) = 21.12535 30.01116 25.56825
#
# Velocity S-wave (km/s) = 3.28463 3.91495 3.61356
# Velocity P-wave (km/s) = 5.19594 6.85453 6.08204
#
# Compressibility (1/GPa) = 0.04049117
#
# Stress axis : x y z
#
# Youngs Moduli (GPa) = 92.96686 19.88300 110.13713
#
# Poissons Ratio (x) = 0.14697 0.31645
# Poissons Ratio (y) = 0.68717 0.50166
# Poissons Ratio (z) = 0.26711 0.09056
#
# Static dielectric constant tensor:
#      x y z
#    x 3.826760 0.000000 -0.100670 
#    y 0.000000 3.063800 0.000000 
#    z -0.100670 0.000000 3.853620 
# 
# 
# High freq. dielectric constant tensor:
#      x y z
#    x 1.776610 0.000000 -0.000220 
#    y 0.000000 1.706200 0.000000 
#    z -0.000220 0.000000 1.786810 
# 
# From -- ./inp_files/314379.got.cif
#   From: 2010.06.25/outbox.cif.g09.slc.cpg/sg12_158_cif.got.tgz:314379.got - 2010.06.28 00:19:55.
