data_PCOD8091900
_publ_section_title
;
Structure prediction by ZEFSAII (Michael W. Deem and Ramdas Pophale) SiO2 
 PCOD8091900
Probable space group: C 2/M
;
_chemical_formula_sum "Si O2"
_cell_formula_units_Z 64
_cell_length_a 13.821863
_cell_length_b 18.352075
_cell_length_c 17.544308
_cell_angle_alpha 90.000000
_cell_angle_beta 43.522354
_cell_angle_gamma 90.000000
_cell_volume 3064.634521
_symmetry_space_group_name_H-M "C 2/M"
_symmetry_group_IT_number 12
_symmetry_cell_setting 'monoclinic'
loop_
_space_group_symop_operation_xyz
x,y,z
-x,y,-z
-x,-y,-z
x,-y,z
1/2+x,1/2+y,z
1/2-x,1/2+y,-z
1/2-x,1/2-y,-z
1/2+x,1/2-y,z
loop_
_atom_site_type_symbol
_atom_site_label
_atom_site_fract_x
_atom_site_fract_y
_atom_site_fract_z
Si Si1 0.980691 0.772847 0.375955
Si Si2 0.290717 0.915604 0.970081
Si Si3 0.377857 0.915669 0.203423
Si Si4 0.784518 0.662328 0.404915
Si Si5 0.153917 0.647670 0.340030
Si Si6 0.665152 0.329704 0.902219
Si Si7 0.268457 0.335017 0.846009
Si Si8 0.135030 0.580439 0.501309
O O1 0.902275 0.722644 0.357886
O O2 0.872035 0.807446 0.496920
O O3 0.087104 0.726893 0.367193
O O4 0.073842 0.832568 0.278371
O O5 0.457018 0.906979 0.881320
O O6 0.241804 0.879393 0.920004
O O7 0.245570 0.000000 0.997265
O O8 0.216516 0.873193 0.081170
O O9 0.300781 0.866640 0.310480
O O10 0.334093 0.884281 0.146679
O O11 0.331896 0.000000 0.236088
O O12 0.797537 0.595145 0.455574
O O13 0.285267 0.639764 0.208426
O O14 0.200120 0.637668 0.402199
O O15 0.033962 0.586803 0.394348
O O16 0.705704 0.245794 0.891614
O O17 0.500000 0.340153 0.000000
O O18 0.175815 0.500000 0.451744
#
# Coordination Sequence:
#
# PCOD8091900 Si02
#       8
#     8   8   8   8   8   8   8   8
#     4   9  21  37  58  84 117 153 195 247 299 350
#     4  11  24  43  64  87 121 160 200 247 301 362
#     4  11  23  40  63  88 119 161 206 250 298 356
#     4  10  21  37  58  87 118 155 195 242 299 354
#     4   9  19  35  55  83 113 148 190 235 288 345
#     4  11  24  40  64  92 121 155 197 250 304 360
#     4  11  23  41  64  90 117 157 207 254 296 347
#     4  10  19  34  58  83 112 151 193 235 282 348
#
# _framework density 20.883403999999999
#
# number of rings (size 3 to 8) (size 9 to 14) (size 15 to 20)
#    0.000    1.750    0.000    5.250    0.000   14.750 
#    0.000    4.375    0.000    0.000    0.000    0.000 
#    0.000    0.000    0.000    0.000    0.000    0.000 
#
# Total GULP energy -396830.745129 kJ/mol
# GULP energy per Si atom -12400.960785 kJ/mol
# Density = 2.083587 g / cm^3
# Si number density = 20.883404 Si / 1000 Ang^3
#
#
#
# Elastic Constant Matrix: (Units=GPa)
#
#
# Indices 1 2 3 4 5 6 
#
# 1 41.6314 14.2018 24.0810 0.0000 -5.5231 0.0000
# 2 14.2018 101.4737 44.4766 0.0000 -5.3739 0.0001
# 3 24.0810 44.4766 124.4066 -0.0003 -2.6559 0.0003
# 4 0.0000 0.0000 -0.0003 22.9714 0.0002 7.1133
# 5 -5.5231 -5.3739 -2.6559 0.0002 30.6647 -0.0002
# 6 0.0000 0.0001 0.0003 7.1133 -0.0002 24.4641
#
#
#
# Elastic Compliance Matrix: (Units=1/GPa)
#
#
# Indices 1 2 3 4 5 6 
#
# 1 0.027877 -0.001598 -0.004732 0.000000 0.004331 0.000000
# 2 -0.001598 0.011866 -0.003902 0.000000 0.001454 0.000000
# 3 -0.004732 -0.003902 0.010335 0.000000 -0.000641 0.000000
# 4 0.000000 0.000000 0.000000 0.047840 0.000000 -0.013910
# 5 0.004331 0.001454 -0.000641 0.000000 0.033590 0.000000
# 6 0.000000 0.000000 0.000000 -0.013910 0.000000 0.044921
#
#
# Mechanical properties :
#
#
# Convention : Reuss Voigt Hill
#
# Bulk Modulus (GPa) = 33.76756 48.11452 40.94104
# Shear Modulus (GPa) = 24.18207 27.93685 26.05946
#
# Velocity S-wave (km/s) = 3.40657 3.66150 3.53633
# Velocity P-wave (km/s) = 5.62829 6.40039 6.02672
#
# Compressibility (1/GPa) = 0.02961422
#
# Stress axis : x y z
#
# Youngs Moduli (GPa) = 35.87133 84.27766 96.75484
#
# Poissons Ratio (x) = 0.13467 0.45788
# Poissons Ratio (y) = 0.05732 0.37751
# Poissons Ratio (z) = 0.16976 0.32883
#
# Static dielectric constant tensor:
#      x y z
#    x 3.691450 0.000000 0.081640 
#    y 0.000000 3.829590 0.000000 
#    z 0.081640 0.000000 3.935240 
# 
# 
# High freq. dielectric constant tensor:
#      x y z
#    x 1.810700 0.000000 0.011300 
#    y 0.000000 1.816300 0.000000 
#    z 0.011300 0.000000 1.823690 
# 
# From -- ./inp_files/271685.got.cif
#   From: 2010.06.25/outbox.cif.g09.slc.cpg/sg12_136_cif.got.tgz:271685.got - 2010.06.28 00:19:55.
