data_PCOD8091558
_publ_section_title
;
Structure prediction by ZEFSAII (Michael W. Deem and Ramdas Pophale) SiO2 
 PCOD8091558
Probable space group: C 2/M
;
_chemical_formula_sum "Si O2"
_cell_formula_units_Z 64
_cell_length_a 30.623226
_cell_length_b 14.150419
_cell_length_c 12.073739
_cell_angle_alpha 90.000000
_cell_angle_beta 141.663849
_cell_angle_gamma 90.000000
_cell_volume 3245.231226
_symmetry_space_group_name_H-M "C 2/M"
_symmetry_group_IT_number 12
_symmetry_cell_setting 'monoclinic'
loop_
_space_group_symop_operation_xyz
x,y,z
-x,y,-z
-x,-y,-z
x,-y,z
1/2+x,1/2+y,z
1/2-x,1/2+y,-z
1/2-x,1/2-y,-z
1/2+x,1/2-y,z
loop_
_atom_site_type_symbol
_atom_site_label
_atom_site_fract_x
_atom_site_fract_y
_atom_site_fract_z
Si Si1 0.682418 0.188048 0.882280
Si Si2 0.679965 0.237511 0.290800
Si Si3 0.044905 0.218561 0.687721
Si Si4 0.172619 0.602647 0.092106
Si Si5 0.868831 0.111464 0.965600
Si Si6 0.784805 0.608387 0.276282
Si Si7 0.115854 0.610244 0.337868
Si Si8 0.990534 0.606139 0.250786
O O1 0.616448 0.253750 0.770795
O O2 0.672195 0.130214 0.749126
O O3 0.750000 0.250000 0.000000
O O4 0.693216 0.116534 0.005343
O O5 0.750000 0.250000 0.500000
O O6 0.708007 0.182211 0.237735
O O7 0.641058 0.334232 0.172170
O O8 0.622337 0.174206 0.241044
O O9 0.000000 0.167669 0.500000
O O10 0.000489 0.310908 0.639828
O O11 0.064371 0.149805 0.830144
O O12 0.200505 0.500000 0.183430
O O13 0.089493 0.611697 0.948084
O O14 0.797876 0.134496 0.894659
O O15 0.879092 0.000000 0.962856
O O16 0.793873 0.500000 0.318477
O O17 0.824248 0.653085 0.460561
O O18 0.126610 0.500000 0.326808
O O19 0.039887 0.625355 0.243268
O O20 0.006523 0.500000 0.331348
#
# Coordination Sequence:
#
# PCOD8091558 Si02
#       8
#     8   8   8   8   8   8   8   8
#     4  11  19  34  59  87 124 157 194 244 301 366
#     4  12  22  38  62  87 118 160 201 250 303 359
#     4  11  22  39  62  90 121 164 203 252 305 362
#     4  10  21  37  58  90 126 156 189 243 309 369
#     4  11  23  42  60  83 119 160 210 257 305 351
#     4  10  19  34  56  87 120 156 193 237 295 359
#     4  10  21  35  60  94 123 153 194 242 296 373
#     4   9  19  37  59  90 125 155 187 233 307 379
#
# _framework density 19.721245
#
# number of rings (size 3 to 8) (size 9 to 14) (size 15 to 20)
#    0.000    1.500    5.000    1.500    0.000    2.000 
#    0.000    1.875    0.000    1.500    0.000    0.000 
#    0.000    0.000    0.000    0.000    0.000    0.000 
#
# Total GULP energy -396557.160571 kJ/mol
# GULP energy per Si atom -12392.411268 kJ/mol
# Density = 1.967636 g / cm^3
# Si number density = 19.721245 Si / 1000 Ang^3
#
#
#
# Elastic Constant Matrix: (Units=GPa)
#
#
# Indices 1 2 3 4 5 6 
#
# 1 91.5292 52.8542 21.6334 0.0000 -11.1208 0.0000
# 2 52.8542 112.6579 54.0481 0.0000 -10.5991 0.0000
# 3 21.6334 54.0481 95.9941 0.0000 -21.4684 0.0000
# 4 0.0000 0.0000 0.0000 23.1179 0.0000 -6.3706
# 5 -11.1208 -10.5991 -21.4684 0.0000 30.2918 0.0000
# 6 0.0000 0.0000 0.0000 -6.3706 0.0000 31.1216
#
#
#
# Elastic Compliance Matrix: (Units=1/GPa)
#
#
# Indices 1 2 3 4 5 6 
#
# 1 0.015480 -0.007734 0.001820 0.000000 0.004267 0.000000
# 2 -0.007734 0.016039 -0.007923 0.000000 -0.002843 0.000000
# 3 0.001820 -0.007923 0.016634 0.000000 0.009685 0.000000
# 4 0.000000 0.000000 0.000000 0.045843 0.000000 0.009384
# 5 0.004267 -0.002843 0.009685 0.000000 0.040448 0.000000
# 6 0.000000 0.000000 0.000000 0.009384 0.000000 0.034053
#
#
# Mechanical properties :
#
#
# Convention : Reuss Voigt Hill
#
# Bulk Modulus (GPa) = 48.83171 61.91697 55.37434
# Shear Modulus (GPa) = 24.63095 28.34929 26.49012
#
# Velocity S-wave (km/s) = 3.53789 3.79555 3.66898
# Velocity P-wave (km/s) = 6.44233 7.11846 6.78882
#
# Compressibility (1/GPa) = 0.02047849
#
# Stress axis : x y z
#
# Youngs Moduli (GPa) = 64.59971 62.34881 60.11779
#
# Poissons Ratio (x) = 0.48223 -0.10944
# Poissons Ratio (y) = 0.49964 0.47632
# Poissons Ratio (z) = -0.11760 0.49400
#
# Static dielectric constant tensor:
#      x y z
#    x 4.949040 0.000000 0.566870 
#    y 0.000000 3.686080 0.000000 
#    z 0.566870 0.000000 3.707410 
# 
# 
# High freq. dielectric constant tensor:
#      x y z
#    x 1.761890 0.000000 -0.010080 
#    y 0.000000 1.760680 0.000000 
#    z -0.010080 0.000000 1.764310 
# 
# From -- ./inp_files/189510.got.cif
#   From: 2010.06.25/outbox.cif.g09.slc.cpg/sg12_95_cif.got.tgz:189510.got - 2010.06.28 00:19:55.
