data_PCOD8091020
_publ_section_title
;
Structure prediction by ZEFSAII (Michael W. Deem and Ramdas Pophale) SiO2 
 PCOD8091020
Probable space group: C 2/M
;
_chemical_formula_sum "Si O2"
_cell_formula_units_Z 64
_cell_length_a 13.813296
_cell_length_b 17.835864
_cell_length_c 14.086856
_cell_angle_alpha 90.000000
_cell_angle_beta 90.469131
_cell_angle_gamma 90.000000
_cell_volume 3470.491520
_symmetry_space_group_name_H-M "C 2/M"
_symmetry_group_IT_number 12
_symmetry_cell_setting 'monoclinic'
loop_
_space_group_symop_operation_xyz
x,y,z
-x,y,-z
-x,-y,-z
x,-y,z
1/2+x,1/2+y,z
1/2-x,1/2+y,-z
1/2-x,1/2-y,-z
1/2+x,1/2-y,z
loop_
_atom_site_type_symbol
_atom_site_label
_atom_site_fract_x
_atom_site_fract_y
_atom_site_fract_z
Si Si1 0.538173 0.674631 0.805416
Si Si2 0.842127 0.914528 0.332807
Si Si3 0.358265 0.136787 0.748248
Si Si4 0.147557 0.229298 0.120287
Si Si5 0.987862 0.419065 0.111746
Si Si6 0.644733 0.282230 0.517010
Si Si7 0.858785 0.712329 0.077076
Si Si8 0.984225 0.728884 0.634033
O O1 0.578068 0.602383 0.749153
O O2 0.433970 0.665166 0.858147
O O3 0.619226 0.705222 0.879227
O O4 0.522001 0.742031 0.733623
O O5 0.736384 0.906629 0.286555
O O6 0.854644 0.859814 0.423693
O O7 0.857456 0.000000 0.366825
O O8 0.330162 0.219295 0.787927
O O9 0.411582 0.089713 0.830305
O O10 0.427641 0.151000 0.656279
O O11 0.246011 0.190210 0.086281
O O12 0.110427 0.283494 0.033962
O O13 0.944001 0.500000 0.142030
O O14 0.916192 0.351051 0.135980
O O15 0.000000 0.419806 0.000000
O O16 0.750000 0.250000 0.500000
O O17 0.580748 0.218274 0.570714
O O18 0.588896 0.290352 0.415877
#
# Coordination Sequence:
#
# PCOD8091020 Si02
#       8
#     8   8   8   8   8   8   8   8
#     4  10  19  34  54  79 109 144 182 229 270 320
#     4  11  23  37  57  85 111 143 180 227 286 342
#     4  11  18  35  54  85 110 140 186 234 267 329
#     4  10  20  30  55  84 107 142 201 238 259 307
#     4  11  21  33  51  80 118 151 178 222 278 324
#     4  10  19  36  57  83 107 138 177 226 274 336
#     4  11  18  33  54  81 111 147 195 232 271 316
#     4   9  19  31  57  86 100 132 189 223 270 320
#
# _framework density 18.441192000000001
#
# number of rings (size 3 to 8) (size 9 to 14) (size 15 to 20)
#    0.000    1.625    6.250    0.750    0.000    0.000 
#    0.000    5.625    0.000    3.750    0.000    0.000 
#    0.000    0.000    0.000    0.000    0.000    0.000 
#
# Total GULP energy -396425.574398 kJ/mol
# GULP energy per Si atom -12388.299200 kJ/mol
# Density = 1.839922 g / cm^3
# Si number density = 18.441192 Si / 1000 Ang^3
#
#
#
# Elastic Constant Matrix: (Units=GPa)
#
#
# Indices 1 2 3 4 5 6 
#
# 1 107.5442 23.1977 32.7515 0.0000 -12.3887 0.0000
# 2 23.1977 78.5044 24.5048 0.0000 -8.9589 0.0000
# 3 32.7515 24.5048 76.1679 0.0000 0.0949 0.0000
# 4 0.0000 0.0000 0.0000 13.3328 0.0000 -1.5102
# 5 -12.3887 -8.9589 0.0949 0.0000 35.0806 0.0000
# 6 0.0000 0.0000 0.0000 -1.5102 0.0000 17.1174
#
#
#
# Elastic Compliance Matrix: (Units=1/GPa)
#
#
# Indices 1 2 3 4 5 6 
#
# 1 0.011397 -0.001581 -0.004397 0.000000 0.003633 0.000000
# 2 -0.001581 0.014857 -0.004104 0.000000 0.003247 0.000000
# 3 -0.004397 -0.004104 0.016343 0.000000 -0.002645 0.000000
# 4 0.000000 0.000000 0.000000 0.075760 0.000000 0.006684
# 5 0.003633 0.003247 -0.002645 0.000000 0.030625 0.000000
# 6 0.000000 0.000000 0.000000 0.006684 0.000000 0.059010
#
#
# Mechanical properties :
#
#
# Convention : Reuss Voigt Hill
#
# Bulk Modulus (GPa) = 44.57518 47.01384 45.79451
# Shear Modulus (GPa) = 21.21948 25.22367 23.22158
#
# Velocity S-wave (km/s) = 3.39581 3.70238 3.55240
# Velocity P-wave (km/s) = 6.29281 6.62013 6.45854
#
# Compressibility (1/GPa) = 0.02243401
#
# Stress axis : x y z
#
# Youngs Moduli (GPa) = 87.74313 67.30895 61.18826
#
# Poissons Ratio (x) = 0.10640 0.26901
# Poissons Ratio (y) = 0.13870 0.25112
# Poissons Ratio (z) = 0.38576 0.27624
#
# Static dielectric constant tensor:
#      x y z
#    x 3.633570 0.000000 -0.091730 
#    y 0.000000 3.108680 0.000000 
#    z -0.091730 0.000000 3.732240 
# 
# 
# High freq. dielectric constant tensor:
#      x y z
#    x 1.728740 0.000000 0.009330 
#    y 0.000000 1.658020 0.000000 
#    z 0.009330 0.000000 1.725140 
# 
# From -- ./inp_files/215925.got.cif
#   From: 2010.06.25/outbox.cif.g09.slc.cpg/sg12_108_cif.got.tgz:215925.got - 2010.06.28 00:19:55.
