data_PCOD8091587
_publ_section_title
;
Structure prediction by ZEFSAII (Michael W. Deem and Ramdas Pophale) SiO2 
 PCOD8091587
Probable space group: C 2/M
;
_chemical_formula_sum "Si O2"
_cell_formula_units_Z 56
_cell_length_a 30.571914
_cell_length_b 17.583405
_cell_length_c 10.168370
_cell_angle_alpha 90.000000
_cell_angle_beta 147.167338
_cell_angle_gamma 90.000000
_cell_volume 2963.645720
_symmetry_space_group_name_H-M "C 2/M"
_symmetry_group_IT_number 12
_symmetry_cell_setting 'monoclinic'
loop_
_space_group_symop_operation_xyz
x,y,z
-x,y,-z
-x,-y,-z
x,-y,z
1/2+x,1/2+y,z
1/2-x,1/2+y,-z
1/2-x,1/2-y,-z
1/2+x,1/2-y,z
loop_
_atom_site_type_symbol
_atom_site_label
_atom_site_fract_x
_atom_site_fract_y
_atom_site_fract_z
Si Si1 0.679954 0.835764 0.590351
Si Si2 0.160564 0.589992 0.270050
Si Si3 0.266750 0.585322 0.050302
Si Si4 0.272459 0.180489 0.799164
Si Si5 0.997476 0.684660 0.139165
Si Si6 0.932620 0.763426 0.217409
Si Si7 0.907892 0.920038 0.232156
O O1 0.692933 0.889784 0.497039
O O2 0.709968 0.750679 0.628301
O O3 0.587162 0.841154 0.401879
O O4 0.726714 0.866499 0.833424
O O5 0.166453 0.500000 0.259484
O O6 0.218336 0.635498 0.314878
O O7 0.066509 0.614904 0.017411
O O8 0.230337 0.500000 0.963974
O O9 0.259769 0.623000 0.173759
O O10 0.361188 0.584895 0.252954
O O11 0.361236 0.205644 0.071454
O O12 0.971103 0.749557 0.173102
O O13 0.000000 0.721107 0.000000
O O14 0.890992 0.846657 0.099812
O O15 0.000000 0.757112 0.500000
O O16 0.000000 0.920865 0.500000
O O17 0.883666 0.000000 0.098938
#
# Coordination Sequence:
#
# PCOD8091587 Si02
#       7
#     8   8   8   8   8   8   8
#     4  11  21  36  59  84 111 144 188 229 271 328
#     4  10  22  41  59  80 112 151 187 226 277 334
#     4  11  22  35  55  85 113 143 180 229 279 323
#     4  11  22  36  57  85 114 145 180 230 279 327
#     4   9  21  36  56  81 107 143 185 224 275 324
#     4  10  19  34  57  79 108 143 181 223 270 327
#     4   9  19  33  51  75 106 144 183 220 268 325
#
# _framework density 18.895645999999999
#
# number of rings (size 3 to 8) (size 9 to 14) (size 15 to 20)
#    0.000    1.857    1.429    2.571    4.000    3.143 
#    0.000    0.000    0.000    5.143    0.000    0.000 
#    0.000    0.000    0.000    0.000    0.000    0.000 
#
# Total GULP energy -347007.011659 kJ/mol
# GULP energy per Si atom -12393.107559 kJ/mol
# Density = 1.885264 g / cm^3
# Si number density = 18.895646 Si / 1000 Ang^3
#
#
#
# Elastic Constant Matrix: (Units=GPa)
#
#
# Indices 1 2 3 4 5 6 
#
# 1 114.5619 49.7517 25.1481 0.0000 -1.5305 0.0000
# 2 49.7517 116.5240 2.0140 0.0000 -9.9013 0.0000
# 3 25.1481 2.0140 43.5184 0.0000 2.9948 0.0000
# 4 0.0000 0.0000 0.0000 14.7620 0.0000 -9.0978
# 5 -1.5305 -9.9013 2.9948 0.0000 26.4329 0.0000
# 6 0.0000 0.0000 0.0000 -9.0978 0.0000 28.1120
#
#
#
# Elastic Compliance Matrix: (Units=1/GPa)
#
#
# Indices 1 2 3 4 5 6 
#
# 1 0.012544 -0.005274 -0.006973 0.000000 -0.000459 0.000000
# 2 -0.005274 0.011100 0.002287 0.000000 0.003593 0.000000
# 3 -0.006973 0.002287 0.027083 0.000000 -0.002616 0.000000
# 4 0.000000 0.000000 0.000000 0.084619 0.000000 0.027385
# 5 -0.000459 0.003593 -0.002616 0.000000 0.039447 0.000000
# 6 0.000000 0.000000 0.000000 0.027385 0.000000 0.044435
#
#
# Mechanical properties :
#
#
# Convention : Reuss Voigt Hill
#
# Bulk Modulus (GPa) = 32.46215 47.60357 40.03286
# Shear Modulus (GPa) = 20.04678 27.04074 23.54376
#
# Velocity S-wave (km/s) = 3.26071 3.78703 3.53369
# Velocity P-wave (km/s) = 5.60297 6.66106 6.15480
#
# Compressibility (1/GPa) = 0.03080511
#
# Stress axis : x y z
#
# Youngs Moduli (GPa) = 79.71920 90.09257 36.92414
#
# Poissons Ratio (x) = 0.47518 0.25748
# Poissons Ratio (y) = 0.42047 -0.08444
# Poissons Ratio (z) = 0.55589 -0.20604
#
# Static dielectric constant tensor:
#      x y z
#    x 3.843000 0.000000 0.238020 
#    y 0.000000 4.232870 0.000000 
#    z 0.238020 0.000000 3.402790 
# 
# 
# High freq. dielectric constant tensor:
#      x y z
#    x 1.748430 0.000000 0.015680 
#    y 0.000000 1.737750 0.000000 
#    z 0.015680 0.000000 1.720480 
# 
# From -- ./inp_files/75965.got.cif
#   From: 2010.06.25/outbox.cif.g09.slc.cpg/sg12_38_cif.got.tgz:75965.got - 2010.06.28 00:19:55.
