data_PCOD8091718
_publ_section_title
;
Structure prediction by ZEFSAII (Michael W. Deem and Ramdas Pophale) SiO2 
 PCOD8091718
Probable space group: C 2/M
;
_chemical_formula_sum "Si O2"
_cell_formula_units_Z 40
_cell_length_a 22.669506
_cell_length_b 8.549545
_cell_length_c 11.517399
_cell_angle_alpha 90.000000
_cell_angle_beta 71.787153
_cell_angle_gamma 90.000000
_cell_volume 2120.402322
_symmetry_space_group_name_H-M "C 2/M"
_symmetry_group_IT_number 12
_symmetry_cell_setting 'monoclinic'
loop_
_space_group_symop_operation_xyz
x,y,z
-x,y,-z
-x,-y,-z
x,-y,z
1/2+x,1/2+y,z
1/2-x,1/2+y,-z
1/2-x,1/2-y,-z
1/2+x,1/2-y,z
loop_
_atom_site_type_symbol
_atom_site_label
_atom_site_fract_x
_atom_site_fract_y
_atom_site_fract_z
Si Si1 0.052691 0.818083 0.326085
Si Si2 0.215345 0.817345 0.859472
Si Si3 0.845024 0.318504 0.889455
Si Si4 0.306433 0.684491 0.391775
Si Si5 0.422459 0.183145 0.447670
O O1 0.096528 0.780343 0.190734
O O2 0.087031 0.770632 0.424084
O O3 0.989045 0.722185 0.351239
O O4 0.036224 0.000000 0.338468
O O5 0.285338 0.769883 0.850022
O O6 0.204134 0.767844 0.734665
O O7 0.204328 0.000000 0.887899
O O8 0.166831 0.722809 0.968854
O O9 0.860700 0.500000 0.866360
O O10 0.310389 0.500000 0.405799
O O11 0.250000 0.750000 0.500000
O O12 0.370186 0.762884 0.391042
O O13 0.416779 0.000000 0.474879
#
# Coordination Sequence:
#
# PCOD8091718 Si02
#       5
#     8   8   8   8   8
#     4  11  21  36  58  82 109 143 183 224 272 327
#     4   9  20  36  54  79 111 145 181 222 267 320
#     4  10  19  34  57  83 110 142 181 224 271 321
#     4  11  22  37  57  82 113 147 183 223 272 325
#     4  11  22  37  56  81 112 143 182 228 273 322
#
# _framework density 18.864345
#
# number of rings (size 3 to 8) (size 9 to 14) (size 15 to 20)
#    0.000    1.600    0.000    7.200    0.000    4.000 
#    0.000    1.000    0.000    6.000    0.000    0.000 
#    0.000    0.000    0.000    0.000    0.000    0.000 
#
# Total GULP energy -248118.411086 kJ/mol
# GULP energy per Si atom -12405.920554 kJ/mol
# Density = 1.882141 g / cm^3
# Si number density = 18.864345 Si / 1000 Ang^3
#
#
#
# Elastic Constant Matrix: (Units=GPa)
#
#
# Indices 1 2 3 4 5 6 
#
# 1 91.6697 20.1752 59.2131 0.0000 6.4631 0.0000
# 2 20.1752 72.0360 32.6201 0.0000 1.0968 0.0000
# 3 59.2131 32.6201 123.7464 0.0000 -7.1593 0.0000
# 4 0.0000 0.0000 0.0000 33.5780 0.0000 -3.4990
# 5 6.4631 1.0968 -7.1593 0.0000 28.1937 0.0000
# 6 0.0000 0.0000 0.0000 -3.4990 0.0000 32.1712
#
#
#
# Elastic Compliance Matrix: (Units=1/GPa)
#
#
# Indices 1 2 3 4 5 6 
#
# 1 0.016773 -0.000931 -0.008120 0.000000 -0.005871 0.000000
# 2 -0.000931 0.015895 -0.003824 0.000000 -0.001376 0.000000
# 3 -0.008120 -0.003824 0.013286 0.000000 0.005384 0.000000
# 4 0.000000 0.000000 0.000000 0.030123 0.000000 0.003276
# 5 -0.005871 -0.001376 0.005384 0.000000 0.038235 0.000000
# 6 0.000000 0.000000 0.000000 0.003276 0.000000 0.031440
#
#
# Mechanical properties :
#
#
# Convention : Reuss Voigt Hill
#
# Bulk Modulus (GPa) = 49.49641 56.82990 53.16316
# Shear Modulus (GPa) = 28.05252 30.48482 29.26867
#
# Velocity S-wave (km/s) = 3.86043 4.02431 3.94322
# Velocity P-wave (km/s) = 6.79453 7.19614 6.99822
#
# Compressibility (1/GPa) = 0.02020348
#
# Stress axis : x y z
#
# Youngs Moduli (GPa) = 59.62122 62.91140 75.26725
#
# Poissons Ratio (x) = 0.05858 0.61116
# Poissons Ratio (y) = 0.05552 0.28783
# Poissons Ratio (z) = 0.48412 0.24058
#
# Static dielectric constant tensor:
#      x y z
#    x 3.456870 0.000000 0.008680 
#    y 0.000000 3.571450 0.000000 
#    z 0.008680 0.000000 3.469510 
# 
# 
# High freq. dielectric constant tensor:
#      x y z
#    x 1.725250 0.000000 -0.008830 
#    y 0.000000 1.746370 0.000000 
#    z -0.008830 0.000000 1.735380 
# 
# From -- ./inp_files/162393.got.cif
#   From: 2010.06.25/outbox.cif.g09.slc.cpg/sg12_82_cif.got.tgz:162393.got - 2010.06.28 00:19:55.
