data_PCOD8091347
_publ_section_title
;
Structure prediction by ZEFSAII (Michael W. Deem and Ramdas Pophale) SiO2 
 PCOD8091347
Probable space group: C 2/M
;
_chemical_formula_sum "Si O2"
_cell_formula_units_Z 64
_cell_length_a 19.199536
_cell_length_b 9.505156
_cell_length_c 24.063492
_cell_angle_alpha 90.000000
_cell_angle_beta 128.157531
_cell_angle_gamma 90.000000
_cell_volume 3453.068744
_symmetry_space_group_name_H-M "C 2/M"
_symmetry_group_IT_number 12
_symmetry_cell_setting 'monoclinic'
loop_
_space_group_symop_operation_xyz
x,y,z
-x,y,-z
-x,-y,-z
x,-y,z
1/2+x,1/2+y,z
1/2-x,1/2+y,-z
1/2-x,1/2-y,-z
1/2+x,1/2-y,z
loop_
_atom_site_type_symbol
_atom_site_label
_atom_site_fract_x
_atom_site_fract_y
_atom_site_fract_z
Si Si1 0.288288 0.653099 0.565291
Si Si2 0.940452 0.168265 0.418850
Si Si3 0.748445 0.664410 0.942596
Si Si4 0.402125 0.336228 0.819161
Si Si5 0.994744 0.844848 0.664462
Si Si6 0.551422 0.334759 0.808801
Si Si7 0.098995 0.663504 0.069436
Si Si8 0.264751 0.162962 0.340868
O O1 0.244515 0.500000 0.535693
O O2 0.250000 0.750000 0.500000
O O3 0.391458 0.641206 0.611115
O O4 0.268924 0.712623 0.616113
O O5 0.843842 0.231981 0.369337
O O6 0.000000 0.223208 0.500000
O O7 0.979452 0.229905 0.380415
O O8 0.935748 0.000000 0.418733
O O9 0.756980 0.500000 0.961061
O O10 0.654023 0.699680 0.868667
O O11 0.828514 0.711359 0.941142
O O12 0.750000 0.750000 0.000000
O O13 0.415918 0.500000 0.840532
O O14 0.487512 0.276843 0.826655
O O15 0.387997 0.251888 0.868694
O O16 0.313469 0.310825 0.740906
O O17 0.026427 0.765479 0.736527
O O18 0.038934 0.000000 0.686727
O O19 0.530938 0.500000 0.795543
O O20 0.113379 0.500000 0.090528
O O21 0.000000 0.693447 0.000000
O O22 0.294882 0.000000 0.354379
#
# Coordination Sequence:
#
# PCOD8091347 Si02
#       8
#     8   8   8   8   8   8   8   8
#     4  10  19  34  56  79 105 139 180 227 275 321
#     4  10  21  35  54  81 108 141 187 231 270 325
#     4  10  21  36  58  84 110 144 183 219 263 319
#     4  10  20  36  58  82 108 142 188 231 267 320
#     4   9  17  32  54  76 104 140 180 226 267 310
#     4   9  17  33  56  79 102 139 188 225 259 314
#     4  10  22  38  56  84 120 150 176 217 277 330
#     4  10  21  36  54  79 111 145 178 224 285 332
#
# _framework density 18.534238999999999
#
# number of rings (size 3 to 8) (size 9 to 14) (size 15 to 20)
#    0.000    2.250    1.250    1.500    1.750    3.000 
#    0.000    0.625    0.000    1.500    0.000    0.000 
#    0.000    0.000    0.000    0.000    0.000    0.000 
#
# Total GULP energy -396597.766006 kJ/mol
# GULP energy per Si atom -12393.680188 kJ/mol
# Density = 1.849205 g / cm^3
# Si number density = 18.534239 Si / 1000 Ang^3
#
#
#
# Elastic Constant Matrix: (Units=GPa)
#
#
# Indices 1 2 3 4 5 6 
#
# 1 163.6295 40.3185 74.0318 0.0000 -17.4381 0.0000
# 2 40.3185 41.3789 51.2756 0.0000 -9.7665 0.0000
# 3 74.0318 51.2756 139.7386 0.0000 -21.1050 0.0000
# 4 0.0000 0.0000 0.0000 21.8277 0.0000 -1.7234
# 5 -17.4381 -9.7665 -21.1050 0.0000 42.0871 0.0000
# 6 0.0000 0.0000 0.0000 -1.7234 0.0000 19.5240
#
#
#
# Elastic Compliance Matrix: (Units=1/GPa)
#
#
# Indices 1 2 3 4 5 6 
#
# 1 0.008615 -0.004921 -0.002588 0.000000 0.001130 0.000000
# 2 -0.004921 0.047337 -0.014511 0.000000 0.001669 0.000000
# 3 -0.002588 -0.014511 0.014261 0.000000 0.002712 0.000000
# 4 0.000000 0.000000 0.000000 0.046135 0.000000 0.004072
# 5 0.001130 0.001669 0.002712 0.000000 0.025976 0.000000
# 6 0.000000 0.000000 0.000000 0.004072 0.000000 0.051578
#
#
# Mechanical properties :
#
#
# Convention : Reuss Voigt Hill
#
# Bulk Modulus (GPa) = 38.20492 75.11099 56.65795
# Shear Modulus (GPa) = 20.27033 28.62917 24.44975
#
# Velocity S-wave (km/s) = 3.31065 3.93448 3.63597
# Velocity P-wave (km/s) = 5.93901 7.82648 6.94714
#
# Compressibility (1/GPa) = 0.02617464
#
# Stress axis : x y z
#
# Youngs Moduli (GPa) = 116.07471 21.12521 70.11945
#
# Poissons Ratio (x) = 0.10395 0.18146
# Poissons Ratio (y) = 0.57118 1.01748
# Poissons Ratio (z) = 0.30039 0.30654
#
# Static dielectric constant tensor:
#      x y z
#    x 3.452270 0.000000 -0.151310 
#    y 0.000000 3.195680 0.000000 
#    z -0.151310 0.000000 3.580270 
# 
# 
# High freq. dielectric constant tensor:
#      x y z
#    x 1.736890 0.000000 -0.005060 
#    y 0.000000 1.682430 0.000000 
#    z -0.005060 0.000000 1.732610 
# 
# From -- ./inp_files/315728.got.cif
#   From: 2010.06.25/outbox.cif.g09.slc.cpg/sg12_158_cif.got.tgz:315728.got - 2010.06.28 00:19:55.
