data_PCOD8091623
_publ_section_title
;
Structure prediction by ZEFSAII (Michael W. Deem and Ramdas Pophale) SiO2 
 PCOD8091623
Probable space group: C 2/M
;
_chemical_formula_sum "Si O2"
_cell_formula_units_Z 56
_cell_length_a 23.706854
_cell_length_b 12.221042
_cell_length_c 26.435900
_cell_angle_alpha 90.000000
_cell_angle_beta 157.220324
_cell_angle_gamma 90.000000
_cell_volume 2965.505795
_symmetry_space_group_name_H-M "C 2/M"
_symmetry_group_IT_number 12
_symmetry_cell_setting 'monoclinic'
loop_
_space_group_symop_operation_xyz
x,y,z
-x,y,-z
-x,-y,-z
x,-y,z
1/2+x,1/2+y,z
1/2-x,1/2+y,-z
1/2-x,1/2-y,-z
1/2+x,1/2-y,z
loop_
_atom_site_type_symbol
_atom_site_label
_atom_site_fract_x
_atom_site_fract_y
_atom_site_fract_z
Si Si1 0.581626 0.249304 0.871223
Si Si2 0.891431 0.372858 0.636622
Si Si3 0.392950 0.257017 0.870676
Si Si4 0.649752 0.373655 0.269786
Si Si5 0.142400 0.240987 0.487838
Si Si6 0.157375 0.129874 0.735994
Si Si7 0.105828 0.621875 0.990824
O O1 0.515119 0.195179 0.766903
O O2 0.497393 0.361986 0.816782
O O3 0.750000 0.250000 0.000000
O O4 0.556799 0.182713 0.900870
O O5 0.925734 0.500000 0.669344
O O6 0.899265 0.339529 0.584314
O O7 0.736420 0.346937 0.534009
O O8 0.369569 0.340259 0.804879
O O9 0.240075 0.209163 0.764624
O O10 0.500000 0.318415 0.000000
O O11 0.485877 0.149319 0.933505
O O12 0.698037 0.500000 0.311733
O O13 0.772603 0.294077 0.394756
O O14 0.006134 0.173973 0.396645
O O15 0.233156 0.146383 0.853640
O O16 0.160770 0.000000 0.723630
O O17 0.093844 0.500000 0.963474
#
# Coordination Sequence:
#
# PCOD8091623 Si02
#       7
#     8   8   8   8   8   8   8
#     4  10  20  34  53  81 108 133 176 221 257 310
#     4  10  20  35  54  75 107 144 172 211 262 309
#     4   9  19  36  56  80 107 133 173 221 267 322
#     4  10  22  39  56  74 106 147 178 216 269 317
#     4  10  21  36  53  78 108 139 183 219 253 314
#     4  10  19  34  57  81 107 140 177 221 270 315
#     4   9  17  31  53  80 109 137 165 209 270 322
#
# _framework density 18.883794000000002
#
# number of rings (size 3 to 8) (size 9 to 14) (size 15 to 20)
#    0.000    2.286    0.000    2.571    0.000    3.714 
#    0.000    8.571    0.000    0.857    0.000    0.000 
#    0.000    0.000    0.000    0.000    0.000    0.000 
#
# Total GULP energy -346933.606913 kJ/mol
# GULP energy per Si atom -12390.485961 kJ/mol
# Density = 1.884081 g / cm^3
# Si number density = 18.883794 Si / 1000 Ang^3
#
#
#
# Elastic Constant Matrix: (Units=GPa)
#
#
# Indices 1 2 3 4 5 6 
#
# 1 77.1190 23.6719 39.9153 -0.0096 -5.5012 -0.0017
# 2 23.6719 75.2283 21.6996 0.0316 -1.3872 0.0004
# 3 39.9153 21.6996 97.4895 0.0496 5.1896 0.0068
# 4 -0.0096 0.0316 0.0496 16.6001 -0.0042 2.2817
# 5 -5.5012 -1.3872 5.1896 -0.0042 43.2445 -0.0015
# 6 -0.0017 0.0004 0.0068 2.2817 -0.0015 12.1094
#
#
#
# Elastic Compliance Matrix: (Units=1/GPa)
#
#
# Indices 1 2 3 4 5 6 
#
# 1 0.017700 -0.003612 -0.006599 0.000038 0.002928 0.000000
# 2 -0.003612 0.014973 -0.001867 -0.000026 0.000245 0.000005
# 3 -0.006599 -0.001867 0.013509 -0.000041 -0.002520 -0.000001
# 4 0.000038 -0.000026 -0.000041 0.061842 0.000014 -0.011653
# 5 0.002928 0.000245 -0.002520 0.000014 0.023807 0.000002
# 6 0.000000 0.000005 -0.000001 -0.011653 0.000002 0.084776
#
#
# Mechanical properties :
#
#
# Convention : Reuss Voigt Hill
#
# Bulk Modulus (GPa) = 45.40080 46.71226 46.05653
# Shear Modulus (GPa) = 20.15278 25.36080 22.75679
#
# Velocity S-wave (km/s) = 3.27035 3.66866 3.47522
# Velocity P-wave (km/s) = 6.19311 6.53727 6.36751
#
# Compressibility (1/GPa) = 0.02202604
#
# Stress axis : x y z
#
# Youngs Moduli (GPa) = 56.49712 66.78911 74.02495
#
# Poissons Ratio (x) = 0.24126 0.48848
# Poissons Ratio (y) = 0.20408 0.13818
# Poissons Ratio (z) = 0.37281 0.12467
#
# Static dielectric constant tensor:
#      x y z
#    x 3.222550 -0.000010 -0.091710 
#    y -0.000010 3.267580 -0.000040 
#    z -0.091710 -0.000040 3.567420 
# 
# 
# High freq. dielectric constant tensor:
#      x y z
#    x 1.735530 0.000000 -0.010200 
#    y 0.000000 1.718880 0.000000 
#    z -0.010200 0.000000 1.743250 
# 
# From -- ./inp_files/382905.got.cif
#   From: 2010.06.25/outbox.cif.g09.slc.cpg/sg12_192_cif.got.tgz:382905.got - 2010.06.28 00:19:55.
