data_PCOD8091986
_publ_section_title
;
Structure prediction by ZEFSAII (Michael W. Deem and Ramdas Pophale) SiO2 
 PCOD8091986
Probable space group: C 2/M
;
_chemical_formula_sum "Si O2"
_cell_formula_units_Z 64
_cell_length_a 32.506119
_cell_length_b 8.887389
_cell_length_c 15.199513
_cell_angle_alpha 90.000000
_cell_angle_beta 132.440413
_cell_angle_gamma 90.000000
_cell_volume 3240.509566
_symmetry_space_group_name_H-M "C 2/M"
_symmetry_group_IT_number 12
_symmetry_cell_setting 'monoclinic'
loop_
_space_group_symop_operation_xyz
x,y,z
-x,y,-z
-x,-y,-z
x,-y,z
1/2+x,1/2+y,z
1/2-x,1/2+y,-z
1/2-x,1/2-y,-z
1/2+x,1/2-y,z
loop_
_atom_site_type_symbol
_atom_site_label
_atom_site_fract_x
_atom_site_fract_y
_atom_site_fract_z
Si Si1 0.419438 0.678951 0.234967
Si Si2 0.787118 0.672796 0.481085
Si Si3 0.753574 0.671446 0.236620
Si Si4 0.563925 0.822458 0.084351
Si Si5 0.957449 0.174691 0.599242
Si Si6 0.635726 0.321593 0.665956
Si Si7 0.129799 0.178865 0.019887
Si Si8 0.103061 0.825848 0.315683
O O1 0.422802 0.500000 0.236799
O O2 0.482176 0.745757 0.335220
O O3 0.382959 0.734339 0.264580
O O4 0.391697 0.738034 0.105225
O O5 0.799230 0.500000 0.523711
O O6 0.750000 0.750000 0.500000
O O7 0.754848 0.685724 0.343229
O O8 0.843744 0.765805 0.554906
O O9 0.761083 0.500000 0.216969
O O10 0.802153 0.764948 0.260906
O O11 0.693513 0.734809 0.120527
O O12 0.590881 0.748699 0.038123
O O13 0.595676 0.768616 0.217015
O O14 0.569519 0.000000 0.084445
O O15 0.500000 0.770118 0.000000
O O16 0.908373 0.247310 0.468576
O O17 0.947667 0.197765 0.689499
O O18 0.958297 0.000000 0.576108
O O19 0.637092 0.500000 0.661679
O O20 0.126287 0.000000 0.024434
O O21 0.111028 0.000000 0.301927
#
# Coordination Sequence:
#
# PCOD8091986 Si02
#       8
#     8   8   8   8   8   8   8   8
#     4   9  18  33  57  86 113 145 191 246 295 338
#     4  11  22  36  55  80 112 150 192 240 293 346
#     4  10  22  38  55  79 116 154 189 236 291 346
#     4  11  24  40  58  85 120 156 192 236 291 348
#     4   9  17  31  54  86 117 144 184 239 294 348
#     4  10  19  34  58  86 114 148 191 240 292 346
#     4  10  21  39  60  83 113 154 201 243 286 343
#     4  11  21  35  58  86 113 148 193 237 289 348
#
# _framework density 19.749979
#
# number of rings (size 3 to 8) (size 9 to 14) (size 15 to 20)
#    0.000    1.875    1.250    3.000    0.000    6.000 
#    0.000    0.625    0.000    3.000    0.000    0.000 
#    0.000    0.000    0.000    0.000    0.000    0.000 
#
# Total GULP energy -396840.094960 kJ/mol
# GULP energy per Si atom -12401.252968 kJ/mol
# Density = 1.970503 g / cm^3
# Si number density = 19.749979 Si / 1000 Ang^3
#
#
#
# Elastic Constant Matrix: (Units=GPa)
#
#
# Indices 1 2 3 4 5 6 
#
# 1 162.7842 43.7660 73.3260 0.0000 4.9802 0.0000
# 2 43.7660 34.5231 22.3329 0.0000 2.1139 0.0000
# 3 73.3260 22.3329 133.8057 0.0000 3.3120 0.0000
# 4 0.0000 0.0000 0.0000 19.1338 0.0000 4.8998
# 5 4.9802 2.1139 3.3120 0.0000 38.4812 0.0000
# 6 0.0000 0.0000 0.0000 4.8998 0.0000 23.6458
#
#
#
# Elastic Compliance Matrix: (Units=1/GPa)
#
#
# Indices 1 2 3 4 5 6 
#
# 1 0.011079 -0.011319 -0.004171 0.000000 -0.000453 0.000000
# 2 -0.011319 0.044104 -0.001137 0.000000 -0.000860 0.000000
# 3 -0.004171 -0.001137 0.009955 0.000000 -0.000255 0.000000
# 4 0.000000 0.000000 0.000000 0.055192 0.000000 -0.011437
# 5 -0.000453 -0.000860 -0.000255 0.000000 0.026115 0.000000
# 6 0.000000 0.000000 0.000000 -0.011437 0.000000 0.044661
#
#
# Mechanical properties :
#
#
# Convention : Reuss Voigt Hill
#
# Bulk Modulus (GPa) = 31.36353 67.77364 49.56858
# Shear Modulus (GPa) = 21.27766 29.03136 25.15451
#
# Velocity S-wave (km/s) = 3.28586 3.83814 3.57269
# Velocity P-wave (km/s) = 5.50551 7.35065 6.49395
#
# Compressibility (1/GPa) = 0.03188417
#
# Stress axis : x y z
#
# Youngs Moduli (GPa) = 90.26046 22.67359 100.44971
#
# Poissons Ratio (x) = 0.25665 0.41896
# Poissons Ratio (y) = 1.02169 0.11420
# Poissons Ratio (z) = 0.37647 0.02578
#
# Static dielectric constant tensor:
#      x y z
#    x 3.724400 0.000000 0.103890 
#    y 0.000000 3.377690 0.000000 
#    z 0.103890 0.000000 3.823880 
# 
# 
# High freq. dielectric constant tensor:
#      x y z
#    x 1.784170 0.000000 0.001960 
#    y 0.000000 1.737750 0.000000 
#    z 0.001960 0.000000 1.780070 
# 
# From -- ./inp_files/250095.got.cif
#   From: 2010.06.25/outbox.cif.g09.slc.cpg/sg12_126_cif.got.tgz:250095.got - 2010.06.28 00:19:55.
