data_PCOD8091156
_publ_section_title
;
Structure prediction by ZEFSAII (Michael W. Deem and Ramdas Pophale) SiO2 
 PCOD8091156
Probable space group: C 2/M
;
_chemical_formula_sum "Si O2"
_cell_formula_units_Z 64
_cell_length_a 15.489027
_cell_length_b 8.671292
_cell_length_c 23.921206
_cell_angle_alpha 90.000000
_cell_angle_beta 89.741934
_cell_angle_gamma 90.000000
_cell_volume 3212.821620
_symmetry_space_group_name_H-M "C 2/M"
_symmetry_group_IT_number 12
_symmetry_cell_setting 'monoclinic'
loop_
_space_group_symop_operation_xyz
x,y,z
-x,y,-z
-x,-y,-z
x,-y,z
1/2+x,1/2+y,z
1/2-x,1/2+y,-z
1/2-x,1/2-y,-z
1/2+x,1/2-y,z
loop_
_atom_site_type_symbol
_atom_site_label
_atom_site_fract_x
_atom_site_fract_y
_atom_site_fract_z
Si Si1 0.397833 0.182776 0.058270
Si Si2 0.088209 0.682004 0.666992
Si Si3 0.412412 0.681363 0.671202
Si Si4 0.090992 0.317494 0.067562
Si Si5 0.747443 0.816763 0.739579
Si Si6 0.849086 0.320918 0.560764
Si Si7 0.351210 0.320301 0.445223
Si Si8 0.243897 0.816929 0.134790
O O1 0.492202 0.234101 0.080257
O O2 0.322472 0.252709 0.097525
O O3 0.394352 0.000000 0.058755
O O4 0.383380 0.239486 0.994777
O O5 0.094889 0.500000 0.659102
O O6 0.163308 0.744927 0.707364
O O7 0.093228 0.762789 0.606894
O O8 0.997048 0.731275 0.694058
O O9 0.424903 0.500000 0.678400
O O10 0.332437 0.744609 0.707836
O O11 0.398613 0.720915 0.606416
O O12 0.101712 0.500000 0.073161
O O13 0.151840 0.234811 0.111722
O O14 0.746075 0.751658 0.802566
O O15 0.747219 0.000000 0.739923
O O16 0.868919 0.500000 0.570610
O O17 0.748264 0.281832 0.566681
O O18 0.883169 0.270985 0.499831
O O19 0.366303 0.500000 0.455485
O O20 0.247947 0.000000 0.134524
#
# Coordination Sequence:
#
# PCOD8091156 Si02
#       8
#     8   8   8   8   8   8   8   8
#     4   8  16  31  53  77 111 148 181 216 270 332
#     4  11  22  39  60  83 109 145 187 229 275 334
#     4  11  22  39  59  81 109 145 183 230 283 331
#     4   9  17  32  52  80 111 145 180 223 271 322
#     4   9  21  39  57  76 108 146 184 226 278 329
#     4  10  20  35  58  87 115 145 181 223 272 334
#     4  10  20  35  58  87 116 146 179 223 277 331
#     4  10  19  34  55  79 105 144 186 226 271 325
#
# _framework density 19.920183999999999
#
# number of rings (size 3 to 8) (size 9 to 14) (size 15 to 20)
#    0.000    2.250    1.250    2.625    0.000    2.500 
#    0.000    8.125    0.000    0.000    0.000    0.000 
#    0.000    0.000    0.000    0.000    0.000    0.000 
#
# Total GULP energy -396860.050076 kJ/mol
# GULP energy per Si atom -12401.876565 kJ/mol
# Density = 1.987484 g / cm^3
# Si number density = 19.920184 Si / 1000 Ang^3
#
#
#
# Elastic Constant Matrix: (Units=GPa)
#
#
# Indices 1 2 3 4 5 6 
#
# 1 129.9625 15.7183 62.3696 0.0000 3.8185 0.0000
# 2 15.7183 29.8399 11.2752 0.0000 0.8400 0.0000
# 3 62.3696 11.2752 122.0169 0.0000 5.1653 0.0000
# 4 0.0000 0.0000 0.0000 19.9175 0.0000 4.7430
# 5 3.8185 0.8400 5.1653 0.0000 14.8850 0.0000
# 6 0.0000 0.0000 0.0000 4.7430 0.0000 30.9657
#
#
#
# Elastic Compliance Matrix: (Units=1/GPa)
#
#
# Indices 1 2 3 4 5 6 
#
# 1 0.010575 -0.003646 -0.005036 0.000000 -0.000759 0.000000
# 2 -0.003646 0.035992 -0.001437 0.000000 -0.000597 0.000000
# 3 -0.005036 -0.001437 0.011006 0.000000 -0.002446 0.000000
# 4 0.000000 0.000000 0.000000 0.052108 0.000000 -0.007981
# 5 -0.000759 -0.000597 -0.002446 0.000000 0.068259 0.000000
# 6 0.000000 0.000000 0.000000 -0.007981 0.000000 0.033516
#
#
# Mechanical properties :
#
#
# Convention : Reuss Voigt Hill
#
# Bulk Modulus (GPa) = 26.78452 51.17172 38.97812
# Shear Modulus (GPa) = 20.48006 25.98406 23.23206
#
# Velocity S-wave (km/s) = 3.20989 3.61558 3.41876
# Velocity P-wave (km/s) = 5.21660 6.57069 5.93241
#
# Compressibility (1/GPa) = 0.03733500
#
# Stress axis : x y z
#
# Youngs Moduli (GPa) = 94.56507 27.78359 90.85741
#
# Poissons Ratio (x) = 0.10130 0.45758
# Poissons Ratio (y) = 0.34478 0.13057
# Poissons Ratio (z) = 0.47626 0.03993
#
# Static dielectric constant tensor:
#      x y z
#    x 3.841530 0.000000 -0.111130 
#    y 0.000000 3.262150 0.000000 
#    z -0.111130 0.000000 3.742730 
# 
# 
# High freq. dielectric constant tensor:
#      x y z
#    x 1.787650 0.000000 0.000130 
#    y 0.000000 1.750260 0.000000 
#    z 0.000130 0.000000 1.772920 
# 
# From -- ./inp_files/338764.got.cif
#   From: 2010.06.25/outbox.cif.g09.slc.cpg/sg12_170_cif.got.tgz:338764.got - 2010.06.28 00:19:55.
