data_PCOD8091291
_publ_section_title
;
Structure prediction by ZEFSAII (Michael W. Deem and Ramdas Pophale) SiO2 
 PCOD8091291
Probable space group: C 2/M
;
_chemical_formula_sum "Si O2"
_cell_formula_units_Z 40
_cell_length_a 9.013506
_cell_length_b 18.353620
_cell_length_c 19.065847
_cell_angle_alpha 90.000000
_cell_angle_beta 45.175343
_cell_angle_gamma 90.000000
_cell_volume 2237.080496
_symmetry_space_group_name_H-M "C 2/M"
_symmetry_group_IT_number 12
_symmetry_cell_setting 'monoclinic'
loop_
_space_group_symop_operation_xyz
x,y,z
-x,y,-z
-x,-y,-z
x,-y,z
1/2+x,1/2+y,z
1/2-x,1/2+y,-z
1/2-x,1/2-y,-z
1/2+x,1/2-y,z
loop_
_atom_site_type_symbol
_atom_site_label
_atom_site_fract_x
_atom_site_fract_y
_atom_site_fract_z
Si Si1 0.941068 0.199391 0.805930
Si Si2 0.288763 0.580144 0.527227
Si Si3 0.580201 0.153190 0.717073
Si Si4 0.938404 0.085485 0.688402
Si Si5 0.630410 0.317836 0.890297
O O1 0.959386 0.126732 0.754529
O O2 0.708285 0.234240 0.877331
O O3 0.109625 0.260133 0.722514
O O4 0.982538 0.178204 0.872171
O O5 0.500000 0.573215 0.500000
O O6 0.181756 0.500000 0.559594
O O7 0.133794 0.636700 0.617406
O O8 0.357274 0.606287 0.426636
O O9 0.724582 0.106748 0.720478
O O10 0.336791 0.131584 0.811196
O O11 0.931981 0.000000 0.706026
O O12 0.500000 0.346658 0.000000
#
# Coordination Sequence:
#
# PCOD8091291 Si02
#       5
#     8   8   8   8   8
#     4  10  19  34  55  86 105 140 182 231 267 313
#     4   8  15  29  52  78 110 149 178 207 263 328
#     4   9  17  32  54  84 104 143 183 225 256 317
#     4  10  19  35  57  82 115 148 177 213 269 329
#     4  10  20  35  58  79 104 140 184 230 278 320
#
# _framework density 17.880447
#
# number of rings (size 3 to 8) (size 9 to 14) (size 15 to 20)
#    1.200    1.400    2.000    2.400    0.000    0.800 
#    0.000    3.000    0.000   12.000    0.000    0.000 
#    0.000    0.000    0.000    0.000    0.000    0.000 
#
# Total GULP energy -247796.084931 kJ/mol
# GULP energy per Si atom -12389.804247 kJ/mol
# Density = 1.783975 g / cm^3
# Si number density = 17.880447 Si / 1000 Ang^3
#
#
#
# Elastic Constant Matrix: (Units=GPa)
#
#
# Indices 1 2 3 4 5 6 
#
# 1 79.9543 25.1545 52.3236 -0.0021 20.8759 0.0000
# 2 25.1545 62.9853 38.7067 -0.0003 3.3395 -0.0001
# 3 52.3236 38.7067 124.5565 -0.0003 4.6421 0.0008
# 4 -0.0021 -0.0003 -0.0003 9.0825 0.0026 7.3986
# 5 20.8759 3.3395 4.6421 0.0026 27.2623 -0.0013
# 6 0.0000 -0.0001 0.0008 7.3986 -0.0013 19.4681
#
#
#
# Elastic Compliance Matrix: (Units=1/GPa)
#
#
# Indices 1 2 3 4 5 6 
#
# 1 0.022923 -0.003414 -0.007981 0.000015 -0.015776 -0.000006
# 2 -0.003414 0.020184 -0.004874 -0.000001 0.000972 0.000001
# 3 -0.007981 -0.004874 0.012726 -0.000004 0.004541 0.000001
# 4 0.000015 -0.000001 -0.000004 0.159470 -0.000029 -0.060605
# 5 -0.015776 0.000972 0.004541 -0.000029 0.047869 0.000014
# 6 -0.000006 0.000001 0.000001 -0.060605 0.000014 0.074398
#
#
# Mechanical properties :
#
#
# Convention : Reuss Voigt Hill
#
# Bulk Modulus (GPa) = 42.92653 55.54063 49.23358
# Shear Modulus (GPa) = 13.23192 21.24999 17.24096
#
# Velocity S-wave (km/s) = 2.72329 3.45113 3.10858
# Velocity P-wave (km/s) = 5.82649 6.85639 6.36231
#
# Compressibility (1/GPa) = 0.02329562
#
# Stress axis : x y z
#
# Youngs Moduli (GPa) = 43.62440 49.54387 78.57641
#
# Poissons Ratio (x) = 0.16914 0.62709
# Poissons Ratio (y) = 0.14893 0.38301
# Poissons Ratio (z) = 0.34815 0.24150
#
# Static dielectric constant tensor:
#      x y z
#    x 3.022830 0.000000 0.053580 
#    y 0.000000 3.084870 0.000000 
#    z 0.053580 0.000000 3.429360 
# 
# 
# High freq. dielectric constant tensor:
#      x y z
#    x 1.673940 0.000000 0.009790 
#    y 0.000000 1.664950 0.000000 
#    z 0.009790 0.000000 1.690550 
# 
# From -- ./inp_files/256392.got.cif
#   From: 2010.06.25/outbox.cif.g09.slc.cpg/sg12_129_cif.got.tgz:256392.got - 2010.06.28 00:19:55.
