data_PCOD8091417
_publ_section_title
;
Structure prediction by ZEFSAII (Michael W. Deem and Ramdas Pophale) SiO2 
 PCOD8091417
Probable space group: C 2/M
;
_chemical_formula_sum "Si O2"
_cell_formula_units_Z 64
_cell_length_a 14.279170
_cell_length_b 8.840318
_cell_length_c 27.303393
_cell_angle_alpha 90.000000
_cell_angle_beta 74.557768
_cell_angle_gamma 90.000000
_cell_volume 3322.149588
_symmetry_space_group_name_H-M "C 2/M"
_symmetry_group_IT_number 12
_symmetry_cell_setting 'monoclinic'
loop_
_space_group_symop_operation_xyz
x,y,z
-x,y,-z
-x,-y,-z
x,-y,z
1/2+x,1/2+y,z
1/2-x,1/2+y,-z
1/2-x,1/2-y,-z
1/2+x,1/2-y,z
loop_
_atom_site_type_symbol
_atom_site_label
_atom_site_fract_x
_atom_site_fract_y
_atom_site_fract_z
Si Si1 0.084404 0.323827 0.591760
Si Si2 0.314994 0.821975 0.321539
Si Si3 0.137671 0.677508 0.389629
Si Si4 0.614841 0.329389 0.490782
Si Si5 0.033182 0.821413 0.941834
Si Si6 0.791785 0.319734 0.136267
Si Si7 0.417432 0.677697 0.865064
Si Si8 0.610242 0.679383 0.786214
O O1 0.095633 0.500000 0.579664
O O2 0.129587 0.275017 0.636796
O O3 0.141688 0.239946 0.539902
O O4 0.971723 0.276863 0.608792
O O5 0.204951 0.762134 0.340699
O O6 0.370139 0.739013 0.270420
O O7 0.315456 0.000000 0.312042
O O8 0.156106 0.500000 0.383838
O O9 0.164871 0.734449 0.440416
O O10 0.500000 0.321532 0.500000
O O11 0.654396 0.500000 0.482141
O O12 0.132245 0.735909 0.914988
O O13 0.948745 0.772828 0.915517
O O14 0.053484 0.000000 0.935971
O O15 0.000000 0.769622 0.000000
O O16 0.793697 0.500000 0.138894
O O17 0.686556 0.253085 0.135044
O O18 0.814171 0.252784 0.186497
O O19 0.406808 0.500000 0.864305
O O20 0.500998 0.730391 0.815612
O O21 0.622549 0.500000 0.787033
#
# Coordination Sequence:
#
# PCOD8091417 Si02
#       8
#     8   8   8   8   8   8   8   8
#     4   9  20  37  55  76 105 138 172 212 258 314
#     4  11  23  38  55  79 107 134 171 219 268 314
#     4  10  20  36  56  78 105 138 173 210 258 315
#     4   9  17  31  53  79 105 135 172 213 257 308
#     4   9  18  34  54  79 115 153 184 217 260 311
#     4  10  19  34  56  81 108 140 181 225 266 307
#     4   8  17  34  55  78 106 142 180 218 263 313
#     4  10  21  39  57  75 103 138 176 217 266 321
#
# _framework density 19.264634000000001
#
# number of rings (size 3 to 8) (size 9 to 14) (size 15 to 20)
#    0.000    2.500    0.000    2.625    0.000    5.250 
#    0.000    8.750    0.000    0.000    0.000    0.000 
#    0.000    0.000    0.000    0.000    0.000    0.000 
#
# Total GULP energy -396836.354774 kJ/mol
# GULP energy per Si atom -12401.136087 kJ/mol
# Density = 1.922079 g / cm^3
# Si number density = 19.264634 Si / 1000 Ang^3
#
#
#
# Elastic Constant Matrix: (Units=GPa)
#
#
# Indices 1 2 3 4 5 6 
#
# 1 110.8981 28.1357 48.1180 0.0000 2.1892 0.0000
# 2 28.1357 60.2881 32.0029 0.0000 -0.4072 0.0000
# 3 48.1180 32.0029 126.8019 0.0000 -4.8609 0.0000
# 4 0.0000 0.0000 0.0000 35.0376 0.0000 -3.3509
# 5 2.1892 -0.4072 -4.8609 0.0000 18.2177 0.0000
# 6 0.0000 0.0000 0.0000 -3.3509 0.0000 24.0761
#
#
#
# Elastic Compliance Matrix: (Units=1/GPa)
#
#
# Indices 1 2 3 4 5 6 
#
# 1 0.011501 -0.003485 -0.003578 0.000000 -0.002415 0.000000
# 2 -0.003485 0.020223 -0.003787 0.000000 -0.000140 0.000000
# 3 -0.003578 -0.003787 0.010318 0.000000 0.003098 0.000000
# 4 0.000000 0.000000 0.000000 0.028926 0.000000 0.004026
# 5 -0.002415 -0.000140 0.003098 0.000000 0.056005 0.000000
# 6 0.000000 0.000000 0.000000 0.004026 0.000000 0.042095
#
#
# Mechanical properties :
#
#
# Convention : Reuss Voigt Hill
#
# Bulk Modulus (GPa) = 49.15445 57.16680 53.16063
# Shear Modulus (GPa) = 25.31027 28.11506 26.71266
#
# Velocity S-wave (km/s) = 3.62860 3.82437 3.72777
# Velocity P-wave (km/s) = 6.56707 7.01712 6.79582
#
# Compressibility (1/GPa) = 0.02034404
#
# Stress axis : x y z
#
# Youngs Moduli (GPa) = 86.94650 49.44973 96.91413
#
# Poissons Ratio (x) = 0.17232 0.34671
# Poissons Ratio (y) = 0.30299 0.36700
# Poissons Ratio (z) = 0.31105 0.18726
#
# Static dielectric constant tensor:
#      x y z
#    x 3.704890 0.000000 0.004000 
#    y 0.000000 3.411500 0.000000 
#    z 0.004000 0.000000 3.552610 
# 
# 
# High freq. dielectric constant tensor:
#      x y z
#    x 1.752900 0.000000 -0.002620 
#    y 0.000000 1.743450 0.000000 
#    z -0.002620 0.000000 1.749660 
# 
# From -- ./inp_files/359852.got.cif
#   From: 2010.06.25/outbox.cif.g09.slc.cpg/sg12_180_cif.got.tgz:359852.got - 2010.06.28 00:19:55.
