data_PCOD8091649
_publ_section_title
;
Structure prediction by ZEFSAII (Michael W. Deem and Ramdas Pophale) SiO2 
 PCOD8091649
Probable space group: C 2/M
;
_chemical_formula_sum "Si O2"
_cell_formula_units_Z 64
_cell_length_a 28.320963
_cell_length_b 9.135772
_cell_length_c 14.589005
_cell_angle_alpha 90.000000
_cell_angle_beta 59.461331
_cell_angle_gamma 90.000000
_cell_volume 3251.071679
_symmetry_space_group_name_H-M "C 2/M"
_symmetry_group_IT_number 12
_symmetry_cell_setting 'monoclinic'
loop_
_space_group_symop_operation_xyz
x,y,z
-x,y,-z
-x,-y,-z
x,-y,z
1/2+x,1/2+y,z
1/2-x,1/2+y,-z
1/2-x,1/2-y,-z
1/2+x,1/2-y,z
loop_
_atom_site_type_symbol
_atom_site_label
_atom_site_fract_x
_atom_site_fract_y
_atom_site_fract_z
Si Si1 0.484464 0.331221 0.416597
Si Si2 0.931786 0.174270 0.816104
Si Si3 0.760714 0.160906 0.079808
Si Si4 0.633734 0.667553 0.426641
Si Si5 0.360322 0.837194 0.757728
Si Si6 0.054539 0.826993 0.992375
Si Si7 0.172749 0.826239 0.815029
Si Si8 0.752508 0.824980 0.595480
O O1 0.500000 0.258920 0.500000
O O2 0.501316 0.500000 0.405868
O O3 0.519501 0.264938 0.297923
O O4 0.419760 0.313359 0.455672
O O5 0.875602 0.245153 0.833731
O O6 0.941292 0.235636 0.908777
O O7 0.926059 0.000000 0.822235
O O8 0.704557 0.155185 0.191341
O O9 0.805062 0.226127 0.107034
O O10 0.780199 0.000000 0.029952
O O11 0.750000 0.250000 0.000000
O O12 0.641805 0.500000 0.388614
O O13 0.616740 0.757336 0.353981
O O14 0.688785 0.723524 0.421033
O O15 0.385409 0.000000 0.739823
O O16 0.048712 0.000000 0.004402
O O17 0.108091 0.787330 0.878632
O O18 0.000000 0.758840 0.000000
O O19 0.202732 0.736004 0.705874
O O20 0.183265 0.000000 0.790682
O O21 0.750000 0.750000 0.500000
O O22 0.747541 0.000000 0.591660
#
# Coordination Sequence:
#
# PCOD8091649 Si02
#       8
#     8   8   8   8   8   8   8   8
#     4   9  16  29  53  83 111 143 188 239 280 326
#     4  10  19  34  57  81 112 150 192 238 284 341
#     4  10  21  34  52  81 114 151 188 230 285 339
#     4  10  20  36  57  82 110 148 193 232 279 335
#     4  11  21  33  52  80 116 148 181 229 285 342
#     4   9  19  35  59  88 111 145 197 248 290 329
#     4  10  20  38  60  84 118 151 191 243 293 344
#     4  11  24  40  62  89 117 152 195 239 288 347
#
# _framework density 19.685817
#
# number of rings (size 3 to 8) (size 9 to 14) (size 15 to 20)
#    0.000    2.000    2.500    1.500    0.000    4.000 
#    0.000    5.625    0.000    3.000    0.000    0.000 
#    0.000    0.000    0.000    0.000    0.000    0.000 
#
# Total GULP energy -396661.113331 kJ/mol
# GULP energy per Si atom -12395.659792 kJ/mol
# Density = 1.964101 g / cm^3
# Si number density = 19.685817 Si / 1000 Ang^3
#
#
#
# Elastic Constant Matrix: (Units=GPa)
#
#
# Indices 1 2 3 4 5 6 
#
# 1 137.0474 32.3894 53.9875 0.0000 0.5131 0.0000
# 2 32.3894 55.4756 32.3121 0.0000 8.8573 0.0000
# 3 53.9875 32.3121 105.0001 0.0000 5.6319 0.0000
# 4 0.0000 0.0000 0.0000 27.0199 0.0000 0.5312
# 5 0.5131 8.8573 5.6319 0.0000 36.1405 0.0000
# 6 0.0000 0.0000 0.0000 0.5312 0.0000 21.9908
#
#
#
# Elastic Compliance Matrix: (Units=1/GPa)
#
#
# Indices 1 2 3 4 5 6 
#
# 1 0.009695 -0.003571 -0.003959 0.000000 0.001354 0.000000
# 2 -0.003571 0.023983 -0.005276 0.000000 -0.005005 0.000000
# 3 -0.003959 -0.005276 0.013221 0.000000 -0.000711 0.000000
# 4 0.000000 0.000000 0.000000 0.037027 0.000000 -0.000894
# 5 0.001354 -0.005005 -0.000711 0.000000 0.028988 0.000000
# 6 0.000000 0.000000 0.000000 -0.000894 0.000000 0.045495
#
#
# Mechanical properties :
#
#
# Convention : Reuss Voigt Hill
#
# Bulk Modulus (GPa) = 46.97485 59.43346 53.20415
# Shear Modulus (GPa) = 26.16209 28.95250 27.55730
#
# Velocity S-wave (km/s) = 3.64948 3.83917 3.74552
# Velocity P-wave (km/s) = 6.45541 7.06462 6.76687
#
# Compressibility (1/GPa) = 0.02128799
#
# Stress axis : x y z
#
# Youngs Moduli (GPa) = 103.14535 41.69641 75.63800
#
# Poissons Ratio (x) = 0.14890 0.29942
# Poissons Ratio (y) = 0.36833 0.39905
# Poissons Ratio (z) = 0.40831 0.21998
#
# Static dielectric constant tensor:
#      x y z
#    x 3.782740 0.000000 -0.122970 
#    y 0.000000 3.378990 0.000000 
#    z -0.122970 0.000000 3.659270 
# 
# 
# High freq. dielectric constant tensor:
#      x y z
#    x 1.772540 0.000000 -0.012000 
#    y 0.000000 1.729540 0.000000 
#    z -0.012000 0.000000 1.770640 
# 
# From -- ./inp_files/249104.got.cif
#   From: 2010.06.25/outbox.cif.g09.slc.cpg/sg12_125_cif.got.tgz:249104.got - 2010.06.28 00:19:55.
