data_PCOD8091759
_publ_section_title
;
Structure prediction by ZEFSAII (Michael W. Deem and Ramdas Pophale) SiO2 
 PCOD8091759
Probable space group: C 2/M
;
_chemical_formula_sum "Si O2"
_cell_formula_units_Z 48
_cell_length_a 32.006009
_cell_length_b 10.695011
_cell_length_c 23.847828
_cell_angle_alpha 90.000000
_cell_angle_beta 17.209904
_cell_angle_gamma 90.000000
_cell_volume 2415.278291
_symmetry_space_group_name_H-M "C 2/M"
_symmetry_group_IT_number 12
_symmetry_cell_setting 'monoclinic'
loop_
_space_group_symop_operation_xyz
x,y,z
-x,y,-z
-x,-y,-z
x,-y,z
1/2+x,1/2+y,z
1/2-x,1/2+y,-z
1/2-x,1/2-y,-z
1/2+x,1/2-y,z
loop_
_atom_site_type_symbol
_atom_site_label
_atom_site_fract_x
_atom_site_fract_y
_atom_site_fract_z
Si Si1 0.945481 0.752161 0.806717
Si Si2 0.029216 0.146873 0.104486
Si Si3 0.745618 0.647023 0.604736
Si Si4 0.837753 0.863493 0.837560
Si Si5 0.478530 0.858743 0.592066
Si Si6 0.206143 0.141548 0.776053
O O1 0.915037 0.857866 0.798947
O O2 0.918476 0.798230 0.904250
O O3 0.106661 0.710952 0.596953
O O4 0.832974 0.642144 0.937063
O O5 0.864799 0.178409 0.303207
O O6 0.054935 0.000000 0.074611
O O7 0.124499 0.208515 0.932221
O O8 0.773332 0.500000 0.574638
O O9 0.675634 0.697143 0.753064
O O10 0.878234 0.746772 0.746407
O O11 0.876378 0.000000 0.762287
O O12 0.500000 0.827401 0.500000
O O13 0.626476 0.849395 0.433270
O O14 0.414992 0.000000 0.680708
O O15 0.151145 0.000000 0.847941
#
# Coordination Sequence:
#
# PCOD8091759 Si02
#       6
#     8   8   8   8   8   8
#     4  11  22  37  55  80 118 156 197 238 287 350
#     4  10  20  34  56  86 115 144 189 243 292 346
#     4  10  19  34  57  84 113 147 189 242 295 342
#     4  11  24  38  57  83 118 161 199 240 291 350
#     4  10  20  36  60  87 116 151 193 244 296 347
#     4   9  17  32  54  83 113 142 182 237 295 341
#
# _framework density 19.873486
#
# number of rings (size 3 to 8) (size 9 to 14) (size 15 to 20)
#    0.000    1.833    1.667    3.000    0.000    7.000 
#    0.000    0.000    0.000    0.000    0.000    1.167 
#    0.000    0.000    0.000    0.000    0.000    0.000 
#
# Total GULP energy -297396.368416 kJ/mol
# GULP energy per Si atom -12391.515351 kJ/mol
# Density = 1.982825 g / cm^3
# Si number density = 19.873486 Si / 1000 Ang^3
#
#
#
# Elastic Constant Matrix: (Units=GPa)
#
#
# Indices 1 2 3 4 5 6 
#
# 1 111.5749 29.0195 20.8510 -0.0005 6.2883 -0.0004
# 2 29.0195 90.1151 38.0454 -0.0003 7.0743 -0.0002
# 3 20.8510 38.0454 87.3932 -0.0009 1.8151 -0.0006
# 4 -0.0005 -0.0003 -0.0009 -12.3312 0.0006 -4.2591
# 5 6.2883 7.0743 1.8151 0.0006 33.1851 0.0005
# 6 -0.0004 -0.0002 -0.0006 -4.2591 0.0005 13.0872
#
#
#
# Elastic Compliance Matrix: (Units=1/GPa)
#
#
# Indices 1 2 3 4 5 6 
#
# 1 0.009934 -0.002585 -0.001218 0.000000 -0.001265 0.000000
# 2 -0.002585 0.014492 -0.005645 0.000000 -0.002291 0.000000
# 3 -0.001218 -0.005645 0.014177 -0.000001 0.000659 0.000000
# 4 0.000000 0.000000 -0.000001 -0.072901 0.000002 -0.023725
# 5 -0.001265 -0.002291 0.000659 0.000002 0.030826 -0.000001
# 6 0.000000 0.000000 0.000000 -0.023725 -0.000001 0.068690
#
#
# Mechanical properties :
#
#
# Convention : Reuss Voigt Hill
#
# Bulk Modulus (GPa) = 50.74469 51.65722 51.20095
# Shear Modulus (GPa) = 55.13686 20.19939 37.66813
#
# Velocity S-wave (km/s) = 5.27296 3.19156 4.35834
# Velocity P-wave (km/s) = 7.91590 6.29531 7.15166
#
# Compressibility (1/GPa) = 0.01970650
#
# Stress axis : x y z
#
# Youngs Moduli (GPa) = 100.66472 69.00173 70.53748
#
# Poissons Ratio (x) = 0.17839 0.08594
# Poissons Ratio (y) = 0.26025 0.39816
# Poissons Ratio (z) = 0.12265 0.38949
#
# Static dielectric constant tensor:
#      x y z
#    x 3.972150 0.000000 0.004510 
#    y 0.000000 3.190370 0.000000 
#    z 0.004510 0.000000 3.708730 
# 
# 
# High freq. dielectric constant tensor:
#      x y z
#    x 1.800250 0.000000 -0.004330 
#    y 0.000000 1.719600 0.000000 
#    z -0.004330 0.000000 1.782830 
# 
# From -- ./inp_files/329996.got.cif
#   From: 2010.06.25/outbox.cif.g09.slc.cpg/sg12_165_cif.got.tgz:329996.got - 2010.06.28 00:19:55.
