data_PCOD8091676
_publ_section_title
;
Structure prediction by ZEFSAII (Michael W. Deem and Ramdas Pophale) SiO2 
 PCOD8091676
Probable space group: C 2/M
;
_chemical_formula_sum "Si O2"
_cell_formula_units_Z 64
_cell_length_a 27.516713
_cell_length_b 11.164922
_cell_length_c 14.780124
_cell_angle_alpha 90.000000
_cell_angle_beta 45.883396
_cell_angle_gamma 90.000000
_cell_volume 3259.936628
_symmetry_space_group_name_H-M "C 2/M"
_symmetry_group_IT_number 12
_symmetry_cell_setting 'monoclinic'
loop_
_space_group_symop_operation_xyz
x,y,z
-x,y,-z
-x,-y,-z
x,-y,z
1/2+x,1/2+y,z
1/2-x,1/2+y,-z
1/2-x,1/2-y,-z
1/2+x,1/2-y,z
loop_
_atom_site_type_symbol
_atom_site_label
_atom_site_fract_x
_atom_site_fract_y
_atom_site_fract_z
Si Si1 0.944287 0.365362 0.508214
Si Si2 0.949326 0.637651 0.145061
Si Si3 0.798128 0.134268 0.116199
Si Si4 0.457595 0.281460 0.316453
Si Si5 0.182063 0.128583 0.543785
Si Si6 0.897180 0.136096 0.832216
Si Si7 0.308794 0.245247 0.291656
Si Si8 0.839725 0.361425 0.791842
O O1 0.969473 0.500000 0.461969
O O2 0.940378 0.315674 0.413764
O O3 0.871915 0.356643 0.650379
O O4 0.000000 0.299065 0.500000
O O5 0.963120 0.500000 0.150880
O O6 0.968350 0.715715 0.207422
O O7 0.870116 0.649783 0.219502
O O8 0.000000 0.680752 0.000000
O O9 0.801513 0.220459 0.197102
O O10 0.738973 0.168047 0.121623
O O11 0.786955 0.000000 0.166993
O O12 0.867258 0.147127 0.971396
O O13 0.392767 0.367078 0.400863
O O14 0.522421 0.358065 0.261095
O O15 0.234488 0.210422 0.422657
O O16 0.172427 0.149102 0.663726
O O17 0.213872 0.000000 0.487877
O O18 0.870843 0.252497 0.810544
O O19 0.879729 0.000000 0.815659
O O20 0.849653 0.500000 0.818679
#
# Coordination Sequence:
#
# PCOD8091676 Si02
#       8
#     8   8   8   8   8   8   8   8
#     4  10  19  34  57  82 109 143 192 242 279 332
#     4  10  21  36  56  86 120 151 190 239 289 344
#     4  10  21  38  60  83 110 149 196 239 281 342
#     4  11  21  36  58  82 115 156 191 230 288 346
#     4  10  21  36  56  82 112 145 183 230 284 344
#     4  11  23  39  58  84 119 153 192 241 292 347
#     4  10  20  37  59  81 110 146 187 234 285 340
#     4  10  21  39  61  84 112 148 197 246 291 343
#
# _framework density 19.632282
#
# number of rings (size 3 to 8) (size 9 to 14) (size 15 to 20)
#    0.000    1.750    1.250    3.375    0.000    0.500 
#    0.000    9.375    0.000    6.000    0.000    0.000 
#    0.000    0.000    0.000    0.000    0.000    0.000 
#
# Total GULP energy -396470.555800 kJ/mol
# GULP energy per Si atom -12389.704869 kJ/mol
# Density = 1.958760 g / cm^3
# Si number density = 19.632282 Si / 1000 Ang^3
#
#
#
# Elastic Constant Matrix: (Units=GPa)
#
#
# Indices 1 2 3 4 5 6 
#
# 1 85.5253 42.9439 30.2407 0.0000 -2.1338 0.0000
# 2 42.9439 103.0322 26.8679 0.0000 11.2362 0.0000
# 3 30.2407 26.8679 93.8838 0.0000 0.4127 0.0000
# 4 0.0000 0.0000 0.0000 19.6576 0.0000 -2.5892
# 5 -2.1338 11.2362 0.4127 0.0000 38.0792 0.0000
# 6 0.0000 0.0000 0.0000 -2.5892 0.0000 13.4967
#
#
#
# Elastic Compliance Matrix: (Units=1/GPa)
#
#
# Indices 1 2 3 4 5 6 
#
# 1 0.016029 -0.006083 -0.003434 0.000000 0.002730 0.000000
# 2 -0.006083 0.013167 -0.001790 0.000000 -0.004207 0.000000
# 3 -0.003434 -0.001790 0.012269 0.000000 0.000203 0.000000
# 4 0.000000 0.000000 0.000000 0.052190 0.000000 0.010012
# 5 0.002730 -0.004207 0.000203 0.000000 0.027653 0.000000
# 6 0.000000 0.000000 0.000000 0.010012 0.000000 0.076013
#
#
# Mechanical properties :
#
#
# Convention : Reuss Voigt Hill
#
# Bulk Modulus (GPa) = 53.05067 53.61626 53.33346
# Shear Modulus (GPa) = 22.10242 26.40596 24.25419
#
# Velocity S-wave (km/s) = 3.35896 3.67144 3.51867
# Velocity P-wave (km/s) = 6.49033 6.73366 6.61311
#
# Compressibility (1/GPa) = 0.01884990
#
# Stress axis : x y z
#
# Youngs Moduli (GPa) = 62.38530 75.94857 81.50564
#
# Poissons Ratio (x) = 0.46202 0.27991
# Poissons Ratio (y) = 0.37951 0.14591
# Poissons Ratio (z) = 0.21425 0.13596
#
# Static dielectric constant tensor:
#      x y z
#    x 3.581330 0.000000 -0.163730 
#    y 0.000000 3.529300 0.000000 
#    z -0.163730 0.000000 3.700820 
# 
# 
# High freq. dielectric constant tensor:
#      x y z
#    x 1.759640 0.000000 -0.012510 
#    y 0.000000 1.755250 0.000000 
#    z -0.012510 0.000000 1.780640 
# 
# From -- ./inp_files/245940.got.cif
#   From: 2010.06.25/outbox.cif.g09.slc.cpg/sg12_123_cif.got.tgz:245940.got - 2010.06.28 00:19:55.
