data_PCOD8091550
_publ_section_title
;
Structure prediction by ZEFSAII (Michael W. Deem and Ramdas Pophale) SiO2 
 PCOD8091550
Probable space group: C 2/M
;
_chemical_formula_sum "Si O2"
_cell_formula_units_Z 48
_cell_length_a 20.436243
_cell_length_b 8.778212
_cell_length_c 15.076657
_cell_angle_alpha 90.000000
_cell_angle_beta 111.190460
_cell_angle_gamma 90.000000
_cell_volume 2521.778805
_symmetry_space_group_name_H-M "C 2/M"
_symmetry_group_IT_number 12
_symmetry_cell_setting 'monoclinic'
loop_
_space_group_symop_operation_xyz
x,y,z
-x,y,-z
-x,-y,-z
x,-y,z
1/2+x,1/2+y,z
1/2-x,1/2+y,-z
1/2-x,1/2-y,-z
1/2+x,1/2-y,z
loop_
_atom_site_type_symbol
_atom_site_label
_atom_site_fract_x
_atom_site_fract_y
_atom_site_fract_z
Si Si1 0.318174 0.675151 0.304993
Si Si2 0.676255 0.320646 0.177291
Si Si3 0.322769 0.678621 0.507804
Si Si4 0.176346 0.320651 0.991577
Si Si5 0.421725 0.677229 0.199537
Si Si6 0.920474 0.180710 0.709418
O O1 0.292574 0.500000 0.287502
O O2 0.255756 0.782214 0.241912
O O3 0.341210 0.720339 0.415608
O O4 0.385415 0.702531 0.276568
O O5 0.670104 0.500000 0.159245
O O6 0.624143 0.261763 0.228319
O O7 0.653261 0.236512 0.076712
O O8 0.315251 0.500000 0.518199
O O9 0.250000 0.750000 0.500000
O O10 0.384231 0.743081 0.601610
O O11 0.185836 0.500000 0.997475
O O12 0.116441 0.274243 0.893942
O O13 0.250000 0.250000 0.000000
O O14 0.420096 0.500000 0.171106
O O15 0.500437 0.742698 0.245753
O O16 0.922266 0.000000 0.708097
#
# Coordination Sequence:
#
# PCOD8091550 Si02
#       6
#     8   8   8   8   8   8
#     4  10  20  33  57  87 115 149 194 242 285 335
#     4  11  21  36  60  86 115 153 194 236 282 342
#     4  10  19  34  56  86 116 151 196 240 285 338
#     4  12  24  39  60  87 115 149 193 239 289 344
#     4  10  21  39  59  84 118 154 193 238 288 341
#     4   9  20  37  58  85 119 156 193 235 286 342
#
# _framework density 19.034182999999999
#
# number of rings (size 3 to 8) (size 9 to 14) (size 15 to 20)
#    0.000    1.667    3.333    2.000    0.000    1.333 
#    0.000    9.167    0.000    0.000    0.000    3.500 
#    0.000    0.000    0.000    0.000    0.000    0.000 
#
# Total GULP energy -297669.427001 kJ/mol
# GULP energy per Si atom -12402.892792 kJ/mol
# Density = 1.899086 g / cm^3
# Si number density = 19.034183 Si / 1000 Ang^3
#
#
#
# Elastic Constant Matrix: (Units=GPa)
#
#
# Indices 1 2 3 4 5 6 
#
# 1 120.0453 27.1723 64.4801 0.0000 4.7122 0.0000
# 2 27.1723 69.0098 43.8509 0.0000 -3.0964 0.0000
# 3 64.4801 43.8509 172.0479 0.0000 -4.1540 0.0000
# 4 0.0000 0.0000 0.0000 27.8774 0.0000 1.1876
# 5 4.7122 -3.0964 -4.1540 0.0000 37.1611 0.0000
# 6 0.0000 0.0000 0.0000 1.1876 0.0000 24.2436
#
#
#
# Elastic Compliance Matrix: (Units=1/GPa)
#
#
# Indices 1 2 3 4 5 6 
#
# 1 0.010789 -0.002071 -0.003562 0.000000 -0.001939 0.000000
# 2 -0.002071 0.017722 -0.003709 0.000000 0.001325 0.000000
# 3 -0.003562 -0.003709 0.008118 0.000000 0.001050 0.000000
# 4 0.000000 0.000000 0.000000 0.035946 0.000000 -0.001761
# 5 -0.001939 0.001325 0.001050 0.000000 0.027384 0.000000
# 6 0.000000 0.000000 0.000000 -0.001761 0.000000 0.041334
#
#
# Mechanical properties :
#
#
# Convention : Reuss Voigt Hill
#
# Bulk Modulus (GPa) = 55.72803 70.23439 62.98121
# Shear Modulus (GPa) = 30.12791 32.89639 31.51215
#
# Velocity S-wave (km/s) = 3.98280 4.16177 4.07327
# Velocity P-wave (km/s) = 7.10575 7.75067 7.43521
#
# Compressibility (1/GPa) = 0.01794429
#
# Stress axis : x y z
#
# Youngs Moduli (GPa) = 92.69118 56.42585 123.18345
#
# Poissons Ratio (x) = 0.11688 0.43880
# Poissons Ratio (y) = 0.19200 0.45685
# Poissons Ratio (z) = 0.33018 0.20927
#
# Static dielectric constant tensor:
#      x y z
#    x 3.497670 0.000000 -0.074460 
#    y 0.000000 3.331710 0.000000 
#    z -0.074460 0.000000 3.923030 
# 
# 
# High freq. dielectric constant tensor:
#      x y z
#    x 1.738550 0.000000 -0.007000 
#    y 0.000000 1.720990 0.000000 
#    z -0.007000 0.000000 1.758130 
# 
# From -- ./inp_files/230387.got.cif
#   From: 2010.06.25/outbox.cif.g09.slc.cpg/sg12_116_cif.got.tgz:230387.got - 2010.06.28 00:19:55.
