data_PCOD8091414
_publ_section_title
;
Structure prediction by ZEFSAII (Michael W. Deem and Ramdas Pophale) SiO2 
 PCOD8091414
Probable space group: C 2/M
;
_chemical_formula_sum "Si O2"
_cell_formula_units_Z 64
_cell_length_a 13.959880
_cell_length_b 9.440672
_cell_length_c 28.556238
_cell_angle_alpha 90.000000
_cell_angle_beta 63.653369
_cell_angle_gamma 90.000000
_cell_volume 3372.519264
_symmetry_space_group_name_H-M "C 2/M"
_symmetry_group_IT_number 12
_symmetry_cell_setting 'monoclinic'
loop_
_space_group_symop_operation_xyz
x,y,z
-x,y,-z
-x,-y,-z
x,-y,z
1/2+x,1/2+y,z
1/2-x,1/2+y,-z
1/2-x,1/2-y,-z
1/2+x,1/2-y,z
loop_
_atom_site_type_symbol
_atom_site_label
_atom_site_fract_x
_atom_site_fract_y
_atom_site_fract_z
Si Si1 0.890592 0.351129 0.474365
Si Si2 0.450759 0.670940 0.785376
Si Si3 0.993310 0.327798 0.136838
Si Si4 0.020986 0.160153 0.670411
Si Si5 0.220374 0.338238 0.864205
Si Si6 0.932997 0.839091 0.594775
Si Si7 0.763255 0.752224 0.417306
Si Si8 0.303687 0.332165 0.946029
O O1 0.952500 0.500000 0.460925
O O2 0.820661 0.349751 0.441977
O O3 0.812333 0.353954 0.536010
O O4 0.981329 0.232027 0.458868
O O5 0.464446 0.500000 0.790347
O O6 0.516461 0.760941 0.809304
O O7 0.493788 0.729774 0.726207
O O8 0.327707 0.721457 0.816663
O O9 0.007806 0.500000 0.134521
O O10 0.087750 0.250903 0.088380
O O11 0.887141 0.272114 0.133396
O O12 0.147411 0.166143 0.631941
O O13 0.950849 0.228216 0.643005
O O14 0.983797 0.000000 0.684073
O O15 0.215730 0.500000 0.851206
O O16 0.224091 0.316480 0.919255
O O17 0.811440 0.829252 0.603843
O O18 0.970577 0.000000 0.588565
O O19 0.324288 0.500000 0.952166
O O20 0.250000 0.250000 0.000000
#
# Coordination Sequence:
#
# PCOD8091414 Si02
#       8
#     8   8   8   8   8   8   8   8
#     4  10  21  35  52  75 103 134 168 210 260 313
#     4   9  18  36  56  75 103 138 173 215 266 315
#     4  10  19  34  56  81 106 140 184 223 259 305
#     4   9  19  35  54  76 103 134 170 212 261 316
#     4   8  17  33  54  76 103 141 180 213 255 311
#     4  10  21  36  54  76 101 133 172 211 254 313
#     4  10  20  33  53  76 103 133 170 212 258 310
#     4  10  20  36  55  80 114 149 181 218 263 309
#
# _framework density 18.976911999999999
#
# number of rings (size 3 to 8) (size 9 to 14) (size 15 to 20)
#    0.000    2.500    0.000    2.625    0.000    7.000 
#    0.000   13.125    0.000    0.000    0.000    0.000 
#    0.000    0.000    0.000    0.000    0.000    0.000 
#
# Total GULP energy -396445.506016 kJ/mol
# GULP energy per Si atom -12388.922063 kJ/mol
# Density = 1.893372 g / cm^3
# Si number density = 18.976912 Si / 1000 Ang^3
#
#
#
# Elastic Constant Matrix: (Units=GPa)
#
#
# Indices 1 2 3 4 5 6 
#
# 1 136.8881 30.6218 49.2400 0.0000 8.3051 0.0000
# 2 30.6218 81.3746 33.7007 0.0000 5.3678 0.0000
# 3 49.2400 33.7007 140.7050 0.0000 10.5991 0.0000
# 4 0.0000 0.0000 0.0000 11.3472 0.0000 -13.1863
# 5 8.3051 5.3678 10.5991 0.0000 15.1035 0.0000
# 6 0.0000 0.0000 0.0000 -13.1863 0.0000 12.9473
#
#
#
# Elastic Compliance Matrix: (Units=1/GPa)
#
#
# Indices 1 2 3 4 5 6 
#
# 1 0.008790 -0.002165 -0.002377 0.000000 -0.002396 0.000000
# 2 -0.002165 0.014280 -0.002502 0.000000 -0.002129 0.000000
# 3 -0.002377 -0.002502 0.008840 0.000000 -0.004007 0.000000
# 4 0.000000 0.000000 0.000000 -0.480178 0.000000 -0.489044
# 5 -0.002396 -0.002129 -0.004007 0.000000 0.071096 0.000000
# 6 0.000000 0.000000 0.000000 -0.489044 0.000000 -0.420836
#
#
# Mechanical properties :
#
#
# Convention : Reuss Voigt Hill
#
# Bulk Modulus (GPa) = 56.11232 65.12141 60.61686
# Shear Modulus (GPa) = -6.42691 24.23994 8.90651
#
# Velocity S-wave (km/s) = -1.84230 3.57786 2.16876
# Velocity P-wave (km/s) = 5.01074 7.17348 6.18734
#
# Compressibility (1/GPa) = 0.01782140
#
# Stress axis : x y z
#
# Youngs Moduli (GPa) = 113.76572 70.02626 113.12107
#
# Poissons Ratio (x) = 0.15163 0.26889
# Poissons Ratio (y) = 0.24634 0.28306
# Poissons Ratio (z) = 0.27042 0.17522
#
# Static dielectric constant tensor:
#      x y z
#    x 3.706850 0.000000 0.106870 
#    y 0.000000 3.293820 0.000000 
#    z 0.106870 0.000000 3.575720 
# 
# 
# High freq. dielectric constant tensor:
#      x y z
#    x 1.744740 0.000000 0.007920 
#    y 0.000000 1.717850 0.000000 
#    z 0.007920 0.000000 1.734160 
# 
# From -- ./inp_files/375033.got.cif
#   From: 2010.06.25/outbox.cif.g09.slc.cpg/sg12_188_cif.got.tgz:375033.got - 2010.06.28 00:19:55.
