data_PCOD8091745
_publ_section_title
;
Structure prediction by ZEFSAII (Michael W. Deem and Ramdas Pophale) SiO2 
 PCOD8091745
Probable space group: C 2/M
;
_chemical_formula_sum "Si O2"
_cell_formula_units_Z 56
_cell_length_a 23.595771
_cell_length_b 8.862231
_cell_length_c 15.735892
_cell_angle_alpha 90.000000
_cell_angle_beta 56.429907
_cell_angle_gamma 90.000000
_cell_volume 2741.719811
_symmetry_space_group_name_H-M "C 2/M"
_symmetry_group_IT_number 12
_symmetry_cell_setting 'monoclinic'
loop_
_space_group_symop_operation_xyz
x,y,z
-x,y,-z
-x,-y,-z
x,-y,z
1/2+x,1/2+y,z
1/2-x,1/2+y,-z
1/2-x,1/2-y,-z
1/2+x,1/2-y,z
loop_
_atom_site_type_symbol
_atom_site_label
_atom_site_fract_x
_atom_site_fract_y
_atom_site_fract_z
Si Si1 0.290052 0.824764 0.890127
Si Si2 0.066608 0.821923 0.677374
Si Si3 0.931193 0.820394 0.514505
Si Si4 0.666574 0.322426 0.738884
Si Si5 0.578520 0.172585 0.950723
Si Si6 0.291220 0.321325 0.711084
Si Si7 0.932118 0.328517 0.848790
O O1 0.269185 0.747194 0.819457
O O2 0.370654 0.800627 0.834941
O O3 0.270700 0.000000 0.902665
O O4 0.250000 0.750000 0.000000
O O5 0.075584 0.754630 0.575340
O O6 0.126752 0.761665 0.688493
O O7 0.993495 0.779913 0.774836
O O8 0.070117 0.000000 0.671732
O O9 0.866506 0.765894 0.622594
O O10 0.000000 0.755360 0.500000
O O11 0.934279 0.000000 0.509066
O O12 0.679545 0.500000 0.723908
O O13 0.622495 0.285739 0.858477
O O14 0.738704 0.237255 0.683329
O O15 0.596890 0.000000 0.911291
O O16 0.500000 0.206262 0.000000
O O17 0.595874 0.207138 0.034071
O O18 0.287169 0.500000 0.720264
O O19 0.959076 0.500000 0.822585
#
# Coordination Sequence:
#
# PCOD8091745 Si02
#       7
#     8   8   8   8   8   8   8
#     4  11  23  39  60  88 122 157 196 241 292 351
#     4  10  21  37  59  87 116 150 196 246 294 351
#     4   9  19  38  63  88 113 147 196 248 298 354
#     4  11  23  37  56  86 123 156 195 247 301 356
#     4  10  19  34  57  83 117 157 197 236 282 350
#     4  11  23  40  63  86 115 158 202 244 296 354
#     4  10  21  36  56  85 117 151 191 239 292 348
#
# _framework density 20.425135000000001
#
# number of rings (size 3 to 8) (size 9 to 14) (size 15 to 20)
#    0.000    1.714    1.429    3.000    0.000    5.429 
#    0.000    1.429    0.000    3.857    0.000    0.000 
#    0.000    0.000    0.000    0.000    0.000    0.000 
#
# Total GULP energy -347299.454582 kJ/mol
# GULP energy per Si atom -12403.551949 kJ/mol
# Density = 2.037865 g / cm^3
# Si number density = 20.425135 Si / 1000 Ang^3
#
#
#
# Elastic Constant Matrix: (Units=GPa)
#
#
# Indices 1 2 3 4 5 6 
#
# 1 131.7154 39.0436 66.7762 0.0000 7.5890 0.0000
# 2 39.0436 59.3921 30.6497 0.0000 -1.3514 0.0002
# 3 66.7762 30.6497 113.7133 0.0000 1.2295 0.0000
# 4 0.0000 0.0000 0.0000 17.6479 0.0000 -2.9827
# 5 7.5890 -1.3514 1.2295 0.0000 34.4735 0.0000
# 6 0.0000 0.0002 0.0000 -2.9827 0.0000 31.1616
#
#
#
# Elastic Compliance Matrix: (Units=1/GPa)
#
#
# Indices 1 2 3 4 5 6 
#
# 1 0.012169 -0.005096 -0.005743 0.000000 -0.002674 0.000000
# 2 -0.005096 0.021724 -0.002885 0.000000 0.002076 0.000000
# 3 -0.005743 -0.002885 0.012937 0.000000 0.000690 0.000000
# 4 0.000000 0.000000 0.000000 0.057596 0.000000 0.005513
# 5 -0.002674 0.002076 0.000690 0.000000 0.029653 0.000000
# 6 0.000000 0.000000 0.000000 0.005513 0.000000 0.032618
#
#
# Mechanical properties :
#
#
# Convention : Reuss Voigt Hill
#
# Bulk Modulus (GPa) = 51.60012 64.19555 57.89783
# Shear Modulus (GPa) = 24.92456 27.88001 26.40228
#
# Velocity S-wave (km/s) = 3.49705 3.69858 3.59923
# Velocity P-wave (km/s) = 6.45165 7.05246 6.75873
#
# Compressibility (1/GPa) = 0.01937980
#
# Stress axis : x y z
#
# Youngs Moduli (GPa) = 82.17909 46.03283 77.29907
#
# Poissons Ratio (x) = 0.23461 0.44394
# Poissons Ratio (y) = 0.41882 0.22300
# Poissons Ratio (z) = 0.47197 0.13280
#
# Static dielectric constant tensor:
#      x y z
#    x 4.063120 0.000000 0.166470 
#    y 0.000000 3.471520 0.000000 
#    z 0.166470 0.000000 3.710620 
# 
# 
# High freq. dielectric constant tensor:
#      x y z
#    x 1.818710 0.000000 0.005560 
#    y 0.000000 1.778410 0.000000 
#    z 0.005560 0.000000 1.794670 
# 
# From -- ./inp_files/238296.got.cif
#   From: 2010.06.25/outbox.cif.g09.slc.cpg/sg12_120_cif.got.tgz:238296.got - 2010.06.28 00:19:55.
