data_PCOD8091454
_publ_section_title
;
Structure prediction by ZEFSAII (Michael W. Deem and Ramdas Pophale) SiO2 
 PCOD8091454
Probable space group: C 2/M
;
_chemical_formula_sum "Si O2"
_cell_formula_units_Z 56
_cell_length_a 27.927446
_cell_length_b 12.796886
_cell_length_c 8.841470
_cell_angle_alpha 90.000000
_cell_angle_beta 65.760403
_cell_angle_gamma 90.000000
_cell_volume 2881.223978
_symmetry_space_group_name_H-M "C 2/M"
_symmetry_group_IT_number 12
_symmetry_cell_setting 'monoclinic'
loop_
_space_group_symop_operation_xyz
x,y,z
-x,y,-z
-x,-y,-z
x,-y,z
1/2+x,1/2+y,z
1/2-x,1/2+y,-z
1/2-x,1/2-y,-z
1/2+x,1/2-y,z
loop_
_atom_site_type_symbol
_atom_site_label
_atom_site_fract_x
_atom_site_fract_y
_atom_site_fract_z
Si Si1 0.791981 0.704928 0.334753
Si Si2 0.782373 0.788009 0.815284
Si Si3 0.966586 0.118753 0.186289
Si Si4 0.450787 0.767466 0.477652
Si Si5 0.634415 0.616142 0.865215
Si Si6 0.653204 0.880067 0.461371
Si Si7 0.112838 0.116867 0.227864
O O1 0.750000 0.750000 0.500000
O O2 0.758367 0.650551 0.243837
O O3 0.820621 0.800614 0.216405
O O4 0.831155 0.631599 0.380275
O O5 0.810348 0.690093 0.694036
O O6 0.825939 0.869580 0.811259
O O7 0.750000 0.750000 0.000000
O O8 0.975393 0.197683 0.312041
O O9 0.905284 0.122267 0.223354
O O10 0.983292 0.000000 0.209403
O O11 0.000000 0.157908 0.000000
O O12 0.500000 0.822895 0.500000
O O13 0.408570 0.851175 0.472533
O O14 0.423391 0.693179 0.633112
O O15 0.659781 0.500000 0.839412
O O16 0.603806 0.638593 0.061637
O O17 0.660457 0.000000 0.403622
O O18 0.096328 0.000000 0.292914
#
# Coordination Sequence:
#
# PCOD8091454 Si02
#       7
#     8   8   8   8   8   8   8
#     4  10  20  36  56  81 113 154 193 233 278 338
#     4  10  20  36  60  87 118 151 192 236 284 338
#     4  10  20  34  56  86 115 148 185 225 286 355
#     4  11  22  38  60  84 112 151 186 242 289 344
#     4  10  19  34  56  81 114 150 183 225 283 348
#     4  10  23  41  59  82 113 155 200 240 282 334
#     4  10  21  35  55  88 121 147 182 231 288 349
#
# _framework density 19.436184000000001
#
# number of rings (size 3 to 8) (size 9 to 14) (size 15 to 20)
#    0.000    1.857    2.857    1.286    0.000    6.000 
#    0.000    0.000    0.000    0.429    0.000    0.000 
#    0.000    0.000    0.000    0.000    0.000    0.000 
#
# Total GULP energy -347069.916831 kJ/mol
# GULP energy per Si atom -12395.354173 kJ/mol
# Density = 1.939195 g / cm^3
# Si number density = 19.436184 Si / 1000 Ang^3
#
#
#
# Elastic Constant Matrix: (Units=GPa)
#
#
# Indices 1 2 3 4 5 6 
#
# 1 125.1354 12.2111 14.6669 0.0000 16.7748 0.0000
# 2 12.2111 59.9632 10.8411 0.0000 2.4399 0.0000
# 3 14.6669 10.8411 70.2703 0.0000 4.1213 0.0000
# 4 0.0000 0.0000 0.0000 22.2868 0.0000 -0.2830
# 5 16.7748 2.4399 4.1213 0.0000 33.4541 0.0000
# 6 0.0000 0.0000 0.0000 -0.2830 0.0000 13.8143
#
#
#
# Elastic Compliance Matrix: (Units=1/GPa)
#
#
# Indices 1 2 3 4 5 6 
#
# 1 0.008847 -0.001381 -0.001389 0.000000 -0.004164 0.000000
# 2 -0.001381 0.017400 -0.002380 0.000000 -0.000283 0.000000
# 3 -0.001389 -0.002380 0.014945 0.000000 -0.000971 0.000000
# 4 0.000000 0.000000 0.000000 0.044881 0.000000 0.000920
# 5 -0.004164 -0.000283 -0.000971 0.000000 0.032120 0.000000
# 6 0.000000 0.000000 0.000000 0.000920 0.000000 0.072407
#
#
# Mechanical properties :
#
#
# Convention : Reuss Voigt Hill
#
# Bulk Modulus (GPa) = 32.37073 36.75635 34.56354
# Shear Modulus (GPa) = 23.67448 28.42103 26.04776
#
# Velocity S-wave (km/s) = 3.49386 3.82812 3.66480
# Velocity P-wave (km/s) = 5.74170 6.20417 5.97741
#
# Compressibility (1/GPa) = 0.03089210
#
# Stress axis : x y z
#
# Youngs Moduli (GPa) = 113.03018 57.47164 66.91298
#
# Poissons Ratio (x) = 0.07937 0.09296
# Poissons Ratio (y) = 0.15610 0.15922
# Poissons Ratio (z) = 0.15703 0.13676
#
# Static dielectric constant tensor:
#      x y z
#    x 4.478480 0.000000 0.420130 
#    y 0.000000 3.215040 0.000000 
#    z 0.420130 0.000000 3.680490 
# 
# 
# High freq. dielectric constant tensor:
#      x y z
#    x 1.780680 0.000000 0.008610 
#    y 0.000000 1.714170 0.000000 
#    z 0.008610 0.000000 1.762260 
# 
# From -- ./inp_files/103118.got.cif
#   From: 2010.06.25/outbox.cif.g09.slc.cpg/sg12_52_cif.got.tgz:103118.got - 2010.06.28 00:19:55.
