data_PCOD8091858
_publ_section_title
;
Structure prediction by ZEFSAII (Michael W. Deem and Ramdas Pophale) SiO2 
 PCOD8091858
Probable space group: C 2/M
;
_chemical_formula_sum "Si O2"
_cell_formula_units_Z 56
_cell_length_a 20.468110
_cell_length_b 8.833670
_cell_length_c 22.422826
_cell_angle_alpha 90.000000
_cell_angle_beta 48.599324
_cell_angle_gamma 90.000000
_cell_volume 3041.097313
_symmetry_space_group_name_H-M "C 2/M"
_symmetry_group_IT_number 12
_symmetry_cell_setting 'monoclinic'
loop_
_space_group_symop_operation_xyz
x,y,z
-x,y,-z
-x,-y,-z
x,-y,z
1/2+x,1/2+y,z
1/2-x,1/2+y,-z
1/2-x,1/2-y,-z
1/2+x,1/2-y,z
loop_
_atom_site_type_symbol
_atom_site_label
_atom_site_fract_x
_atom_site_fract_y
_atom_site_fract_z
Si Si1 0.810056 0.320267 0.263619
Si Si2 0.929421 0.178613 0.994368
Si Si3 0.998746 0.179635 0.594565
Si Si4 0.274060 0.175789 0.152102
Si Si5 0.864110 0.819887 0.578341
Si Si6 0.996984 0.321180 0.834217
Si Si7 0.575069 0.324014 0.238689
O O1 0.807969 0.500000 0.265080
O O2 0.790741 0.262285 0.208607
O O3 0.734491 0.257786 0.353929
O O4 0.903584 0.259584 0.228774
O O5 0.948185 0.250260 0.919402
O O6 0.932871 0.000000 0.985765
O O7 0.833432 0.229521 0.071293
O O8 0.000000 0.237031 0.000000
O O9 0.922722 0.242899 0.597437
O O10 0.984702 0.237468 0.670449
O O11 0.092771 0.231892 0.510868
O O12 0.990993 0.000000 0.600049
O O13 0.174775 0.204157 0.194984
O O14 0.299353 0.000000 0.131769
O O15 0.864177 0.000000 0.581153
O O16 0.995245 0.500000 0.842616
O O17 0.947463 0.274714 0.804684
O O18 0.557128 0.500000 0.235958
#
# Coordination Sequence:
#
# PCOD8091858 Si02
#       7
#     8   8   8   8   8   8   8
#     4   9  16  29  50  77 104 135 178 219 255 305
#     4  11  23  38  57  82 108 133 169 221 272 315
#     4   8  13  23  45  77 109 136 165 216 269 303
#     4  10  19  34  58  81 104 138 178 220 261 309
#     4   8  12  22  45  78 107 131 172 220 260 302
#     4  11  23  37  55  76 106 146 179 214 263 320
#     4  10  20  35  54  80 112 142 175 219 267 310
#
# _framework density 18.414406
#
# number of rings (size 3 to 8) (size 9 to 14) (size 15 to 20)
#    0.000    2.429    2.857    1.714    0.000    1.714 
#    0.000    0.714    0.000    0.000    0.000    4.000 
#    0.000    0.000    0.000    0.000    0.000    0.000 
#
# Total GULP energy -347082.533985 kJ/mol
# GULP energy per Si atom -12395.804785 kJ/mol
# Density = 1.837249 g / cm^3
# Si number density = 18.414406 Si / 1000 Ang^3
#
#
#
# Elastic Constant Matrix: (Units=GPa)
#
#
# Indices 1 2 3 4 5 6 
#
# 1 76.1737 24.4141 45.2705 0.0001 5.3155 0.0002
# 2 24.4141 33.8079 32.1316 0.0002 1.0350 0.0006
# 3 45.2705 32.1316 159.5398 0.0000 -1.5702 0.0000
# 4 0.0001 0.0002 0.0000 6.5283 -0.0001 -0.4867
# 5 5.3155 1.0350 -1.5702 -0.0001 32.4094 0.0000
# 6 0.0002 0.0006 0.0000 -0.4867 0.0000 17.2656
#
#
#
# Elastic Compliance Matrix: (Units=1/GPa)
#
#
# Indices 1 2 3 4 5 6 
#
# 1 0.018521 -0.010222 -0.003225 0.000000 -0.002867 0.000000
# 2 -0.010222 0.042298 -0.005618 -0.000001 0.000054 -0.000001
# 3 -0.003225 -0.005618 0.008326 0.000000 0.001112 0.000000
# 4 0.000000 -0.000001 0.000000 0.153501 0.000000 0.004327
# 5 -0.002867 0.000054 0.001112 0.000000 0.031378 0.000000
# 6 0.000000 -0.000001 0.000000 0.004327 0.000000 0.058041
#
#
# Mechanical properties :
#
#
# Convention : Reuss Voigt Hill
#
# Bulk Modulus (GPa) = 32.24227 52.57266 42.40747
# Shear Modulus (GPa) = 13.86843 22.42101 18.14472
#
# Velocity S-wave (km/s) = 2.74730 3.49317 3.14244
# Velocity P-wave (km/s) = 5.25460 6.69936 6.02047
#
# Compressibility (1/GPa) = 0.03101518
#
# Stress axis : x y z
#
# Youngs Moduli (GPa) = 53.99360 23.64171 120.11276
#
# Poissons Ratio (x) = 0.24166 0.38735
# Poissons Ratio (y) = 0.55191 0.67478
# Poissons Ratio (z) = 0.17413 0.13282
#
# Static dielectric constant tensor:
#      x y z
#    x 3.337360 0.000000 -0.159090 
#    y 0.000000 2.931290 0.000000 
#    z -0.159090 0.000000 3.828450 
# 
# 
# High freq. dielectric constant tensor:
#      x y z
#    x 1.698780 0.000000 -0.009080 
#    y 0.000000 1.667920 0.000000 
#    z -0.009080 0.000000 1.735710 
# 
# From -- ./inp_files/275321.got.cif
#   From: 2010.06.25/outbox.cif.g09.slc.cpg/sg12_138_cif.got.tgz:275321.got - 2010.06.28 00:19:55.
