data_PCOD8091403
_publ_section_title
;
Structure prediction by ZEFSAII (Michael W. Deem and Ramdas Pophale) SiO2 
 PCOD8091403
Probable space group: C 2/M
;
_chemical_formula_sum "Si O2"
_cell_formula_units_Z 64
_cell_length_a 29.637988
_cell_length_b 9.133912
_cell_length_c 25.561263
_cell_angle_alpha 90.000000
_cell_angle_beta 150.376643
_cell_angle_gamma 90.000000
_cell_volume 3420.386570
_symmetry_space_group_name_H-M "C 2/M"
_symmetry_group_IT_number 12
_symmetry_cell_setting 'monoclinic'
loop_
_space_group_symop_operation_xyz
x,y,z
-x,y,-z
-x,-y,-z
x,-y,z
1/2+x,1/2+y,z
1/2-x,1/2+y,-z
1/2-x,1/2-y,-z
1/2+x,1/2-y,z
loop_
_atom_site_type_symbol
_atom_site_label
_atom_site_fract_x
_atom_site_fract_y
_atom_site_fract_z
Si Si1 0.254184 0.827489 0.179569
Si Si2 0.250991 0.329186 0.284943
Si Si3 0.901289 0.832835 0.261666
Si Si4 0.155145 0.169143 0.909719
Si Si5 0.393333 0.332117 0.516986
Si Si6 0.619817 0.670118 0.227215
Si Si7 0.766546 0.668741 0.463189
Si Si8 0.923739 0.827465 0.062303
O O1 0.271738 0.745090 0.250984
O O2 0.329706 0.778507 0.214119
O O3 0.262409 0.000000 0.196722
O O4 0.155173 0.783045 0.057748
O O5 0.233034 0.500000 0.258744
O O6 0.340164 0.298392 0.409853
O O7 0.161316 0.259210 0.220605
O O8 0.905018 0.809068 0.202906
O O9 0.000544 0.796991 0.385265
O O10 0.872689 0.000000 0.245955
O O11 0.099538 0.234438 0.903258
O O12 0.177995 0.000000 0.943202
O O13 0.250000 0.250000 0.000000
O O14 0.379235 0.500000 0.520041
O O15 0.356552 0.231502 0.526412
O O16 0.617120 0.500000 0.208149
O O17 0.678972 0.694641 0.338636
O O18 0.519540 0.736179 0.137887
O O19 0.783635 0.500000 0.492318
O O20 0.750000 0.750000 0.500000
O O21 0.935128 0.000000 0.078095
#
# Coordination Sequence:
#
# PCOD8091403 Si02
#       8
#     8   8   8   8   8   8   8   8
#     4  11  22  37  58  81 110 145 185 228 272 326
#     4  10  21  39  59  80 111 142 179 231 280 325
#     4  10  21  36  58  84 110 145 186 226 271 325
#     4  10  19  34  56  80 111 146 181 222 270 323
#     4   9  20  38  58  79 108 145 183 226 274 325
#     4   9  19  37  59  80 106 144 187 225 268 325
#     4  10  20  33  54  81 111 145 183 226 270 323
#     4   9  19  35  56  82 110 144 184 222 266 323
#
# _framework density 18.711334999999998
#
# number of rings (size 3 to 8) (size 9 to 14) (size 15 to 20)
#    0.000    2.250    1.250    1.125    1.750    2.500 
#    0.000    6.875    0.000    0.000    0.000    0.000 
#    0.000    0.000    0.000    0.000    0.000    0.000 
#
# Total GULP energy -396883.184667 kJ/mol
# GULP energy per Si atom -12402.599521 kJ/mol
# Density = 1.866875 g / cm^3
# Si number density = 18.711335 Si / 1000 Ang^3
#
#
#
# Elastic Constant Matrix: (Units=GPa)
#
#
# Indices 1 2 3 4 5 6 
#
# 1 63.8802 35.6862 35.9572 0.0000 -4.0549 0.0000
# 2 35.6862 73.1911 32.2645 0.0000 -4.2321 0.0000
# 3 35.9572 32.2645 85.5085 0.0000 11.7532 0.0000
# 4 0.0000 0.0000 0.0000 23.9243 0.0000 -0.3309
# 5 -4.0549 -4.2321 11.7532 0.0000 35.7357 0.0000
# 6 0.0000 0.0000 0.0000 -0.3309 0.0000 36.8292
#
#
#
# Elastic Compliance Matrix: (Units=1/GPa)
#
#
# Indices 1 2 3 4 5 6 
#
# 1 0.025189 -0.008494 -0.008004 0.000000 0.004485 0.000000
# 2 -0.008494 0.019867 -0.004310 0.000000 0.002807 0.000000
# 3 -0.008004 -0.004310 0.017681 0.000000 -0.007234 0.000000
# 4 0.000000 0.000000 0.000000 0.041804 0.000000 0.000376
# 5 0.004485 0.002807 -0.007234 0.000000 0.031204 0.000000
# 6 0.000000 0.000000 0.000000 0.000376 0.000000 0.027156
#
#
# Mechanical properties :
#
#
# Convention : Reuss Voigt Hill
#
# Bulk Modulus (GPa) = 47.34605 47.82172 47.58388
# Shear Modulus (GPa) = 23.63435 27.20929 25.42182
#
# Velocity S-wave (km/s) = 3.55787 3.81748 3.68996
# Velocity P-wave (km/s) = 6.49894 6.71148 6.60607
#
# Compressibility (1/GPa) = 0.02112109
#
# Stress axis : x y z
#
# Youngs Moduli (GPa) = 39.69931 50.33556 56.55786
#
# Poissons Ratio (x) = 0.42756 0.45268
# Poissons Ratio (y) = 0.33721 0.24377
# Poissons Ratio (z) = 0.31774 0.21695
#
# Static dielectric constant tensor:
#      x y z
#    x 3.528940 0.000000 0.005250 
#    y 0.000000 3.437610 0.000000 
#    z 0.005250 0.000000 3.600180 
# 
# 
# High freq. dielectric constant tensor:
#      x y z
#    x 1.731250 0.000000 -0.001460 
#    y 0.000000 1.716380 0.000000 
#    z -0.001460 0.000000 1.730060 
# 
# From -- ./inp_files/353424.got.cif
#   From: 2010.06.25/outbox.cif.g09.slc.cpg/sg12_177_cif.got.tgz:353424.got - 2010.06.28 00:19:55.
