data_PCOD8091562
_publ_section_title
;
Structure prediction by ZEFSAII (Michael W. Deem and Ramdas Pophale) SiO2 
 PCOD8091562
Probable space group: C 2/M
;
_chemical_formula_sum "Si O2"
_cell_formula_units_Z 56
_cell_length_a 16.775263
_cell_length_b 13.376545
_cell_length_c 12.790912
_cell_angle_alpha 90.000000
_cell_angle_beta 118.318428
_cell_angle_gamma 90.000000
_cell_volume 2526.723699
_symmetry_space_group_name_H-M "C 2/M"
_symmetry_group_IT_number 12
_symmetry_cell_setting 'monoclinic'
loop_
_space_group_symop_operation_xyz
x,y,z
-x,y,-z
-x,-y,-z
x,-y,z
1/2+x,1/2+y,z
1/2-x,1/2+y,-z
1/2-x,1/2-y,-z
1/2+x,1/2-y,z
loop_
_atom_site_type_symbol
_atom_site_label
_atom_site_fract_x
_atom_site_fract_y
_atom_site_fract_z
Si Si1 0.061266 0.302580 0.443244
Si Si2 0.575679 0.115545 0.787945
Si Si3 0.296216 0.383475 0.125324
Si Si4 0.197876 0.385026 0.669846
Si Si5 0.358311 0.749323 0.987443
Si Si6 0.904679 0.113616 0.842892
Si Si7 0.503909 0.387641 0.693543
O O1 0.163071 0.326871 0.543747
O O2 0.050688 0.183695 0.418368
O O3 0.000000 0.341040 0.500000
O O4 0.025715 0.362303 0.319020
O O5 0.650576 0.150942 0.748862
O O6 0.586214 0.000000 0.824810
O O7 0.585712 0.181924 0.897677
O O8 0.271268 0.500000 0.102974
O O9 0.212505 0.320215 0.121670
O O10 0.388483 0.366986 0.248525
O O11 0.304776 0.340428 0.012831
O O12 0.172784 0.500000 0.637864
O O13 0.304294 0.366185 0.737580
O O14 0.424717 0.692473 0.947959
O O15 0.977348 0.132740 0.797259
O O16 0.913327 0.000000 0.890738
O O17 0.478647 0.500000 0.644840
#
# Coordination Sequence:
#
# PCOD8091562 Si02
#       7
#     8   8   8   8   8   8   8
#     4  10  20  35  60  86 111 148 195 241 295 340
#     4  10  19  34  56  88 118 147 192 244 287 337
#     4  10  20  34  55  83 114 150 192 234 282 341
#     4   9  18  34  58  85 113 146 192 244 289 337
#     4  11  20  33  59  86 115 152 193 242 289 337
#     4  10  22  38  59  87 119 153 195 240 289 347
#     4  10  22  40  57  83 121 155 191 237 290 352
#
# _framework density 22.163087999999998
#
# number of rings (size 3 to 8) (size 9 to 14) (size 15 to 20)
#    0.000    2.000    1.429    3.000    2.000    4.286 
#    0.000    2.143    0.000    4.286    0.000    0.000 
#    0.000    0.000    0.000    0.000    0.000    0.000 
#
# Total GULP energy -347115.795839 kJ/mol
# GULP energy per Si atom -12396.992709 kJ/mol
# Density = 2.211264 g / cm^3
# Si number density = 22.163088 Si / 1000 Ang^3
#
#
#
# Elastic Constant Matrix: (Units=GPa)
#
#
# Indices 1 2 3 4 5 6 
#
# 1 40.6841 20.6694 25.8869 0.0000 9.0541 0.0000
# 2 20.6694 134.4297 47.5270 0.0000 -0.9411 0.0000
# 3 25.8869 47.5270 114.1821 0.0000 12.2794 0.0000
# 4 0.0000 0.0000 0.0000 45.3297 0.0000 -10.0095
# 5 9.0541 -0.9411 12.2794 0.0000 15.8431 0.0000
# 6 0.0000 0.0000 0.0000 -10.0095 0.0000 13.7898
#
#
#
# Elastic Compliance Matrix: (Units=1/GPa)
#
#
# Indices 1 2 3 4 5 6 
#
# 1 0.032560 -0.003632 -0.004195 0.000000 -0.015571 0.000000
# 2 -0.003632 0.009324 -0.003644 0.000000 0.005454 0.000000
# 3 -0.004195 -0.003644 0.011991 0.000000 -0.007112 0.000000
# 4 0.000000 0.000000 0.000000 0.026271 0.000000 0.019069
# 5 -0.015571 0.005454 -0.007112 0.000000 0.077854 0.000000
# 6 0.000000 0.000000 0.000000 0.019069 0.000000 0.086359
#
#
# Mechanical properties :
#
#
# Convention : Reuss Voigt Hill
#
# Bulk Modulus (GPa) = 32.32962 53.05141 42.69051
# Shear Modulus (GPa) = 18.01071 28.00669 23.00870
#
# Velocity S-wave (km/s) = 2.85378 3.55866 3.22554
# Velocity P-wave (km/s) = 5.04753 6.39329 5.75985
#
# Compressibility (1/GPa) = 0.03093139
#
# Stress axis : x y z
#
# Youngs Moduli (GPa) = 30.71278 107.25271 83.39747
#
# Poissons Ratio (x) = 0.38954 0.34989
# Poissons Ratio (y) = 0.11155 0.30390
# Poissons Ratio (z) = 0.12885 0.39083
#
# Static dielectric constant tensor:
#      x y z
#    x 3.758390 0.000000 0.274210 
#    y 0.000000 4.202000 0.000000 
#    z 0.274210 0.000000 3.910160 
# 
# 
# High freq. dielectric constant tensor:
#      x y z
#    x 1.835380 0.000000 0.031320 
#    y 0.000000 1.886160 0.000000 
#    z 0.031320 0.000000 1.864480 
# 
# From -- ./inp_files/156724.got.cif
#   From: 2010.06.25/outbox.cif.g09.slc.cpg/sg12_79_cif.got.tgz:156724.got - 2010.06.28 00:19:55.
