data_PCOD8091415
_publ_section_title
;
Structure prediction by ZEFSAII (Michael W. Deem and Ramdas Pophale) SiO2 
 PCOD8091415
Probable space group: C 2/M
;
_chemical_formula_sum "Si O2"
_cell_formula_units_Z 48
_cell_length_a 20.345868
_cell_length_b 9.242221
_cell_length_c 14.702642
_cell_angle_alpha 90.000000
_cell_angle_beta 108.913979
_cell_angle_gamma 90.000000
_cell_volume 2615.423271
_symmetry_space_group_name_H-M "C 2/M"
_symmetry_group_IT_number 12
_symmetry_cell_setting 'monoclinic'
loop_
_space_group_symop_operation_xyz
x,y,z
-x,y,-z
-x,-y,-z
x,-y,z
1/2+x,1/2+y,z
1/2-x,1/2+y,-z
1/2-x,1/2-y,-z
1/2+x,1/2-y,z
loop_
_atom_site_type_symbol
_atom_site_label
_atom_site_fract_x
_atom_site_fract_y
_atom_site_fract_z
Si Si1 0.455916 0.667382 0.614613
Si Si2 0.794574 0.328166 0.227130
Si Si3 0.341951 0.168716 0.880920
Si Si4 0.895700 0.831683 0.397062
Si Si5 0.885547 0.671334 0.097342
Si Si6 0.961620 0.332161 0.793701
O O1 0.453984 0.500000 0.639031
O O2 0.533821 0.713700 0.622574
O O3 0.403935 0.699814 0.507972
O O4 0.430525 0.756149 0.690433
O O5 0.790262 0.500000 0.232159
O O6 0.718146 0.262143 0.191776
O O7 0.833413 0.267012 0.333008
O O8 0.835202 0.276136 0.155129
O O9 0.412098 0.195775 0.856637
O O10 0.320851 0.000000 0.870985
O O11 0.354913 0.228543 0.988428
O O12 0.878993 0.000000 0.372465
O O13 0.890598 0.500000 0.094740
O O14 0.962788 0.734136 0.148205
O O15 0.967826 0.500000 0.773003
#
# Coordination Sequence:
#
# PCOD8091415 Si02
#       6
#     8   8   8   8   8   8
#     4   9  18  33  55  81 107 135 170 217 265 314
#     4  11  21  34  54  81 110 137 174 225 266 301
#     4  10  21  36  54  75 108 149 179 209 258 320
#     4   9  18  34  55  79 106 138 174 210 262 324
#     4   9  18  34  55  79 104 138 182 220 257 306
#     4  10  19  34  56  81 107 138 178 219 260 309
#
# _framework density 18.352668999999999
#
# number of rings (size 3 to 8) (size 9 to 14) (size 15 to 20)
#    0.000    2.333    1.667    2.500    0.000    3.333 
#    0.000    4.167    0.000    2.000    0.000    0.000 
#    0.000    0.000    0.000    0.000    0.000    0.000 
#
# Total GULP energy -297654.060955 kJ/mol
# GULP energy per Si atom -12402.252540 kJ/mol
# Density = 1.831090 g / cm^3
# Si number density = 18.352669 Si / 1000 Ang^3
#
#
#
# Elastic Constant Matrix: (Units=GPa)
#
#
# Indices 1 2 3 4 5 6 
#
# 1 60.4863 28.6999 21.3451 0.0000 16.9264 0.0000
# 2 28.6999 51.9558 37.8040 0.0000 9.3755 0.0000
# 3 21.3451 37.8040 103.0392 0.0000 15.4628 0.0000
# 4 0.0000 0.0000 0.0000 28.2727 0.0000 -0.6850
# 5 16.9264 9.3755 15.4628 0.0000 24.9436 0.0000
# 6 0.0000 0.0000 0.0000 -0.6850 0.0000 25.3701
#
#
#
# Elastic Compliance Matrix: (Units=1/GPa)
#
#
# Indices 1 2 3 4 5 6 
#
# 1 0.025983 -0.012910 0.001402 0.000000 -0.013648 0.000000
# 2 -0.012910 0.033096 -0.009830 0.000000 0.002415 0.000000
# 3 0.001402 -0.009830 0.013903 0.000000 -0.005875 0.000000
# 4 0.000000 0.000000 0.000000 0.035393 0.000000 0.000956
# 5 -0.013648 0.002415 -0.005875 0.000000 0.052086 0.000000
# 6 0.000000 0.000000 0.000000 0.000956 0.000000 0.039442
#
#
# Mechanical properties :
#
#
# Convention : Reuss Voigt Hill
#
# Bulk Modulus (GPa) = 32.99814 43.46439 38.23126
# Shear Modulus (GPa) = 19.78779 24.22612 22.00695
#
# Velocity S-wave (km/s) = 3.28715 3.63717 3.46658
# Velocity P-wave (km/s) = 5.69440 6.43218 6.07450
#
# Compressibility (1/GPa) = 0.03030473
#
# Stress axis : x y z
#
# Youngs Moduli (GPa) = 38.48696 30.21547 71.92727
#
# Poissons Ratio (x) = 0.39009 -0.10086
# Poissons Ratio (y) = 0.49687 0.70708
# Poissons Ratio (z) = -0.05397 0.29703
#
# Static dielectric constant tensor:
#      x y z
#    x 3.219170 0.000000 0.032420 
#    y 0.000000 3.120770 0.000000 
#    z 0.032420 0.000000 3.486980 
# 
# 
# High freq. dielectric constant tensor:
#      x y z
#    x 1.698230 0.000000 0.003700 
#    y 0.000000 1.691210 0.000000 
#    z 0.003700 0.000000 1.723640 
# 
# From -- ./inp_files/229815.got.cif
#   From: 2010.06.25/outbox.cif.g09.slc.cpg/sg12_115_cif.got.tgz:229815.got - 2010.06.28 00:19:55.
