data_PCOD8091050
_publ_section_title
;
Structure prediction by ZEFSAII (Michael W. Deem and Ramdas Pophale) SiO2 
 PCOD8091050
Probable space group: C 2/M
;
_chemical_formula_sum "Si O2"
_cell_formula_units_Z 48
_cell_length_a 9.725528
_cell_length_b 19.390021
_cell_length_c 15.891939
_cell_angle_alpha 90.000000
_cell_angle_beta 121.327523
_cell_angle_gamma 90.000000
_cell_volume 2559.956511
_symmetry_space_group_name_H-M "C 2/M"
_symmetry_group_IT_number 12
_symmetry_cell_setting 'monoclinic'
loop_
_space_group_symop_operation_xyz
x,y,z
-x,y,-z
-x,-y,-z
x,-y,z
1/2+x,1/2+y,z
1/2-x,1/2+y,-z
1/2-x,1/2-y,-z
1/2+x,1/2-y,z
loop_
_atom_site_type_symbol
_atom_site_label
_atom_site_fract_x
_atom_site_fract_y
_atom_site_fract_z
Si Si1 0.688147 0.714614 0.870967
Si Si2 0.658543 0.925469 0.606063
Si Si3 0.858168 0.298535 0.755469
Si Si4 0.435931 0.078891 0.231971
Si Si5 0.824983 0.854199 0.966498
Si Si6 0.688968 0.216061 0.564151
O O1 0.754119 0.684983 0.804864
O O2 0.507798 0.745901 0.812836
O O3 0.812214 0.775534 0.931624
O O4 0.699967 0.650626 0.940297
O O5 0.500000 0.933169 0.500000
O O6 0.623889 0.907355 0.692533
O O7 0.763192 0.861286 0.602905
O O8 0.750117 0.000000 0.630610
O O9 0.729043 0.265608 0.652942
O O10 0.912793 0.371795 0.735933
O O11 0.300955 0.095893 0.119208
O O12 0.490482 0.000000 0.237896
O O13 0.000000 0.883815 0.000000
O O14 0.500000 0.206001 0.500000
O O15 0.750000 0.250000 0.500000
#
# Coordination Sequence:
#
# PCOD8091050 Si02
#       6
#     8   8   8   8   8   8
#     4  10  20  32  55  82 111 148 191 236 296 351
#     4   9  18  35  57  82 111 148 188 228 279 347
#     4  11  20  36  57  83 115 154 193 246 291 351
#     4  10  22  37  57  83 114 156 199 239 293 352
#     4  10  19  34  54  82 114 145 193 245 289 345
#     4  11  21  35  58  91 119 146 192 246 290 338
#
# _framework density 18.750318
#
# number of rings (size 3 to 8) (size 9 to 14) (size 15 to 20)
#    0.000    1.833    1.667    5.000    0.000    0.333 
#    0.000    1.667    0.000    5.000    0.000    0.000 
#    0.000    0.000    0.000    0.000    0.000    0.000 
#
# Total GULP energy -297416.126657 kJ/mol
# GULP energy per Si atom -12392.338611 kJ/mol
# Density = 1.870764 g / cm^3
# Si number density = 18.750318 Si / 1000 Ang^3
#
#
#
# Elastic Constant Matrix: (Units=GPa)
#
#
# Indices 1 2 3 4 5 6 
#
# 1 70.8339 45.2720 32.0131 0.0000 -17.3566 0.0000
# 2 45.2720 142.6984 52.5281 0.0000 -21.4857 0.0000
# 3 32.0131 52.5281 108.9489 0.0000 -20.9060 0.0000
# 4 0.0000 0.0000 0.0000 72.8496 0.0000 -16.2552
# 5 -17.3566 -21.4857 -20.9060 0.0000 37.9990 0.0000
# 6 0.0000 0.0000 0.0000 -16.2552 0.0000 25.9733
#
#
#
# Elastic Compliance Matrix: (Units=1/GPa)
#
#
# Indices 1 2 3 4 5 6 
#
# 1 0.019327 -0.004438 -0.002601 0.000000 0.004887 0.000000
# 2 -0.004438 0.009826 -0.003082 0.000000 0.001833 0.000000
# 3 -0.002601 -0.003082 0.012149 0.000000 0.003753 0.000000
# 4 0.000000 0.000000 0.000000 0.015955 0.000000 0.009985
# 5 0.004887 0.001833 0.003753 0.000000 0.031651 0.000000
# 6 0.000000 0.000000 0.000000 0.009985 0.000000 0.044750
#
#
# Mechanical properties :
#
#
# Convention : Reuss Voigt Hill
#
# Bulk Modulus (GPa) = 47.48345 64.67864 56.08105
# Shear Modulus (GPa) = 31.07109 40.20890 35.64000
#
# Velocity S-wave (km/s) = 4.07516 4.63583 4.36451
# Velocity P-wave (km/s) = 6.89359 7.95136 7.44130
#
# Compressibility (1/GPa) = 0.02105997
#
# Stress axis : x y z
#
# Youngs Moduli (GPa) = 51.73998 101.76790 82.31123
#
# Poissons Ratio (x) = 0.45167 0.21413
# Poissons Ratio (y) = 0.22964 0.25366
# Poissons Ratio (z) = 0.13460 0.31362
#
# Static dielectric constant tensor:
#      x y z
#    x 3.221900 0.000000 -0.304480 
#    y 0.000000 3.653990 0.000000 
#    z -0.304480 0.000000 4.493830 
# 
# 
# High freq. dielectric constant tensor:
#      x y z
#    x 1.699170 0.000000 -0.009990 
#    y 0.000000 1.717640 0.000000 
#    z -0.009990 0.000000 1.750480 
# 
# From -- ./inp_files/196940.got.cif
#   From: 2010.06.25/outbox.cif.g09.slc.cpg/sg12_99_cif.got.tgz:196940.got - 2010.06.28 00:19:55.
