data_PCOD8091548
_publ_section_title
;
Structure prediction by ZEFSAII (Michael W. Deem and Ramdas Pophale) SiO2 
 PCOD8091548
Probable space group: C 2/M
;
_chemical_formula_sum "Si O2"
_cell_formula_units_Z 48
_cell_length_a 14.544067
_cell_length_b 27.698503
_cell_length_c 6.531337
_cell_angle_alpha 90.000000
_cell_angle_beta 71.580188
_cell_angle_gamma 90.000000
_cell_volume 2496.340025
_symmetry_space_group_name_H-M "C 2/M"
_symmetry_group_IT_number 12
_symmetry_cell_setting 'monoclinic'
loop_
_space_group_symop_operation_xyz
x,y,z
-x,y,-z
-x,-y,-z
x,-y,z
1/2+x,1/2+y,z
1/2-x,1/2+y,-z
1/2-x,1/2-y,-z
1/2+x,1/2-y,z
loop_
_atom_site_type_symbol
_atom_site_label
_atom_site_fract_x
_atom_site_fract_y
_atom_site_fract_z
Si Si1 0.886440 0.372026 0.097902
Si Si2 0.714007 0.946374 0.114933
Si Si3 0.751303 0.306633 0.971161
Si Si4 0.936214 0.053031 0.855569
Si Si5 0.733188 0.867031 0.428850
Si Si6 0.599592 0.357556 0.372090
O O1 0.851974 0.325943 0.992119
O O2 0.856335 0.361163 0.352688
O O3 0.835868 0.420337 0.044565
O O4 0.000000 0.378101 0.000000
O O5 0.703603 0.915177 0.327839
O O6 0.668052 0.000000 0.176624
O O7 0.826139 0.951182 0.998569
O O8 0.659548 0.330073 0.153377
O O9 0.750000 0.250000 0.000000
O O10 0.751838 0.321206 0.731953
O O11 0.944080 0.091822 0.672715
O O12 0.972965 0.000000 0.756319
O O13 0.000000 0.071521 0.000000
O O14 0.833708 0.869934 0.480935
O O15 0.500000 0.328040 0.500000
#
# Coordination Sequence:
#
# PCOD8091548 Si02
#       6
#     8   8   8   8   8   8
#     4  10  22  41  61  89 118 159 202 254 307 361
#     4  10  20  36  58  87 122 160 206 250 297 359
#     4  10  23  44  60  88 120 155 201 257 305 372
#     4  10  19  34  56  85 125 165 203 247 298 364
#     4  10  20  40  63  82 122 163 194 253 307 355
#     4  11  22  36  61  92 122 161 201 252 306 365
#
# _framework density 19.228148999999998
#
# number of rings (size 3 to 8) (size 9 to 14) (size 15 to 20)
#    0.000    1.833    5.000    1.000    0.000    7.333 
#    6.000    0.833    0.000    0.000    0.000    0.000 
#    0.000    0.000    0.000    0.000    0.000    0.000 
#
# Total GULP energy -297437.290745 kJ/mol
# GULP energy per Si atom -12393.220448 kJ/mol
# Density = 1.918439 g / cm^3
# Si number density = 19.228149 Si / 1000 Ang^3
#
#
#
# Elastic Constant Matrix: (Units=GPa)
#
#
# Indices 1 2 3 4 5 6 
#
# 1 117.1732 38.2047 56.8519 0.0000 -4.4387 0.0000
# 2 38.2047 150.8890 55.3551 0.0000 18.1599 0.0000
# 3 56.8519 55.3551 137.6533 0.0000 9.1281 0.0000
# 4 0.0000 0.0000 0.0000 11.5013 0.0000 2.3047
# 5 -4.4387 18.1599 9.1281 0.0000 27.6424 0.0000
# 6 0.0000 0.0000 0.0000 2.3047 0.0000 36.7896
#
#
#
# Elastic Compliance Matrix: (Units=1/GPa)
#
#
# Indices 1 2 3 4 5 6 
#
# 1 0.011367 -0.001857 -0.004243 0.000000 0.004446 0.000000
# 2 -0.001857 0.008577 -0.002340 0.000000 -0.005160 0.000000
# 3 -0.004243 -0.002340 0.010123 0.000000 -0.002487 0.000000
# 4 0.000000 0.000000 0.000000 0.088052 0.000000 -0.005516
# 5 0.004446 -0.005160 -0.002487 0.000000 0.041101 0.000000
# 6 0.000000 0.000000 0.000000 -0.005516 0.000000 0.027527
#
#
# Mechanical properties :
#
#
# Convention : Reuss Voigt Hill
#
# Bulk Modulus (GPa) = 75.82891 78.50433 77.16662
# Shear Modulus (GPa) = 24.03591 32.20691 28.12141
#
# Velocity S-wave (km/s) = 3.53942 4.09710 3.82843
# Velocity P-wave (km/s) = 7.49836 7.95601 7.73057
#
# Compressibility (1/GPa) = 0.01318758
#
# Stress axis : x y z
#
# Youngs Moduli (GPa) = 87.97620 116.59071 98.78624
#
# Poissons Ratio (x) = 0.21646 0.41913
# Poissons Ratio (y) = 0.16334 0.23117
# Poissons Ratio (z) = 0.37326 0.27284
#
# Static dielectric constant tensor:
#      x y z
#    x 3.525850 0.000000 0.114000 
#    y 0.000000 3.701910 0.000000 
#    z 0.114000 0.000000 3.732570 
# 
# 
# High freq. dielectric constant tensor:
#      x y z
#    x 1.746980 0.000000 0.004140 
#    y 0.000000 1.735210 0.000000 
#    z 0.004140 0.000000 1.756350 
# 
# From -- ./inp_files/12832.got.cif
#   From: 2010.06.25/outbox.cif.g09.slc.cpg/sg12_7_cif.got.tgz:12832.got - 2010.06.28 00:19:55.
