data_PCOD8091379
_publ_section_title
;
Structure prediction by ZEFSAII (Michael W. Deem and Ramdas Pophale) SiO2 
 PCOD8091379
Probable space group: C 2/M
;
_chemical_formula_sum "Si O2"
_cell_formula_units_Z 64
_cell_length_a 29.643036
_cell_length_b 8.939071
_cell_length_c 15.044802
_cell_angle_alpha 90.000000
_cell_angle_beta 120.898569
_cell_angle_gamma 90.000000
_cell_volume 3420.803880
_symmetry_space_group_name_H-M "C 2/M"
_symmetry_group_IT_number 12
_symmetry_cell_setting 'monoclinic'
loop_
_space_group_symop_operation_xyz
x,y,z
-x,y,-z
-x,-y,-z
x,-y,z
1/2+x,1/2+y,z
1/2-x,1/2+y,-z
1/2-x,1/2-y,-z
1/2+x,1/2-y,z
loop_
_atom_site_type_symbol
_atom_site_label
_atom_site_fract_x
_atom_site_fract_y
_atom_site_fract_z
Si Si1 0.222889 0.671918 0.053760
Si Si2 0.471135 0.675954 0.234727
Si Si3 0.553564 0.323727 0.595091
Si Si4 0.895551 0.672954 0.023414
Si Si5 0.141085 0.178372 0.548097
Si Si6 0.365565 0.822539 0.799552
Si Si7 0.083237 0.321928 0.329566
Si Si8 0.247531 0.321916 0.271296
O O1 0.237910 0.500000 0.062746
O O2 0.245947 0.739240 0.168700
O O3 0.250000 0.750000 0.000000
O O4 0.160406 0.695513 0.986187
O O5 0.481614 0.500000 0.239946
O O6 0.440968 0.719712 0.295536
O O7 0.437920 0.727129 0.116735
O O8 0.526374 0.758645 0.292636
O O9 0.500000 0.253505 0.500000
O O10 0.550794 0.500000 0.581196
O O11 0.603771 0.264658 0.590908
O O12 0.913249 0.500000 0.045410
O O13 0.892906 0.731222 0.918861
O O14 0.124741 0.257303 0.441002
O O15 0.200090 0.235783 0.627399
O O16 0.138074 0.000000 0.533781
O O17 0.398751 0.764613 0.749502
O O18 0.305134 0.763709 0.731824
O O19 0.363670 0.000000 0.800520
O O20 0.082525 0.500000 0.334388
O O21 0.247260 0.500000 0.267652
#
# Coordination Sequence:
#
# PCOD8091379 Si02
#       8
#     8   8   8   8   8   8   8   8
#     4   9  18  32  52  78 108 141 179 220 259 311
#     4  11  22  36  56  81 108 138 179 223 265 318
#     4   9  17  32  52  73 103 140 173 209 257 316
#     4   9  19  37  56  77 107 142 180 220 265 314
#     4  10  19  34  56  80 105 138 180 220 260 313
#     4   8  17  36  57  76 104 143 180 216 261 320
#     4  11  22  36  55  78 106 140 179 221 270 320
#     4   8  16  32  55  78 102 139 184 217 251 313
#
# _framework density 18.709053000000001
#
# number of rings (size 3 to 8) (size 9 to 14) (size 15 to 20)
#    0.000    2.625    1.250    2.250    1.750    1.500 
#    0.000    6.250    0.000    3.000    0.000    0.000 
#    0.000    0.000    0.000    0.000    0.000    0.000 
#
# Total GULP energy -396699.460413 kJ/mol
# GULP energy per Si atom -12396.858138 kJ/mol
# Density = 1.866647 g / cm^3
# Si number density = 18.709053 Si / 1000 Ang^3
#
#
#
# Elastic Constant Matrix: (Units=GPa)
#
#
# Indices 1 2 3 4 5 6 
#
# 1 48.2215 19.5233 34.6426 0.0000 -12.5279 0.0000
# 2 19.5233 37.6181 26.6476 0.0000 -0.5352 0.0000
# 3 34.6426 26.6476 122.2332 0.0000 3.1978 0.0000
# 4 0.0000 0.0000 0.0000 30.6327 0.0000 -0.9447
# 5 -12.5279 -0.5352 3.1978 0.0000 34.6476 0.0000
# 6 0.0000 0.0000 0.0000 -0.9447 0.0000 20.0722
#
#
#
# Elastic Compliance Matrix: (Units=1/GPa)
#
#
# Indices 1 2 3 4 5 6 
#
# 1 0.034454 -0.012465 -0.007386 0.000000 0.012947 0.000000
# 2 -0.012465 0.035991 -0.004220 0.000000 -0.003562 0.000000
# 3 -0.007386 -0.004220 0.011293 0.000000 -0.003778 0.000000
# 4 0.000000 0.000000 0.000000 0.032692 0.000000 0.001539
# 5 0.012947 -0.003562 -0.003778 0.000000 0.033837 0.000000
# 6 0.000000 0.000000 0.000000 0.001539 0.000000 0.049892
#
#
# Mechanical properties :
#
#
# Convention : Reuss Voigt Hill
#
# Bulk Modulus (GPa) = 29.76569 41.07776 35.42173
# Shear Modulus (GPa) = 19.41736 25.55448 22.48592
#
# Velocity S-wave (km/s) = 3.22508 3.69980 3.47057
# Velocity P-wave (km/s) = 5.46008 6.34469 5.91894
#
# Compressibility (1/GPa) = 0.03359573
#
# Stress axis : x y z
#
# Youngs Moduli (GPa) = 29.02410 27.78474 88.54801
#
# Poissons Ratio (x) = 0.34633 0.65402
# Poissons Ratio (y) = 0.36178 0.37370
# Poissons Ratio (z) = 0.21437 0.11726
#
# Static dielectric constant tensor:
#      x y z
#    x 3.854020 0.000000 -0.267350 
#    y 0.000000 3.045510 0.000000 
#    z -0.267350 0.000000 3.971780 
# 
# 
# High freq. dielectric constant tensor:
#      x y z
#    x 1.733580 0.000000 -0.001270 
#    y 0.000000 1.685760 0.000000 
#    z -0.001270 0.000000 1.735770 
# 
# From -- ./inp_files/249254.got.cif
#   From: 2010.06.25/outbox.cif.g09.slc.cpg/sg12_125_cif.got.tgz:249254.got - 2010.06.28 00:19:55.
