data_PCOD8091874
_publ_section_title
;
Structure prediction by ZEFSAII (Michael W. Deem and Ramdas Pophale) SiO2 
 PCOD8091874
Probable space group: C 2/M
;
_chemical_formula_sum "Si O2"
_cell_formula_units_Z 56
_cell_length_a 20.525854
_cell_length_b 8.803332
_cell_length_c 27.974628
_cell_angle_alpha 90.000000
_cell_angle_beta 145.178160
_cell_angle_gamma 90.000000
_cell_volume 2886.482466
_symmetry_space_group_name_H-M "C 2/M"
_symmetry_group_IT_number 12
_symmetry_cell_setting 'monoclinic'
loop_
_space_group_symop_operation_xyz
x,y,z
-x,y,-z
-x,-y,-z
x,-y,z
1/2+x,1/2+y,z
1/2-x,1/2+y,-z
1/2-x,1/2-y,-z
1/2+x,1/2-y,z
loop_
_atom_site_type_symbol
_atom_site_label
_atom_site_fract_x
_atom_site_fract_y
_atom_site_fract_z
Si Si1 0.172354 0.176575 0.712186
Si Si2 0.968110 0.322449 0.534675
Si Si3 0.086782 0.319258 0.183168
Si Si4 0.536767 0.179476 0.257996
Si Si5 0.182859 0.175921 0.830702
Si Si6 0.751361 0.679830 0.552914
Si Si7 0.566889 0.819187 0.994610
O O1 0.287215 0.234866 0.755869
O O2 0.185257 0.205918 0.775920
O O3 0.069044 0.276947 0.630945
O O4 0.148471 0.000000 0.686652
O O5 0.943283 0.500000 0.525492
O O6 0.855749 0.230353 0.480404
O O7 0.000000 0.278083 0.500000
O O8 0.083445 0.500000 0.180449
O O9 0.057748 0.252286 0.217776
O O10 0.992846 0.255814 0.089322
O O11 0.414595 0.227595 0.203249
O O12 0.634898 0.240170 0.352414
O O13 0.542486 0.000000 0.258630
O O14 0.161142 0.000000 0.828776
O O15 0.301863 0.233539 0.924865
O O16 0.750261 0.500000 0.547433
O O17 0.750000 0.750000 0.500000
O O18 0.560781 0.000000 0.992943
O O19 0.500000 0.752138 0.000000
#
# Coordination Sequence:
#
# PCOD8091874 Si02
#       7
#     8   8   8   8   8   8   8
#     4  10  19  34  58  83 105 138 188 236 275 322
#     4  11  24  39  56  82 115 148 185 234 288 338
#     4   9  17  32  55  80 109 144 183 225 270 322
#     4  10  22  37  53  78 112 147 178 219 276 332
#     4  10  20  33  55  85 110 138 180 228 270 318
#     4  11  23  40  61  83 111 150 193 235 283 338
#     4   9  15  29  54  84 111 136 177 229 270 309
#
# _framework density 19.400776
#
# number of rings (size 3 to 8) (size 9 to 14) (size 15 to 20)
#    0.000    2.000    1.429    2.571    0.000    6.857 
#    0.000    0.714    0.000    1.286    0.000    0.000 
#    0.000    0.000    0.000    0.000    0.000    0.000 
#
# Total GULP energy -347269.676679 kJ/mol
# GULP energy per Si atom -12402.488453 kJ/mol
# Density = 1.935662 g / cm^3
# Si number density = 19.400776 Si / 1000 Ang^3
#
#
#
# Elastic Constant Matrix: (Units=GPa)
#
#
# Indices 1 2 3 4 5 6 
#
# 1 134.4156 21.7365 69.3373 -0.0001 -0.1697 0.0002
# 2 21.7365 26.5335 26.3985 -0.0002 -5.3078 0.0004
# 3 69.3373 26.3985 158.5563 0.0000 5.9864 0.0001
# 4 -0.0001 -0.0002 0.0000 23.5438 0.0000 3.6229
# 5 -0.1697 -5.3078 5.9864 0.0000 35.8659 0.0000
# 6 0.0002 0.0004 0.0001 3.6229 0.0000 30.0707
#
#
#
# Elastic Compliance Matrix: (Units=1/GPa)
#
#
# Indices 1 2 3 4 5 6 
#
# 1 0.010060 -0.004641 -0.003625 0.000000 -0.000034 0.000000
# 2 -0.004641 0.049708 -0.006565 0.000000 0.008430 -0.000001
# 3 -0.003625 -0.006565 0.009080 0.000000 -0.002504 0.000000
# 4 0.000000 0.000000 0.000000 0.043276 0.000000 -0.005214
# 5 -0.000034 0.008430 -0.002504 0.000000 0.029547 0.000000
# 6 0.000000 -0.000001 0.000000 -0.005214 0.000000 0.033883
#
#
# Mechanical properties :
#
#
# Convention : Reuss Voigt Hill
#
# Bulk Modulus (GPa) = 25.51970 61.60555 43.56262
# Shear Modulus (GPa) = 22.90647 31.36496 27.13571
#
# Velocity S-wave (km/s) = 3.43986 4.02517 3.74397
# Velocity P-wave (km/s) = 5.38139 7.30929 6.41814
#
# Compressibility (1/GPa) = 0.03918542
#
# Stress axis : x y z
#
# Youngs Moduli (GPa) = 99.40121 20.11746 110.13468
#
# Poissons Ratio (x) = 0.09337 0.39928
# Poissons Ratio (y) = 0.46136 0.72299
# Poissons Ratio (z) = 0.36036 0.13206
#
# Static dielectric constant tensor:
#      x y z
#    x 3.685920 0.000000 -0.079070 
#    y 0.000000 3.177070 0.000000 
#    z -0.079070 0.000000 3.850110 
# 
# 
# High freq. dielectric constant tensor:
#      x y z
#    x 1.767880 0.000000 -0.000340 
#    y 0.000000 1.718160 0.000000 
#    z -0.000340 0.000000 1.774330 
# 
# From -- ./inp_files/363244.got.cif
#   From: 2010.06.25/outbox.cif.g09.slc.cpg/sg12_182_cif.got.tgz:363244.got - 2010.06.28 00:19:55.
