data_PCOD8091476
_publ_section_title
;
Structure prediction by ZEFSAII (Michael W. Deem and Ramdas Pophale) SiO2 
 PCOD8091476
Probable space group: C 2/M
;
_chemical_formula_sum "Si O2"
_cell_formula_units_Z 56
_cell_length_a 12.771928
_cell_length_b 19.502537
_cell_length_c 11.908728
_cell_angle_alpha 90.000000
_cell_angle_beta 89.033273
_cell_angle_gamma 90.000000
_cell_volume 2965.863278
_symmetry_space_group_name_H-M "C 2/M"
_symmetry_group_IT_number 12
_symmetry_cell_setting 'monoclinic'
loop_
_space_group_symop_operation_xyz
x,y,z
-x,y,-z
-x,-y,-z
x,-y,z
1/2+x,1/2+y,z
1/2-x,1/2+y,-z
1/2-x,1/2-y,-z
1/2+x,1/2-y,z
loop_
_atom_site_type_symbol
_atom_site_label
_atom_site_fract_x
_atom_site_fract_y
_atom_site_fract_z
Si Si1 0.831432 0.919567 0.196461
Si Si2 0.470713 0.654595 0.873626
Si Si3 0.727585 0.827320 0.372290
Si Si4 0.455156 0.926388 0.119334
Si Si5 0.099951 0.720237 0.565607
Si Si6 0.726278 0.419242 0.055300
Si Si7 0.461455 0.799659 0.767336
O O1 0.762166 0.895555 0.305117
O O2 0.945946 0.884988 0.205972
O O3 0.844786 0.000000 0.206946
O O4 0.779569 0.898688 0.077363
O O5 0.355169 0.622239 0.864296
O O6 0.477162 0.735040 0.847578
O O7 0.500000 0.641031 0.000000
O O8 0.827671 0.783481 0.402972
O O9 0.661691 0.837721 0.490060
O O10 0.649539 0.786505 0.290650
O O11 0.337438 0.897854 0.105849
O O12 0.535682 0.871005 0.166942
O O13 0.455432 0.000000 0.186679
O O14 0.500000 0.945755 0.000000
O O15 0.000000 0.750267 0.500000
O O16 0.058112 0.687859 0.680711
O O17 0.703947 0.500000 0.067098
#
# Coordination Sequence:
#
# PCOD8091476 Si02
#       7
#     8   8   8   8   8   8   8
#     4  10  19  34  56  82 113 145 185 222 266 328
#     4  10  20  32  51  83 116 146 182 225 267 316
#     4  10  20  36  57  81 102 143 178 223 280 325
#     4  10  21  37  54  77 115 155 187 218 261 321
#     4   9  20  38  57  79 105 135 179 227 283 326
#     4   9  19  34  53  78 115 158 183 213 265 317
#     4  11  21  34  56  84 108 140 182 231 269 325
#
# _framework density 18.881516999999999
#
# number of rings (size 3 to 8) (size 9 to 14) (size 15 to 20)
#    0.000    2.143    1.429    1.714    2.000    3.429 
#    0.000    4.286    0.000    3.000    0.000    0.000 
#    0.000    0.000    0.000    0.000    0.000    0.000 
#
# Total GULP energy -346903.461899 kJ/mol
# GULP energy per Si atom -12389.409354 kJ/mol
# Density = 1.883854 g / cm^3
# Si number density = 18.881517 Si / 1000 Ang^3
#
#
#
# Elastic Constant Matrix: (Units=GPa)
#
#
# Indices 1 2 3 4 5 6 
#
# 1 100.9705 32.6864 21.4391 0.0000 -6.5871 0.0000
# 2 32.6864 90.1521 29.1545 0.0000 -5.7427 0.0000
# 3 21.4391 29.1545 57.5874 0.0000 -13.9532 0.0000
# 4 0.0000 0.0000 0.0000 25.6662 0.0000 -2.5394
# 5 -6.5871 -5.7427 -13.9532 0.0000 25.7692 0.0000
# 6 0.0000 0.0000 0.0000 -2.5394 0.0000 34.3355
#
#
#
# Elastic Compliance Matrix: (Units=1/GPa)
#
#
# Indices 1 2 3 4 5 6 
#
# 1 0.011557 -0.003363 -0.002378 0.000000 0.000917 0.000000
# 2 -0.003363 0.014256 -0.006220 0.000000 -0.001051 0.000000
# 3 -0.002378 -0.006220 0.024074 0.000000 0.011042 0.000000
# 4 0.000000 0.000000 0.000000 0.039249 0.000000 0.002903
# 5 0.000917 -0.001051 0.011042 0.000000 0.044785 0.000000
# 6 0.000000 0.000000 0.000000 0.002903 0.000000 0.029339
#
#
# Mechanical properties :
#
#
# Convention : Reuss Voigt Hill
#
# Bulk Modulus (GPa) = 38.51123 46.14113 42.32618
# Shear Modulus (GPa) = 25.53129 28.18284 26.85707
#
# Velocity S-wave (km/s) = 3.68120 3.86763 3.77556
# Velocity P-wave (km/s) = 6.20555 6.66596 6.43987
#
# Compressibility (1/GPa) = 0.02596645
#
# Stress axis : x y z
#
# Youngs Moduli (GPa) = 86.52563 70.14474 41.53776
#
# Poissons Ratio (x) = 0.23589 0.09877
# Poissons Ratio (y) = 0.29098 0.25837
# Poissons Ratio (z) = 0.20574 0.43630
#
# Static dielectric constant tensor:
#      x y z
#    x 3.814410 0.000000 -0.182690 
#    y 0.000000 3.204300 0.000000 
#    z -0.182690 0.000000 3.616470 
# 
# 
# High freq. dielectric constant tensor:
#      x y z
#    x 1.752900 0.000000 -0.012890 
#    y 0.000000 1.711330 0.000000 
#    z -0.012890 0.000000 1.718970 
# 
# From -- ./inp_files/133173.got.cif
#   From: 2010.06.25/outbox.cif.g09.slc.cpg/sg12_67_cif.got.tgz:133173.got - 2010.06.28 00:19:55.
