data_PCOD8091712
_publ_section_title
;
Structure prediction by ZEFSAII (Michael W. Deem and Ramdas Pophale) SiO2 
 PCOD8091712
Probable space group: C 2/M
;
_chemical_formula_sum "Si O2"
_cell_formula_units_Z 48
_cell_length_a 27.686982
_cell_length_b 9.335923
_cell_length_c 10.200825
_cell_angle_alpha 90.000000
_cell_angle_beta 90.105806
_cell_angle_gamma 90.000000
_cell_volume 2636.740780
_symmetry_space_group_name_H-M "C 2/M"
_symmetry_group_IT_number 12
_symmetry_cell_setting 'monoclinic'
loop_
_space_group_symop_operation_xyz
x,y,z
-x,y,-z
-x,-y,-z
x,-y,z
1/2+x,1/2+y,z
1/2-x,1/2+y,-z
1/2-x,1/2-y,-z
1/2+x,1/2-y,z
loop_
_atom_site_type_symbol
_atom_site_label
_atom_site_fract_x
_atom_site_fract_y
_atom_site_fract_z
Si Si1 0.270867 0.167001 0.377769
Si Si2 0.224507 0.162181 0.111160
Si Si3 0.522957 0.830097 0.632956
Si Si4 0.963361 0.661179 0.880991
Si Si5 0.121370 0.835891 0.001577
Si Si6 0.874080 0.331930 0.268187
O O1 0.250000 0.250000 0.500000
O O2 0.240566 0.221626 0.252352
O O3 0.327586 0.201671 0.357369
O O4 0.262764 0.000000 0.403122
O O5 0.167351 0.174093 0.096261
O O6 0.243094 0.000000 0.097355
O O7 0.250000 0.250000 0.000000
O O8 0.500000 0.764390 0.500000
O O9 0.490746 0.776760 0.754203
O O10 0.578378 0.779192 0.652801
O O11 0.522018 0.000000 0.626678
O O12 0.943517 0.500000 0.855761
O O13 0.920570 0.768231 0.912231
O O14 0.000000 0.657901 0.000000
O O15 0.108885 0.000000 0.966607
O O16 0.130489 0.751102 0.868009
O O17 0.877615 0.500000 0.233502
#
# Coordination Sequence:
#
# PCOD8091712 Si02
#       6
#     8   8   8   8   8   8
#     4  10  22  38  58  83 114 149 188 234 282 338
#     4  10  21  37  57  83 112 146 188 234 280 329
#     4   9  18  33  55  82 110 139 183 234 273 319
#     4  10  19  34  57  83 108 143 187 231 272 320
#     4  11  22  34  55  86 116 146 182 231 285 332
#     4  10  19  36  59  80 107 148 190 230 278 331
#
# _framework density 18.204293
#
# number of rings (size 3 to 8) (size 9 to 14) (size 15 to 20)
#    0.000    2.000    3.333    0.500    0.000    3.667 
#    0.000    1.667    0.000    2.000    0.000    0.000 
#    0.000    0.000    0.000    0.000    0.000    0.000 
#
# Total GULP energy -297615.127526 kJ/mol
# GULP energy per Si atom -12400.630314 kJ/mol
# Density = 1.816286 g / cm^3
# Si number density = 18.204293 Si / 1000 Ang^3
#
#
#
# Elastic Constant Matrix: (Units=GPa)
#
#
# Indices 1 2 3 4 5 6 
#
# 1 128.7765 54.2642 75.2000 0.0000 -8.2150 0.0000
# 2 54.2642 67.2054 50.9918 0.0000 -8.2616 0.0000
# 3 75.2000 50.9918 163.0763 0.0000 -7.1474 0.0000
# 4 0.0000 0.0000 0.0000 32.1025 0.0000 -1.8472
# 5 -8.2150 -8.2616 -7.1474 0.0000 34.6090 0.0000
# 6 0.0000 0.0000 0.0000 -1.8472 0.0000 33.5614
#
#
#
# Elastic Compliance Matrix: (Units=1/GPa)
#
#
# Indices 1 2 3 4 5 6 
#
# 1 0.013227 -0.007874 -0.003615 0.000000 0.000513 0.000000
# 2 -0.007874 0.024607 -0.003923 0.000000 0.003195 0.000000
# 3 -0.003615 -0.003923 0.009029 0.000000 0.000070 0.000000
# 4 0.000000 0.000000 0.000000 0.031249 0.000000 0.001720
# 5 0.000513 0.003195 0.000070 0.000000 0.029793 0.000000
# 6 0.000000 0.000000 0.000000 0.001720 0.000000 0.029891
#
#
# Mechanical properties :
#
#
# Convention : Reuss Voigt Hill
#
# Bulk Modulus (GPa) = 62.34970 79.99669 71.17320
# Shear Modulus (GPa) = 28.74108 31.96140 30.35124
#
# Velocity S-wave (km/s) = 3.97773 4.19466 4.08764
# Velocity P-wave (km/s) = 7.44452 8.21581 7.83965
#
# Compressibility (1/GPa) = 0.01603857
#
# Stress axis : x y z
#
# Youngs Moduli (GPa) = 75.60237 40.63852 110.75644
#
# Poissons Ratio (x) = 0.32000 0.40036
# Poissons Ratio (y) = 0.59531 0.43453
# Poissons Ratio (z) = 0.27329 0.15944
#
# Static dielectric constant tensor:
#      x y z
#    x 3.259250 0.000000 -0.105290 
#    y 0.000000 3.238230 0.000000 
#    z -0.105290 0.000000 3.268840 
# 
# 
# High freq. dielectric constant tensor:
#      x y z
#    x 1.718910 0.000000 0.002390 
#    y 0.000000 1.684440 0.000000 
#    z 0.002390 0.000000 1.705420 
# 
# From -- ./inp_files/102040.got.cif
#   From: 2010.06.25/outbox.cif.g09.slc.cpg/sg12_52_cif.got.tgz:102040.got - 2010.06.28 00:19:55.
