data_PCOD8091501
_publ_section_title
;
Structure prediction by ZEFSAII (Michael W. Deem and Ramdas Pophale) SiO2 
 PCOD8091501
Probable space group: C 2/M
;
_chemical_formula_sum "Si O2"
_cell_formula_units_Z 64
_cell_length_a 28.250273
_cell_length_b 8.965822
_cell_length_c 14.154539
_cell_angle_alpha 90.000000
_cell_angle_beta 86.743095
_cell_angle_gamma 90.000000
_cell_volume 3579.368937
_symmetry_space_group_name_H-M "C 2/M"
_symmetry_group_IT_number 12
_symmetry_cell_setting 'monoclinic'
loop_
_space_group_symop_operation_xyz
x,y,z
-x,y,-z
-x,-y,-z
x,-y,z
1/2+x,1/2+y,z
1/2-x,1/2+y,-z
1/2-x,1/2-y,-z
1/2+x,1/2-y,z
loop_
_atom_site_type_symbol
_atom_site_label
_atom_site_fract_x
_atom_site_fract_y
_atom_site_fract_z
Si Si1 0.653795 0.826167 0.952654
Si Si2 0.777952 0.828662 0.186663
Si Si3 0.850770 0.826061 0.343127
Si Si4 0.699757 0.176558 0.485031
Si Si5 0.176625 0.326348 0.275156
Si Si6 0.885023 0.824920 0.862314
Si Si7 0.579880 0.175162 0.799675
Si Si8 0.491974 0.325138 0.893018
O O1 0.702944 0.772526 0.900674
O O2 0.610523 0.783940 0.888580
O O3 0.657284 0.000000 0.971866
O O4 0.646834 0.746146 0.052479
O O5 0.806575 0.796902 0.279292
O O6 0.723813 0.785828 0.211329
O O7 0.784010 0.000000 0.155997
O O8 0.840310 0.739654 0.440953
O O9 0.898643 0.759048 0.293283
O O10 0.858241 0.000000 0.363188
O O11 0.750000 0.250000 0.500000
O O12 0.682991 0.221076 0.382533
O O13 0.705198 0.000000 0.496036
O O14 0.164902 0.500000 0.268091
O O15 0.133090 0.233927 0.236553
O O16 0.939521 0.778065 0.868034
O O17 0.879018 0.000000 0.869317
O O18 0.526946 0.233532 0.821590
O O19 0.579849 0.000000 0.779477
O O20 0.501905 0.500000 0.878844
O O21 0.500000 0.276319 0.000000
#
# Coordination Sequence:
#
# PCOD8091501 Si02
#       8
#     8   8   8   8   8   8   8   8
#     4  10  20  33  51  78 110 144 182 225 269 317
#     4   9  18  34  53  75 107 147 185 218 264 322
#     4  10  19  34  56  83 113 144 180 226 276 322
#     4  11  21  36  58  84 112 145 185 228 275 324
#     4  10  22  39  55  77 111 148 183 225 275 323
#     4  11  23  37  55  79 107 146 188 225 273 329
#     4  10  20  33  54  85 113 141 181 226 274 327
#     4  10  20  36  57  80 109 144 182 227 278 328
#
# _framework density 17.880247000000001
#
# number of rings (size 3 to 8) (size 9 to 14) (size 15 to 20)
#    0.000    1.875    2.500    1.875    0.000    4.750 
#    0.000    0.000    0.000    0.750    0.000    5.250 
#    0.000    0.000    0.000    0.000    0.000    0.000 
#
# Total GULP energy -396958.222622 kJ/mol
# GULP energy per Si atom -12404.944457 kJ/mol
# Density = 1.783955 g / cm^3
# Si number density = 17.880247 Si / 1000 Ang^3
#
#
#
# Elastic Constant Matrix: (Units=GPa)
#
#
# Indices 1 2 3 4 5 6 
#
# 1 102.7902 48.4082 64.2354 0.0000 0.5324 0.0000
# 2 48.4082 78.9329 58.7304 0.0000 0.8422 0.0000
# 3 64.2354 58.7304 119.6676 0.0000 -3.2765 0.0000
# 4 0.0000 0.0000 0.0000 34.1546 0.0000 -4.3349
# 5 0.5324 0.8422 -3.2765 0.0000 22.5790 0.0000
# 6 0.0000 0.0000 0.0000 -4.3349 0.0000 30.5235
#
#
#
# Elastic Compliance Matrix: (Units=1/GPa)
#
#
# Indices 1 2 3 4 5 6 
#
# 1 0.015993 -0.005337 -0.005994 0.000000 -0.001048 0.000000
# 2 -0.005337 0.021844 -0.007906 0.000000 -0.001836 0.000000
# 3 -0.005994 -0.007906 0.015528 0.000000 0.002690 0.000000
# 4 0.000000 0.000000 0.000000 0.029816 0.000000 0.004234
# 5 -0.001048 -0.001836 0.002690 0.000000 0.044772 0.000000
# 6 0.000000 0.000000 0.000000 0.004234 0.000000 0.033363
#
#
# Mechanical properties :
#
#
# Convention : Reuss Voigt Hill
#
# Bulk Modulus (GPa) = 67.15710 71.57098 69.36404
# Shear Modulus (GPa) = 24.41930 26.11919 25.26925
#
# Velocity S-wave (km/s) = 3.69957 3.82617 3.76340
# Velocity P-wave (km/s) = 7.47596 7.72232 7.60014
#
# Compressibility (1/GPa) = 0.01489046
#
# Stress axis : x y z
#
# Youngs Moduli (GPa) = 62.52561 45.77825 64.40030
#
# Poissons Ratio (x) = 0.24433 0.38603
# Poissons Ratio (y) = 0.33372 0.50916
# Poissons Ratio (z) = 0.37479 0.36193
#
# Static dielectric constant tensor:
#      x y z
#    x 3.230870 0.000000 -0.086160 
#    y 0.000000 3.311440 0.000000 
#    z -0.086160 0.000000 3.313110 
# 
# 
# High freq. dielectric constant tensor:
#      x y z
#    x 1.678870 0.000000 -0.012490 
#    y 0.000000 1.700260 0.000000 
#    z -0.012490 0.000000 1.685580 
# 
# From -- ./inp_files/244013.got.cif
#   From: 2010.06.25/outbox.cif.g09.slc.cpg/sg12_123_cif.got.tgz:244013.got - 2010.06.28 00:19:55.
