data_PCOD8091099
_publ_section_title
;
Structure prediction by ZEFSAII (Michael W. Deem and Ramdas Pophale) SiO2 
 PCOD8091099
Probable space group: C 2/M
;
_chemical_formula_sum "Si O2"
_cell_formula_units_Z 64
_cell_length_a 20.660828
_cell_length_b 8.927037
_cell_length_c 18.720179
_cell_angle_alpha 90.000000
_cell_angle_beta 97.154313
_cell_angle_gamma 90.000000
_cell_volume 3425.867382
_symmetry_space_group_name_H-M "C 2/M"
_symmetry_group_IT_number 12
_symmetry_cell_setting 'monoclinic'
loop_
_space_group_symop_operation_xyz
x,y,z
-x,y,-z
-x,-y,-z
x,-y,z
1/2+x,1/2+y,z
1/2-x,1/2+y,-z
1/2-x,1/2-y,-z
1/2+x,1/2-y,z
loop_
_atom_site_type_symbol
_atom_site_label
_atom_site_fract_x
_atom_site_fract_y
_atom_site_fract_z
Si Si1 0.229817 0.826114 0.344499
Si Si2 0.437865 0.177986 0.033207
Si Si3 0.091631 0.678174 0.814564
Si Si4 0.028775 0.321321 0.661755
Si Si5 0.637178 0.821702 0.567589
Si Si6 0.261219 0.174111 0.185202
Si Si7 0.612079 0.822104 0.404938
Si Si8 0.800429 0.677151 0.952924
O O1 0.292624 0.764131 0.395852
O O2 0.240098 0.797071 0.262802
O O3 0.166846 0.734890 0.359031
O O4 0.218748 0.000000 0.359814
O O5 0.437612 0.238569 0.114760
O O6 0.442049 0.000000 0.035051
O O7 0.500000 0.246223 0.000000
O O8 0.372759 0.230555 0.984005
O O9 0.092288 0.500000 0.812758
O O10 0.047881 0.739346 0.743081
O O11 0.165619 0.735302 0.816085
O O12 0.029778 0.500000 0.660692
O O13 0.080702 0.258442 0.611512
O O14 0.957470 0.260097 0.631639
O O15 0.625038 0.760126 0.486355
O O16 0.635517 0.000000 0.569774
O O17 0.212475 0.267822 0.128973
O O18 0.256786 0.000000 0.163647
O O19 0.612580 0.000000 0.405076
O O20 0.793515 0.500000 0.957146
O O21 0.750000 0.750000 0.000000
#
# Coordination Sequence:
#
# PCOD8091099 Si02
#       8
#     8   8   8   8   8   8   8   8
#     4  10  20  34  53  73 101 143 180 209 254 323
#     4   9  18  31  49  77 106 131 165 210 255 300
#     4   9  15  28  50  73  99 132 172 213 253 305
#     4   9  16  28  50  77 101 132 176 222 262 303
#     4   9  16  30  51  75 101 135 179 219 259 309
#     4  10  19  34  55  77 100 136 184 220 250 300
#     4  10  20  31  49  80 111 130 162 225 277 307
#     4  11  21  34  56  83 109 137 171 213 259 307
#
# _framework density 18.6814
#
# number of rings (size 3 to 8) (size 9 to 14) (size 15 to 20)
#    0.000    2.375    2.500    1.125    0.000    3.000 
#    0.000    2.500    0.000    4.500    0.000    0.000 
#    0.000    0.000    0.000    0.000    0.000    0.000 
#
# Total GULP energy -396799.454335 kJ/mol
# GULP energy per Si atom -12399.982948 kJ/mol
# Density = 1.863888 g / cm^3
# Si number density = 18.681400 Si / 1000 Ang^3
#
#
#
# Elastic Constant Matrix: (Units=GPa)
#
#
# Indices 1 2 3 4 5 6 
#
# 1 159.7931 22.2484 77.1893 0.0000 -2.3068 0.0000
# 2 22.2484 19.5971 22.7321 0.0000 2.6272 0.0000
# 3 77.1893 22.7321 145.9289 0.0000 6.6327 0.0000
# 4 0.0000 0.0000 0.0000 22.1528 0.0000 -1.3395
# 5 -2.3068 2.6272 6.6327 0.0000 37.3372 0.0000
# 6 0.0000 0.0000 0.0000 -1.3395 0.0000 23.1245
#
#
#
# Elastic Compliance Matrix: (Units=1/GPa)
#
#
# Indices 1 2 3 4 5 6 
#
# 1 0.008994 -0.005892 -0.003915 0.000000 0.001666 0.000000
# 2 -0.005892 0.066410 -0.007056 0.000000 -0.003783 0.000000
# 3 -0.003915 -0.007056 0.010093 0.000000 -0.001538 0.000000
# 4 0.000000 0.000000 0.000000 0.045300 0.000000 0.002624
# 5 0.001666 -0.003783 -0.001538 0.000000 0.027425 0.000000
# 6 0.000000 0.000000 0.000000 0.002624 0.000000 0.043396
#
#
# Mechanical properties :
#
#
# Convention : Reuss Voigt Hill
#
# Bulk Modulus (GPa) = 19.31669 63.29542 41.30606
# Shear Modulus (GPa) = 19.79404 30.06618 24.93011
#
# Velocity S-wave (km/s) = 3.25862 4.01611 3.65703
# Velocity P-wave (km/s) = 4.95183 7.44719 6.32381
#
# Compressibility (1/GPa) = 0.05176870
#
# Stress axis : x y z
#
# Youngs Moduli (GPa) = 111.18799 15.05802 99.08210
#
# Poissons Ratio (x) = 0.08873 0.38791
# Poissons Ratio (y) = 0.65517 0.69914
# Poissons Ratio (z) = 0.43531 0.10625
#
# Static dielectric constant tensor:
#      x y z
#    x 3.615100 0.000000 0.100160 
#    y 0.000000 2.886930 0.000000 
#    z 0.100160 0.000000 3.738630 
# 
# 
# High freq. dielectric constant tensor:
#      x y z
#    x 1.733530 0.000000 0.003460 
#    y 0.000000 1.664830 0.000000 
#    z 0.003460 0.000000 1.744210 
# 
# From -- ./inp_files/281307.got.cif
#   From: 2010.06.25/outbox.cif.g09.slc.cpg/sg12_141_cif.got.tgz:281307.got - 2010.06.28 00:19:55.
