data_PCOD8091525
_publ_section_title
;
Structure prediction by ZEFSAII (Michael W. Deem and Ramdas Pophale) SiO2 
 PCOD8091525
Probable space group: C 2/M
;
_chemical_formula_sum "Si O2"
_cell_formula_units_Z 64
_cell_length_a 24.930380
_cell_length_b 8.856201
_cell_length_c 14.590580
_cell_angle_alpha 90.000000
_cell_angle_beta 89.050718
_cell_angle_gamma 90.000000
_cell_volume 3220.989500
_symmetry_space_group_name_H-M "C 2/M"
_symmetry_group_IT_number 12
_symmetry_cell_setting 'monoclinic'
loop_
_space_group_symop_operation_xyz
x,y,z
-x,y,-z
-x,-y,-z
x,-y,z
1/2+x,1/2+y,z
1/2-x,1/2+y,-z
1/2-x,1/2-y,-z
1/2+x,1/2-y,z
loop_
_atom_site_type_symbol
_atom_site_label
_atom_site_fract_x
_atom_site_fract_y
_atom_site_fract_z
Si Si1 0.589602 0.678235 0.490680
Si Si2 0.442058 0.825326 0.331308
Si Si3 0.842009 0.675498 0.221372
Si Si4 0.302975 0.823453 0.536118
Si Si5 0.305237 0.174690 0.028875
Si Si6 0.060679 0.672962 0.301703
Si Si7 0.225988 0.173458 0.286558
Si Si8 0.848221 0.673161 0.838802
O O1 0.591493 0.500000 0.494284
O O2 0.550643 0.738591 0.571913
O O3 0.647009 0.748562 0.516134
O O4 0.572898 0.727076 0.389846
O O5 0.394338 0.753568 0.269885
O O6 0.498304 0.806375 0.275815
O O7 0.429811 0.000000 0.353659
O O8 0.853857 0.500000 0.206876
O O9 0.830177 0.747524 0.121276
O O10 0.789778 0.701829 0.286513
O O11 0.250000 0.750000 0.500000
O O12 0.305321 0.784630 0.643589
O O13 0.303190 0.000000 0.517180
O O14 0.291777 0.000000 0.048146
O O15 0.250000 0.250000 0.000000
O O16 0.350815 0.193725 0.948645
O O17 0.072876 0.500000 0.328784
O O18 0.096249 0.722047 0.212594
O O19 0.200783 0.217863 0.189868
O O20 0.213319 0.000000 0.311583
O O21 0.834145 0.500000 0.815154
#
# Coordination Sequence:
#
# PCOD8091525 Si02
#       8
#     8   8   8   8   8   8   8   8
#     4  12  24  38  58  85 114 150 196 244 293 341
#     4  10  21  39  60  80 111 156 197 241 295 347
#     4   9  19  35  56  83 115 148 189 236 286 345
#     4  12  24  38  55  81 118 155 193 235 287 346
#     4  10  19  34  56  84 115 148 187 236 292 346
#     4  10  21  38  59  83 112 153 199 240 290 347
#     4  11  20  33  55  82 113 151 191 231 285 343
#     4  10  20  34  55  83 114 146 186 237 287 344
#
# _framework density 19.869671
#
# number of rings (size 3 to 8) (size 9 to 14) (size 15 to 20)
#    0.000    1.500    2.500    3.750    0.000    3.000 
#    0.000    1.875    0.000    3.750    0.000    0.000 
#    0.000    4.000    0.000    0.000    0.000    0.000 
#
# Total GULP energy -396744.436332 kJ/mol
# GULP energy per Si atom -12398.263635 kJ/mol
# Density = 1.982445 g / cm^3
# Si number density = 19.869671 Si / 1000 Ang^3
#
#
#
# Elastic Constant Matrix: (Units=GPa)
#
#
# Indices 1 2 3 4 5 6 
#
# 1 103.3533 33.2681 28.4717 0.0000 -8.5686 0.0000
# 2 33.2681 84.9611 26.8685 0.0000 -4.2118 0.0000
# 3 28.4717 26.8685 89.1932 0.0000 -9.6401 0.0000
# 4 0.0000 0.0000 0.0000 20.8694 0.0000 1.9200
# 5 -8.5686 -4.2118 -9.6401 0.0000 26.1232 0.0000
# 6 0.0000 0.0000 0.0000 1.9200 0.0000 22.7068
#
#
#
# Elastic Compliance Matrix: (Units=1/GPa)
#
#
# Indices 1 2 3 4 5 6 
#
# 1 0.011722 -0.003725 -0.002363 0.000000 0.002372 0.000000
# 2 -0.003725 0.014205 -0.003098 0.000000 -0.000075 0.000000
# 3 -0.002363 -0.003098 0.013292 0.000000 0.003630 0.000000
# 4 0.000000 0.000000 0.000000 0.048293 0.000000 -0.004083
# 5 0.002372 -0.000075 0.003630 0.000000 0.040386 0.000000
# 6 0.000000 0.000000 0.000000 -0.004083 0.000000 0.044385
#
#
# Mechanical properties :
#
#
# Convention : Reuss Voigt Hill
#
# Bulk Modulus (GPa) = 47.97145 50.52490 49.24817
# Shear Modulus (GPa) = 25.30315 26.53316 25.91816
#
# Velocity S-wave (km/s) = 3.57242 3.65822 3.61558
# Velocity P-wave (km/s) = 6.41964 6.58231 6.50148
#
# Compressibility (1/GPa) = 0.02084573
#
# Stress axis : x y z
#
# Youngs Moduli (GPa) = 85.30712 70.39901 75.23515
#
# Poissons Ratio (x) = 0.26224 0.17781
# Poissons Ratio (y) = 0.31778 0.23308
# Poissons Ratio (z) = 0.20162 0.21810
#
# Static dielectric constant tensor:
#      x y z
#    x 3.752440 0.000000 -0.078260 
#    y 0.000000 3.452810 0.000000 
#    z -0.078260 0.000000 3.958760 
# 
# 
# High freq. dielectric constant tensor:
#      x y z
#    x 1.775420 0.000000 -0.009500 
#    y 0.000000 1.754190 0.000000 
#    z -0.009500 0.000000 1.774150 
# 
# From -- ./inp_files/238627.got.cif
#   From: 2010.06.25/outbox.cif.g09.slc.cpg/sg12_120_cif.got.tgz:238627.got - 2010.06.28 00:19:55.
