data_PCOD8091680
_publ_section_title
;
Structure prediction by ZEFSAII (Michael W. Deem and Ramdas Pophale) SiO2 
 PCOD8091680
Probable space group: C 2/M
;
_chemical_formula_sum "Si O2"
_cell_formula_units_Z 56
_cell_length_a 8.380923
_cell_length_b 18.456370
_cell_length_c 22.215235
_cell_angle_alpha 90.000000
_cell_angle_beta 55.251485
_cell_angle_gamma 90.000000
_cell_volume 2823.462993
_symmetry_space_group_name_H-M "C 2/M"
_symmetry_group_IT_number 12
_symmetry_cell_setting 'monoclinic'
loop_
_space_group_symop_operation_xyz
x,y,z
-x,y,-z
-x,-y,-z
x,-y,z
1/2+x,1/2+y,z
1/2-x,1/2+y,-z
1/2-x,1/2-y,-z
1/2+x,1/2-y,z
loop_
_atom_site_type_symbol
_atom_site_label
_atom_site_fract_x
_atom_site_fract_y
_atom_site_fract_z
Si Si1 0.220042 0.419532 0.790165
Si Si2 0.845654 0.343273 0.083821
Si Si3 0.801772 0.331182 0.507667
Si Si4 0.013846 0.585327 0.635189
Si Si5 0.117557 0.915013 0.650434
Si Si6 0.951428 0.776388 0.157465
Si Si7 0.957963 0.333952 0.766731
O O1 0.239423 0.500000 0.764667
O O2 0.204105 0.413949 0.865838
O O3 0.421342 0.383071 0.723583
O O4 0.021946 0.390201 0.803904
O O5 0.927257 0.284745 0.112716
O O6 0.647336 0.316793 0.095858
O O7 0.000000 0.363299 0.000000
O O8 0.750000 0.250000 0.500000
O O9 0.639935 0.367035 0.585394
O O10 0.000000 0.326682 0.500000
O O11 0.827138 0.385833 0.446182
O O12 0.051529 0.500000 0.641564
O O13 0.795771 0.596549 0.657917
O O14 0.050219 0.637688 0.684777
O O15 0.105629 0.000000 0.635609
O O16 0.773869 0.832499 0.191694
O O17 0.965145 0.743723 0.223218
#
# Coordination Sequence:
#
# PCOD8091680 Si02
#       7
#     8   8   8   8   8   8   8
#     4  10  21  36  55  79 107 142 181 223 269 319
#     4  10  19  34  57  82 110 140 175 220 270 326
#     4  10  22  36  53  79 110 143 181 228 274 316
#     4  10  20  35  57  81 107 144 184 223 271 325
#     4   9  19  38  59  78 106 144 185 224 269 328
#     4   9  20  35  54  82 110 142 178 219 270 322
#     4  10  20  35  55  79 110 141 179 225 266 319
#
# _framework density 19.833798999999999
#
# number of rings (size 3 to 8) (size 9 to 14) (size 15 to 20)
#    0.000    2.286    0.000    2.143    0.000    8.857 
#    0.000    0.714    0.000    4.286    0.000    0.000 
#    0.000    0.000    0.000    0.000    0.000    0.000 
#
# Total GULP energy -346955.161965 kJ/mol
# GULP energy per Si atom -12391.255784 kJ/mol
# Density = 1.978866 g / cm^3
# Si number density = 19.833799 Si / 1000 Ang^3
#
#
#
# Elastic Constant Matrix: (Units=GPa)
#
#
# Indices 1 2 3 4 5 6 
#
# 1 85.7410 29.5006 47.7097 -0.0003 -8.4402 0.0005
# 2 29.5006 68.4622 51.3793 0.0000 -8.9284 0.0001
# 3 47.7097 51.3793 155.4001 -0.0001 -2.4274 0.0001
# 4 -0.0003 0.0000 -0.0001 25.7713 0.0002 -3.0910
# 5 -8.4402 -8.9284 -2.4274 0.0002 21.5198 -0.0002
# 6 0.0005 0.0001 0.0001 -3.0910 -0.0002 25.9714
#
#
#
# Elastic Compliance Matrix: (Units=1/GPa)
#
#
# Indices 1 2 3 4 5 6 
#
# 1 0.015170 -0.003390 -0.003472 0.000000 0.004152 0.000000
# 2 -0.003390 0.021418 -0.005933 0.000000 0.006887 0.000000
# 3 -0.003472 -0.005933 0.009419 0.000000 -0.002761 0.000000
# 4 0.000000 0.000000 0.000000 0.039365 0.000000 0.004685
# 5 0.004152 0.006887 -0.002761 0.000000 0.050643 0.000000
# 6 0.000000 0.000000 0.000000 0.004685 0.000000 0.039062
#
#
# Mechanical properties :
#
#
# Convention : Reuss Voigt Hill
#
# Bulk Modulus (GPa) = 48.97624 62.97584 55.97604
# Shear Modulus (GPa) = 24.09960 26.72008 25.40984
#
# Velocity S-wave (km/s) = 3.48958 3.67440 3.58318
# Velocity P-wave (km/s) = 6.40181 7.05850 6.73816
#
# Compressibility (1/GPa) = 0.02041807
#
# Stress axis : x y z
#
# Youngs Moduli (GPa) = 65.92028 46.68928 106.16435
#
# Poissons Ratio (x) = 0.15827 0.36857
# Poissons Ratio (y) = 0.22346 0.62988
# Poissons Ratio (z) = 0.22885 0.27701
#
# Static dielectric constant tensor:
#      x y z
#    x 3.729350 0.000000 0.039730 
#    y 0.000000 3.594990 0.000000 
#    z 0.039730 0.000000 3.676820 
# 
# 
# High freq. dielectric constant tensor:
#      x y z
#    x 1.778700 0.000000 0.002390 
#    y 0.000000 1.765120 0.000000 
#    z 0.002390 0.000000 1.764910 
# 
# From -- ./inp_files/301663.got.cif
#   From: 2010.06.25/outbox.cif.g09.slc.cpg/sg12_151_cif.got.tgz:301663.got - 2010.06.28 00:19:55.
