data_PCOD8091367
_publ_section_title
;
Structure prediction by ZEFSAII (Michael W. Deem and Ramdas Pophale) SiO2 
 PCOD8091367
Probable space group: C 2/M
;
_chemical_formula_sum "Si O2"
_cell_formula_units_Z 48
_cell_length_a 19.369144
_cell_length_b 10.197191
_cell_length_c 13.849430
_cell_angle_alpha 90.000000
_cell_angle_beta 59.515598
_cell_angle_gamma 90.000000
_cell_volume 2357.289336
_symmetry_space_group_name_H-M "C 2/M"
_symmetry_group_IT_number 12
_symmetry_cell_setting 'monoclinic'
loop_
_space_group_symop_operation_xyz
x,y,z
-x,y,-z
-x,-y,-z
x,-y,z
1/2+x,1/2+y,z
1/2-x,1/2+y,-z
1/2-x,1/2-y,-z
1/2+x,1/2-y,z
loop_
_atom_site_type_symbol
_atom_site_label
_atom_site_fract_x
_atom_site_fract_y
_atom_site_fract_z
Si Si1 0.811304 0.651210 0.085453
Si Si2 0.691401 0.648411 0.424396
Si Si3 0.054392 0.750443 0.875823
Si Si4 0.136022 0.847760 0.261464
Si Si5 0.672667 0.644529 0.652559
Si Si6 0.421212 0.849891 0.840556
O O1 0.798162 0.500000 0.080199
O O2 0.872709 0.671525 0.129316
O O3 0.724188 0.709294 0.171175
O O4 0.847950 0.704916 0.958928
O O5 0.726143 0.500000 0.391965
O O6 0.627053 0.668398 0.383878
O O7 0.648352 0.672074 0.557908
O O8 0.764606 0.747503 0.357223
O O9 0.093196 0.856370 0.775575
O O10 0.001358 0.652603 0.848489
O O11 0.000000 0.815861 0.000000
O O12 0.072961 0.751100 0.253565
O O13 0.121668 0.000000 0.241101
O O14 0.711929 0.500000 0.633109
O O15 0.408794 0.000000 0.814045
#
# Coordination Sequence:
#
# PCOD8091367 Si02
#       6
#     8   8   8   8   8   8
#     4   9  17  33  55  79 106 145 191 229 270 328
#     4   9  19  36  59  83 109 145 186 228 278 332
#     4  10  20  35  55  81 116 150 184 223 277 332
#     4  10  19  34  56  79 109 146 182 225 280 335
#     4  10  20  35  57  86 112 139 185 238 278 319
#     4  10  21  34  53  81 113 147 186 230 274 324
#
# _framework density 20.362371
#
# number of rings (size 3 to 8) (size 9 to 14) (size 15 to 20)
#    0.000    2.333    1.667    1.000    0.000    4.333 
#    0.000    3.333    0.000    4.000    0.000    0.000 
#    0.000    0.000    0.000    0.000    0.000    0.000 
#
# Total GULP energy -297340.879880 kJ/mol
# GULP energy per Si atom -12389.203328 kJ/mol
# Density = 2.031603 g / cm^3
# Si number density = 20.362371 Si / 1000 Ang^3
#
#
#
# Elastic Constant Matrix: (Units=GPa)
#
#
# Indices 1 2 3 4 5 6 
#
# 1 66.0959 35.9147 29.0818 0.0000 22.2381 0.0000
# 2 35.9147 95.3350 46.1163 0.0000 19.2621 0.0000
# 3 29.0818 46.1163 117.4083 0.0000 14.6587 0.0000
# 4 0.0000 0.0000 0.0000 23.7632 0.0000 4.3485
# 5 22.2381 19.2621 14.6587 0.0000 31.2286 0.0000
# 6 0.0000 0.0000 0.0000 4.3485 0.0000 22.3745
#
#
#
# Elastic Compliance Matrix: (Units=1/GPa)
#
#
# Indices 1 2 3 4 5 6 
#
# 1 0.022970 -0.005157 -0.002145 0.000000 -0.012169 0.000000
# 2 -0.005157 0.015239 -0.004242 0.000000 -0.003736 0.000000
# 3 -0.002145 -0.004242 0.010832 0.000000 -0.000941 0.000000
# 4 0.000000 0.000000 0.000000 0.043634 0.000000 -0.008480
# 5 -0.012169 -0.003736 -0.000941 0.000000 0.043434 0.000000
# 6 0.000000 0.000000 0.000000 -0.008480 0.000000 0.046342
#
#
# Mechanical properties :
#
#
# Convention : Reuss Voigt Hill
#
# Bulk Modulus (GPa) = 38.52987 55.67385 47.10186
# Shear Modulus (GPa) = 23.34399 26.65502 24.99951
#
# Velocity S-wave (km/s) = 3.38957 3.62198 3.50770
# Velocity P-wave (km/s) = 5.85509 6.70019 6.29184
#
# Compressibility (1/GPa) = 0.02595389
#
# Stress axis : x y z
#
# Youngs Moduli (GPa) = 43.53566 65.62197 92.31834
#
# Poissons Ratio (x) = 0.33841 0.19798
# Poissons Ratio (y) = 0.22451 0.39159
# Poissons Ratio (z) = 0.09337 0.27835
#
# Static dielectric constant tensor:
#      x y z
#    x 3.488390 0.000000 0.034570 
#    y 0.000000 3.403880 0.000000 
#    z 0.034570 0.000000 4.136040 
# 
# 
# High freq. dielectric constant tensor:
#      x y z
#    x 1.772730 0.000000 0.018810 
#    y 0.000000 1.773530 0.000000 
#    z 0.018810 0.000000 1.802670 
# 
# From -- ./inp_files/222408.got.cif
#   From: 2010.06.25/outbox.cif.g09.slc.cpg/sg12_112_cif.got.tgz:222408.got - 2010.06.28 00:19:55.
