data_PCOD8091263
_publ_section_title
;
Structure prediction by ZEFSAII (Michael W. Deem and Ramdas Pophale) SiO2 
 PCOD8091263
Probable space group: C 2/M
;
_chemical_formula_sum "Si O2"
_cell_formula_units_Z 56
_cell_length_a 29.777713
_cell_length_b 8.792665
_cell_length_c 21.803527
_cell_angle_alpha 90.000000
_cell_angle_beta 33.217257
_cell_angle_gamma 90.000000
_cell_volume 3127.322840
_symmetry_space_group_name_H-M "C 2/M"
_symmetry_group_IT_number 12
_symmetry_cell_setting 'monoclinic'
loop_
_space_group_symop_operation_xyz
x,y,z
-x,y,-z
-x,-y,-z
x,-y,z
1/2+x,1/2+y,z
1/2-x,1/2+y,-z
1/2-x,1/2-y,-z
1/2+x,1/2-y,z
loop_
_atom_site_type_symbol
_atom_site_label
_atom_site_fract_x
_atom_site_fract_y
_atom_site_fract_z
Si Si1 0.839115 0.323570 0.110487
Si Si2 0.340567 0.676378 0.235059
Si Si3 0.484054 0.821661 0.141240
Si Si4 0.248658 0.824786 0.091912
Si Si5 0.790920 0.322366 0.512453
Si Si6 0.041136 0.179210 0.698481
Si Si7 0.620461 0.823294 0.159225
O O1 0.840636 0.500000 0.127653
O O2 0.814558 0.221424 0.196248
O O3 0.770715 0.291941 0.137020
O O4 0.927247 0.273010 0.984329
O O5 0.365057 0.500000 0.210470
O O6 0.418480 0.777631 0.164575
O O7 0.264179 0.713389 0.365697
O O8 0.463963 0.732268 0.225761
O O9 0.480619 0.000000 0.159673
O O10 0.170540 0.723306 0.162879
O O11 0.225847 0.000000 0.106697
O O12 0.326857 0.781119 0.961035
O O13 0.800743 0.500000 0.489066
O O14 0.750000 0.250000 0.500000
O O15 0.879216 0.250116 0.424537
O O16 0.963217 0.229753 0.747878
O O17 0.049340 0.000000 0.688161
O O18 0.598597 0.000000 0.186515
#
# Coordination Sequence:
#
# PCOD8091263 Si02
#       7
#     8   8   8   8   8   8   8
#     4  10  21  37  56  80 113 153 187 221 273 332
#     4  11  24  38  54  81 112 146 189 231 275 328
#     4  11  21  36  56  80 112 151 187 224 274 331
#     4   9  18  34  54  81 113 145 184 224 269 331
#     4  11  23  39  58  80 109 146 187 234 278 326
#     4  12  23  35  56  84 113 146 185 231 280 328
#     4  10  19  34  55  82 113 146 181 224 279 330
#
# _framework density 17.906690000000001
#
# number of rings (size 3 to 8) (size 9 to 14) (size 15 to 20)
#    0.000    1.429    2.857    3.429    0.000    5.714 
#    0.000    0.000    0.000    0.857    0.000    6.000 
#    0.000    0.000    0.000    0.000    0.000    0.000 
#
# Total GULP energy -347365.943872 kJ/mol
# GULP energy per Si atom -12405.926567 kJ/mol
# Density = 1.786593 g / cm^3
# Si number density = 17.906690 Si / 1000 Ang^3
#
#
#
# Elastic Constant Matrix: (Units=GPa)
#
#
# Indices 1 2 3 4 5 6 
#
# 1 101.3984 37.5825 46.8083 -0.0005 -4.8828 0.0015
# 2 37.5825 87.5132 44.2302 0.0097 -1.3784 0.0018
# 3 46.8083 44.2302 78.4048 -0.0012 -0.6027 0.0003
# 4 -0.0005 0.0097 -0.0012 28.2729 0.0000 -1.8796
# 5 -4.8828 -1.3784 -0.6027 0.0000 24.9806 -0.0025
# 6 0.0015 0.0018 0.0003 -1.8796 -0.0025 34.6022
#
#
#
# Elastic Compliance Matrix: (Units=1/GPa)
#
#
# Indices 1 2 3 4 5 6 
#
# 1 0.014144 -0.002486 -0.007023 0.000001 0.002458 0.000000
# 2 -0.002486 0.016432 -0.007784 -0.000006 0.000233 -0.000001
# 3 -0.007023 -0.007784 0.021328 0.000003 -0.001288 0.000001
# 4 0.000001 -0.000006 0.000003 0.035498 0.000000 0.001928
# 5 0.002458 0.000233 -0.001288 0.000000 0.040493 0.000003
# 6 0.000000 -0.000001 0.000001 0.001928 0.000003 0.029005
#
#
# Mechanical properties :
#
#
# Convention : Reuss Voigt Hill
#
# Bulk Modulus (GPa) = 57.73998 58.28425 58.01212
# Shear Modulus (GPa) = 25.34757 26.81750 26.08253
#
# Velocity S-wave (km/s) = 3.76644 3.87411 3.82066
# Velocity P-wave (km/s) = 7.15749 7.25474 7.20628
#
# Compressibility (1/GPa) = 0.01731902
#
# Stress axis : x y z
#
# Youngs Moduli (GPa) = 70.70295 60.85612 46.88657
#
# Poissons Ratio (x) = 0.15129 0.32926
# Poissons Ratio (y) = 0.17577 0.36496
# Poissons Ratio (z) = 0.49652 0.47370
#
# Static dielectric constant tensor:
#      x y z
#    x 3.330350 -0.000010 -0.087870 
#    y -0.000010 3.382070 0.000000 
#    z -0.087870 0.000000 3.341900 
# 
# 
# High freq. dielectric constant tensor:
#      x y z
#    x 1.693550 0.000000 -0.009370 
#    y 0.000000 1.703860 0.000000 
#    z -0.009370 0.000000 1.676250 
# 
# From -- ./inp_files/237835.got.cif
#   From: 2010.06.25/outbox.cif.g09.slc.cpg/sg12_119_cif.got.tgz:237835.got - 2010.06.28 00:19:55.
