data_PCOD8091569
_publ_section_title
;
Structure prediction by ZEFSAII (Michael W. Deem and Ramdas Pophale) SiO2 
 PCOD8091569
Probable space group: C 2/M
;
_chemical_formula_sum "Si O2"
_cell_formula_units_Z 64
_cell_length_a 24.524240
_cell_length_b 9.170117
_cell_length_c 19.803219
_cell_angle_alpha 90.000000
_cell_angle_beta 130.411955
_cell_angle_gamma 90.000000
_cell_volume 3390.945747
_symmetry_space_group_name_H-M "C 2/M"
_symmetry_group_IT_number 12
_symmetry_cell_setting 'monoclinic'
loop_
_space_group_symop_operation_xyz
x,y,z
-x,y,-z
-x,-y,-z
x,-y,z
1/2+x,1/2+y,z
1/2-x,1/2+y,-z
1/2-x,1/2-y,-z
1/2+x,1/2-y,z
loop_
_atom_site_type_symbol
_atom_site_label
_atom_site_fract_x
_atom_site_fract_y
_atom_site_fract_z
Si Si1 0.311838 0.832649 0.588819
Si Si2 0.318665 0.168711 0.743827
Si Si3 0.680546 0.668527 0.871788
Si Si4 0.342990 0.668439 0.381166
Si Si5 0.583912 0.833803 0.443816
Si Si6 0.064110 0.830012 0.670955
Si Si7 0.917024 0.672820 0.942160
Si Si8 0.176185 0.170794 0.024171
O O1 0.250000 0.750000 0.500000
O O2 0.325739 0.762731 0.674220
O O3 0.385819 0.820844 0.607512
O O4 0.286327 0.000000 0.575947
O O5 0.238636 0.195395 0.707214
O O6 0.374499 0.235791 0.842499
O O7 0.337748 0.000000 0.753020
O O8 0.701936 0.500000 0.878213
O O9 0.610221 0.710091 0.773483
O O10 0.746055 0.763820 0.895895
O O11 0.661176 0.702733 0.933486
O O12 0.355869 0.500000 0.409354
O O13 0.359366 0.760702 0.460588
O O14 0.393370 0.720155 0.361146
O O15 0.508448 0.756950 0.385475
O O16 0.574016 0.000000 0.458167
O O17 0.045900 0.000000 0.653507
O O18 0.906090 0.500000 0.942140
O O19 0.886229 0.751042 0.983819
O O20 0.000000 0.714006 0.000000
O O21 0.176223 0.000000 0.040840
#
# Coordination Sequence:
#
# PCOD8091569 Si02
#       8
#     8   8   8   8   8   8   8   8
#     4  10  20  36  57  78 104 139 182 228 274 324
#     4   9  18  35  59  82 104 139 188 235 271 318
#     4   9  19  37  59  82 109 145 188 228 269 332
#     4  10  19  34  57  77 100 142 189 225 262 320
#     4  11  23  35  51  80 114 142 172 224 284 328
#     4  10  21  36  55  79 107 145 189 222 260 323
#     4  10  21  37  58  83 112 150 193 232 274 332
#     4  10  20  35  58  85 113 144 180 230 287 331
#
# _framework density 18.87379
#
# number of rings (size 3 to 8) (size 9 to 14) (size 15 to 20)
#    0.000    2.125    1.250    1.875    0.000    6.750 
#    0.000    3.750    0.000    0.000    0.000    0.000 
#    0.000    0.000    0.000    0.000    0.000    0.000 
#
# Total GULP energy -396845.331392 kJ/mol
# GULP energy per Si atom -12401.416606 kJ/mol
# Density = 1.883083 g / cm^3
# Si number density = 18.873790 Si / 1000 Ang^3
#
#
#
# Elastic Constant Matrix: (Units=GPa)
#
#
# Indices 1 2 3 4 5 6 
#
# 1 127.1146 44.3825 49.7212 0.0000 2.7897 0.0000
# 2 44.3825 58.5388 34.6566 0.0000 2.8073 0.0000
# 3 49.7212 34.6566 98.0170 0.0000 8.7689 0.0000
# 4 0.0000 0.0000 0.0000 21.2580 0.0000 -1.8878
# 5 2.7897 2.8073 8.7689 0.0000 27.3226 0.0000
# 6 0.0000 0.0000 0.0000 -1.8878 0.0000 29.8416
#
#
#
# Elastic Compliance Matrix: (Units=1/GPa)
#
#
# Indices 1 2 3 4 5 6 
#
# 1 0.011589 -0.006707 -0.003566 0.000000 0.000650 0.000000
# 2 -0.006707 0.025488 -0.005598 0.000000 -0.000138 0.000000
# 3 -0.003566 -0.005598 0.014317 0.000000 -0.003656 0.000000
# 4 0.000000 0.000000 0.000000 0.047307 0.000000 0.002993
# 5 0.000650 -0.000138 -0.003656 0.000000 0.037721 0.000000
# 6 0.000000 0.000000 0.000000 0.002993 0.000000 0.033700
#
#
# Mechanical properties :
#
#
# Convention : Reuss Voigt Hill
#
# Bulk Modulus (GPa) = 50.87877 60.13234 55.50556
# Shear Modulus (GPa) = 23.99085 26.01178 25.00131
#
# Velocity S-wave (km/s) = 3.56914 3.71643 3.64353
# Velocity P-wave (km/s) = 6.63332 7.09544 6.86827
#
# Compressibility (1/GPa) = 0.01965456
#
# Stress axis : x y z
#
# Youngs Moduli (GPa) = 86.28862 39.23413 69.84582
#
# Poissons Ratio (x) = 0.26313 0.24904
# Poissons Ratio (y) = 0.57871 0.39096
# Poissons Ratio (z) = 0.30767 0.21961
#
# Static dielectric constant tensor:
#      x y z
#    x 3.573550 0.000000 -0.185900 
#    y 0.000000 3.342200 0.000000 
#    z -0.185900 0.000000 3.634590 
# 
# 
# High freq. dielectric constant tensor:
#      x y z
#    x 1.743350 0.000000 -0.006110 
#    y 0.000000 1.714350 0.000000 
#    z -0.006110 0.000000 1.737710 
# 
# From -- ./inp_files/324227.got.cif
#   From: 2010.06.25/outbox.cif.g09.slc.cpg/sg12_163_cif.got.tgz:324227.got - 2010.06.28 00:19:55.
