data_PCOD8091517
_publ_section_title
;
Structure prediction by ZEFSAII (Michael W. Deem and Ramdas Pophale) SiO2 
 PCOD8091517
Probable space group: C 2/M
;
_chemical_formula_sum "Si O2"
_cell_formula_units_Z 40
_cell_length_a 8.201258
_cell_length_b 28.271147
_cell_length_c 15.866178
_cell_angle_alpha 90.000000
_cell_angle_beta 145.991974
_cell_angle_gamma 90.000000
_cell_volume 2057.538907
_symmetry_space_group_name_H-M "C 2/M"
_symmetry_group_IT_number 12
_symmetry_cell_setting 'monoclinic'
loop_
_space_group_symop_operation_xyz
x,y,z
-x,y,-z
-x,-y,-z
x,-y,z
1/2+x,1/2+y,z
1/2-x,1/2+y,-z
1/2-x,1/2-y,-z
1/2+x,1/2-y,z
loop_
_atom_site_type_symbol
_atom_site_label
_atom_site_fract_x
_atom_site_fract_y
_atom_site_fract_z
Si Si1 0.371490 0.500000 0.250999
Si Si2 0.614687 0.590704 0.640946
Si Si3 0.000000 0.251194 0.500000
Si Si4 0.954240 0.809352 0.324062
Si Si5 0.820100 0.000000 0.045619
Si Si6 0.000000 0.658517 0.000000
Si Si7 0.766548 0.100350 0.962949
O O1 0.485005 0.546528 0.346039
O O2 0.491157 0.500000 0.207567
O O3 0.025909 0.500000 0.095429
O O4 0.500000 0.580941 0.500000
O O5 0.470988 0.636753 0.620854
O O6 0.961971 0.597108 0.783791
O O7 0.144435 0.218565 0.634354
O O8 0.252241 0.285508 0.579360
O O9 0.702874 0.807912 0.144747
O O10 0.909687 0.048545 0.038195
O O11 0.792921 0.626388 0.972314
O O12 0.000000 0.126609 0.000000
#
# Coordination Sequence:
#
# PCOD8091517 Si02
#       7
#     4   8   4   8   4   4   8
#     4   9  17  30  55  81 114 157 190 231 287 342
#     4  10  19  34  56  83 119 153 190 236 289 346
#     4  10  22  40  64  84 112 154 198 238 302 356
#     4  10  21  40  61  87 116 152 194 244 293 352
#     4   9  15  30  51  76 112 152 197 240 275 332
#     4  10  22  39  58  88 120 146 194 245 292 350
#     4  10  20  34  56  85 114 155 198 238 286 340
#
# _framework density 19.440701000000001
#
# number of rings (size 3 to 8) (size 9 to 14) (size 15 to 20)
#    0.000    2.200    1.000    4.200    0.000    2.400 
#    3.600    0.000    0.000    1.800    0.000    0.000 
#    0.000    0.000    0.000    0.000    0.000    0.000 
#
# Total GULP energy -247878.203031 kJ/mol
# GULP energy per Si atom -12393.910152 kJ/mol
# Density = 1.939645 g / cm^3
# Si number density = 19.440701 Si / 1000 Ang^3
#
#
#
# Elastic Constant Matrix: (Units=GPa)
#
#
# Indices 1 2 3 4 5 6 
#
# 1 123.7113 50.5613 48.3690 0.0000 -17.2058 0.0000
# 2 50.5613 129.4240 50.0936 0.0000 -11.5004 0.0000
# 3 48.3690 50.0936 105.6931 0.0000 -37.6667 0.0000
# 4 0.0000 0.0000 0.0000 26.4045 0.0000 -5.4569
# 5 -17.2058 -11.5004 -37.6667 0.0000 34.8795 0.0000
# 6 0.0000 0.0000 0.0000 -5.4569 0.0000 16.3422
#
#
#
# Elastic Compliance Matrix: (Units=1/GPa)
#
#
# Indices 1 2 3 4 5 6 
#
# 1 0.010613 -0.002825 -0.003226 0.000000 0.000820 0.000000
# 2 -0.002825 0.010386 -0.004724 0.000000 -0.003070 0.000000
# 3 -0.003226 -0.004724 0.019596 0.000000 0.018013 0.000000
# 4 0.000000 0.000000 0.000000 0.040680 0.000000 0.013583
# 5 0.000820 -0.003070 0.018013 0.000000 0.047515 0.000000
# 6 0.000000 0.000000 0.000000 0.013583 0.000000 0.065727
#
#
# Mechanical properties :
#
#
# Convention : Reuss Voigt Hill
#
# Bulk Modulus (GPa) = 52.50437 72.98623 62.74530
# Shear Modulus (GPa) = 22.48066 29.51221 25.99644
#
# Velocity S-wave (km/s) = 3.40423 3.90046 3.66076
# Velocity P-wave (km/s) = 6.52057 7.60982 7.08615
#
# Compressibility (1/GPa) = 0.01904603
#
# Stress axis : x y z
#
# Youngs Moduli (GPa) = 94.22273 96.28727 51.03109
#
# Poissons Ratio (x) = 0.27199 0.16461
# Poissons Ratio (y) = 0.26615 0.24106
# Poissons Ratio (z) = 0.30394 0.45484
#
# Static dielectric constant tensor:
#      x y z
#    x 3.605550 0.000000 -0.345330 
#    y 0.000000 3.682520 0.000000 
#    z -0.345330 0.000000 3.455730 
# 
# 
# High freq. dielectric constant tensor:
#      x y z
#    x 1.757270 0.000000 -0.026160 
#    y 0.000000 1.758070 0.000000 
#    z -0.026160 0.000000 1.743710 
# 
# From -- ./inp_files/122230.got.cif
#   From: 2010.06.25/outbox.cif.g09.slc.cpg/sg12_62_cif.got.tgz:122230.got - 2010.06.28 00:19:55.
