data_PCOD8091233
_publ_section_title
;
Structure prediction by ZEFSAII (Michael W. Deem and Ramdas Pophale) SiO2 
 PCOD8091233
Probable space group: C 2/M
;
_chemical_formula_sum "Si O2"
_cell_formula_units_Z 64
_cell_length_a 29.753280
_cell_length_b 12.235017
_cell_length_c 19.201846
_cell_angle_alpha 90.000000
_cell_angle_beta 28.763215
_cell_angle_gamma 90.000000
_cell_volume 3363.565402
_symmetry_space_group_name_H-M "C 2/M"
_symmetry_group_IT_number 12
_symmetry_cell_setting 'monoclinic'
loop_
_space_group_symop_operation_xyz
x,y,z
-x,y,-z
-x,-y,-z
x,-y,z
1/2+x,1/2+y,z
1/2-x,1/2+y,-z
1/2-x,1/2-y,-z
1/2+x,1/2-y,z
loop_
_atom_site_type_symbol
_atom_site_label
_atom_site_fract_x
_atom_site_fract_y
_atom_site_fract_z
Si Si1 0.475020 0.239426 0.763752
Si Si2 0.723853 0.768053 0.641600
Si Si3 0.157421 0.122258 0.967208
Si Si4 0.632470 0.130581 0.638329
Si Si5 0.596177 0.622774 0.901502
Si Si6 0.460628 0.878080 0.648856
Si Si7 0.622705 0.374016 0.479844
Si Si8 0.861645 0.702666 0.655431
O O1 0.536607 0.182629 0.740083
O O2 0.439003 0.148009 0.758607
O O3 0.531393 0.328030 0.642256
O O4 0.382996 0.295078 0.920792
O O5 0.648430 0.830421 0.696045
O O6 0.779917 0.674726 0.524133
O O7 0.675383 0.705792 0.770474
O O8 0.791055 0.857617 0.584729
O O9 0.087559 0.124990 0.996540
O O10 0.258952 0.154524 0.801594
O O11 0.161128 0.000000 0.993823
O O12 0.627468 0.000000 0.640386
O O13 0.619223 0.500000 0.843864
O O14 0.500000 0.664317 0.000000
O O15 0.572519 0.873857 0.482740
O O16 0.407453 0.792272 0.670418
O O17 0.424068 0.000000 0.682527
O O18 0.607047 0.500000 0.486280
O O19 0.640986 0.319888 0.379297
#
# Coordination Sequence:
#
# PCOD8091233 Si02
#       8
#     8   8   8   8   8   8   8   8
#     4  10  22  36  55  83 116 151 187 231 277 344
#     4  10  19  34  55  81 110 145 193 237 273 336
#     4  11  21  36  58  83 113 149 188 233 283 334
#     4  10  20  34  55  81 112 150 191 234 280 331
#     4  10  20  33  53  80 112 147 185 233 281 324
#     4  10  20  38  62  87 114 144 185 238 291 333
#     4  10  20  37  57  81 113 150 188 234 284 332
#     4  10  20  37  60  87 110 142 189 239 279 342
#
# _framework density 19.027428
#
# number of rings (size 3 to 8) (size 9 to 14) (size 15 to 20)
#    0.000    1.875    1.250    3.750    0.000    0.500 
#    0.000   10.625    0.000    1.500    0.000    0.000 
#    0.000    0.000    0.000    0.000    0.000    0.000 
#
# Total GULP energy -396754.387722 kJ/mol
# GULP energy per Si atom -12398.574616 kJ/mol
# Density = 1.898412 g / cm^3
# Si number density = 19.027428 Si / 1000 Ang^3
#
#
#
# Elastic Constant Matrix: (Units=GPa)
#
#
# Indices 1 2 3 4 5 6 
#
# 1 106.1814 35.7297 28.9306 -0.0001 5.7025 0.0000
# 2 35.7297 117.9937 32.9389 -0.0002 6.2397 0.0001
# 3 28.9306 32.9389 77.6507 -0.0001 3.2245 0.0001
# 4 -0.0001 -0.0002 -0.0001 21.4785 0.0001 3.8259
# 5 5.7025 6.2397 3.2245 0.0001 22.5069 0.0000
# 6 0.0000 0.0001 0.0001 3.8259 0.0000 24.4693
#
#
#
# Elastic Compliance Matrix: (Units=1/GPa)
#
#
# Indices 1 2 3 4 5 6 
#
# 1 0.011162 -0.002437 -0.003054 0.000000 -0.001715 0.000000
# 2 -0.002437 0.010244 -0.003365 0.000000 -0.001741 0.000000
# 3 -0.003054 -0.003365 0.015465 0.000000 -0.000509 0.000000
# 4 0.000000 0.000000 0.000000 0.047892 0.000000 -0.007488
# 5 -0.001715 -0.001741 -0.000509 0.000000 0.045421 0.000000
# 6 0.000000 0.000000 0.000000 -0.007488 0.000000 0.042038
#
#
# Mechanical properties :
#
#
# Convention : Reuss Voigt Hill
#
# Bulk Modulus (GPa) = 52.19463 55.22489 53.70976
# Shear Modulus (GPa) = 25.46855 27.30605 26.38730
#
# Velocity S-wave (km/s) = 3.66254 3.79237 3.72802
# Velocity P-wave (km/s) = 6.73620 6.94715 6.84249
#
# Compressibility (1/GPa) = 0.01915906
#
# Stress axis : x y z
#
# Youngs Moduli (GPa) = 89.59003 97.61376 64.66347
#
# Poissons Ratio (x) = 0.23786 0.19747
# Poissons Ratio (y) = 0.21831 0.21762
# Poissons Ratio (z) = 0.27359 0.32852
#
# Static dielectric constant tensor:
#      x y z
#    x 3.636850 0.000000 0.020250 
#    y 0.000000 3.350300 0.000000 
#    z 0.020250 0.000000 3.255070 
# 
# 
# High freq. dielectric constant tensor:
#      x y z
#    x 1.751060 0.000000 0.000270 
#    y 0.000000 1.728730 0.000000 
#    z 0.000270 0.000000 1.720960 
# 
# From -- ./inp_files/296486.got.cif
#   From: 2010.06.25/outbox.cif.g09.slc.cpg/sg12_149_cif.got.tgz:296486.got - 2010.06.28 00:19:55.
