data_PCOD8091075
_publ_section_title
;
Structure prediction by ZEFSAII (Michael W. Deem and Ramdas Pophale) SiO2 
 PCOD8091075
Probable space group: C 2/M
;
_chemical_formula_sum "Si O2"
_cell_formula_units_Z 48
_cell_length_a 16.484737
_cell_length_b 16.568833
_cell_length_c 22.707610
_cell_angle_alpha 90.000000
_cell_angle_beta 155.536330
_cell_angle_gamma 90.000000
_cell_volume 2568.428981
_symmetry_space_group_name_H-M "C 2/M"
_symmetry_group_IT_number 12
_symmetry_cell_setting 'monoclinic'
loop_
_space_group_symop_operation_xyz
x,y,z
-x,y,-z
-x,-y,-z
x,-y,z
1/2+x,1/2+y,z
1/2-x,1/2+y,-z
1/2-x,1/2-y,-z
1/2+x,1/2-y,z
loop_
_atom_site_type_symbol
_atom_site_label
_atom_site_fract_x
_atom_site_fract_y
_atom_site_fract_z
Si Si1 0.701326 0.769054 0.335070
Si Si2 0.169826 0.169482 0.879207
Si Si3 0.778056 0.590817 0.840473
Si Si4 0.106388 0.766942 0.659880
Si Si5 0.598270 0.905579 0.860276
Si Si6 0.790232 0.817932 0.887687
O O1 0.546476 0.701864 0.251945
O O2 0.782496 0.740955 0.325761
O O3 0.607757 0.858649 0.272419
O O4 0.874140 0.770643 0.497027
O O5 0.156652 0.100043 0.821012
O O6 0.305328 0.242171 0.942890
O O7 0.260410 0.133320 0.997765
O O8 0.769570 0.500000 0.811642
O O9 0.685999 0.644640 0.728633
O O10 0.000000 0.618470 0.000000
O O11 0.146532 0.703794 0.738730
O O12 0.699903 0.893591 0.863516
O O13 0.562734 0.000000 0.848594
O O14 0.000000 0.841267 0.000000
#
# Coordination Sequence:
#
# PCOD8091075 Si02
#       6
#     8   8   8   8   8   8
#     4  10  21  36  54  76 102 136 175 213 254 302
#     4  10  19  34  55  75 100 136 175 212 249 299
#     4  10  20  33  52  79 109 139 170 207 253 306
#     4  10  20  35  55  76 102 137 174 213 255 299
#     4  11  22  34  52  79 108 134 165 211 261 307
#     4  10  19  34  56  79 101 133 175 214 249 297
#
# _framework density 18.688465999999998
#
# number of rings (size 3 to 8) (size 9 to 14) (size 15 to 20)
#    0.000    1.833    0.000    7.500    0.000    9.000 
#    0.000    1.667    0.000    1.000    0.000    7.000 
#    0.000    0.000    0.000    0.000    0.000    0.000 
#
# Total GULP energy -297593.109861 kJ/mol
# GULP energy per Si atom -12399.712911 kJ/mol
# Density = 1.864593 g / cm^3
# Si number density = 18.688466 Si / 1000 Ang^3
#
#
#
# Elastic Constant Matrix: (Units=GPa)
#
#
# Indices 1 2 3 4 5 6 
#
# 1 99.7616 29.3065 46.4106 -0.0158 2.1215 -0.0044
# 2 29.3065 66.9350 47.2217 -0.0862 -0.4609 -0.0168
# 3 46.4106 47.2217 131.6557 -0.1086 -1.0874 0.0033
# 4 -0.0158 -0.0862 -0.1086 12.7110 -0.0086 0.8438
# 5 2.1215 -0.4609 -1.0874 -0.0086 33.3622 0.0053
# 6 -0.0044 -0.0168 0.0033 0.8438 0.0053 18.1163
#
#
#
# Elastic Compliance Matrix: (Units=1/GPa)
#
#
# Indices 1 2 3 4 5 6 
#
# 1 0.012499 -0.003166 -0.003278 -0.000035 -0.000945 0.000003
# 2 -0.003166 0.020803 -0.006343 0.000082 0.000282 0.000016
# 3 -0.003278 -0.006343 0.011030 0.000048 0.000480 -0.000011
# 4 -0.000035 0.000082 0.000048 0.078917 0.000026 -0.003676
# 5 -0.000945 0.000282 0.000480 0.000026 0.030054 -0.000010
# 6 0.000003 0.000016 -0.000011 -0.003676 -0.000010 0.055370
#
#
# Mechanical properties :
#
#
# Convention : Reuss Voigt Hill
#
# Bulk Modulus (GPa) = 53.31237 60.47000 56.89118
# Shear Modulus (GPa) = 20.78988 24.53212 22.66100
#
# Velocity S-wave (km/s) = 3.33895 3.62703 3.48597
# Velocity P-wave (km/s) = 6.59193 7.06878 6.83452
#
# Compressibility (1/GPa) = 0.01875737
#
# Stress axis : x y z
#
# Youngs Moduli (GPa) = 80.00445 48.06958 90.65919
#
# Poissons Ratio (x) = 0.15221 0.29721
# Poissons Ratio (y) = 0.25332 0.57505
# Poissons Ratio (z) = 0.26228 0.30491
#
# Static dielectric constant tensor:
#      x y z
#    x 3.719350 -0.000020 -0.032450 
#    y -0.000020 3.226420 -0.000060 
#    z -0.032450 -0.000060 3.377010 
# 
# 
# High freq. dielectric constant tensor:
#      x y z
#    x 1.747370 0.000000 -0.003520 
#    y 0.000000 1.697470 -0.000010 
#    z -0.003520 -0.000010 1.719880 
# 
# From -- ./inp_files/344494.got.cif
#   From: 2010.06.25/outbox.cif.g09.slc.cpg/sg12_173_cif.got.tgz:344494.got - 2010.06.28 00:19:55.
