data_PCOD8091138
_publ_section_title
;
Structure prediction by ZEFSAII (Michael W. Deem and Ramdas Pophale) SiO2 
 PCOD8091138
Probable space group: C 2/M
;
_chemical_formula_sum "Si O2"
_cell_formula_units_Z 56
_cell_length_a 25.043207
_cell_length_b 8.997837
_cell_length_c 14.947967
_cell_angle_alpha 90.000000
_cell_angle_beta 73.512645
_cell_angle_gamma 90.000000
_cell_volume 3229.799324
_symmetry_space_group_name_H-M "C 2/M"
_symmetry_group_IT_number 12
_symmetry_cell_setting 'monoclinic'
loop_
_space_group_symop_operation_xyz
x,y,z
-x,y,-z
-x,-y,-z
x,-y,z
1/2+x,1/2+y,z
1/2-x,1/2+y,-z
1/2-x,1/2-y,-z
1/2+x,1/2-y,z
loop_
_atom_site_type_symbol
_atom_site_label
_atom_site_fract_x
_atom_site_fract_y
_atom_site_fract_z
Si Si1 0.182131 0.676075 0.390129
Si Si2 0.305391 0.325838 0.287224
Si Si3 0.105225 0.823922 0.278990
Si Si4 0.998223 0.673341 0.396844
Si Si5 0.795708 0.828793 0.089637
Si Si6 0.170225 0.327978 0.098193
Si Si7 0.374473 0.173196 0.400519
O O1 0.175945 0.500000 0.377133
O O2 0.245133 0.732462 0.347950
O O3 0.143388 0.755620 0.337425
O O4 0.162643 0.724619 0.497777
O O5 0.307970 0.500000 0.300740
O O6 0.315570 0.284010 0.179063
O O7 0.354261 0.253140 0.320833
O O8 0.041995 0.772351 0.322426
O O9 0.124673 0.766377 0.173057
O O10 0.109087 0.000000 0.280309
O O11 0.012334 0.500000 0.376814
O O12 0.000000 0.715212 0.500000
O O13 0.938201 0.716222 0.386844
O O14 0.729808 0.799519 0.115620
O O15 0.808659 0.000000 0.061223
O O16 0.829073 0.726295 0.004636
O O17 0.153443 0.500000 0.108686
O O18 0.367377 0.000000 0.388611
#
# Coordination Sequence:
#
# PCOD8091138 Si02
#       7
#     8   8   8   8   8   8   8
#     4  10  19  36  54  75 109 150 184 213 264 321
#     4  10  20  34  54  78 113 149 175 216 268 321
#     4  12  23  33  53  83 112 139 177 229 272 315
#     4  10  20  38  59  75 102 145 185 223 270 319
#     4   9  18  33  53  79 109 141 177 216 265 320
#     4  10  19  34  55  78 108 142 177 218 267 324
#     4  10  21  35  55  78 105 144 188 224 258 318
#
# _framework density 17.338538
#
# number of rings (size 3 to 8) (size 9 to 14) (size 15 to 20)
#    0.000    1.857    2.857    2.143    0.000    3.143 
#    0.000    0.000    0.000    0.857    0.000    6.000 
#    0.000    0.000    0.000    0.000    0.000    0.000 
#
# Total GULP energy -347311.911244 kJ/mol
# GULP energy per Si atom -12403.996830 kJ/mol
# Density = 1.729907 g / cm^3
# Si number density = 17.338538 Si / 1000 Ang^3
#
#
#
# Elastic Constant Matrix: (Units=GPa)
#
#
# Indices 1 2 3 4 5 6 
#
# 1 102.7272 37.0567 62.9407 0.0000 10.2584 0.0000
# 2 37.0567 61.6568 48.4225 0.0000 1.0383 0.0000
# 3 62.9407 48.4225 106.6275 0.0000 7.9131 0.0000
# 4 0.0000 0.0000 0.0000 30.2211 0.0000 3.4903
# 5 10.2584 1.0383 7.9131 0.0000 21.8255 0.0000
# 6 0.0000 0.0000 0.0000 3.4903 0.0000 25.9838
#
#
#
# Elastic Compliance Matrix: (Units=1/GPa)
#
#
# Indices 1 2 3 4 5 6 
#
# 1 0.016134 -0.003749 -0.007473 0.000000 -0.004696 0.000000
# 2 -0.003749 0.026278 -0.010028 0.000000 0.004148 0.000000
# 3 -0.007473 -0.010028 0.018547 0.000000 -0.002735 0.000000
# 4 0.000000 0.000000 0.000000 0.033611 0.000000 -0.004515
# 5 -0.004696 0.004148 -0.002735 0.000000 0.048819 0.000000
# 6 0.000000 0.000000 0.000000 -0.004515 0.000000 0.039092
#
#
# Mechanical properties :
#
#
# Convention : Reuss Voigt Hill
#
# Bulk Modulus (GPa) = 54.17562 63.09459 58.63511
# Shear Modulus (GPa) = 21.63237 23.77886 22.70562
#
# Velocity S-wave (km/s) = 3.53604 3.70732 3.62269
# Velocity P-wave (km/s) = 6.92712 7.40233 7.16866
#
# Compressibility (1/GPa) = 0.01845849
#
# Stress axis : x y z
#
# Youngs Moduli (GPa) = 61.97907 38.05452 53.91783
#
# Poissons Ratio (x) = 0.14267 0.40292
# Poissons Ratio (y) = 0.23237 0.54071
# Poissons Ratio (z) = 0.46316 0.38163
#
# Static dielectric constant tensor:
#      x y z
#    x 3.153560 0.000000 -0.094390 
#    y 0.000000 3.152160 0.000000 
#    z -0.094390 0.000000 3.442730 
# 
# 
# High freq. dielectric constant tensor:
#      x y z
#    x 1.651810 0.000000 0.000580 
#    y 0.000000 1.666310 0.000000 
#    z 0.000580 0.000000 1.675300 
# 
# From -- ./inp_files/237348.got.cif
#   From: 2010.06.25/outbox.cif.g09.slc.cpg/sg12_119_cif.got.tgz:237348.got - 2010.06.28 00:19:55.
