data_PCOD8091864
_publ_section_title
;
Structure prediction by ZEFSAII (Michael W. Deem and Ramdas Pophale) SiO2 
 PCOD8091864
Probable space group: C 2/M
;
_chemical_formula_sum "Si O2"
_cell_formula_units_Z 56
_cell_length_a 17.246160
_cell_length_b 9.493236
_cell_length_c 20.346399
_cell_angle_alpha 90.000000
_cell_angle_beta 120.794677
_cell_angle_gamma 90.000000
_cell_volume 2861.483083
_symmetry_space_group_name_H-M "C 2/M"
_symmetry_group_IT_number 12
_symmetry_cell_setting 'monoclinic'
loop_
_space_group_symop_operation_xyz
x,y,z
-x,y,-z
-x,-y,-z
x,-y,z
1/2+x,1/2+y,z
1/2-x,1/2+y,-z
1/2-x,1/2-y,-z
1/2+x,1/2-y,z
loop_
_atom_site_type_symbol
_atom_site_label
_atom_site_fract_x
_atom_site_fract_y
_atom_site_fract_z
Si Si1 0.085859 0.236082 0.680495
Si Si2 0.975003 0.847894 0.210354
Si Si3 0.238652 0.161542 0.185257
Si Si4 0.716583 0.665586 0.922796
Si Si5 0.433347 0.152268 0.532134
Si Si6 0.186638 0.845326 0.597184
Si Si7 0.640412 0.167136 0.250408
O O1 0.164117 0.345700 0.735899
O O2 0.121932 0.150483 0.633238
O O3 0.065474 0.137664 0.733664
O O4 0.990575 0.308157 0.621270
O O5 0.043336 0.718163 0.233504
O O6 0.891941 0.822367 0.124962
O O7 0.020751 0.000000 0.214554
O O8 0.241041 0.252974 0.120451
O O9 0.164645 0.242299 0.196893
O O10 0.208671 0.000000 0.158432
O O11 0.746214 0.500000 0.936251
O O12 0.750000 0.750000 0.000000
O O13 0.500000 0.149084 0.500000
O O14 0.349451 0.251939 0.478586
O O15 0.390114 0.000000 0.526042
O O16 0.286987 0.797757 0.661207
O O17 0.188837 0.000000 0.568041
O O18 0.638940 0.000000 0.233840
#
# Coordination Sequence:
#
# PCOD8091864 Si02
#       7
#     8   8   8   8   8   8   8
#     4   9  18  31  52  78 103 133 176 223 267 315
#     4  10  21  36  56  81 107 137 174 216 260 310
#     4  10  19  34  58  82 107 142 179 216 261 312
#     4  10  21  38  60  87 115 139 169 210 256 308
#     4   9  17  28  45  72 102 131 170 220 267 312
#     4   9  18  32  50  72 100 136 176 219 267 315
#     4  10  21  36  53  76 108 143 180 220 262 312
#
# _framework density 19.570271999999999
#
# number of rings (size 3 to 8) (size 9 to 14) (size 15 to 20)
#    0.000    2.429    0.000    2.143    0.000   14.000 
#    0.000    1.429    0.000    4.286    0.000    0.000 
#    0.000    0.000    0.000    0.000    0.000    0.000 
#
# Total GULP energy -347010.328277 kJ/mol
# GULP energy per Si atom -12393.226010 kJ/mol
# Density = 1.952573 g / cm^3
# Si number density = 19.570272 Si / 1000 Ang^3
#
#
#
# Elastic Constant Matrix: (Units=GPa)
#
#
# Indices 1 2 3 4 5 6 
#
# 1 60.4756 30.5197 22.3269 0.0000 10.7644 0.0000
# 2 30.5197 130.7525 44.4616 0.0000 10.5299 0.0000
# 3 22.3269 44.4616 106.8941 0.0000 8.3547 0.0000
# 4 0.0000 0.0000 0.0000 24.1232 0.0000 2.1962
# 5 10.7644 10.5299 8.3547 0.0000 17.1563 0.0000
# 6 0.0000 0.0000 0.0000 2.1962 0.0000 25.4089
#
#
#
# Elastic Compliance Matrix: (Units=1/GPa)
#
#
# Indices 1 2 3 4 5 6 
#
# 1 0.020782 -0.003306 -0.002188 0.000000 -0.009944 0.000000
# 2 -0.003306 0.009680 -0.003154 0.000000 -0.002331 0.000000
# 3 -0.002188 -0.003154 0.011295 0.000000 -0.002192 0.000000
# 4 0.000000 0.000000 0.000000 0.041783 0.000000 -0.003611
# 5 -0.009944 -0.002331 -0.002192 0.000000 0.067025 0.000000
# 6 0.000000 0.000000 0.000000 -0.003611 0.000000 0.039669
#
#
# Mechanical properties :
#
#
# Convention : Reuss Voigt Hill
#
# Bulk Modulus (GPa) = 40.88095 54.74874 47.81485
# Shear Modulus (GPa) = 23.18225 26.72529 24.95377
#
# Velocity S-wave (km/s) = 3.44548 3.69942 3.57471
# Velocity P-wave (km/s) = 6.06326 6.80322 6.44387
#
# Compressibility (1/GPa) = 0.02446127
#
# Stress axis : x y z
#
# Youngs Moduli (GPa) = 48.11879 103.30868 88.53367
#
# Poissons Ratio (x) = 0.34152 0.19375
# Poissons Ratio (y) = 0.15907 0.27919
# Poissons Ratio (z) = 0.10531 0.32579
#
# Static dielectric constant tensor:
#      x y z
#    x 3.275050 0.000000 0.071800 
#    y 0.000000 3.636730 0.000000 
#    z 0.071800 0.000000 3.607490 
# 
# 
# High freq. dielectric constant tensor:
#      x y z
#    x 1.736710 0.000000 0.003700 
#    y 0.000000 1.770400 0.000000 
#    z 0.003700 0.000000 1.755190 
# 
# From -- ./inp_files/314356.got.cif
#   From: 2010.06.25/outbox.cif.g09.slc.cpg/sg12_158_cif.got.tgz:314356.got - 2010.06.28 00:19:55.
