data_PCOD8091359
_publ_section_title
;
Structure prediction by ZEFSAII (Michael W. Deem and Ramdas Pophale) SiO2 
 PCOD8091359
Probable space group: C 2/M
;
_chemical_formula_sum "Si O2"
_cell_formula_units_Z 56
_cell_length_a 15.241308
_cell_length_b 9.300155
_cell_length_c 20.128245
_cell_angle_alpha 90.000000
_cell_angle_beta 77.804144
_cell_angle_gamma 90.000000
_cell_volume 2788.717509
_symmetry_space_group_name_H-M "C 2/M"
_symmetry_group_IT_number 12
_symmetry_cell_setting 'monoclinic'
loop_
_space_group_symop_operation_xyz
x,y,z
-x,y,-z
-x,-y,-z
x,-y,z
1/2+x,1/2+y,z
1/2-x,1/2+y,-z
1/2-x,1/2-y,-z
1/2+x,1/2-y,z
loop_
_atom_site_type_symbol
_atom_site_label
_atom_site_fract_x
_atom_site_fract_y
_atom_site_fract_z
Si Si1 0.380094 0.334525 0.345651
Si Si2 0.024981 0.162983 0.801200
Si Si3 0.505888 0.840362 0.072291
Si Si4 0.189051 0.665266 0.327247
Si Si5 0.786782 0.661454 0.932761
Si Si6 0.315952 0.665102 0.804306
Si Si7 0.496752 0.169194 0.576325
O O1 0.409893 0.500000 0.349402
O O2 0.417054 0.275227 0.269218
O O3 0.272320 0.318066 0.364744
O O4 0.421656 0.244284 0.398730
O O5 0.049132 0.249853 0.864404
O O6 0.921702 0.177396 0.798330
O O7 0.052474 0.000000 0.811747
O O8 0.607274 0.849011 0.079222
O O9 0.463041 0.000000 0.075631
O O10 0.500000 0.767721 0.000000
O O11 0.180377 0.500000 0.304553
O O12 0.208803 0.765694 0.261750
O O13 0.098922 0.716390 0.378375
O O14 0.745348 0.500000 0.937893
O O15 0.762096 0.747492 0.869640
O O16 0.750000 0.750000 0.000000
O O17 0.284104 0.500000 0.810856
O O18 0.500000 0.221067 0.500000
O O19 0.511581 0.000000 0.579728
#
# Coordination Sequence:
#
# PCOD8091359 Si02
#       7
#     8   8   8   8   8   8   8
#     4  10  21  38  59  87 117 150 194 241 290 348
#     4   9  18  33  53  76 104 140 184 233 283 339
#     4   9  19  34  51  73 103 140 183 229 279 335
#     4  10  21  37  59  86 118 153 193 240 292 347
#     4  10  20  34  52  75 107 146 188 235 290 345
#     4  10  19  34  56  79 107 145 192 240 289 348
#     4  10  22  40  61  87 121 158 194 238 293 351
#
# _framework density 20.080915000000001
#
# number of rings (size 3 to 8) (size 9 to 14) (size 15 to 20)
#    0.000    2.286    1.429    0.857    0.000    4.571 
#    0.000    2.857    0.000    0.000    0.000    0.000 
#    0.000    0.000    0.000    0.000    0.000    0.000 
#
# Total GULP energy -347230.963675 kJ/mol
# GULP energy per Si atom -12401.105846 kJ/mol
# Density = 2.003521 g / cm^3
# Si number density = 20.080915 Si / 1000 Ang^3
#
#
#
# Elastic Constant Matrix: (Units=GPa)
#
#
# Indices 1 2 3 4 5 6 
#
# 1 52.9088 32.6426 35.0213 0.0000 8.7200 0.0000
# 2 32.6426 100.5270 64.1551 0.0000 7.4005 0.0000
# 3 35.0213 64.1551 148.7831 0.0000 15.9150 0.0000
# 4 0.0000 0.0000 0.0000 36.1232 0.0000 6.2902
# 5 8.7200 7.4005 15.9150 0.0000 26.2123 0.0000
# 6 0.0000 0.0000 0.0000 6.2902 0.0000 22.8047
#
#
#
# Elastic Compliance Matrix: (Units=1/GPa)
#
#
# Indices 1 2 3 4 5 6 
#
# 1 0.025326 -0.006060 -0.002813 0.000000 -0.005006 0.000000
# 2 -0.006060 0.015177 -0.005214 0.000000 0.000897 0.000000
# 3 -0.002813 -0.005214 0.010025 0.000000 -0.003679 0.000000
# 4 0.000000 0.000000 0.000000 0.029080 0.000000 -0.008021
# 5 -0.005006 0.000897 -0.003679 0.000000 0.041796 0.000000
# 6 0.000000 0.000000 0.000000 -0.008021 0.000000 0.046063
#
#
# Mechanical properties :
#
#
# Convention : Reuss Voigt Hill
#
# Bulk Modulus (GPa) = 44.73319 62.87299 53.80309
# Shear Modulus (GPa) = 24.61948 28.38805 26.50376
#
# Velocity S-wave (km/s) = 3.50525 3.76398 3.63691
# Velocity P-wave (km/s) = 6.22151 7.08998 6.66989
#
# Compressibility (1/GPa) = 0.02235477
#
# Stress axis : x y z
#
# Youngs Moduli (GPa) = 39.48469 65.89079 99.75164
#
# Poissons Ratio (x) = 0.39931 0.28058
# Poissons Ratio (y) = 0.23928 0.52006
# Poissons Ratio (z) = 0.11106 0.34353
#
# Static dielectric constant tensor:
#      x y z
#    x 3.516950 0.000000 -0.092170 
#    y 0.000000 3.783310 0.000000 
#    z -0.092170 0.000000 3.712990 
# 
# 
# High freq. dielectric constant tensor:
#      x y z
#    x 1.773920 0.000000 -0.000110 
#    y 0.000000 1.779480 0.000000 
#    z -0.000110 0.000000 1.783810 
# 
# From -- ./inp_files/313279.got.cif
#   From: 2010.06.25/outbox.cif.g09.slc.cpg/sg12_157_cif.got.tgz:313279.got - 2010.06.28 00:19:55.
