data_PCOD8091144
_publ_section_title
;
Structure prediction by ZEFSAII (Michael W. Deem and Ramdas Pophale) SiO2 
 PCOD8091144
Probable space group: C 2/M
;
_chemical_formula_sum "Si O2"
_cell_formula_units_Z 56
_cell_length_a 30.112464
_cell_length_b 8.595952
_cell_length_c 12.584035
_cell_angle_alpha 90.000000
_cell_angle_beta 105.756518
_cell_angle_gamma 90.000000
_cell_volume 3134.922406
_symmetry_space_group_name_H-M "C 2/M"
_symmetry_group_IT_number 12
_symmetry_cell_setting 'monoclinic'
loop_
_space_group_symop_operation_xyz
x,y,z
-x,y,-z
-x,-y,-z
x,-y,z
1/2+x,1/2+y,z
1/2-x,1/2+y,-z
1/2-x,1/2-y,-z
1/2+x,1/2-y,z
loop_
_atom_site_type_symbol
_atom_site_label
_atom_site_fract_x
_atom_site_fract_y
_atom_site_fract_z
Si Si1 0.048585 0.182182 0.645385
Si Si2 0.453251 0.817279 0.585632
Si Si3 0.143715 0.316527 0.393581
Si Si4 0.702521 0.682772 0.251370
Si Si5 0.636283 0.815846 0.793290
Si Si6 0.303724 0.814790 0.366873
Si Si7 0.298355 0.683694 0.993126
O O1 0.057788 0.276865 0.543516
O O2 0.086343 0.234469 0.755935
O O3 0.997825 0.224413 0.657060
O O4 0.051469 0.000000 0.623934
O O5 0.409507 0.765816 0.627848
O O6 0.462798 0.000000 0.600280
O O7 0.147925 0.500000 0.399991
O O8 0.161434 0.255066 0.293022
O O9 0.174221 0.247364 0.510519
O O10 0.701906 0.500000 0.266878
O O11 0.751778 0.750506 0.322485
O O12 0.694208 0.728808 0.124414
O O13 0.666786 0.755201 0.714245
O O14 0.660018 0.763435 0.917337
O O15 0.630162 0.000000 0.788068
O O16 0.303665 0.000000 0.365321
O O17 0.298577 0.500000 0.011180
O O18 0.250000 0.750000 0.000000
#
# Coordination Sequence:
#
# PCOD8091144 Si02
#       7
#     8   8   8   8   8   8   8
#     4  11  21  33  52  83 113 139 179 226 272 328
#     4  10  19  34  55  78 109 148 181 219 273 325
#     4  10  20  34  54  79 109 144 185 222 261 324
#     4  10  21  36  53  75 110 148 182 221 270 320
#     4  11  20  36  58  79 110 145 181 226 276 323
#     4   9  17  33  52  76 108 144 177 215 264 316
#     4  11  22  37  56  80 108 144 187 230 271 317
#
# _framework density 17.86328
#
# number of rings (size 3 to 8) (size 9 to 14) (size 15 to 20)
#    0.000    1.714    2.857    3.857    0.000    2.286 
#    0.000    0.000    0.000    0.857    0.000    6.000 
#    0.000    0.000    0.000    0.000    0.000    0.000 
#
# Total GULP energy -347269.690792 kJ/mol
# GULP energy per Si atom -12402.488957 kJ/mol
# Density = 1.782262 g / cm^3
# Si number density = 17.863280 Si / 1000 Ang^3
#
#
#
# Elastic Constant Matrix: (Units=GPa)
#
#
# Indices 1 2 3 4 5 6 
#
# 1 148.3568 34.0496 72.2978 0.0000 5.7125 0.0000
# 2 34.0496 37.5873 15.4221 0.0000 1.9318 0.0000
# 3 72.2978 15.4221 86.8126 0.0000 7.4239 0.0000
# 4 0.0000 0.0000 0.0000 27.8968 0.0000 1.4737
# 5 5.7125 1.9318 7.4239 0.0000 32.5652 0.0000
# 6 0.0000 0.0000 0.0000 1.4737 0.0000 28.2865
#
#
#
# Elastic Compliance Matrix: (Units=1/GPa)
#
#
# Indices 1 2 3 4 5 6 
#
# 1 0.013294 -0.008096 -0.009663 0.000000 0.000351 0.000000
# 2 -0.008096 0.033637 0.000833 0.000000 -0.000765 0.000000
# 3 -0.009663 0.000833 0.019661 0.000000 -0.002836 0.000000
# 4 0.000000 0.000000 0.000000 0.035945 0.000000 -0.001873
# 5 0.000351 -0.000765 -0.002836 0.000000 0.031338 0.000000
# 6 0.000000 0.000000 0.000000 -0.001873 0.000000 0.035450
#
#
# Mechanical properties :
#
#
# Convention : Reuss Voigt Hill
#
# Bulk Modulus (GPa) = 30.54527 57.36620 43.95573
# Shear Modulus (GPa) = 23.35437 27.81552 25.58494
#
# Velocity S-wave (km/s) = 3.61971 3.95033 3.78863
# Velocity P-wave (km/s) = 5.88272 7.27946 6.61804
#
# Compressibility (1/GPa) = 0.03273830
#
# Stress axis : x y z
#
# Youngs Moduli (GPa) = 75.22006 29.72942 50.86118
#
# Poissons Ratio (x) = 0.24070 0.49149
# Poissons Ratio (y) = 0.60900 -0.04234
# Poissons Ratio (z) = 0.72687 -0.02475
#
# Static dielectric constant tensor:
#      x y z
#    x 3.531490 0.000000 0.080220 
#    y 0.000000 3.162580 0.000000 
#    z 0.080220 0.000000 3.367750 
# 
# 
# High freq. dielectric constant tensor:
#      x y z
#    x 1.694480 0.000000 0.012380 
#    y 0.000000 1.686010 0.000000 
#    z 0.012380 0.000000 1.674250 
# 
# From -- ./inp_files/186858.got.cif
#   From: 2010.06.25/outbox.cif.g09.slc.cpg/sg12_94_cif.got.tgz:186858.got - 2010.06.28 00:19:55.
