data_PCOD8091756
_publ_section_title
;
Structure prediction by ZEFSAII (Michael W. Deem and Ramdas Pophale) SiO2 
 PCOD8091756
Probable space group: C 2/M
;
_chemical_formula_sum "Si O2"
_cell_formula_units_Z 64
_cell_length_a 30.410445
_cell_length_b 9.250858
_cell_length_c 24.918678
_cell_angle_alpha 90.000000
_cell_angle_beta 27.633796
_cell_angle_gamma 90.000000
_cell_volume 3251.457086
_symmetry_space_group_name_H-M "C 2/M"
_symmetry_group_IT_number 12
_symmetry_cell_setting 'monoclinic'
loop_
_space_group_symop_operation_xyz
x,y,z
-x,y,-z
-x,-y,-z
x,-y,z
1/2+x,1/2+y,z
1/2-x,1/2+y,-z
1/2-x,1/2-y,-z
1/2+x,1/2-y,z
loop_
_atom_site_type_symbol
_atom_site_label
_atom_site_fract_x
_atom_site_fract_y
_atom_site_fract_z
Si Si1 0.752303 0.829578 0.340404
Si Si2 0.687916 0.335938 0.608643
Si Si3 0.104043 0.829166 0.906793
Si Si4 0.997228 0.164949 0.252716
Si Si5 0.780171 0.670758 0.132740
Si Si6 0.568985 0.334263 0.559493
Si Si7 0.928345 0.832171 0.620974
Si Si8 0.315451 0.169875 0.971623
O O1 0.797509 0.775068 0.347394
O O2 0.821839 0.778361 0.218361
O O3 0.650072 0.758217 0.442946
O O4 0.739426 0.000000 0.353187
O O5 0.722989 0.500000 0.567065
O O6 0.750000 0.250000 0.500000
O O7 0.577138 0.323301 0.715160
O O8 0.133997 0.750890 0.929585
O O9 0.105552 0.000000 0.915349
O O10 0.000000 0.779230 0.000000
O O11 0.946046 0.213778 0.363018
O O12 0.078290 0.277182 0.151758
O O13 0.035807 0.000000 0.216858
O O14 0.790991 0.500000 0.130008
O O15 0.678564 0.731118 0.264569
O O16 0.783943 0.708953 0.065834
O O17 0.601357 0.500000 0.521153
O O18 0.470672 0.308280 0.634524
O O19 0.000000 0.759160 0.500000
O O20 0.919521 0.000000 0.616392
O O21 0.309550 0.000000 0.967174
O O22 0.250000 0.250000 0.000000
#
# Coordination Sequence:
#
# PCOD8091756 Si02
#       8
#     8   8   8   8   8   8   8   8
#     4  10  21  36  55  83 118 153 193 244 296 349
#     4  10  20  35  56  83 117 154 193 244 298 351
#     4  10  23  41  61  84 115 158 202 244 298 359
#     4  10  21  36  57  84 114 153 200 243 292 354
#     4  10  22  41  62  87 118 151 196 250 292 343
#     4  10  19  34  57  84 112 149 190 234 289 352
#     4   9  17  31  55  82 108 140 179 226 284 340
#     4  11  24  41  62  89 122 160 199 246 300 355
#
# _framework density 19.683482999999999
#
# number of rings (size 3 to 8) (size 9 to 14) (size 15 to 20)
#    0.000    2.000    1.250    1.875    1.750    5.750 
#    0.000    0.625    0.000    2.250    0.000    0.000 
#    0.000    0.000    0.000    0.000    0.000    0.000 
#
# Total GULP energy -396844.894301 kJ/mol
# GULP energy per Si atom -12401.402947 kJ/mol
# Density = 1.963868 g / cm^3
# Si number density = 19.683483 Si / 1000 Ang^3
#
#
#
# Elastic Constant Matrix: (Units=GPa)
#
#
# Indices 1 2 3 4 5 6 
#
# 1 116.4063 41.0592 45.5344 -0.0030 -3.1733 -0.0015
# 2 41.0592 49.0564 43.0051 0.0211 1.8820 0.0040
# 3 45.5344 43.0051 118.6980 0.0533 -7.2301 -0.0005
# 4 -0.0030 0.0211 0.0533 29.8615 -0.0005 -5.0097
# 5 -3.1733 1.8820 -7.2301 -0.0005 31.9370 -0.0065
# 6 -0.0015 0.0040 -0.0005 -5.0097 -0.0065 26.4303
#
#
#
# Elastic Compliance Matrix: (Units=1/GPa)
#
#
# Indices 1 2 3 4 5 6 
#
# 1 0.012427 -0.009318 -0.001300 0.000011 0.001489 0.000005
# 2 -0.009318 0.037445 -0.010325 -0.000011 -0.005470 -0.000010
# 3 -0.001300 -0.010325 0.012871 -0.000016 0.003393 0.000000
# 4 0.000011 -0.000011 -0.000016 0.034588 0.000000 0.006556
# 5 0.001489 -0.005470 0.003393 0.000000 0.032550 0.000009
# 6 0.000005 -0.000010 0.000000 0.006556 0.000009 0.039078
#
#
# Mechanical properties :
#
#
# Convention : Reuss Voigt Hill
#
# Bulk Modulus (GPa) = 47.94858 60.37311 54.16084
# Shear Modulus (GPa) = 22.95706 27.94989 25.45347
#
# Velocity S-wave (km/s) = 3.41883 3.77233 3.59992
# Velocity P-wave (km/s) = 6.32434 7.05071 6.69738
#
# Compressibility (1/GPa) = 0.02085568
#
# Stress axis : x y z
#
# Youngs Moduli (GPa) = 80.47311 26.70571 77.69293
#
# Poissons Ratio (x) = 0.24884 0.10103
# Poissons Ratio (y) = 0.74985 0.80220
# Poissons Ratio (z) = 0.10464 0.27574
#
# Static dielectric constant tensor:
#      x y z
#    x 3.864430 0.001170 0.039760 
#    y 0.001170 3.673940 -0.000430 
#    z 0.039760 -0.000430 3.686780 
# 
# 
# High freq. dielectric constant tensor:
#      x y z
#    x 1.783840 0.000000 -0.000050 
#    y 0.000000 1.741650 0.000000 
#    z -0.000050 0.000000 1.771080 
# 
# From -- ./inp_files/353375.got.cif
#   From: 2010.06.25/outbox.cif.g09.slc.cpg/sg12_177_cif.got.tgz:353375.got - 2010.06.28 00:19:55.
