data_PCOD8091913
_publ_section_title
;
Structure prediction by ZEFSAII (Michael W. Deem and Ramdas Pophale) SiO2 
 PCOD8091913
Probable space group: C 2/M
;
_chemical_formula_sum "Si O2"
_cell_formula_units_Z 56
_cell_length_a 19.560303
_cell_length_b 8.965811
_cell_length_c 18.495218
_cell_angle_alpha 90.000000
_cell_angle_beta 114.116439
_cell_angle_gamma 90.000000
_cell_volume 2960.470543
_symmetry_space_group_name_H-M "C 2/M"
_symmetry_group_IT_number 12
_symmetry_cell_setting 'monoclinic'
loop_
_space_group_symop_operation_xyz
x,y,z
-x,y,-z
-x,-y,-z
x,-y,z
1/2+x,1/2+y,z
1/2-x,1/2+y,-z
1/2-x,1/2-y,-z
1/2+x,1/2-y,z
loop_
_atom_site_type_symbol
_atom_site_label
_atom_site_fract_x
_atom_site_fract_y
_atom_site_fract_z
Si Si1 0.822191 0.823571 0.494472
Si Si2 0.962685 0.329844 0.055243
Si Si3 0.547986 0.673640 0.806690
Si Si4 0.518482 0.327461 0.373957
Si Si5 0.623545 0.174491 0.625308
Si Si6 0.690209 0.173560 0.807721
Si Si7 0.289286 0.830648 0.951652
O O1 0.750000 0.750000 0.500000
O O2 0.896458 0.781654 0.572018
O O3 0.833660 0.760206 0.419392
O O4 0.809605 0.000000 0.485500
O O5 0.988640 0.500000 0.079407
O O6 0.989384 0.234179 0.135999
O O7 0.875953 0.317356 0.002531
O O8 0.000000 0.261276 0.000000
O O9 0.565573 0.500000 0.821389
O O10 0.492936 0.706678 0.715705
O O11 0.624941 0.761173 0.829568
O O12 0.503329 0.500000 0.385661
O O13 0.460792 0.234217 0.398548
O O14 0.674375 0.206686 0.717234
O O15 0.618329 0.000000 0.605046
O O16 0.767221 0.251580 0.866011
O O17 0.695080 0.000000 0.826335
O O18 0.261766 0.000000 0.936032
O O19 0.250000 0.750000 0.000000
#
# Coordination Sequence:
#
# PCOD8091913 Si02
#       7
#     8   8   8   8   8   8   8
#     4  11  23  40  60  83 118 154 187 230 284 341
#     4  10  22  39  55  76 112 151 186 230 279 330
#     4  10  19  34  58  84 110 143 186 232 279 335
#     4   9  20  38  60  86 114 146 185 234 286 334
#     4  10  21  37  60  88 116 147 190 236 278 334
#     4  10  20  35  56  84 115 146 183 234 282 326
#     4  11  21  34  57  83 112 147 188 233 280 332
#
# _framework density 18.915911999999999
#
# number of rings (size 3 to 8) (size 9 to 14) (size 15 to 20)
#    0.000    1.857    1.429    2.571    0.000    6.000 
#    2.571    0.000    0.000    0.000    0.000    0.000 
#    0.000    0.000    0.000    0.000    0.000    0.000 
#
# Total GULP energy -347241.646011 kJ/mol
# GULP energy per Si atom -12401.487358 kJ/mol
# Density = 1.887286 g / cm^3
# Si number density = 18.915912 Si / 1000 Ang^3
#
#
#
# Elastic Constant Matrix: (Units=GPa)
#
#
# Indices 1 2 3 4 5 6 
#
# 1 97.5559 56.7049 57.4173 0.0000 -20.2551 0.0000
# 2 56.7049 114.0724 65.7231 0.0000 -7.1597 0.0000
# 3 57.4173 65.7231 121.4133 0.0000 -13.0871 0.0000
# 4 0.0000 0.0000 0.0000 36.0510 0.0000 -3.9004
# 5 -20.2551 -7.1597 -13.0871 0.0000 29.8116 0.0000
# 6 0.0000 0.0000 0.0000 -3.9004 0.0000 29.0569
#
#
#
# Elastic Compliance Matrix: (Units=1/GPa)
#
#
# Indices 1 2 3 4 5 6 
#
# 1 0.018150 -0.005916 -0.004414 0.000000 0.008973 0.000000
# 2 -0.005916 0.014668 -0.005454 0.000000 -0.002891 0.000000
# 3 -0.004414 -0.005454 0.013448 0.000000 0.001595 0.000000
# 4 0.000000 0.000000 0.000000 0.028147 0.000000 0.003778
# 5 0.008973 -0.002891 0.001595 0.000000 0.039647 0.000000
# 6 0.000000 0.000000 0.000000 0.003778 0.000000 0.034922
#
#
# Mechanical properties :
#
#
# Convention : Reuss Voigt Hill
#
# Bulk Modulus (GPa) = 68.03367 76.97023 72.50195
# Shear Modulus (GPa) = 26.96156 29.19698 28.07927
#
# Velocity S-wave (km/s) = 3.77946 3.93302 3.85700
# Velocity P-wave (km/s) = 7.42228 7.83607 7.63198
#
# Compressibility (1/GPa) = 0.01469861
#
# Stress axis : x y z
#
# Youngs Moduli (GPa) = 55.09607 68.17507 74.36204
#
# Poissons Ratio (x) = 0.40334 0.32820
# Poissons Ratio (y) = 0.32596 0.40556
# Poissons Ratio (z) = 0.24317 0.37182
#
# Static dielectric constant tensor:
#      x y z
#    x 3.170070 0.000000 0.070300 
#    y 0.000000 3.651900 0.000000 
#    z 0.070300 0.000000 3.751650 
# 
# 
# High freq. dielectric constant tensor:
#      x y z
#    x 1.713060 0.000000 0.000790 
#    y 0.000000 1.745650 0.000000 
#    z 0.000790 0.000000 1.752120 
# 
# From -- ./inp_files/275690.got.cif
#   From: 2010.06.25/outbox.cif.g09.slc.cpg/sg12_138_cif.got.tgz:275690.got - 2010.06.28 00:19:55.
