data_PCOD8091621
_publ_section_title
;
Structure prediction by ZEFSAII (Michael W. Deem and Ramdas Pophale) SiO2 
 PCOD8091621
Probable space group: C 2/M
;
_chemical_formula_sum "Si O2"
_cell_formula_units_Z 56
_cell_length_a 13.791453
_cell_length_b 13.858754
_cell_length_c 30.613248
_cell_angle_alpha 90.000000
_cell_angle_beta 31.479962
_cell_angle_gamma 90.000000
_cell_volume 3055.489315
_symmetry_space_group_name_H-M "C 2/M"
_symmetry_group_IT_number 12
_symmetry_cell_setting 'monoclinic'
loop_
_space_group_symop_operation_xyz
x,y,z
-x,y,-z
-x,-y,-z
x,-y,z
1/2+x,1/2+y,z
1/2-x,1/2+y,-z
1/2-x,1/2-y,-z
1/2+x,1/2-y,z
loop_
_atom_site_type_symbol
_atom_site_label
_atom_site_fract_x
_atom_site_fract_y
_atom_site_fract_z
Si Si1 0.977205 0.274963 0.325305
Si Si2 0.690425 0.721485 0.951147
Si Si3 0.211415 0.109123 0.028546
Si Si4 0.567804 0.766409 0.757769
Si Si5 0.863730 0.110789 0.513648
Si Si6 0.681670 0.390195 0.778867
Si Si7 0.891246 0.889314 0.665109
O O1 0.909046 0.257464 0.302653
O O2 0.814470 0.320409 0.417094
O O3 0.146704 0.349982 0.259493
O O4 0.039123 0.172292 0.320618
O O5 0.670545 0.824098 0.983768
O O6 0.853112 0.721932 0.853013
O O7 0.500000 0.697024 0.000000
O O8 0.741097 0.639804 0.967089
O O9 0.994583 0.120553 0.122048
O O10 0.282079 0.000000 0.007766
O O11 0.654188 0.669236 0.744899
O O12 0.685165 0.857808 0.729647
O O13 0.000000 0.141863 0.500000
O O14 0.965165 0.126612 0.429077
O O15 0.800198 0.000000 0.544219
O O16 0.718145 0.500000 0.751131
O O17 0.881576 0.000000 0.683692
#
# Coordination Sequence:
#
# PCOD8091621 Si02
#       7
#     8   8   8   8   8   8   8
#     4  11  20  34  58  81 105 139 178 215 259 310
#     4  10  20  35  54  77 106 137 176 218 262 313
#     4   9  19  36  54  75 106 140 174 217 262 309
#     4  10  21  35  53  78 107 139 172 217 266 311
#     4  10  19  34  57  81 107 139 175 215 259 308
#     4   9  19  35  54  77 105 138 177 216 260 311
#     4  10  22  38  55  79 108 139 176 217 260 310
#
# _framework density 18.327670000000001
#
# number of rings (size 3 to 8) (size 9 to 14) (size 15 to 20)
#    0.000    2.143    1.429    1.714    0.000    3.429 
#    0.000    0.000    0.000    0.429    0.000    0.000 
#    0.000    0.000    0.000    0.000    0.000    0.000 
#
# Total GULP energy -347301.753035 kJ/mol
# GULP energy per Si atom -12403.634037 kJ/mol
# Density = 1.828596 g / cm^3
# Si number density = 18.327670 Si / 1000 Ang^3
#
#
#
# Elastic Constant Matrix: (Units=GPa)
#
#
# Indices 1 2 3 4 5 6 
#
# 1 71.7242 28.9606 19.2163 0.0004 -2.4420 -0.0006
# 2 28.9606 107.0812 31.5982 -0.0035 -0.9410 -0.0012
# 3 19.2163 31.5982 49.9710 0.0017 4.0643 -0.0034
# 4 0.0004 -0.0035 0.0017 27.3370 -0.0014 -3.4023
# 5 -2.4420 -0.9410 4.0643 -0.0014 17.4640 0.0014
# 6 -0.0006 -0.0012 -0.0034 -3.4023 0.0014 9.4738
#
#
#
# Elastic Compliance Matrix: (Units=1/GPa)
#
#
# Indices 1 2 3 4 5 6 
#
# 1 0.016546 -0.003063 -0.004690 0.000000 0.003240 -0.000002
# 2 -0.003063 0.012143 -0.006645 0.000002 0.001773 -0.000001
# 3 -0.004690 -0.006645 0.026603 -0.000002 -0.007205 0.000009
# 4 0.000000 0.000002 -0.000002 0.038292 0.000002 0.013752
# 5 0.003240 0.001773 -0.007205 0.000002 0.059486 -0.000010
# 6 -0.000002 -0.000001 0.000009 0.013752 -0.000010 0.110492
#
#
# Mechanical properties :
#
#
# Convention : Reuss Voigt Hill
#
# Bulk Modulus (GPa) = 37.73946 43.14738 40.44342
# Shear Modulus (GPa) = 16.60085 20.78838 18.69461
#
# Velocity S-wave (km/s) = 3.01288 3.37153 3.19724
# Velocity P-wave (km/s) = 5.72185 6.22492 5.97868
#
# Compressibility (1/GPa) = 0.02649746
#
# Stress axis : x y z
#
# Youngs Moduli (GPa) = 60.43897 82.34885 37.58990
#
# Poissons Ratio (x) = 0.25220 0.17628
# Poissons Ratio (y) = 0.18510 0.24979
# Poissons Ratio (z) = 0.28343 0.54722
#
# Static dielectric constant tensor:
#      x y z
#    x 3.225980 0.000000 -0.041880 
#    y 0.000000 3.441580 0.000000 
#    z -0.041880 0.000000 3.387470 
# 
# 
# High freq. dielectric constant tensor:
#      x y z
#    x 1.706120 0.000000 -0.001230 
#    y 0.000000 1.710910 0.000000 
#    z -0.001230 0.000000 1.715020 
# 
# From -- ./inp_files/205002.got.cif
#   From: 2010.06.25/outbox.cif.g09.slc.cpg/sg12_103_cif.got.tgz:205002.got - 2010.06.28 00:19:55.
