data_PCOD8091412
_publ_section_title
;
Structure prediction by ZEFSAII (Michael W. Deem and Ramdas Pophale) SiO2 
 PCOD8091412
Probable space group: C 2/M
;
_chemical_formula_sum "Si O2"
_cell_formula_units_Z 40
_cell_length_a 17.102399
_cell_length_b 27.839269
_cell_length_c 11.202005
_cell_angle_alpha 90.000000
_cell_angle_beta 20.656224
_cell_angle_gamma 90.000000
_cell_volume 1881.438353
_symmetry_space_group_name_H-M "C 2/M"
_symmetry_group_IT_number 12
_symmetry_cell_setting 'monoclinic'
loop_
_space_group_symop_operation_xyz
x,y,z
-x,y,-z
-x,-y,-z
x,-y,z
1/2+x,1/2+y,z
1/2-x,1/2+y,-z
1/2-x,1/2-y,-z
1/2+x,1/2-y,z
loop_
_atom_site_type_symbol
_atom_site_label
_atom_site_fract_x
_atom_site_fract_y
_atom_site_fract_z
Si Si1 0.048162 0.620241 0.627625
Si Si2 0.743407 0.714828 0.620025
Si Si3 0.963500 0.783263 0.681231
Si Si4 0.647082 0.622839 0.039288
Si Si5 0.653849 0.553884 0.664526
O O1 0.086222 0.670411 0.643274
O O2 0.115182 0.577774 0.622774
O O3 0.202124 0.624324 0.292091
O O4 0.795939 0.611312 0.944502
O O5 0.750000 0.750000 0.500000
O O6 0.826163 0.747998 0.609957
O O7 0.500000 0.694534 0.000000
O O8 0.964947 0.825207 0.779536
O O9 0.000000 0.807608 0.500000
O O10 0.750000 0.750000 0.000000
O O11 0.457384 0.582913 0.286900
O O12 0.701331 0.500000 0.551313
O O13 0.500000 0.553353 0.000000
#
# Coordination Sequence:
#
# PCOD8091412 Si02
#       5
#     8   8   8   8   8
#     4  10  19  34  56  80 114 150 191 238 291 343
#     4  12  23  35  54  80 113 152 193 233 283 340
#     4  12  23  38  57  83 119 156 193 238 284 343
#     4  10  20  35  56  81 112 154 191 237 290 346
#     4   9  18  33  54  84 116 146 189 245 298 347
#
# _framework density 21.26033
#
# number of rings (size 3 to 8) (size 9 to 14) (size 15 to 20)
#    0.000    1.400    2.000    6.600    0.000    0.800 
#    0.000    4.000    0.000    0.600    0.000    1.400 
#    0.000    0.000    0.000    0.000    0.000    0.000 
#
# Total GULP energy -247885.497822 kJ/mol
# GULP energy per Si atom -12394.274891 kJ/mol
# Density = 2.121194 g / cm^3
# Si number density = 21.260330 Si / 1000 Ang^3
#
#
#
# Elastic Constant Matrix: (Units=GPa)
#
#
# Indices 1 2 3 4 5 6 
#
# 1 99.8853 66.5778 31.0052 -0.0497 -32.0730 0.0460
# 2 66.5778 175.5841 24.6048 0.0116 -29.2979 -0.0118
# 3 31.0052 24.6048 43.6766 -0.0378 -21.3792 0.0378
# 4 -0.0497 0.0116 -0.0378 22.5576 0.0459 -8.5632
# 5 -32.0730 -29.2979 -21.3792 0.0459 40.7453 -0.0568
# 6 0.0460 -0.0118 0.0378 -8.5632 -0.0568 40.9210
#
#
#
# Elastic Compliance Matrix: (Units=1/GPa)
#
#
# Indices 1 2 3 4 5 6 
#
# 1 0.017187 -0.004468 -0.006236 0.000015 0.007044 -0.000002
# 2 -0.004468 0.007745 -0.000252 -0.000016 0.001920 0.000007
# 3 -0.006236 -0.000252 0.033603 0.000016 0.012542 -0.000003
# 4 0.000015 -0.000016 0.000016 0.048157 -0.000032 0.010077
# 5 0.007044 0.001920 0.012542 -0.000032 0.038050 0.000027
# 6 -0.000002 0.000007 -0.000003 0.010077 0.000027 0.026546
#
#
# Mechanical properties :
#
#
# Convention : Reuss Voigt Hill
#
# Bulk Modulus (GPa) = 27.30355 62.61354 44.95854
# Shear Modulus (GPa) = 24.34203 33.97532 29.15868
#
# Velocity S-wave (km/s) = 3.38738 4.00191 3.70740
# Velocity P-wave (km/s) = 5.30750 7.13222 6.28642
#
# Compressibility (1/GPa) = 0.03662528
#
# Stress axis : x y z
#
# Youngs Moduli (GPa) = 58.18361 129.11548 29.75903
#
# Poissons Ratio (x) = 0.57685 0.18557
# Poissons Ratio (y) = 0.25995 0.00749
# Poissons Ratio (z) = 0.36281 0.03249
#
# Static dielectric constant tensor:
#      x y z
#    x 4.453500 -0.000170 -0.543040 
#    y -0.000170 4.074810 0.000170 
#    z -0.543040 0.000170 3.785670 
# 
# 
# High freq. dielectric constant tensor:
#      x y z
#    x 1.843160 -0.000010 -0.033500 
#    y -0.000010 1.823980 0.000010 
#    z -0.033500 0.000010 1.792830 
# 
# From -- ./inp_files/79307.got.cif
#   From: 2010.06.25/outbox.cif.g09.slc.cpg/sg12_40_cif.got.tgz:79307.got - 2010.06.28 00:19:55.
