data_PCOD8091206
_publ_section_title
;
Structure prediction by ZEFSAII (Michael W. Deem and Ramdas Pophale) SiO2 
 PCOD8091206
Probable space group: C 2/M
;
_chemical_formula_sum "Si O2"
_cell_formula_units_Z 64
_cell_length_a 17.643128
_cell_length_b 31.827241
_cell_length_c 8.952706
_cell_angle_alpha 90.000000
_cell_angle_beta 140.319601
_cell_angle_gamma 90.000000
_cell_volume 3209.910389
_symmetry_space_group_name_H-M "C 2/M"
_symmetry_group_IT_number 12
_symmetry_cell_setting 'monoclinic'
loop_
_space_group_symop_operation_xyz
x,y,z
-x,y,-z
-x,-y,-z
x,-y,z
1/2+x,1/2+y,z
1/2-x,1/2+y,-z
1/2-x,1/2-y,-z
1/2+x,1/2-y,z
loop_
_atom_site_type_symbol
_atom_site_label
_atom_site_fract_x
_atom_site_fract_y
_atom_site_fract_z
Si Si1 0.848843 0.770849 0.044623
Si Si2 0.239005 0.705331 0.568012
Si Si3 0.173021 0.874467 0.474639
Si Si4 0.987505 0.305393 0.306500
Si Si5 0.703165 0.878028 0.015957
Si Si6 0.182758 0.452854 0.377914
Si Si7 0.935670 0.453933 0.124151
Si Si8 0.560941 0.357502 0.743165
O O1 0.922806 0.807316 0.238438
O O2 0.940561 0.734597 0.144304
O O3 0.750000 0.750000 0.000000
O O4 0.798005 0.790271 0.817724
O O5 0.250000 0.750000 0.500000
O O6 0.301768 0.668902 0.570787
O O7 0.108869 0.686417 0.402984
O O8 0.237667 0.872533 0.732427
O O9 0.216452 0.916701 0.454316
O O10 0.028513 0.874966 0.265245
O O11 0.000000 0.294228 0.500000
O O12 0.895272 0.342789 0.151963
O O13 0.805668 0.876592 0.044493
O O14 0.634829 0.921316 0.880643
O O15 0.235819 0.500000 0.487436
O O16 0.075932 0.442978 0.331470
O O17 0.122901 0.452036 0.126399
O O18 0.918579 0.500000 0.168761
O O19 0.500000 0.372814 0.500000
#
# Coordination Sequence:
#
# PCOD8091206 Si02
#       8
#     8   8   8   8   8   8   8   8
#     4  12  23  40  58  76 108 150 186 225 280 345
#     4  12  26  38  55  88 112 141 187 242 284 328
#     4  10  21  35  53  84 118 143 189 245 283 335
#     4  12  23  38  59  77 105 145 190 229 276 339
#     4  10  19  34  55  80 109 149 188 230 287 337
#     4   8  14  28  50  78 112 150 183 227 293 346
#     4   8  14  26  49  78 110 145 183 230 283 337
#     4  10  21  36  57  76 108 153 190 229 285 341
#
# _framework density 19.938251999999999
#
# number of rings (size 3 to 8) (size 9 to 14) (size 15 to 20)
#    0.000    1.750    2.500    3.375    1.750    4.500 
#    0.000    0.625    0.000    4.125    0.000    4.375 
#    0.000    0.000    0.000    0.000    0.000    0.125 
#
# Total GULP energy -396498.788653 kJ/mol
# GULP energy per Si atom -12390.587145 kJ/mol
# Density = 1.989287 g / cm^3
# Si number density = 19.938252 Si / 1000 Ang^3
#
#
#
# Elastic Constant Matrix: (Units=GPa)
#
#
# Indices 1 2 3 4 5 6 
#
# 1 135.0268 81.0014 40.6229 0.0000 42.6279 0.0000
# 2 81.0014 169.1839 34.6270 0.0000 34.5638 0.0000
# 3 40.6229 34.6270 52.8567 0.0000 20.3283 0.0000
# 4 0.0000 0.0000 0.0000 23.7068 0.0000 8.7133
# 5 42.6279 34.5638 20.3283 0.0000 36.2747 0.0000
# 6 0.0000 0.0000 0.0000 8.7133 0.0000 35.3730
#
#
#
# Elastic Compliance Matrix: (Units=1/GPa)
#
#
# Indices 1 2 3 4 5 6 
#
# 1 0.014448 -0.003785 -0.004438 0.000000 -0.010885 0.000000
# 2 -0.003785 0.008647 -0.001654 0.000000 -0.002864 0.000000
# 3 -0.004438 -0.001654 0.026517 0.000000 -0.008069 0.000000
# 4 0.000000 0.000000 0.000000 0.046381 0.000000 -0.011425
# 5 -0.010885 -0.002864 -0.008069 0.000000 0.047609 0.000000
# 6 0.000000 0.000000 0.000000 -0.011425 0.000000 0.031084
#
#
# Mechanical properties :
#
#
# Convention : Reuss Voigt Hill
#
# Bulk Modulus (GPa) = 33.49342 74.39665 53.94504
# Shear Modulus (GPa) = 24.46269 32.45865 28.46067
#
# Velocity S-wave (km/s) = 3.50655 4.03917 3.78225
# Velocity P-wave (km/s) = 5.76451 7.69076 6.79622
#
# Compressibility (1/GPa) = 0.02985661
#
# Stress axis : x y z
#
# Youngs Moduli (GPa) = 69.21225 115.65202 37.71219
#
# Poissons Ratio (x) = 0.43779 0.16737
# Poissons Ratio (y) = 0.26200 0.06237
# Poissons Ratio (z) = 0.30717 0.19128
#
# Static dielectric constant tensor:
#      x y z
#    x 3.790820 0.000000 0.381190 
#    y 0.000000 2.996500 0.000000 
#    z 0.381190 0.000000 3.558640 
# 
# 
# High freq. dielectric constant tensor:
#      x y z
#    x 1.778890 0.000000 0.022660 
#    y 0.000000 1.777720 0.000000 
#    z 0.022660 0.000000 1.754530 
# 
# From -- ./inp_files/80751.got.cif
#   From: 2010.06.25/outbox.cif.g09.slc.cpg/sg12_41_cif.got.tgz:80751.got - 2010.06.28 00:19:55.
