data_PCOD8091014
_publ_section_title
;
Structure prediction by ZEFSAII (Michael W. Deem and Ramdas Pophale) SiO2 
 PCOD8091014
Probable space group: C 2/M
;
_chemical_formula_sum "Si O2"
_cell_formula_units_Z 64
_cell_length_a 20.133564
_cell_length_b 8.912754
_cell_length_c 23.510584
_cell_angle_alpha 90.000000
_cell_angle_beta 123.206032
_cell_angle_gamma 90.000000
_cell_volume 3529.955443
_symmetry_space_group_name_H-M "C 2/M"
_symmetry_group_IT_number 12
_symmetry_cell_setting 'monoclinic'
loop_
_space_group_symop_operation_xyz
x,y,z
-x,y,-z
-x,-y,-z
x,-y,z
1/2+x,1/2+y,z
1/2-x,1/2+y,-z
1/2-x,1/2-y,-z
1/2+x,1/2-y,z
loop_
_atom_site_type_symbol
_atom_site_label
_atom_site_fract_x
_atom_site_fract_y
_atom_site_fract_z
Si Si1 0.192456 0.176108 0.684324
Si Si2 0.087334 0.821746 0.033410
Si Si3 0.721790 0.674697 0.570122
Si Si4 0.125244 0.326360 0.427688
Si Si5 0.037710 0.177195 0.679249
Si Si6 0.619466 0.826514 0.818938
Si Si7 0.777205 0.172780 0.822504
Si Si8 0.335103 0.677617 0.046705
O O1 0.207529 0.232645 0.627442
O O2 0.105304 0.226813 0.665402
O O3 0.261441 0.241971 0.756436
O O4 0.201095 0.000000 0.691252
O O5 0.144818 0.759596 0.110219
O O6 0.087338 0.000000 0.038056
O O7 0.115928 0.771520 0.985149
O O8 0.000000 0.753266 0.000000
O O9 0.698587 0.500000 0.551983
O O10 0.813600 0.700284 0.595721
O O11 0.665255 0.775258 0.504936
O O12 0.101234 0.500000 0.421170
O O13 0.047277 0.227791 0.382937
O O14 0.053271 0.256320 0.746780
O O15 0.038645 0.000000 0.688707
O O16 0.706001 0.803815 0.833183
O O17 0.616690 0.739903 0.877033
O O18 0.599166 0.000000 0.819306
O O19 0.788211 0.000000 0.811877
O O20 0.325653 0.500000 0.047346
O O21 0.250000 0.750000 0.000000
#
# Coordination Sequence:
#
# PCOD8091014 Si02
#       8
#     8   8   8   8   8   8   8   8
#     4   9  19  35  55  78 103 136 175 217 262 308
#     4   9  18  34  53  74 105 138 173 217 265 312
#     4   9  19  37  57  76 105 143 179 213 257 311
#     4  10  20  35  56  80 108 141 174 215 260 305
#     4  10  20  35  55  80 108 139 174 215 264 313
#     4  10  19  34  54  79 107 136 175 220 265 310
#     4   9  17  32  53  76 102 137 173 212 262 312
#     4  11  20  33  55  80 104 137 179 219 262 313
#
# _framework density 18.130538999999999
#
# number of rings (size 3 to 8) (size 9 to 14) (size 15 to 20)
#    0.000    2.375    1.250    1.500    0.000    2.500 
#    2.250    2.500    0.000    2.625    0.000    0.000 
#    0.000    0.000    0.000    0.000    0.000    0.000 
#
# Total GULP energy -396830.733513 kJ/mol
# GULP energy per Si atom -12400.960422 kJ/mol
# Density = 1.808927 g / cm^3
# Si number density = 18.130539 Si / 1000 Ang^3
#
#
#
# Elastic Constant Matrix: (Units=GPa)
#
#
# Indices 1 2 3 4 5 6 
#
# 1 105.1294 36.7385 73.8614 0.0000 -7.8349 0.0000
# 2 36.7385 55.6537 38.1034 0.0000 -5.2699 0.0000
# 3 73.8614 38.1034 127.5511 0.0000 -9.6024 0.0000
# 4 0.0000 0.0000 0.0000 37.1661 0.0000 -0.3132
# 5 -7.8349 -5.2699 -9.6024 0.0000 34.0450 0.0000
# 6 0.0000 0.0000 0.0000 -0.3132 0.0000 20.8473
#
#
#
# Elastic Compliance Matrix: (Units=1/GPa)
#
#
# Indices 1 2 3 4 5 6 
#
# 1 0.017413 -0.005730 -0.008313 0.000000 0.000776 0.000000
# 2 -0.005730 0.024562 -0.003916 0.000000 0.001379 0.000000
# 3 -0.008313 -0.003916 0.013930 0.000000 0.001410 0.000000
# 4 0.000000 0.000000 0.000000 0.026910 0.000000 0.000404
# 5 0.000776 0.001379 0.001410 0.000000 0.030162 0.000000
# 6 0.000000 0.000000 0.000000 0.000404 0.000000 0.047974
#
#
# Mechanical properties :
#
#
# Convention : Reuss Voigt Hill
#
# Bulk Modulus (GPa) = 50.03137 65.08232 57.55685
# Shear Modulus (GPa) = 24.56634 27.72043 26.14338
#
# Velocity S-wave (km/s) = 3.68499 3.91440 3.80143
# Velocity P-wave (km/s) = 6.76465 7.51029 7.14720
#
# Compressibility (1/GPa) = 0.01998746
#
# Stress axis : x y z
#
# Youngs Moduli (GPa) = 57.42867 40.71332 71.78788
#
# Poissons Ratio (x) = 0.23327 0.59680
# Poissons Ratio (y) = 0.32904 0.28111
# Poissons Ratio (z) = 0.47743 0.15943
#
# Static dielectric constant tensor:
#      x y z
#    x 3.364900 0.000000 -0.036550 
#    y 0.000000 3.273820 0.000000 
#    z -0.036550 0.000000 3.480140 
# 
# 
# High freq. dielectric constant tensor:
#      x y z
#    x 1.691670 0.000000 -0.002990 
#    y 0.000000 1.696180 0.000000 
#    z -0.002990 0.000000 1.711740 
# 
# From -- ./inp_files/346199.got.cif
#   From: 2010.06.25/outbox.cif.g09.slc.cpg/sg12_174_cif.got.tgz:346199.got - 2010.06.28 00:19:55.
