data_PCOD8091763
_publ_section_title
;
Structure prediction by ZEFSAII (Michael W. Deem and Ramdas Pophale) SiO2 
 PCOD8091763
Probable space group: C 2/M
;
_chemical_formula_sum "Si O2"
_cell_formula_units_Z 64
_cell_length_a 14.912038
_cell_length_b 9.222051
_cell_length_c 32.279507
_cell_angle_alpha 90.000000
_cell_angle_beta 47.641777
_cell_angle_gamma 90.000000
_cell_volume 3280.232240
_symmetry_space_group_name_H-M "C 2/M"
_symmetry_group_IT_number 12
_symmetry_cell_setting 'monoclinic'
loop_
_space_group_symop_operation_xyz
x,y,z
-x,y,-z
-x,-y,-z
x,-y,z
1/2+x,1/2+y,z
1/2-x,1/2+y,-z
1/2-x,1/2-y,-z
1/2+x,1/2-y,z
loop_
_atom_site_type_symbol
_atom_site_label
_atom_site_fract_x
_atom_site_fract_y
_atom_site_fract_z
Si Si1 0.022302 0.335684 0.744079
Si Si2 0.076610 0.668887 0.935802
Si Si3 0.354787 0.331487 0.852858
Si Si4 0.854551 0.334172 0.377026
Si Si5 0.279388 0.834079 0.247170
Si Si6 0.616834 0.171480 0.438674
Si Si7 0.043998 0.828377 0.863730
Si Si8 0.583611 0.833960 0.355254
O O1 0.977983 0.500000 0.752128
O O2 0.071140 0.272331 0.685582
O O3 0.130892 0.322048 0.742405
O O4 0.906666 0.246020 0.795795
O O5 0.065580 0.500000 0.927378
O O6 0.215328 0.713052 0.902143
O O7 0.020141 0.764156 0.916539
O O8 0.000000 0.707266 0.000000
O O9 0.370755 0.500000 0.839663
O O10 0.428881 0.285539 0.870973
O O11 0.816118 0.500000 0.380162
O O12 0.734965 0.241208 0.422728
O O13 0.940112 0.321984 0.390653
O O14 0.333645 0.745569 0.191690
O O15 0.153161 0.763323 0.300140
O O16 0.258078 0.000000 0.240080
O O17 0.500000 0.227485 0.500000
O O18 0.605915 0.223597 0.394606
O O19 0.628559 0.000000 0.438238
O O20 0.062851 0.000000 0.860100
O O21 0.628106 0.000000 0.336787
#
# Coordination Sequence:
#
# PCOD8091763 Si02
#       8
#     8   8   8   8   8   8   8   8
#     4   9  18  33  54  81 113 143 179 230 283 336
#     4  10  22  40  59  82 115 153 193 236 282 336
#     4   9  20  37  56  81 112 149 188 228 281 338
#     4  10  21  37  56  83 113 146 188 233 284 337
#     4  10  19  34  57  84 114 146 185 229 281 341
#     4  10  22  40  59  81 114 154 194 236 283 336
#     4  10  21  37  57  83 114 147 188 234 281 335
#     4  10  21  36  56  83 115 149 186 233 286 335
#
# _framework density 19.510812999999999
#
# number of rings (size 3 to 8) (size 9 to 14) (size 15 to 20)
#    0.000    2.250    1.250    0.750    1.750    4.000 
#    0.000    0.000    0.000    0.000    0.000    0.000 
#    0.000    0.000    0.000    0.000    0.000    0.000 
#
# Total GULP energy -396912.420276 kJ/mol
# GULP energy per Si atom -12403.513134 kJ/mol
# Density = 1.946641 g / cm^3
# Si number density = 19.510813 Si / 1000 Ang^3
#
#
#
# Elastic Constant Matrix: (Units=GPa)
#
#
# Indices 1 2 3 4 5 6 
#
# 1 61.1140 23.9780 24.7998 0.0003 -15.0992 0.0005
# 2 23.9780 56.5010 32.1779 0.0005 -7.8521 0.0007
# 3 24.7998 32.1779 95.3940 0.0002 -20.5499 0.0003
# 4 0.0003 0.0005 0.0002 32.1104 0.0001 -2.4236
# 5 -15.0992 -7.8521 -20.5499 0.0001 30.8090 0.0002
# 6 0.0005 0.0007 0.0003 -2.4236 0.0002 25.8318
#
#
#
# Elastic Compliance Matrix: (Units=1/GPa)
#
#
# Indices 1 2 3 4 5 6 
#
# 1 0.021765 -0.007287 -0.001521 0.000000 0.007795 0.000000
# 2 -0.007287 0.024363 -0.006721 0.000000 -0.001845 0.000000
# 3 -0.001521 -0.006721 0.014733 0.000000 0.007368 0.000000
# 4 0.000000 0.000000 0.000000 0.031365 0.000000 0.002943
# 5 0.007795 -0.001845 0.007368 0.000000 0.040723 -0.000001
# 6 0.000000 0.000000 0.000000 0.002943 -0.000001 0.038988
#
#
# Mechanical properties :
#
#
# Convention : Reuss Voigt Hill
#
# Bulk Modulus (GPa) = 33.55464 41.65783 37.60623
# Shear Modulus (GPa) = 23.48213 26.55382 25.01797
#
# Velocity S-wave (km/s) = 3.47298 3.69315 3.58475
# Velocity P-wave (km/s) = 5.77212 6.29153 6.03741
#
# Compressibility (1/GPa) = 0.02980214
#
# Stress axis : x y z
#
# Youngs Moduli (GPa) = 45.94512 41.04668 67.87652
#
# Poissons Ratio (x) = 0.29911 0.10324
# Poissons Ratio (y) = 0.33481 0.45619
# Poissons Ratio (z) = 0.06988 0.27587
#
# Static dielectric constant tensor:
#      x y z
#    x 3.558380 0.000000 0.024060 
#    y 0.000000 3.479090 0.000000 
#    z 0.024060 0.000000 3.514290 
# 
# 
# High freq. dielectric constant tensor:
#      x y z
#    x 1.764040 0.000000 0.001540 
#    y 0.000000 1.752280 0.000000 
#    z 0.001540 0.000000 1.753520 
# 
# From -- ./inp_files/375380.got.cif
#   From: 2010.06.25/outbox.cif.g09.slc.cpg/sg12_188_cif.got.tgz:375380.got - 2010.06.28 00:19:55.
