data_PCOD8091204
_publ_section_title
;
Structure prediction by ZEFSAII (Michael W. Deem and Ramdas Pophale) SiO2 
 PCOD8091204
Probable space group: C 2/M
;
_chemical_formula_sum "Si O2"
_cell_formula_units_Z 64
_cell_length_a 19.345478
_cell_length_b 9.283860
_cell_length_c 30.134170
_cell_angle_alpha 90.000000
_cell_angle_beta 141.220872
_cell_angle_gamma 90.000000
_cell_volume 3389.717228
_symmetry_space_group_name_H-M "C 2/M"
_symmetry_group_IT_number 12
_symmetry_cell_setting 'monoclinic'
loop_
_space_group_symop_operation_xyz
x,y,z
-x,y,-z
-x,-y,-z
x,-y,z
1/2+x,1/2+y,z
1/2-x,1/2+y,-z
1/2-x,1/2-y,-z
1/2+x,1/2-y,z
loop_
_atom_site_type_symbol
_atom_site_label
_atom_site_fract_x
_atom_site_fract_y
_atom_site_fract_z
Si Si1 0.821052 0.830395 0.498344
Si Si2 0.953434 0.834368 0.763254
Si Si3 0.074504 0.832716 0.625975
Si Si4 0.727323 0.833892 0.768755
Si Si5 0.035175 0.835182 0.129923
Si Si6 0.804683 0.829200 0.986700
Si Si7 0.761588 0.167022 0.368976
Si Si8 0.347876 0.835728 0.169844
O O1 0.750000 0.750000 0.500000
O O2 0.778051 0.787343 0.428135
O O3 0.948102 0.780643 0.563667
O O4 0.809497 0.000000 0.500749
O O5 0.997652 0.815877 0.835221
O O6 0.834659 0.762068 0.699902
O O7 0.042084 0.759329 0.775938
O O8 0.942135 0.000000 0.743570
O O9 0.136273 0.747897 0.695217
O O10 0.127500 0.802658 0.603997
O O11 0.082438 0.000000 0.641564
O O12 0.847374 0.759494 0.820964
O O13 0.704491 0.816856 0.808767
O O14 0.724772 0.000000 0.751983
O O15 0.933124 0.776757 0.049240
O O16 0.054382 0.000000 0.126739
O O17 0.799313 0.000000 0.992426
O O18 0.750000 0.750000 0.000000
O O19 0.744265 0.783340 0.911292
O O20 0.728236 0.000000 0.348917
O O21 0.382129 0.000000 0.177101
#
# Coordination Sequence:
#
# PCOD8091204 Si02
#       8
#     8   8   8   8   8   8   8   8
#     4  10  23  41  60  86 118 150 186 230 280 332
#     4  11  21  35  58  85 114 147 189 238 281 332
#     4  10  21  39  62  85 111 149 192 231 276 333
#     4  10  21  38  57  82 116 149 186 234 285 335
#     4   9  18  34  56  81 109 144 186 233 281 327
#     4  10  19  34  55  80 109 146 190 234 283 335
#     4  10  21  39  62  85 113 150 191 233 277 331
#     4  10  22  36  55  83 114 150 190 234 285 340
#
# _framework density 18.88063
#
# number of rings (size 3 to 8) (size 9 to 14) (size 15 to 20)
#    0.000    2.000    2.500    0.750    1.750    3.500 
#    0.000    3.125    0.000    2.250    0.000    2.625 
#    0.000    0.000    0.000    0.000    0.000    0.000 
#
# Total GULP energy -396780.664401 kJ/mol
# GULP energy per Si atom -12399.395763 kJ/mol
# Density = 1.883766 g / cm^3
# Si number density = 18.880630 Si / 1000 Ang^3
#
#
#
# Elastic Constant Matrix: (Units=GPa)
#
#
# Indices 1 2 3 4 5 6 
#
# 1 89.6708 37.7791 53.0775 0.0000 6.5463 0.0000
# 2 37.7791 53.6112 42.8986 0.0000 3.2128 -0.0001
# 3 53.0775 42.8986 117.7879 0.0000 10.7042 0.0000
# 4 0.0000 0.0000 0.0000 28.2226 0.0000 0.1124
# 5 6.5463 3.2128 10.7042 0.0000 36.1928 0.0000
# 6 0.0000 -0.0001 0.0000 0.1124 0.0000 28.4983
#
#
#
# Elastic Compliance Matrix: (Units=1/GPa)
#
#
# Indices 1 2 3 4 5 6 
#
# 1 0.017645 -0.008588 -0.004730 0.000000 -0.001030 0.000000
# 2 -0.008588 0.030513 -0.007335 0.000000 0.001014 0.000000
# 3 -0.004730 -0.007335 0.013519 0.000000 -0.002492 0.000000
# 4 0.000000 0.000000 0.000000 0.035433 0.000000 -0.000140
# 5 -0.001030 0.001014 -0.002492 0.000000 0.028463 0.000000
# 6 0.000000 0.000000 0.000000 -0.000140 0.000000 0.035090
#
#
# Mechanical properties :
#
#
# Convention : Reuss Voigt Hill
#
# Bulk Modulus (GPa) = 49.08802 58.73113 53.90957
# Shear Modulus (GPa) = 23.95095 27.07039 25.51067
#
# Velocity S-wave (km/s) = 3.56553 3.79062 3.67979
# Velocity P-wave (km/s) = 6.55791 7.09454 6.83150
#
# Compressibility (1/GPa) = 0.02037157
#
# Stress axis : x y z
#
# Youngs Moduli (GPa) = 56.67390 32.77266 73.96893
#
# Poissons Ratio (x) = 0.28144 0.34986
# Poissons Ratio (y) = 0.48669 0.54259
# Poissons Ratio (z) = 0.26806 0.24040
#
# Static dielectric constant tensor:
#      x y z
#    x 3.526280 0.000000 0.100540 
#    y 0.000000 3.348030 0.000000 
#    z 0.100540 0.000000 3.699590 
# 
# 
# High freq. dielectric constant tensor:
#      x y z
#    x 1.738680 0.000000 0.007160 
#    y 0.000000 1.713060 0.000000 
#    z 0.007160 0.000000 1.747400 
# 
# From -- ./inp_files/346162.got.cif
#   From: 2010.06.25/outbox.cif.g09.slc.cpg/sg12_174_cif.got.tgz:346162.got - 2010.06.28 00:19:55.
