data_PCOD8091485
_publ_section_title
;
Structure prediction by ZEFSAII (Michael W. Deem and Ramdas Pophale) SiO2 
 PCOD8091485
Probable space group: C 2/M
;
_chemical_formula_sum "Si O2"
_cell_formula_units_Z 64
_cell_length_a 15.345411
_cell_length_b 26.870170
_cell_length_c 12.273011
_cell_angle_alpha 90.000000
_cell_angle_beta 140.954685
_cell_angle_gamma 90.000000
_cell_volume 3187.833925
_symmetry_space_group_name_H-M "C 2/M"
_symmetry_group_IT_number 12
_symmetry_cell_setting 'monoclinic'
loop_
_space_group_symop_operation_xyz
x,y,z
-x,y,-z
-x,-y,-z
x,-y,z
1/2+x,1/2+y,z
1/2-x,1/2+y,-z
1/2-x,1/2-y,-z
1/2+x,1/2-y,z
loop_
_atom_site_type_symbol
_atom_site_label
_atom_site_fract_x
_atom_site_fract_y
_atom_site_fract_z
Si Si1 0.593616 0.554889 0.320600
Si Si2 0.151093 0.943387 0.618461
Si Si3 0.270264 0.651305 0.619732
Si Si4 0.278120 0.847053 0.181756
Si Si5 0.520784 0.719751 0.894069
Si Si6 0.504295 0.825733 0.233045
Si Si7 0.890981 0.589377 0.979007
Si Si8 0.777201 0.054874 0.986544
O O1 0.614669 0.500000 0.288102
O O2 0.674876 0.557557 0.512968
O O3 0.665595 0.595728 0.314269
O O4 0.430301 0.563743 0.185206
O O5 0.253453 0.903625 0.773192
O O6 0.000000 0.924054 0.500000
O O7 0.174736 0.000000 0.686773
O O8 0.201838 0.661448 0.670582
O O9 0.396194 0.688425 0.722489
O O10 0.162547 0.661092 0.417207
O O11 0.420831 0.835169 0.262096
O O12 0.160896 0.811707 0.015848
O O13 0.242268 0.904890 0.127012
O O14 0.522958 0.769388 0.826124
O O15 0.500000 0.732656 0.000000
O O16 0.453965 0.858713 0.081855
O O17 0.843393 0.557899 0.038395
O O18 0.000000 0.563374 0.000000
O O19 0.766149 0.000000 0.923243
#
# Coordination Sequence:
#
# PCOD8091485 Si02
#       8
#     8   8   8   8   8   8   8   8
#     4  10  20  35  59  89 119 153 201 248 292 350
#     4  10  19  34  56  82 116 158 200 242 290 347
#     4  11  22  40  63  89 120 157 202 245 296 350
#     4  10  22  40  62  90 120 156 196 246 299 353
#     4  10  21  39  65  90 115 151 200 248 298 353
#     4  11  23  40  61  87 124 160 194 244 299 362
#     4  11  22  36  56  86 122 159 197 244 301 358
#     4  10  20  36  59  87 117 155 198 244 297 350
#
# _framework density 20.076329000000001
#
# number of rings (size 3 to 8) (size 9 to 14) (size 15 to 20)
#    0.000    1.625    2.500    2.625    0.000    1.500 
#    0.000    5.625    0.000    5.250    0.000    0.000 
#    0.000    0.000    0.000    0.000    0.000    0.000 
#
# Total GULP energy -396653.289081 kJ/mol
# GULP energy per Si atom -12395.415284 kJ/mol
# Density = 2.003063 g / cm^3
# Si number density = 20.076329 Si / 1000 Ang^3
#
#
#
# Elastic Constant Matrix: (Units=GPa)
#
#
# Indices 1 2 3 4 5 6 
#
# 1 53.4730 17.1629 22.0477 0.0000 9.7826 0.0000
# 2 17.1629 125.4526 50.1432 0.0000 3.4771 0.0000
# 3 22.0477 50.1432 113.6176 0.0000 11.7522 0.0000
# 4 0.0000 0.0000 0.0000 22.0652 0.0000 -4.0505
# 5 9.7826 3.4771 11.7522 0.0000 23.3157 0.0000
# 6 0.0000 0.0000 0.0000 -4.0505 0.0000 17.6563
#
#
#
# Elastic Compliance Matrix: (Units=1/GPa)
#
#
# Indices 1 2 3 4 5 6 
#
# 1 0.021727 -0.001687 -0.002695 0.000000 -0.007506 0.000000
# 2 -0.001687 0.009822 -0.004145 0.000000 0.001332 0.000000
# 3 -0.002695 -0.004145 0.011576 0.000000 -0.004086 0.000000
# 4 0.000000 0.000000 0.000000 0.047313 0.000000 0.010854
# 5 -0.007506 0.001332 -0.004086 0.000000 0.047900 0.000000
# 6 0.000000 0.000000 0.000000 0.010854 0.000000 0.059127
#
#
# Mechanical properties :
#
#
# Convention : Reuss Voigt Hill
#
# Bulk Modulus (GPa) = 38.35770 52.36121 45.35946
# Shear Modulus (GPa) = 22.40047 26.15340 24.27694
#
# Velocity S-wave (km/s) = 3.34393 3.61321 3.48117
# Velocity P-wave (km/s) = 5.83580 6.59884 6.22902
#
# Compressibility (1/GPa) = 0.02607039
#
# Stress axis : x y z
#
# Youngs Moduli (GPa) = 46.02580 101.81404 86.38199
#
# Poissons Ratio (x) = 0.17177 0.23281
# Poissons Ratio (y) = 0.07765 0.35807
# Poissons Ratio (z) = 0.12405 0.42203
#
# Static dielectric constant tensor:
#      x y z
#    x 3.585450 0.000000 0.115340 
#    y 0.000000 3.635850 0.000000 
#    z 0.115340 0.000000 3.599690 
# 
# 
# High freq. dielectric constant tensor:
#      x y z
#    x 1.782410 0.000000 0.006050 
#    y 0.000000 1.773790 0.000000 
#    z 0.006050 0.000000 1.783230 
# 
# From -- ./inp_files/149813.got.cif
#   From: 2010.06.25/outbox.cif.g09.slc.cpg/sg12_75_cif.got.tgz:149813.got - 2010.06.28 00:19:55.
