data_PCOD8091633
_publ_section_title
;
Structure prediction by ZEFSAII (Michael W. Deem and Ramdas Pophale) SiO2 
 PCOD8091633
Probable space group: C 2/M
;
_chemical_formula_sum "Si O2"
_cell_formula_units_Z 64
_cell_length_a 8.364299
_cell_length_b 19.357701
_cell_length_c 24.208310
_cell_angle_alpha 90.000000
_cell_angle_beta 122.251524
_cell_angle_gamma 90.000000
_cell_volume 3314.905312
_symmetry_space_group_name_H-M "C 2/M"
_symmetry_group_IT_number 12
_symmetry_cell_setting 'monoclinic'
loop_
_space_group_symop_operation_xyz
x,y,z
-x,y,-z
-x,-y,-z
x,-y,z
1/2+x,1/2+y,z
1/2-x,1/2+y,-z
1/2-x,1/2-y,-z
1/2+x,1/2-y,z
loop_
_atom_site_type_symbol
_atom_site_label
_atom_site_fract_x
_atom_site_fract_y
_atom_site_fract_z
Si Si1 0.475703 0.773131 0.856140
Si Si2 0.899288 0.827511 0.565882
Si Si3 0.792821 0.682203 0.578388
Si Si4 0.165483 0.921470 0.180895
Si Si5 0.080760 0.834652 0.791994
Si Si6 0.442924 0.580311 0.318941
Si Si7 0.448182 0.080416 0.692334
Si Si8 0.136417 0.838626 0.075819
O O1 0.492738 0.739076 0.797130
O O2 0.662507 0.813173 0.909037
O O3 0.451471 0.715764 0.898133
O O4 0.305319 0.827492 0.826651
O O5 0.874740 0.759533 0.599410
O O6 0.726572 0.836614 0.490578
O O7 0.090436 0.817923 0.568246
O O8 0.914945 0.896421 0.606042
O O9 0.926333 0.626238 0.632973
O O10 0.976118 0.888307 0.171064
O O11 0.361089 0.892038 0.242999
O O12 0.167705 0.909397 0.115511
O O13 0.153306 0.000000 0.193170
O O14 0.004257 0.867326 0.721025
O O15 0.481768 0.500000 0.310765
O O16 0.225761 0.590843 0.297487
O O17 0.461594 0.000000 0.677401
O O18 0.000000 0.853309 0.000000
#
# Coordination Sequence:
#
# PCOD8091633 Si02
#       8
#     8   8   8   8   8   8   8   8
#     4   9  20  35  54  82 106 135 175 213 262 309
#     4   9  19  32  50  73 102 135 173 219 261 315
#     4   9  18  34  51  73 101 135 174 216 268 309
#     4  10  21  36  53  76 105 139 177 213 257 311
#     4  10  20  35  54  76 107 138 171 218 262 307
#     4  10  20  33  51  77 106 139 176 215 264 315
#     4   9  19  35  55  77 103 137 177 219 262 314
#     4  10  19  34  57  81 109 138 168 212 259 311
#
# _framework density 19.306736000000001
#
# number of rings (size 3 to 8) (size 9 to 14) (size 15 to 20)
#    0.000    2.500    0.000    1.500    0.000    6.750 
#    0.000    3.125    0.000    0.750    0.000    6.125 
#    0.000    0.000    0.000    0.000    0.000    0.000 
#
# Total GULP energy -396567.150488 kJ/mol
# GULP energy per Si atom -12392.723453 kJ/mol
# Density = 1.926279 g / cm^3
# Si number density = 19.306736 Si / 1000 Ang^3
#
#
#
# Elastic Constant Matrix: (Units=GPa)
#
#
# Indices 1 2 3 4 5 6 
#
# 1 69.2416 30.4396 40.0314 0.0000 4.2888 0.0000
# 2 30.4396 74.7422 62.4924 0.0000 4.8033 0.0000
# 3 40.0314 62.4924 126.1897 0.0000 -4.2890 0.0000
# 4 0.0000 0.0000 0.0000 25.3116 0.0000 1.7250
# 5 4.2888 4.8033 -4.2890 0.0000 20.1138 0.0000
# 6 0.0000 0.0000 0.0000 1.7250 0.0000 25.4400
#
#
#
# Elastic Compliance Matrix: (Units=1/GPa)
#
#
# Indices 1 2 3 4 5 6 
#
# 1 0.018820 -0.003935 -0.004156 0.000000 -0.003959 0.000000
# 2 -0.003935 0.024983 -0.011380 0.000000 -0.007554 0.000000
# 3 -0.004156 -0.011380 0.015111 0.000000 0.006826 0.000000
# 4 0.000000 0.000000 0.000000 0.039691 0.000000 -0.002691
# 5 -0.003959 -0.007554 0.006826 0.000000 0.053821 0.000000
# 6 0.000000 0.000000 0.000000 -0.002691 0.000000 0.039491
#
#
# Mechanical properties :
#
#
# Convention : Reuss Voigt Hill
#
# Bulk Modulus (GPa) = 50.07471 59.56671 54.82071
# Shear Modulus (GPa) = 21.05116 23.32041 22.18579
#
# Velocity S-wave (km/s) = 3.30563 3.47924 3.39355
# Velocity P-wave (km/s) = 6.36885 6.86003 6.61900
#
# Compressibility (1/GPa) = 0.01997016
#
# Stress axis : x y z
#
# Youngs Moduli (GPa) = 53.13422 40.02779 66.17763
#
# Poissons Ratio (x) = 0.15753 0.27504
# Poissons Ratio (y) = 0.20910 0.75312
# Poissons Ratio (z) = 0.22083 0.45553
#
# Static dielectric constant tensor:
#      x y z
#    x 3.609620 0.000000 -0.061440 
#    y 0.000000 3.511180 0.000000 
#    z -0.061440 0.000000 3.627550 
# 
# 
# High freq. dielectric constant tensor:
#      x y z
#    x 1.754150 0.000000 -0.004090 
#    y 0.000000 1.744340 0.000000 
#    z -0.004090 0.000000 1.738770 
# 
# From -- ./inp_files/333772.got.cif
#   From: 2010.06.25/outbox.cif.g09.slc.cpg/sg12_167_cif.got.tgz:333772.got - 2010.06.28 00:19:55.
