data_PCOD8091310
_publ_section_title
;
Structure prediction by ZEFSAII (Michael W. Deem and Ramdas Pophale) SiO2 
 PCOD8091310
Probable space group: C 2/M
;
_chemical_formula_sum "Si O2"
_cell_formula_units_Z 56
_cell_length_a 25.296028
_cell_length_b 8.985971
_cell_length_c 16.357576
_cell_angle_alpha 90.000000
_cell_angle_beta 55.500706
_cell_angle_gamma 90.000000
_cell_volume 3064.316966
_symmetry_space_group_name_H-M "C 2/M"
_symmetry_group_IT_number 12
_symmetry_cell_setting 'monoclinic'
loop_
_space_group_symop_operation_xyz
x,y,z
-x,y,-z
-x,-y,-z
x,-y,z
1/2+x,1/2+y,z
1/2-x,1/2+y,-z
1/2-x,1/2-y,-z
1/2+x,1/2-y,z
loop_
_atom_site_type_symbol
_atom_site_label
_atom_site_fract_x
_atom_site_fract_y
_atom_site_fract_z
Si Si1 0.601591 0.324085 0.405203
Si Si2 0.495932 0.323389 0.374968
Si Si3 0.266940 0.169433 0.735481
Si Si4 0.411113 0.823625 0.990265
Si Si5 0.518121 0.327919 0.795854
Si Si6 0.713410 0.327640 0.959708
Si Si7 0.871609 0.829240 0.184808
O O1 0.604133 0.500000 0.404518
O O2 0.563296 0.271353 0.356921
O O3 0.563155 0.264146 0.518223
O O4 0.673660 0.266737 0.345277
O O5 0.492826 0.500000 0.375289
O O6 0.489121 0.260882 0.289030
O O7 0.254444 0.195102 0.842016
O O8 0.203042 0.218808 0.741206
O O9 0.284693 0.000000 0.701074
O O10 0.354861 0.751123 0.986702
O O11 0.407932 0.771434 0.086743
O O12 0.406070 0.000000 0.990979
O O13 0.477467 0.770446 0.893536
O O14 0.495816 0.500000 0.819185
O O15 0.592383 0.313836 0.759907
O O16 0.702380 0.500000 0.989583
O O17 0.750000 0.250000 0.000000
O O18 0.872979 0.000000 0.151083
#
# Coordination Sequence:
#
# PCOD8091310 Si02
#       7
#     8   8   8   8   8   8   8
#     4   9  17  33  55  77 102 132 169 212 262 317
#     4   8  17  33  53  78 102 128 170 219 261 312
#     4   9  19  34  51  73 102 135 169 209 259 311
#     4  11  22  34  50  76 109 141 173 214 265 312
#     4  10  19  34  56  76  99 138 182 221 263 310
#     4  10  21  36  52  75 108 141 177 216 255 308
#     4   9  19  36  54  73 101 140 182 217 256 315
#
# _framework density 18.274871999999998
#
# number of rings (size 3 to 8) (size 9 to 14) (size 15 to 20)
#    0.000    2.571    0.000    3.857    2.000    5.143 
#    0.000    2.857    0.000    0.000    0.000    0.000 
#    0.000    0.000    0.000    0.000    0.000    0.000 
#
# Total GULP energy -347140.362329 kJ/mol
# GULP energy per Si atom -12397.870083 kJ/mol
# Density = 1.823328 g / cm^3
# Si number density = 18.274872 Si / 1000 Ang^3
#
#
#
# Elastic Constant Matrix: (Units=GPa)
#
#
# Indices 1 2 3 4 5 6 
#
# 1 127.1163 35.3104 62.3170 0.0000 -3.1327 0.0000
# 2 35.3104 71.7779 28.3905 0.0000 -4.8750 -0.0002
# 3 62.3170 28.3905 71.6228 0.0000 -11.1611 0.0000
# 4 0.0000 0.0000 0.0000 21.8569 0.0000 -7.3934
# 5 -3.1327 -4.8750 -11.1611 0.0000 30.2548 0.0000
# 6 0.0000 -0.0002 0.0000 -7.3934 0.0000 27.7700
#
#
#
# Elastic Compliance Matrix: (Units=1/GPa)
#
#
# Indices 1 2 3 4 5 6 
#
# 1 0.014392 -0.002548 -0.012036 0.000000 -0.003360 0.000000
# 2 -0.002548 0.016975 -0.004379 0.000000 0.000856 0.000000
# 3 -0.012036 -0.004379 0.027443 0.000000 0.008172 0.000000
# 4 0.000000 0.000000 0.000000 0.050280 0.000000 0.013387
# 5 -0.003360 0.000856 0.008172 0.000000 0.035857 0.000000
# 6 0.000000 0.000000 0.000000 0.013387 0.000000 0.039574
#
#
# Mechanical properties :
#
#
# Convention : Reuss Voigt Hill
#
# Bulk Modulus (GPa) = 47.87903 58.06144 52.97023
# Shear Modulus (GPa) = 21.79508 25.60961 23.70235
#
# Velocity S-wave (km/s) = 3.45719 3.74753 3.60528
# Velocity P-wave (km/s) = 6.49557 7.11094 6.81021
#
# Compressibility (1/GPa) = 0.02088597
#
# Stress axis : x y z
#
# Youngs Moduli (GPa) = 69.48210 58.90926 36.43857
#
# Poissons Ratio (x) = 0.15008 0.43858
# Poissons Ratio (y) = 0.17702 0.15956
# Poissons Ratio (z) = 0.83629 0.25795
#
# Static dielectric constant tensor:
#      x y z
#    x 3.594470 0.000000 0.052090 
#    y 0.000000 3.165300 0.000000 
#    z 0.052090 0.000000 3.305640 
# 
# 
# High freq. dielectric constant tensor:
#      x y z
#    x 1.722660 0.000000 -0.001590 
#    y 0.000000 1.689170 0.000000 
#    z -0.001590 0.000000 1.689430 
# 
# From -- ./inp_files/238378.got.cif
#   From: 2010.06.25/outbox.cif.g09.slc.cpg/sg12_120_cif.got.tgz:238378.got - 2010.06.28 00:19:55.
