data_PCOD8091288
_publ_section_title
;
Structure prediction by ZEFSAII (Michael W. Deem and Ramdas Pophale) SiO2 
 PCOD8091288
Probable space group: C 2/M
;
_chemical_formula_sum "Si O2"
_cell_formula_units_Z 60
_cell_length_a 10.936516
_cell_length_b 17.559207
_cell_length_c 14.277226
_cell_angle_alpha 90.000000
_cell_angle_beta 83.555292
_cell_angle_gamma 90.000000
_cell_volume 2724.423093
_symmetry_space_group_name_H-M "C 2/M"
_symmetry_group_IT_number 12
_symmetry_cell_setting 'monoclinic'
loop_
_space_group_symop_operation_xyz
x,y,z
-x,y,-z
-x,-y,-z
x,-y,z
1/2+x,1/2+y,z
1/2-x,1/2+y,-z
1/2-x,1/2-y,-z
1/2+x,1/2-y,z
loop_
_atom_site_type_symbol
_atom_site_label
_atom_site_fract_x
_atom_site_fract_y
_atom_site_fract_z
Si Si1 0.760245 0.658906 0.661075
Si Si2 0.119321 0.297677 0.645211
Si Si3 0.437293 0.820875 0.811374
Si Si4 0.500000 0.697802 0.500000
Si Si5 0.766498 0.089252 0.525989
Si Si6 0.098359 0.174709 0.072528
Si Si7 0.586331 0.582945 0.804491
Si Si8 0.211178 0.415509 0.052368
O O1 0.743560 0.746376 0.631019
O O2 0.868391 0.649517 0.725063
O O3 0.787517 0.601854 0.573628
O O4 0.626928 0.638266 0.717581
O O5 0.019413 0.254842 0.587089
O O6 0.159728 0.380777 0.605109
O O7 0.073843 0.307036 0.758285
O O8 0.377428 0.745655 0.861564
O O9 0.419707 0.885030 0.894216
O O10 0.387239 0.640792 0.528609
O O11 0.792475 0.000000 0.542680
O O12 0.041656 0.107296 0.138954
O O13 0.231595 0.144717 0.026570
O O14 0.000000 0.197830 0.000000
O O15 0.565980 0.500000 0.762287
O O16 0.691213 0.580471 0.873319
O O17 0.190689 0.500000 0.010964
#
# Coordination Sequence:
#
# PCOD8091288 Si02
#       8
#     8   8   8   4   8   8   8   8
#     4  10  20  36  57  84 120 155 198 240 297 353
#     4  11  21  38  60  88 121 162 202 244 295 362
#     4  11  21  35  58  86 113 158 199 242 291 361
#     4  10  21  42  65  90 120 166 204 244 301 358
#     4  11  23  39  63  93 127 160 199 250 301 358
#     4  10  19  34  55  85 109 146 195 247 300 349
#     4   9  16  30  53  82 113 139 181 243 300 343
#     4   9  19  33  52  79 112 147 185 241 301 349
#
# _framework density 22.023011
#
# number of rings (size 3 to 8) (size 9 to 14) (size 15 to 20)
#    0.000    1.867    1.333    4.600    0.000    2.667 
#    0.000    2.333    0.000    1.200    0.000    0.000 
#    0.000    0.000    0.000    0.000    0.000    0.000 
#
# Total GULP energy -371763.907777 kJ/mol
# GULP energy per Si atom -12392.130259 kJ/mol
# Density = 2.197289 g / cm^3
# Si number density = 22.023011 Si / 1000 Ang^3
#
#
#
# Elastic Constant Matrix: (Units=GPa)
#
#
# Indices 1 2 3 4 5 6 
#
# 1 27.4212 26.6227 7.2423 0.0000 -12.9605 0.0000
# 2 26.6227 127.2403 44.8091 0.0000 -23.2447 0.0000
# 3 7.2423 44.8091 86.0409 0.0000 -32.0220 0.0000
# 4 0.0000 0.0000 0.0000 30.6482 0.0000 -9.5133
# 5 -12.9605 -23.2447 -32.0220 0.0000 31.1392 0.0000
# 6 0.0000 0.0000 0.0000 -9.5133 0.0000 23.4337
#
#
#
# Elastic Compliance Matrix: (Units=1/GPa)
#
#
# Indices 1 2 3 4 5 6 
#
# 1 0.056661 -0.010781 0.010736 0.000000 0.026575 0.000000
# 2 -0.010781 0.011888 -0.005915 0.000000 -0.001695 0.000000
# 3 0.010736 -0.005915 0.022387 0.000000 0.023075 0.000000
# 4 0.000000 0.000000 0.000000 0.037333 0.000000 0.015156
# 5 0.026575 -0.001695 0.023075 0.000000 0.065638 0.000000
# 6 0.000000 0.000000 0.000000 0.015156 0.000000 0.048826
#
#
# Mechanical properties :
#
#
# Convention : Reuss Voigt Hill
#
# Bulk Modulus (GPa) = 12.65574 44.22785 28.44180
# Shear Modulus (GPa) = 17.79417 27.84609 22.82013
#
# Velocity S-wave (km/s) = 2.84558 3.55971 3.22249
# Velocity P-wave (km/s) = 4.06885 6.08453 5.17576
#
# Compressibility (1/GPa) = 0.07901551
#
# Stress axis : x y z
#
# Youngs Moduli (GPa) = 17.64898 84.11773 44.66935
#
# Poissons Ratio (x) = 0.90688 -0.47957
# Poissons Ratio (y) = 0.19028 0.26421
# Poissons Ratio (z) = -0.18948 0.49753
#
# Static dielectric constant tensor:
#      x y z
#    x 3.635230 0.000000 -0.297130 
#    y 0.000000 4.121390 0.000000 
#    z -0.297130 0.000000 4.146850 
# 
# 
# High freq. dielectric constant tensor:
#      x y z
#    x 1.833840 0.000000 -0.025940 
#    y 0.000000 1.865300 0.000000 
#    z -0.025940 0.000000 1.869100 
# 
# From -- ./inp_files/206155.got.cif
#   From: 2010.06.25/outbox.cif.g09.slc.cpg/sg12_104_cif.got.tgz:206155.got - 2010.06.28 00:19:55.
