data_PCOD8091998
_publ_section_title
;
Structure prediction by ZEFSAII (Michael W. Deem and Ramdas Pophale) SiO2 
 PCOD8091998
Probable space group: C 2/M
;
_chemical_formula_sum "Si O2"
_cell_formula_units_Z 64
_cell_length_a 28.367139
_cell_length_b 8.937719
_cell_length_c 18.215508
_cell_angle_alpha 90.000000
_cell_angle_beta 43.504490
_cell_angle_gamma 90.000000
_cell_volume 3179.300552
_symmetry_space_group_name_H-M "C 2/M"
_symmetry_group_IT_number 12
_symmetry_cell_setting 'monoclinic'
loop_
_space_group_symop_operation_xyz
x,y,z
-x,y,-z
-x,-y,-z
x,-y,z
1/2+x,1/2+y,z
1/2-x,1/2+y,-z
1/2-x,1/2-y,-z
1/2+x,1/2-y,z
loop_
_atom_site_type_symbol
_atom_site_label
_atom_site_fract_x
_atom_site_fract_y
_atom_site_fract_z
Si Si1 0.784595 0.176096 0.030073
Si Si2 0.943567 0.323074 0.362394
Si Si3 0.820130 0.677935 0.396106
Si Si4 0.823366 0.326689 0.229119
Si Si5 0.710831 0.328584 0.246349
Si Si6 0.566141 0.325636 0.471477
Si Si7 0.445171 0.169141 0.998684
Si Si8 0.442107 0.324005 0.857160
O O1 0.744132 0.222808 0.148450
O O2 0.780036 0.000000 0.027139
O O3 0.750000 0.250000 0.000000
O O4 0.863367 0.229135 0.942569
O O5 0.951130 0.500000 0.352041
O O6 0.882159 0.269832 0.378231
O O7 0.927487 0.270895 0.462514
O O8 0.015130 0.251054 0.256473
O O9 0.811728 0.500000 0.406133
O O10 0.750000 0.750000 0.500000
O O11 0.832852 0.741550 0.299446
O O12 0.843066 0.500000 0.212717
O O13 0.746913 0.300990 0.284674
O O14 0.876070 0.257189 0.110354
O O15 0.721149 0.500000 0.209351
O O16 0.631142 0.290597 0.346399
O O17 0.500000 0.276576 0.500000
O O18 0.563317 0.500000 0.496439
O O19 0.471938 0.269423 0.901375
O O20 0.433493 0.000000 0.982656
O O21 0.500000 0.171341 0.000000
O O22 0.449964 0.500000 0.840431
#
# Coordination Sequence:
#
# PCOD8091998 Si02
#       8
#     8   8   8   8   8   8   8   8
#     4  11  25  42  63  91 123 160 203 257 313 370
#     4  11  24  41  63  92 128 166 208 256 305 365
#     4  10  21  38  60  89 122 160 206 251 300 357
#     4   9  17  32  56  83 113 152 196 238 287 351
#     4  10  20  38  64  90 119 158 202 251 306 367
#     4  10  23  42  64  90 122 160 204 256 311 367
#     4  10  19  34  58  86 119 159 201 245 294 354
#     4  11  24  41  61  89 127 165 204 253 308 367
#
# _framework density 20.130213999999999
#
# number of rings (size 3 to 8) (size 9 to 14) (size 15 to 20)
#    0.000    1.750    1.250    2.625    1.750    6.500 
#    0.000    1.250    0.000    0.000    0.000    0.000 
#    0.000    0.000    0.000    0.000    0.000    0.000 
#
# Total GULP energy -396865.116516 kJ/mol
# GULP energy per Si atom -12402.034891 kJ/mol
# Density = 2.008440 g / cm^3
# Si number density = 20.130214 Si / 1000 Ang^3
#
#
#
# Elastic Constant Matrix: (Units=GPa)
#
#
# Indices 1 2 3 4 5 6 
#
# 1 116.5574 38.4052 47.1006 0.0073 -2.8489 -0.0015
# 2 38.4052 58.1250 37.7527 0.0334 -2.0390 -0.0312
# 3 47.1006 37.7527 114.1129 0.0283 -8.2561 -0.0246
# 4 0.0073 0.0334 0.0283 37.4257 -0.0100 3.9119
# 5 -2.8489 -2.0390 -8.2561 -0.0100 38.6138 0.0042
# 6 -0.0015 -0.0312 -0.0246 3.9119 0.0042 23.7488
#
#
#
# Elastic Compliance Matrix: (Units=1/GPa)
#
#
# Indices 1 2 3 4 5 6 
#
# 1 0.011668 -0.005835 -0.002891 0.000006 -0.000065 -0.000011
# 2 -0.005835 0.024837 -0.005835 -0.000020 -0.000367 0.000030
# 3 -0.002891 -0.005835 0.012035 -0.000003 0.002052 0.000005
# 4 0.000006 -0.000020 -0.000003 0.027188 0.000006 -0.004478
# 5 -0.000065 -0.000367 0.002052 0.000006 0.026312 -0.000004
# 6 -0.000011 0.000030 0.000005 -0.004478 -0.000004 0.042845
#
#
# Mechanical properties :
#
#
# Convention : Reuss Voigt Hill
#
# Bulk Modulus (GPa) = 51.49417 59.47915 55.48666
# Shear Modulus (GPa) = 27.70409 30.99347 29.34878
#
# Velocity S-wave (km/s) = 3.71380 3.92809 3.82245
# Velocity P-wave (km/s) = 6.63520 7.08411 6.86332
#
# Compressibility (1/GPa) = 0.01941967
#
# Stress axis : x y z
#
# Youngs Moduli (GPa) = 85.70131 40.26331 83.08902
#
# Poissons Ratio (x) = 0.23492 0.24018
# Poissons Ratio (y) = 0.50003 0.48483
# Poissons Ratio (z) = 0.24773 0.23494
#
# Static dielectric constant tensor:
#      x y z
#    x 3.745440 -0.000060 -0.017940 
#    y -0.000060 3.503320 0.000040 
#    z -0.017940 0.000040 3.835890 
# 
# 
# High freq. dielectric constant tensor:
#      x y z
#    x 1.796570 0.000000 -0.003090 
#    y 0.000000 1.763980 0.000000 
#    z -0.003090 0.000000 1.798830 
# 
# From -- ./inp_files/295565.got.cif
#   From: 2010.06.25/outbox.cif.g09.slc.cpg/sg12_148_cif.got.tgz:295565.got - 2010.06.28 00:19:55.
