data_PCOD8091317
_publ_section_title
;
Structure prediction by ZEFSAII (Michael W. Deem and Ramdas Pophale) SiO2 
 PCOD8091317
Probable space group: C 2/M
;
_chemical_formula_sum "Si O2"
_cell_formula_units_Z 64
_cell_length_a 20.847040
_cell_length_b 8.916701
_cell_length_c 23.311355
_cell_angle_alpha 90.000000
_cell_angle_beta 128.803283
_cell_angle_gamma 90.000000
_cell_volume 3376.929126
_symmetry_space_group_name_H-M "C 2/M"
_symmetry_group_IT_number 12
_symmetry_cell_setting 'monoclinic'
loop_
_space_group_symop_operation_xyz
x,y,z
-x,y,-z
-x,-y,-z
x,-y,z
1/2+x,1/2+y,z
1/2-x,1/2+y,-z
1/2-x,1/2-y,-z
1/2+x,1/2-y,z
loop_
_atom_site_type_symbol
_atom_site_label
_atom_site_fract_x
_atom_site_fract_y
_atom_site_fract_z
Si Si1 0.915423 0.335095 0.483277
Si Si2 0.385192 0.677920 0.217427
Si Si3 0.222687 0.325347 0.189426
Si Si4 0.469831 0.823747 0.636768
Si Si5 0.953844 0.821437 0.917167
Si Si6 0.725627 0.325742 0.654195
Si Si7 0.130481 0.832038 0.326442
Si Si8 0.978172 0.832910 0.161106
O O1 0.871794 0.500000 0.463416
O O2 0.934291 0.266777 0.556429
O O3 0.865339 0.216599 0.417059
O O4 0.000000 0.360868 0.500000
O O5 0.400484 0.500000 0.226744
O O6 0.290441 0.718178 0.178603
O O7 0.443918 0.744644 0.299441
O O8 0.412493 0.742350 0.169236
O O9 0.201292 0.500000 0.174039
O O10 0.139363 0.235647 0.132345
O O11 0.262175 0.283193 0.272584
O O12 0.399847 0.782267 0.642708
O O13 0.486409 0.000000 0.645467
O O14 0.007031 0.754281 0.892826
O O15 0.949831 0.000000 0.909728
O O16 0.000000 0.767208 0.000000
O O17 0.743567 0.500000 0.654011
O O18 0.782911 0.225559 0.646613
O O19 0.068239 0.832461 0.238692
O O20 0.139299 0.000000 0.356641
O O21 0.945534 0.000000 0.131230
#
# Coordination Sequence:
#
# PCOD8091317 Si02
#       8
#     8   8   8   8   8   8   8   8
#     4  10  22  38  53  72 103 144 182 219 273 332
#     4   9  18  34  56  79 107 146 187 221 269 329
#     4  10  21  36  55  82 112 141 178 229 277 322
#     4  10  20  34  53  79 109 138 179 231 273 313
#     4  10  20  35  57  83 110 142 182 225 268 322
#     4  11  22  34  53  80 106 135 178 230 276 318
#     4  10  19  34  56  77 102 142 181 218 271 327
#     4   8  15  31  54  78 103 139 180 216 259 318
#
# _framework density 18.95213
#
# number of rings (size 3 to 8) (size 9 to 14) (size 15 to 20)
#    0.000    2.250    1.250    2.625    0.000    3.000 
#    0.000    0.625    0.000    0.000    0.000    0.000 
#    0.000    0.000    0.000    0.000    0.000    0.000 
#
# Total GULP energy -396612.064180 kJ/mol
# GULP energy per Si atom -12394.127006 kJ/mol
# Density = 1.890899 g / cm^3
# Si number density = 18.952130 Si / 1000 Ang^3
#
#
#
# Elastic Constant Matrix: (Units=GPa)
#
#
# Indices 1 2 3 4 5 6 
#
# 1 115.6830 25.4689 60.1860 0.0000 -5.4376 0.0000
# 2 25.4689 40.8147 32.5465 0.0000 0.6724 0.0000
# 3 60.1860 32.5465 123.1299 0.0000 -14.8253 0.0000
# 4 0.0000 0.0000 0.0000 22.2648 0.0000 4.6896
# 5 -5.4376 0.6724 -14.8253 0.0000 19.3371 0.0000
# 6 0.0000 0.0000 0.0000 4.6896 0.0000 28.5135
#
#
#
# Elastic Compliance Matrix: (Units=1/GPa)
#
#
# Indices 1 2 3 4 5 6 
#
# 1 0.011988 -0.003513 -0.004969 0.000000 -0.000317 0.000000
# 2 -0.003513 0.033276 -0.008083 0.000000 -0.008342 0.000000
# 3 -0.004969 -0.008083 0.013829 0.000000 0.009486 0.000000
# 4 0.000000 0.000000 0.000000 0.046526 0.000000 -0.007652
# 5 -0.000317 -0.008342 0.009486 0.000000 0.059188 0.000000
# 6 0.000000 0.000000 0.000000 -0.007652 0.000000 0.036330
#
#
# Mechanical properties :
#
#
# Convention : Reuss Voigt Hill
#
# Bulk Modulus (GPa) = 38.51649 57.33671 47.92660
# Shear Modulus (GPa) = 20.58274 24.78485 22.68380
#
# Velocity S-wave (km/s) = 3.29909 3.62022 3.46338
# Velocity P-wave (km/s) = 5.90585 6.91330 6.42934
#
# Compressibility (1/GPa) = 0.02596291
#
# Stress axis : x y z
#
# Youngs Moduli (GPa) = 83.41491 30.05160 72.31006
#
# Poissons Ratio (x) = 0.10557 0.35934
# Poissons Ratio (y) = 0.29302 0.58449
# Poissons Ratio (z) = 0.41453 0.24291
#
# Static dielectric constant tensor:
#      x y z
#    x 3.699520 0.000000 -0.364090 
#    y 0.000000 3.341120 0.000000 
#    z -0.364090 0.000000 3.573280 
# 
# 
# High freq. dielectric constant tensor:
#      x y z
#    x 1.747820 0.000000 -0.013870 
#    y 0.000000 1.719460 0.000000 
#    z -0.013870 0.000000 1.720920 
# 
# From -- ./inp_files/320174.got.cif
#   From: 2010.06.25/outbox.cif.g09.slc.cpg/sg12_161_cif.got.tgz:320174.got - 2010.06.28 00:19:55.
