data_PCOD8091239
_publ_section_title
;
Structure prediction by ZEFSAII (Michael W. Deem and Ramdas Pophale) SiO2 
 PCOD8091239
Probable space group: C 2/M
;
_chemical_formula_sum "Si O2"
_cell_formula_units_Z 64
_cell_length_a 19.615350
_cell_length_b 8.993462
_cell_length_c 31.307382
_cell_angle_alpha 90.000000
_cell_angle_beta 37.563158
_cell_angle_gamma 90.000000
_cell_volume 3366.976047
_symmetry_space_group_name_H-M "C 2/M"
_symmetry_group_IT_number 12
_symmetry_cell_setting 'monoclinic'
loop_
_space_group_symop_operation_xyz
x,y,z
-x,y,-z
-x,-y,-z
x,-y,z
1/2+x,1/2+y,z
1/2-x,1/2+y,-z
1/2-x,1/2-y,-z
1/2+x,1/2-y,z
loop_
_atom_site_type_symbol
_atom_site_label
_atom_site_fract_x
_atom_site_fract_y
_atom_site_fract_z
Si Si1 0.499143 0.171530 0.303395
Si Si2 0.404068 0.675949 0.187899
Si Si3 0.641011 0.324023 0.034731
Si Si4 0.124313 0.666787 0.954758
Si Si5 0.888913 0.676056 0.534199
Si Si6 0.153757 0.177204 0.688800
Si Si7 0.364837 0.825718 0.451016
Si Si8 0.239471 0.827603 0.821411
O O1 0.447558 0.264252 0.290055
O O2 0.450123 0.228407 0.372618
O O3 0.629291 0.197434 0.245151
O O4 0.470434 0.000000 0.308900
O O5 0.402721 0.500000 0.189886
O O6 0.529876 0.731922 0.114888
O O7 0.365197 0.737230 0.253445
O O8 0.317857 0.730298 0.194031
O O9 0.653123 0.500000 0.031620
O O10 0.750000 0.250000 0.000000
O O11 0.632188 0.277857 0.990189
O O12 0.163554 0.500000 0.948072
O O13 0.201387 0.727415 0.879231
O O14 0.000000 0.663687 0.000000
O O15 0.886731 0.500000 0.541250
O O16 0.773443 0.738632 0.612128
O O17 0.905015 0.725136 0.477459
O O18 0.000000 0.745368 0.500000
O O19 0.150379 0.000000 0.688902
O O20 0.250000 0.750000 0.500000
O O21 0.347062 0.000000 0.458396
O O22 0.207523 0.000000 0.845067
#
# Coordination Sequence:
#
# PCOD8091239 Si02
#       8
#     8   8   8   8   8   8   8   8
#     4  10  22  36  55  83 115 148 186 234 283 337
#     4   9  20  37  58  82 111 147 188 232 279 337
#     4  11  23  40  61  87 118 155 195 239 291 347
#     4  11  23  40  62  88 116 149 194 247 294 343
#     4   9  18  31  53  83 109 141 187 233 275 322
#     4  10  20  36  57  81 112 149 188 231 279 336
#     4  10  19  34  55  81 111 145 185 232 280 332
#     4  10  21  39  60  84 113 152 193 233 289 346
#
# _framework density 19.008154999999999
#
# number of rings (size 3 to 8) (size 9 to 14) (size 15 to 20)
#    0.000    2.000    2.500    0.750    3.500    1.000 
#    0.000    1.250    0.000    1.500    0.000    0.000 
#    0.000    0.000    0.000    0.000    0.000    0.000 
#
# Total GULP energy -396738.766818 kJ/mol
# GULP energy per Si atom -12398.086463 kJ/mol
# Density = 1.896489 g / cm^3
# Si number density = 19.008155 Si / 1000 Ang^3
#
#
#
# Elastic Constant Matrix: (Units=GPa)
#
#
# Indices 1 2 3 4 5 6 
#
# 1 136.6475 31.7861 65.8672 0.0009 3.5507 0.0410
# 2 31.7861 37.6248 30.8377 -0.0023 -0.3999 0.0206
# 3 65.8672 30.8377 136.6086 0.0002 10.4743 0.0029
# 4 0.0009 -0.0023 0.0002 22.2717 -0.0026 -2.3902
# 5 3.5507 -0.3999 10.4743 -0.0026 40.4603 0.0017
# 6 0.0410 0.0206 0.0029 -2.3902 0.0017 33.8605
#
#
#
# Elastic Compliance Matrix: (Units=1/GPa)
#
#
# Indices 1 2 3 4 5 6 
#
# 1 0.010465 -0.005774 -0.003742 -0.000002 -0.000007 -0.000009
# 2 -0.005774 0.036004 -0.005519 0.000003 0.002291 -0.000014
# 3 -0.003742 -0.005519 0.010559 0.000000 -0.002460 0.000007
# 4 -0.000002 0.000003 0.000000 0.045243 0.000003 0.003194
# 5 -0.000007 0.002291 -0.002460 0.000003 0.025376 -0.000002
# 6 -0.000009 -0.000014 0.000007 0.003194 -0.000002 0.029758
#
#
# Mechanical properties :
#
#
# Convention : Reuss Voigt Hill
#
# Bulk Modulus (GPa) = 37.09510 63.09588 50.09549
# Shear Modulus (GPa) = 25.45029 31.47783 28.46406
#
# Velocity S-wave (km/s) = 3.66309 4.07383 3.87391
# Velocity P-wave (km/s) = 6.11953 7.44274 6.81333
#
# Compressibility (1/GPa) = 0.02695774
#
# Stress axis : x y z
#
# Youngs Moduli (GPa) = 95.55544 27.77446 94.70764
#
# Poissons Ratio (x) = 0.16038 0.35438
# Poissons Ratio (y) = 0.55177 0.52270
# Poissons Ratio (z) = 0.35756 0.15329
#
# Static dielectric constant tensor:
#      x y z
#    x 3.715070 -0.000010 0.078060 
#    y -0.000010 3.299310 0.000010 
#    z 0.078060 0.000010 3.775710 
# 
# 
# High freq. dielectric constant tensor:
#      x y z
#    x 1.752360 0.000000 0.002020 
#    y 0.000000 1.708110 0.000000 
#    z 0.002020 0.000000 1.754250 
# 
# From -- ./inp_files/377960.got.cif
#   From: 2010.06.25/outbox.cif.g09.slc.cpg/sg12_189_cif.got.tgz:377960.got - 2010.06.28 00:19:55.
