data_PCOD8091196
_publ_section_title
;
Structure prediction by ZEFSAII (Michael W. Deem and Ramdas Pophale) SiO2 
 PCOD8091196
Probable space group: C 2/M
;
_chemical_formula_sum "Si O2"
_cell_formula_units_Z 48
_cell_length_a 23.685525
_cell_length_b 8.689935
_cell_length_c 20.643689
_cell_angle_alpha 90.000000
_cell_angle_beta 141.124704
_cell_angle_gamma 90.000000
_cell_volume 2666.789761
_symmetry_space_group_name_H-M "C 2/M"
_symmetry_group_IT_number 12
_symmetry_cell_setting 'monoclinic'
loop_
_space_group_symop_operation_xyz
x,y,z
-x,y,-z
-x,-y,-z
x,-y,z
1/2+x,1/2+y,z
1/2-x,1/2+y,-z
1/2-x,1/2-y,-z
1/2+x,1/2-y,z
loop_
_atom_site_type_symbol
_atom_site_label
_atom_site_fract_x
_atom_site_fract_y
_atom_site_fract_z
Si Si1 0.542814 0.816745 0.355359
Si Si2 0.273906 0.826322 0.428299
Si Si3 0.943292 0.180916 0.386811
Si Si4 0.076412 0.321256 0.120483
Si Si5 0.924387 0.816432 0.744784
Si Si6 0.266112 0.824754 0.272011
O O1 0.642637 0.747698 0.460128
O O2 0.475278 0.761582 0.349885
O O3 0.515188 0.747604 0.260481
O O4 0.541154 0.000000 0.351898
O O5 0.177350 0.748883 0.356149
O O6 0.296573 0.817483 0.373191
O O7 0.267185 0.000000 0.446485
O O8 0.838355 0.223643 0.297885
O O9 0.000000 0.240367 0.500000
O O10 0.955155 0.000000 0.389811
O O11 0.095813 0.500000 0.149118
O O12 0.040642 0.247326 0.155505
O O13 0.166614 0.242533 0.174222
O O14 0.000000 0.291190 0.000000
O O15 0.926890 0.000000 0.750032
O O16 0.266804 0.000000 0.247076
#
# Coordination Sequence:
#
# PCOD8091196 Si02
#       6
#     8   8   8   8   8   8
#     4  11  20  32  50  73 107 149 185 219 263 313
#     4   8  16  29  47  72 103 140 176 215 258 308
#     4  11  22  34  50  76 110 150 189 223 260 311
#     4  10  21  38  60  84 108 136 174 223 276 326
#     4  10  20  34  51  77 108 139 179 222 270 322
#     4  10  19  34  55  80 108 141 183 225 267 315
#
# _framework density 17.999168999999998
#
# number of rings (size 3 to 8) (size 9 to 14) (size 15 to 20)
#    0.000    2.000    1.667    4.000    0.000    2.000 
#    0.000    1.667    0.000    1.000    0.000    0.000 
#    0.000    0.000    0.000    0.000    0.000    0.000 
#
# Total GULP energy -297531.845018 kJ/mol
# GULP energy per Si atom -12397.160209 kJ/mol
# Density = 1.795820 g / cm^3
# Si number density = 17.999169 Si / 1000 Ang^3
#
#
#
# Elastic Constant Matrix: (Units=GPa)
#
#
# Indices 1 2 3 4 5 6 
#
# 1 108.8302 35.5598 43.3397 0.0000 -17.8694 0.0000
# 2 35.5598 83.0116 37.0172 0.0000 -6.7922 0.0000
# 3 43.3397 37.0172 73.7197 0.0000 -4.9518 0.0000
# 4 0.0000 0.0000 0.0000 23.1490 0.0000 -1.0266
# 5 -17.8694 -6.7922 -4.9518 0.0000 15.2333 0.0000
# 6 0.0000 0.0000 0.0000 -1.0266 0.0000 33.0349
#
#
#
# Elastic Compliance Matrix: (Units=1/GPa)
#
#
# Indices 1 2 3 4 5 6 
#
# 1 0.014945 -0.002241 -0.006696 0.000000 0.014355 0.000000
# 2 -0.002241 0.016164 -0.006636 0.000000 0.002421 0.000000
# 3 -0.006696 -0.006636 0.020556 0.000000 -0.004132 0.000000
# 4 0.000000 0.000000 0.000000 0.043258 0.000000 0.001344
# 5 0.014355 0.002421 -0.004132 0.000000 0.082221 0.000000
# 6 0.000000 0.000000 0.000000 0.001344 0.000000 0.030313
#
#
# Mechanical properties :
#
#
# Convention : Reuss Voigt Hill
#
# Bulk Modulus (GPa) = 48.73916 55.26608 52.00262
# Shear Modulus (GPa) = 20.37131 24.25974 22.31552
#
# Velocity S-wave (km/s) = 3.36786 3.67526 3.52491
# Velocity P-wave (km/s) = 6.50082 6.98437 6.74693
#
# Compressibility (1/GPa) = 0.02051738
#
# Stress axis : x y z
#
# Youngs Moduli (GPa) = 66.91389 61.86600 48.64675
#
# Poissons Ratio (x) = 0.13866 0.32575
# Poissons Ratio (y) = 0.14997 0.32283
# Poissons Ratio (z) = 0.44807 0.41056
#
# Static dielectric constant tensor:
#      x y z
#    x 3.356290 0.000000 -0.045740 
#    y 0.000000 3.286340 0.000000 
#    z -0.045740 0.000000 3.120070 
# 
# 
# High freq. dielectric constant tensor:
#      x y z
#    x 1.699560 0.000000 -0.006180 
#    y 0.000000 1.699950 0.000000 
#    z -0.006180 0.000000 1.663910 
# 
# From -- ./inp_files/287131.got.cif
#   From: 2010.06.25/outbox.cif.g09.slc.cpg/sg12_144_cif.got.tgz:287131.got - 2010.06.28 00:19:55.
