data_PCOD8091538
_publ_section_title
;
Structure prediction by ZEFSAII (Michael W. Deem and Ramdas Pophale) SiO2 
 PCOD8091538
Probable space group: C 2/M
;
_chemical_formula_sum "Si O2"
_cell_formula_units_Z 52
_cell_length_a 13.267175
_cell_length_b 14.087881
_cell_length_c 21.141925
_cell_angle_alpha 90.000000
_cell_angle_beta 43.920683
_cell_angle_gamma 90.000000
_cell_volume 2741.047089
_symmetry_space_group_name_H-M "C 2/M"
_symmetry_group_IT_number 12
_symmetry_cell_setting 'monoclinic'
loop_
_space_group_symop_operation_xyz
x,y,z
-x,y,-z
-x,-y,-z
x,-y,z
1/2+x,1/2+y,z
1/2-x,1/2+y,-z
1/2-x,1/2-y,-z
1/2+x,1/2-y,z
loop_
_atom_site_type_symbol
_atom_site_label
_atom_site_fract_x
_atom_site_fract_y
_atom_site_fract_z
Si Si1 0.500000 0.238798 0.500000
Si Si2 0.343333 0.740684 0.781475
Si Si3 0.258246 0.603189 0.617505
Si Si4 0.871626 0.393144 0.187911
Si Si5 0.896156 0.305598 0.418444
Si Si6 0.589655 0.611001 0.896414
Si Si7 0.596276 0.262669 0.100711
O O1 0.634370 0.308560 0.427511
O O2 0.529223 0.170250 0.547234
O O3 0.257753 0.648586 0.796008
O O4 0.486153 0.745235 0.673518
O O5 0.243931 0.835100 0.823754
O O6 0.396003 0.724479 0.828319
O O7 0.337558 0.500000 0.579473
O O8 0.160430 0.609844 0.723406
O O9 0.152488 0.606475 0.603458
O O10 0.901248 0.500000 0.151201
O O11 0.014821 0.331434 0.113542
O O12 0.750000 0.250000 0.500000
O O13 0.624095 0.500000 0.875275
O O14 0.488364 0.643752 0.884437
O O15 0.500000 0.636077 0.000000
O O16 0.750000 0.250000 0.000000
#
# Coordination Sequence:
#
# PCOD8091538 Si02
#       7
#     4   8   8   8   8   8   8
#     4  10  19  36  57  80 112 148 184 230 287 340
#     4  11  21  39  60  82 121 155 190 237 291 340
#     4  10  19  34  56  85 110 142 190 235 279 336
#     4  10  22  37  58  87 115 148 192 235 284 343
#     4  10  21  35  57  86 112 151 192 236 285 339
#     4  10  22  38  59  87 117 153 196 235 286 351
#     4  11  22  38  60  86 117 153 188 236 287 345
#
# _framework density 18.970852000000001
#
# number of rings (size 3 to 8) (size 9 to 14) (size 15 to 20)
#    0.000    1.692    4.615    0.231    0.000    2.462 
#    0.000    1.154    0.000    3.692    0.000    0.000 
#    0.000    0.000    0.000    0.000    0.000    0.000 
#
# Total GULP energy -322239.311258 kJ/mol
# GULP energy per Si atom -12393.819664 kJ/mol
# Density = 1.892767 g / cm^3
# Si number density = 18.970852 Si / 1000 Ang^3
#
#
#
# Elastic Constant Matrix: (Units=GPa)
#
#
# Indices 1 2 3 4 5 6 
#
# 1 129.9753 32.7314 41.5049 0.0000 11.2586 0.0000
# 2 32.7314 90.9606 25.8110 0.0000 -4.0757 0.0000
# 3 41.5049 25.8110 101.9606 -0.0001 -10.8400 -0.0001
# 4 0.0000 0.0000 -0.0001 1.5779 0.0000 -15.7294
# 5 11.2586 -4.0757 -10.8400 0.0000 33.2334 0.0000
# 6 0.0000 0.0000 -0.0001 -15.7294 0.0000 -9.1408
#
#
#
# Elastic Compliance Matrix: (Units=1/GPa)
#
#
# Indices 1 2 3 4 5 6 
#
# 1 0.010078 -0.002732 -0.003946 0.000000 -0.005037 0.000000
# 2 -0.002732 0.012593 -0.001878 0.000000 0.001858 0.000000
# 3 -0.003946 -0.001878 0.012439 0.000000 0.005164 0.000000
# 4 0.000000 0.000000 0.000000 0.034910 0.000000 -0.060073
# 5 -0.005037 0.001858 0.005164 0.000000 0.033709 0.000000
# 6 0.000000 0.000000 0.000000 -0.060073 0.000000 -0.006026
#
#
# Mechanical properties :
#
#
# Convention : Reuss Voigt Hill
#
# Bulk Modulus (GPa) = 55.56721 58.11014 56.83868
# Shear Modulus (GPa) = 41.38556 19.99073 30.68815
#
# Velocity S-wave (km/s) = 4.67576 3.24969 4.02636
# Velocity P-wave (km/s) = 7.64884 6.69167 7.18621
#
# Compressibility (1/GPa) = 0.01799622
#
# Stress axis : x y z
#
# Youngs Moduli (GPa) = 99.22282 79.40795 80.39512
#
# Poissons Ratio (x) = 0.21698 0.31726
# Poissons Ratio (y) = 0.27112 0.15099
# Poissons Ratio (z) = 0.39156 0.14914
#
# Static dielectric constant tensor:
#      x y z
#    x 4.008600 0.000000 0.256240 
#    y 0.000000 3.376670 0.000000 
#    z 0.256240 0.000000 3.675750 
# 
# 
# High freq. dielectric constant tensor:
#      x y z
#    x 1.756320 0.000000 0.002080 
#    y 0.000000 1.713420 0.000000 
#    z 0.002080 0.000000 1.745760 
# 
# From -- ./inp_files/296800.got.cif
#   From: 2010.06.25/outbox.cif.g09.slc.cpg/sg12_149_cif.got.tgz:296800.got - 2010.06.28 00:19:55.
