data_PCOD8091129
_publ_section_title
;
Structure prediction by ZEFSAII (Michael W. Deem and Ramdas Pophale) SiO2 
 PCOD8091129
Probable space group: C 2/M
;
_chemical_formula_sum "Si O2"
_cell_formula_units_Z 56
_cell_length_a 18.760974
_cell_length_b 9.260728
_cell_length_c 24.119109
_cell_angle_alpha 90.000000
_cell_angle_beta 134.513584
_cell_angle_gamma 90.000000
_cell_volume 2988.151530
_symmetry_space_group_name_H-M "C 2/M"
_symmetry_group_IT_number 12
_symmetry_cell_setting 'monoclinic'
loop_
_space_group_symop_operation_xyz
x,y,z
-x,y,-z
-x,-y,-z
x,-y,z
1/2+x,1/2+y,z
1/2-x,1/2+y,-z
1/2-x,1/2-y,-z
1/2+x,1/2-y,z
loop_
_atom_site_type_symbol
_atom_site_label
_atom_site_fract_x
_atom_site_fract_y
_atom_site_fract_z
Si Si1 0.531687 0.159116 0.166915
Si Si2 0.234748 0.164267 0.436043
Si Si3 0.389986 0.834995 0.426249
Si Si4 0.841943 0.168716 0.076917
Si Si5 0.051994 0.342342 0.305242
Si Si6 0.753471 0.167854 0.265028
Si Si7 0.869896 0.835810 0.220509
O O1 0.442983 0.269547 0.102871
O O2 0.519863 0.135090 0.225287
O O3 0.640154 0.226657 0.210617
O O4 0.518070 0.000000 0.130946
O O5 0.250000 0.250000 0.500000
O O6 0.333619 0.174545 0.453702
O O7 0.146811 0.239403 0.354515
O O8 0.205532 0.000000 0.433385
O O9 0.500000 0.771750 0.500000
O O10 0.333077 0.746349 0.347818
O O11 0.397234 0.000000 0.409256
O O12 0.834395 0.196754 0.138761
O O13 0.836680 0.000000 0.060077
O O14 0.750000 0.250000 0.000000
O O15 0.074506 0.500000 0.344875
O O16 0.961695 0.266348 0.288918
O O17 0.780938 0.192761 0.215560
O O18 0.755598 0.000000 0.283144
O O19 0.908167 0.000000 0.245708
#
# Coordination Sequence:
#
# PCOD8091129 Si02
#       7
#     8   8   8   8   8   8   8
#     4   9  18  34  57  82 108 141 181 221 269 328
#     4  11  23  37  54  76 107 142 184 233 280 332
#     4  10  23  40  55  77 111 149 187 232 286 334
#     4  10  20  36  59  85 115 147 183 224 271 325
#     4  10  19  34  55  78 105 140 183 229 274 325
#     4  10  20  37  59  83 111 145 186 231 277 333
#     4   9  20  36  56  84 113 144 183 226 274 327
#
# _framework density 18.740682
#
# number of rings (size 3 to 8) (size 9 to 14) (size 15 to 20)
#    0.000    2.143    1.429    1.286    2.000    3.143 
#    0.000    0.714    0.000    4.286    0.000    0.000 
#    0.000    0.000    0.000    0.000    0.000    0.000 
#
# Total GULP energy -347107.884530 kJ/mol
# GULP energy per Si atom -12396.710162 kJ/mol
# Density = 1.869803 g / cm^3
# Si number density = 18.740682 Si / 1000 Ang^3
#
#
#
# Elastic Constant Matrix: (Units=GPa)
#
#
# Indices 1 2 3 4 5 6 
#
# 1 103.0566 47.9661 49.6870 0.0000 22.6755 0.0000
# 2 47.9661 123.4260 66.5411 0.0000 16.8945 0.0000
# 3 49.6870 66.5411 108.2164 0.0000 31.6721 0.0000
# 4 0.0000 0.0000 0.0000 33.5844 0.0000 6.6171
# 5 22.6755 16.8945 31.6721 0.0000 31.8822 0.0000
# 6 0.0000 0.0000 0.0000 6.6171 0.0000 24.3729
#
#
#
# Elastic Compliance Matrix: (Units=1/GPa)
#
#
# Indices 1 2 3 4 5 6 
#
# 1 0.013656 -0.003047 -0.002858 0.000000 -0.005260 0.000000
# 2 -0.003047 0.012843 -0.007248 0.000000 0.002561 0.000000
# 3 -0.002858 -0.007248 0.018739 0.000000 -0.012742 0.000000
# 4 0.000000 0.000000 0.000000 0.031458 0.000000 -0.008541
# 5 -0.005260 0.002561 -0.012742 0.000000 0.046407 0.000000
# 6 0.000000 0.000000 0.000000 -0.008541 0.000000 0.043348
#
#
# Mechanical properties :
#
#
# Convention : Reuss Voigt Hill
#
# Bulk Modulus (GPa) = 52.81495 73.67639 63.24567
# Shear Modulus (GPa) = 25.11723 29.33489 27.22606
#
# Velocity S-wave (km/s) = 3.66492 3.96069 3.81567
# Velocity P-wave (km/s) = 6.79352 7.76627 7.29613
#
# Compressibility (1/GPa) = 0.01893403
#
# Stress axis : x y z
#
# Youngs Moduli (GPa) = 73.22549 77.86481 53.36586
#
# Poissons Ratio (x) = 0.23723 0.15249
# Poissons Ratio (y) = 0.22310 0.38678
# Poissons Ratio (z) = 0.20924 0.56434
#
# Static dielectric constant tensor:
#      x y z
#    x 1.200210 0.000000 -2.842570 
#    y 0.000000 3.431270 0.000000 
#    z -2.842570 0.000000 -0.702810 
# 
# 
# High freq. dielectric constant tensor:
#      x y z
#    x 1.726480 0.000000 0.015340 
#    y 0.000000 1.734970 0.000000 
#    z 0.015340 0.000000 1.712390 
# 
# From -- ./inp_files/342328.got.cif
#   From: 2010.06.25/outbox.cif.g09.slc.cpg/sg12_172_cif.got.tgz:342328.got - 2010.06.28 00:19:55.
