data_PCOD8091635
_publ_section_title
;
Structure prediction by ZEFSAII (Michael W. Deem and Ramdas Pophale) SiO2 
 PCOD8091635
Probable space group: C 2/M
;
_chemical_formula_sum "Si O2"
_cell_formula_units_Z 64
_cell_length_a 15.485854
_cell_length_b 23.793084
_cell_length_c 17.940813
_cell_angle_alpha 90.000000
_cell_angle_beta 30.263946
_cell_angle_gamma 90.000000
_cell_volume 3331.539439
_symmetry_space_group_name_H-M "C 2/M"
_symmetry_group_IT_number 12
_symmetry_cell_setting 'monoclinic'
loop_
_space_group_symop_operation_xyz
x,y,z
-x,y,-z
-x,-y,-z
x,-y,z
1/2+x,1/2+y,z
1/2-x,1/2+y,-z
1/2-x,1/2-y,-z
1/2+x,1/2-y,z
loop_
_atom_site_type_symbol
_atom_site_label
_atom_site_fract_x
_atom_site_fract_y
_atom_site_fract_z
Si Si1 0.824281 0.436840 0.675824
Si Si2 0.836951 0.131760 0.827722
Si Si3 0.664036 0.635676 0.674987
Si Si4 0.770168 0.255330 0.830459
Si Si5 0.990891 0.631541 0.173250
Si Si6 0.323513 0.936364 0.176120
Si Si7 0.513672 0.135454 0.324899
Si Si8 0.429467 0.744851 0.170613
O O1 0.759547 0.500000 0.740254
O O2 0.681584 0.404239 0.734108
O O3 0.850861 0.404641 0.733990
O O4 0.000000 0.437888 0.500000
O O5 0.851111 0.196976 0.796180
O O6 0.821162 0.095165 0.764248
O O7 0.007705 0.112362 0.742599
O O8 0.677321 0.120286 0.000468
O O9 0.630487 0.699034 0.725797
O O10 0.832639 0.634597 0.499992
O O11 0.917026 0.301324 0.727392
O O12 0.708580 0.248817 0.791800
O O13 0.613489 0.272927 0.000618
O O14 0.848616 0.594783 0.236220
O O15 0.941315 0.696702 0.205047
O O16 0.990964 0.612121 0.258629
O O17 0.264208 0.000000 0.234948
O O18 0.500000 0.933334 0.000000
#
# Coordination Sequence:
#
# PCOD8091635 Si02
#       8
#     8   8   8   8   8   8   8   8
#     4   9  20  39  57  73 103 147 186 219 266 326
#     4  10  20  36  57  83 112 145 181 218 269 330
#     4  11  22  36  56  83 110 142 182 225 272 321
#     4  10  19  34  57  81 109 145 180 218 268 327
#     4  10  20  36  57  83 112 145 181 218 269 330
#     4   9  18  35  59  83 109 143 184 229 272 314
#     4  11  22  36  56  83 110 142 182 225 272 321
#     4  10  19  34  57  81 109 145 180 218 268 327
#
# _framework density 19.210336999999999
#
# number of rings (size 3 to 8) (size 9 to 14) (size 15 to 20)
#    0.000    2.000    2.500    1.500    0.000    5.000 
#    0.000    0.625    0.000    6.000    0.000    0.000 
#    0.000    0.000    0.000    0.000    0.000    0.000 
#
# Total GULP energy -396910.533090 kJ/mol
# GULP energy per Si atom -12403.454159 kJ/mol
# Density = 1.916661 g / cm^3
# Si number density = 19.210337 Si / 1000 Ang^3
#
#
#
# Elastic Constant Matrix: (Units=GPa)
#
#
# Indices 1 2 3 4 5 6 
#
# 1 190.7996 73.9164 51.6418 0.0214 -1.9823 -0.0218
# 2 73.9164 120.7004 38.7861 0.0217 -0.8290 0.0097
# 3 51.6418 38.7861 46.9995 0.2203 -1.6535 -0.1039
# 4 0.0214 0.0217 0.2203 17.7260 -0.0650 0.2455
# 5 -1.9823 -0.8290 -1.6535 -0.0650 29.3609 0.0387
# 6 -0.0218 0.0097 -0.1039 0.2455 0.0387 13.4852
#
#
#
# Elastic Compliance Matrix: (Units=1/GPa)
#
#
# Indices 1 2 3 4 5 6 
#
# 1 0.008130 -0.002869 -0.006562 0.000076 0.000099 -0.000037
# 2 -0.002869 0.012289 -0.006998 0.000075 -0.000241 -0.000068
# 3 -0.006562 -0.006998 0.034309 -0.000409 0.001290 0.000263
# 4 0.000076 0.000075 -0.000409 0.056434 0.000110 -0.001031
# 5 0.000099 -0.000241 0.001290 0.000110 0.034132 -0.000090
# 6 -0.000037 -0.000068 0.000263 -0.001031 -0.000090 0.074177
#
#
# Mechanical properties :
#
#
# Convention : Reuss Voigt Hill
#
# Bulk Modulus (GPa) = 45.72353 76.35422 61.03888
# Shear Modulus (GPa) = 19.25901 25.05809 22.15855
#
# Velocity S-wave (km/s) = 3.16972 3.61558 3.39996
# Velocity P-wave (km/s) = 6.10322 7.56720 6.87430
#
# Compressibility (1/GPa) = 0.02187058
#
# Stress axis : x y z
#
# Youngs Moduli (GPa) = 123.00554 81.37240 29.14650
#
# Poissons Ratio (x) = 0.23349 0.19125
# Poissons Ratio (y) = 0.35295 0.20396
# Poissons Ratio (z) = 0.80713 0.56942
#
# Static dielectric constant tensor:
#      x y z
#    x 3.775740 -0.000080 -0.018630 
#    y -0.000080 3.553460 0.000180 
#    z -0.018630 0.000180 3.159500 
# 
# 
# High freq. dielectric constant tensor:
#      x y z
#    x 1.768750 -0.000010 -0.001670 
#    y -0.000010 1.744230 0.000020 
#    z -0.001670 0.000020 1.712970 
# 
# From -- ./inp_files/272824.got.cif
#   From: 2010.06.25/outbox.cif.g09.slc.cpg/sg12_137_cif.got.tgz:272824.got - 2010.06.28 00:19:55.
