data_PCOD8091533
_publ_section_title
;
Structure prediction by ZEFSAII (Michael W. Deem and Ramdas Pophale) SiO2 
 PCOD8091533
Probable space group: C 2/M
;
_chemical_formula_sum "Si O2"
_cell_formula_units_Z 48
_cell_length_a 19.020934
_cell_length_b 8.584869
_cell_length_c 30.142344
_cell_angle_alpha 90.000000
_cell_angle_beta 29.140561
_cell_angle_gamma 90.000000
_cell_volume 2396.791809
_symmetry_space_group_name_H-M "C 2/M"
_symmetry_group_IT_number 12
_symmetry_cell_setting 'monoclinic'
loop_
_space_group_symop_operation_xyz
x,y,z
-x,y,-z
-x,-y,-z
x,-y,z
1/2+x,1/2+y,z
1/2-x,1/2+y,-z
1/2-x,1/2-y,-z
1/2+x,1/2-y,z
loop_
_atom_site_type_symbol
_atom_site_label
_atom_site_fract_x
_atom_site_fract_y
_atom_site_fract_z
Si Si1 0.883696 0.315788 0.761166
Si Si2 0.866270 0.315060 0.547081
Si Si3 0.449685 0.684853 0.249224
Si Si4 0.060733 0.817533 0.918921
Si Si5 0.898941 0.316576 0.431181
Si Si6 0.089079 0.683866 0.084950
O O1 0.896083 0.500000 0.761624
O O2 0.928465 0.236664 0.782775
O O3 0.726752 0.268005 0.830616
O O4 0.982360 0.248140 0.667404
O O5 0.857868 0.500000 0.556088
O O6 0.708822 0.249638 0.648664
O O7 0.918010 0.259794 0.470496
O O8 0.000000 0.243754 0.500000
O O9 0.448249 0.500000 0.247274
O O10 0.488131 0.750060 0.179670
O O11 0.980257 0.726018 0.924225
O O12 0.039925 0.000000 0.920821
O O13 0.000000 0.769246 0.000000
O O14 0.900917 0.500000 0.426528
O O15 0.750000 0.250000 0.500000
O O16 0.097951 0.500000 0.084849
O O17 0.250000 0.750000 0.000000
#
# Coordination Sequence:
#
# PCOD8091533 Si02
#       6
#     8   8   8   8   8   8
#     4  10  21  36  60  89 124 163 204 255 305 359
#     4   9  19  34  56  85 119 160 207 253 296 353
#     4  11  22  38  63  90 122 163 207 252 304 361
#     4  10  22  41  65  93 122 156 198 245 300 363
#     4  10  19  34  56  84 117 159 206 252 299 352
#     4  12  26  44  66  92 124 158 197 246 302 364
#
# _framework density 20.026771
#
# number of rings (size 3 to 8) (size 9 to 14) (size 15 to 20)
#    0.000    1.667    1.667    3.000    2.333    2.333 
#    0.000    0.000    0.000    2.500    0.000    0.000 
#    0.000    0.000    0.000    0.000    0.000    0.000 
#
# Total GULP energy -297494.905837 kJ/mol
# GULP energy per Si atom -12395.621077 kJ/mol
# Density = 1.998119 g / cm^3
# Si number density = 20.026771 Si / 1000 Ang^3
#
#
#
# Elastic Constant Matrix: (Units=GPa)
#
#
# Indices 1 2 3 4 5 6 
#
# 1 164.4302 38.6721 67.6144 -0.0002 -4.0626 -0.0003
# 2 38.6721 58.4559 32.5955 0.0027 -0.3725 0.0039
# 3 67.6144 32.5955 143.6175 0.0000 3.3655 -0.0005
# 4 -0.0002 0.0027 0.0000 25.1256 0.0012 0.9087
# 5 -4.0626 -0.3725 3.3655 0.0012 37.3640 -0.0001
# 6 -0.0003 0.0039 -0.0005 0.9087 -0.0001 34.2475
#
#
#
# Elastic Compliance Matrix: (Units=1/GPa)
#
#
# Indices 1 2 3 4 5 6 
#
# 1 0.008248 -0.003743 -0.003060 0.000000 0.001135 0.000000
# 2 -0.003743 0.021297 -0.003073 -0.000002 0.000082 -0.000002
# 3 -0.003060 -0.003073 0.009129 0.000000 -0.001186 0.000000
# 4 0.000000 -0.000002 0.000000 0.039838 -0.000001 -0.001057
# 5 0.001135 0.000082 -0.001186 -0.000001 0.026995 0.000000
# 6 0.000000 -0.000002 0.000000 -0.001057 0.000000 0.029227
#
#
# Mechanical properties :
#
#
# Convention : Reuss Voigt Hill
#
# Bulk Modulus (GPa) = 52.85064 71.58530 62.21797
# Shear Modulus (GPa) = 31.09529 34.52220 32.80875
#
# Velocity S-wave (km/s) = 3.94469 4.15637 4.05191
# Velocity P-wave (km/s) = 6.86984 7.67179 7.28186
#
# Compressibility (1/GPa) = 0.01892125
#
# Stress axis : x y z
#
# Youngs Moduli (GPa) = 121.23513 46.95391 109.54008
#
# Poissons Ratio (x) = 0.17575 0.33524
# Poissons Ratio (y) = 0.45380 0.33666
# Poissons Ratio (z) = 0.37103 0.14431
#
# Static dielectric constant tensor:
#      x y z
#    x 3.812160 0.000000 0.043940 
#    y 0.000000 3.455270 0.000000 
#    z 0.043940 0.000000 4.063010 
# 
# 
# High freq. dielectric constant tensor:
#      x y z
#    x 1.798230 0.000000 0.003770 
#    y 0.000000 1.757480 0.000000 
#    z 0.003770 0.000000 1.801720 
# 
# From -- ./inp_files/377902.got.cif
#   From: 2010.06.25/outbox.cif.g09.slc.cpg/sg12_189_cif.got.tgz:377902.got - 2010.06.28 00:19:55.
