data_PCOD8091065
_publ_section_title
;
Structure prediction by ZEFSAII (Michael W. Deem and Ramdas Pophale) SiO2 
 PCOD8091065
Probable space group: C 2/M
;
_chemical_formula_sum "Si O2"
_cell_formula_units_Z 56
_cell_length_a 17.808277
_cell_length_b 17.115180
_cell_length_c 9.685114
_cell_angle_alpha 90.000000
_cell_angle_beta 108.277537
_cell_angle_gamma 90.000000
_cell_volume 2803.013990
_symmetry_space_group_name_H-M "C 2/M"
_symmetry_group_IT_number 12
_symmetry_cell_setting 'monoclinic'
loop_
_space_group_symop_operation_xyz
x,y,z
-x,y,-z
-x,-y,-z
x,-y,z
1/2+x,1/2+y,z
1/2-x,1/2+y,-z
1/2-x,1/2-y,-z
1/2+x,1/2-y,z
loop_
_atom_site_type_symbol
_atom_site_label
_atom_site_fract_x
_atom_site_fract_y
_atom_site_fract_z
Si Si1 0.469858 0.412320 0.624628
Si Si2 0.636277 0.821303 0.790196
Si Si3 0.312062 0.360162 0.599693
Si Si4 0.557544 0.319716 0.905545
Si Si5 0.851370 0.691489 0.528931
Si Si6 0.295708 0.591405 0.899484
Si Si7 0.509606 0.915681 0.344231
O O1 0.500000 0.375845 0.500000
O O2 0.501561 0.500000 0.666025
O O3 0.374604 0.412550 0.553220
O O4 0.497534 0.355978 0.761183
O O5 0.605680 0.753200 0.872236
O O6 0.640486 0.792869 0.631817
O O7 0.719725 0.854865 0.894770
O O8 0.573516 0.891012 0.768958
O O9 0.223605 0.365834 0.488354
O O10 0.339811 0.270119 0.608366
O O11 0.314445 0.394848 0.752290
O O12 0.500000 0.296492 0.000000
O O13 0.624898 0.383698 0.975342
O O14 0.924910 0.650142 0.645134
O O15 0.278199 0.500000 0.919094
O O16 0.500000 0.925653 0.500000
O O17 0.533894 0.000000 0.294521
#
# Coordination Sequence:
#
# PCOD8091065 Si02
#       7
#     8   8   8   8   8   8   8
#     4  11  23  38  59  86 122 162 200 250 311 365
#     4  10  21  38  60  87 119 162 205 249 299 361
#     4  10  19  34  54  85 120 158 197 253 302 359
#     4  12  24  39  62  93 123 162 203 252 297 370
#     4   9  19  33  56  87 120 158 203 253 300 357
#     4  11  23  39  62  89 119 156 204 259 304 358
#     4   9  17  31  55  86 116 150 197 248 297 350
#
# _framework density 19.978496
#
# number of rings (size 3 to 8) (size 9 to 14) (size 15 to 20)
#    0.000    1.714    1.429    3.429    0.000    5.714 
#    0.000    0.000    0.000    1.714    0.000    0.000 
#    0.000    0.000    0.000    0.000    0.000    0.000 
#
# Total GULP energy -347001.630760 kJ/mol
# GULP energy per Si atom -12392.915384 kJ/mol
# Density = 1.993302 g / cm^3
# Si number density = 19.978496 Si / 1000 Ang^3
#
#
#
# Elastic Constant Matrix: (Units=GPa)
#
#
# Indices 1 2 3 4 5 6 
#
# 1 136.7673 29.3676 30.5513 0.0000 3.1304 0.0000
# 2 29.3676 80.3722 10.4256 0.0000 -4.0428 0.0000
# 3 30.5513 10.4256 32.0326 0.0000 2.4141 0.0000
# 4 0.0000 0.0000 0.0000 38.1372 0.0000 9.5724
# 5 3.1304 -4.0428 2.4141 0.0000 27.2027 0.0000
# 6 0.0000 0.0000 0.0000 9.5724 0.0000 20.9552
#
#
#
# Elastic Compliance Matrix: (Units=1/GPa)
#
#
# Indices 1 2 3 4 5 6 
#
# 1 0.009749 -0.002507 -0.008426 0.000000 -0.000747 0.000000
# 2 -0.002507 0.013782 -0.002286 0.000000 0.002540 0.000000
# 3 -0.008426 -0.002286 0.040221 0.000000 -0.002939 0.000000
# 4 0.000000 0.000000 0.000000 0.029617 0.000000 -0.013529
# 5 -0.000747 0.002540 -0.002939 0.000000 0.037485 0.000000
# 6 0.000000 0.000000 0.000000 -0.013529 0.000000 0.053901
#
#
# Mechanical properties :
#
#
# Convention : Reuss Voigt Hill
#
# Bulk Modulus (GPa) = 26.79998 43.31791 35.05895
# Shear Modulus (GPa) = 22.35812 29.18084 25.76948
#
# Velocity S-wave (km/s) = 3.34894 3.82594 3.59536
# Velocity P-wave (km/s) = 5.32892 6.42234 5.90101
#
# Compressibility (1/GPa) = 0.03731346
#
# Stress axis : x y z
#
# Youngs Moduli (GPa) = 102.57071 72.55615 24.86293
#
# Poissons Ratio (x) = 0.18189 0.20950
# Poissons Ratio (y) = 0.25713 0.05684
# Poissons Ratio (z) = 0.86430 0.16588
#
# Static dielectric constant tensor:
#      x y z
#    x 4.148180 0.000000 0.229170 
#    y 0.000000 3.691020 0.000000 
#    z 0.229170 0.000000 3.475130 
# 
# 
# High freq. dielectric constant tensor:
#      x y z
#    x 1.801750 0.000000 0.015250 
#    y 0.000000 1.780850 0.000000 
#    z 0.015250 0.000000 1.746440 
# 
# From -- ./inp_files/76021.got.cif
#   From: 2010.06.25/outbox.cif.g09.slc.cpg/sg12_39_cif.got.tgz:76021.got - 2010.06.28 00:19:55.
