data_PCOD8091891
_publ_section_title
;
Structure prediction by ZEFSAII (Michael W. Deem and Ramdas Pophale) SiO2 
 PCOD8091891
Probable space group: C 2/M
;
_chemical_formula_sum "Si O2"
_cell_formula_units_Z 56
_cell_length_a 16.062311
_cell_length_b 9.199335
_cell_length_c 22.980054
_cell_angle_alpha 90.000000
_cell_angle_beta 122.251872
_cell_angle_gamma 90.000000
_cell_volume 2871.687476
_symmetry_space_group_name_H-M "C 2/M"
_symmetry_group_IT_number 12
_symmetry_cell_setting 'monoclinic'
loop_
_space_group_symop_operation_xyz
x,y,z
-x,y,-z
-x,-y,-z
x,-y,z
1/2+x,1/2+y,z
1/2-x,1/2+y,-z
1/2-x,1/2-y,-z
1/2+x,1/2-y,z
loop_
_atom_site_type_symbol
_atom_site_label
_atom_site_fract_x
_atom_site_fract_y
_atom_site_fract_z
Si Si1 0.807830 0.666990 0.286048
Si Si2 0.448522 0.828757 0.921039
Si Si3 0.777455 0.829080 0.162421
Si Si4 0.629828 0.670667 0.293234
Si Si5 0.502542 0.162740 0.569329
Si Si6 0.337018 0.328414 0.565684
Si Si7 0.452412 0.330488 0.149222
O O1 0.796092 0.500000 0.262974
O O2 0.832801 0.756405 0.237508
O O3 0.707099 0.732246 0.275069
O O4 0.888357 0.686876 0.366091
O O5 0.335369 0.772593 0.883243
O O6 0.512272 0.757479 0.893640
O O7 0.450959 0.000000 0.911547
O O8 0.500000 0.783728 0.000000
O O9 0.840461 0.790455 0.127377
O O10 0.780640 0.000000 0.173493
O O11 0.645866 0.500000 0.304529
O O12 0.652131 0.736283 0.365057
O O13 0.521086 0.709823 0.230132
O O14 0.500000 0.182338 0.500000
O O15 0.437531 0.290097 0.571347
O O16 0.464808 0.000000 0.571869
O O17 0.318756 0.500000 0.557934
O O18 0.250000 0.250000 0.500000
O O19 0.461962 0.500000 0.137168
#
# Coordination Sequence:
#
# PCOD8091891 Si02
#       7
#     8   8   8   8   8   8   8
#     4  10  19  34  58  83 109 147 192 236 284 347
#     4  10  22  40  59  84 122 159 190 236 298 353
#     4  10  21  37  58  86 118 152 192 243 295 344
#     4   9  18  34  56  80 109 146 185 234 292 343
#     4  10  21  37  55  77 110 149 189 236 294 353
#     4  11  22  37  56  79 111 150 193 241 294 349
#     4  10  20  37  61  86 113 149 196 240 287 348
#
# _framework density 19.500730000000001
#
# number of rings (size 3 to 8) (size 9 to 14) (size 15 to 20)
#    0.000    2.000    1.429    2.143    0.000    5.714 
#    0.000    4.286    0.000    0.000    0.000    0.000 
#    0.000    0.000    0.000    0.000    0.000    0.000 
#
# Total GULP energy -347144.904044 kJ/mol
# GULP energy per Si atom -12398.032287 kJ/mol
# Density = 1.945635 g / cm^3
# Si number density = 19.500730 Si / 1000 Ang^3
#
#
#
# Elastic Constant Matrix: (Units=GPa)
#
#
# Indices 1 2 3 4 5 6 
#
# 1 140.1050 40.0457 58.5096 0.0000 -6.5876 0.0000
# 2 40.0457 44.4201 38.0765 0.0000 -6.6152 0.0000
# 3 58.5096 38.0765 124.8212 0.0000 -13.8491 0.0000
# 4 0.0000 0.0000 0.0000 -3.5943 0.0000 -17.9318
# 5 -6.5876 -6.6152 -13.8491 0.0000 26.9685 0.0000
# 6 0.0000 0.0000 0.0000 -17.9318 0.0000 27.4289
#
#
#
# Elastic Compliance Matrix: (Units=1/GPa)
#
#
# Indices 1 2 3 4 5 6 
#
# 1 0.010249 -0.006980 -0.002744 0.000000 -0.000617 0.000000
# 2 -0.006980 0.035447 -0.007174 0.000000 0.003306 0.000000
# 3 -0.002744 -0.007174 0.011894 0.000000 0.003678 0.000000
# 4 0.000000 0.000000 0.000000 -0.065285 0.000000 -0.042681
# 5 -0.000617 0.003306 0.003678 0.000000 0.039629 0.000000
# 6 0.000000 0.000000 0.000000 -0.042681 0.000000 0.008555
#
#
# Mechanical properties :
#
#
# Convention : Reuss Voigt Hill
#
# Bulk Modulus (GPa) = 42.02674 64.73443 53.38059
# Shear Modulus (GPa) = 60.81442 21.67492 41.24467
#
# Velocity S-wave (km/s) = 5.59048 3.33752 4.60394
# Velocity P-wave (km/s) = 7.95420 6.93686 7.46289
#
# Compressibility (1/GPa) = 0.02379437
#
# Stress axis : x y z
#
# Youngs Moduli (GPa) = 97.56713 28.21088 84.07512
#
# Poissons Ratio (x) = 0.19692 0.23067
# Poissons Ratio (y) = 0.68104 0.60319
# Poissons Ratio (z) = 0.26768 0.20240
#
# Static dielectric constant tensor:
#      x y z
#    x 3.044630 0.000000 -0.728300 
#    y 0.000000 3.316220 0.000000 
#    z -0.728300 0.000000 2.746470 
# 
# 
# High freq. dielectric constant tensor:
#      x y z
#    x 1.770790 0.000000 0.002030 
#    y 0.000000 1.736350 0.000000 
#    z 0.002030 0.000000 1.764370 
# 
# From -- ./inp_files/268861.got.cif
#   From: 2010.06.25/outbox.cif.g09.slc.cpg/sg12_135_cif.got.tgz:268861.got - 2010.06.28 00:19:55.
