data_PCOD8091554
_publ_section_title
;
Structure prediction by ZEFSAII (Michael W. Deem and Ramdas Pophale) SiO2 
 PCOD8091554
Probable space group: C 2/M
;
_chemical_formula_sum "Si O2"
_cell_formula_units_Z 60
_cell_length_a 16.888853
_cell_length_b 17.847501
_cell_length_c 18.425777
_cell_angle_alpha 90.000000
_cell_angle_beta 144.854980
_cell_angle_gamma 90.000000
_cell_volume 3197.130261
_symmetry_space_group_name_H-M "C 2/M"
_symmetry_group_IT_number 12
_symmetry_cell_setting 'monoclinic'
loop_
_space_group_symop_operation_xyz
x,y,z
-x,y,-z
-x,-y,-z
x,-y,z
1/2+x,1/2+y,z
1/2-x,1/2+y,-z
1/2-x,1/2-y,-z
1/2+x,1/2-y,z
loop_
_atom_site_type_symbol
_atom_site_label
_atom_site_fract_x
_atom_site_fract_y
_atom_site_fract_z
Si Si1 0.104755 0.913901 0.801090
Si Si2 0.360626 0.289188 0.280512
Si Si3 0.003881 0.855308 0.135762
Si Si4 0.291569 0.854190 0.149089
Si Si5 0.095180 0.585817 0.908481
Si Si6 0.284220 0.915573 0.298083
Si Si7 0.000000 0.303378 0.500000
Si Si8 0.573259 0.198897 0.131445
O O1 0.082317 0.865712 0.711321
O O2 0.003823 0.881605 0.786819
O O3 0.066923 0.000000 0.756473
O O4 0.262287 0.905029 0.942450
O O5 0.305733 0.234509 0.175354
O O6 0.483341 0.249154 0.416792
O O7 0.236737 0.306512 0.243245
O O8 0.122198 0.901800 0.184293
O O9 0.036126 0.767296 0.156764
O O10 0.862684 0.874882 0.989553
O O11 0.396705 0.875933 0.164269
O O12 0.328636 0.901645 0.248216
O O13 0.054185 0.500000 0.867407
O O14 0.976577 0.623148 0.867748
O O15 0.367183 0.857286 0.411195
O O16 0.321769 0.000000 0.348680
O O17 0.500000 0.212128 0.000000
#
# Coordination Sequence:
#
# PCOD8091554 Si02
#       8
#     8   8   8   8   8   8   4   8
#     4  10  21  35  55  85 119 148 178 223 282 336
#     4  11  21  38  59  81 108 150 194 234 270 321
#     4  11  19  34  56  88 118 140 178 222 279 345
#     4  10  19  34  56  86 120 147 177 219 275 343
#     4  10  21  33  52  87 123 151 176 216 279 341
#     4  11  21  35  58  82 113 148 183 231 279 329
#     4  10  23  40  57  76 102 146 202 238 269 322
#     4  12  19  33  57  84 114 146 187 226 271 332
#
# _framework density 18.766829999999999
#
# number of rings (size 3 to 8) (size 9 to 14) (size 15 to 20)
#    0.000    1.333    5.333    2.200    0.000    5.067 
#    0.000    1.000    2.933    0.000    0.000    0.000 
#    0.000    0.000    0.000    0.000    0.000    0.000 
#
# Total GULP energy -372096.973194 kJ/mol
# GULP energy per Si atom -12403.232440 kJ/mol
# Density = 1.872412 g / cm^3
# Si number density = 18.766830 Si / 1000 Ang^3
#
#
#
# Elastic Constant Matrix: (Units=GPa)
#
#
# Indices 1 2 3 4 5 6 
#
# 1 90.8167 74.4620 28.9600 -0.0019 -10.6514 -0.0023
# 2 74.4620 142.3755 36.0254 -0.0004 -15.0951 -0.0006
# 3 28.9600 36.0254 69.0922 -0.0016 -6.9455 -0.0024
# 4 -0.0019 -0.0004 -0.0016 23.7685 -0.0011 -0.8698
# 5 -10.6514 -15.0951 -6.9455 -0.0011 13.2211 -0.0014
# 6 -0.0023 -0.0006 -0.0024 -0.8698 -0.0014 32.5958
#
#
#
# Elastic Compliance Matrix: (Units=1/GPa)
#
#
# Indices 1 2 3 4 5 6 
#
# 1 0.020108 -0.009295 -0.003188 0.000001 0.003912 0.000001
# 2 -0.009295 0.013140 -0.002323 0.000000 0.006294 0.000000
# 3 -0.003188 -0.002323 0.017416 0.000001 0.003929 0.000001
# 4 0.000001 0.000000 0.000001 0.042114 0.000005 0.001124
# 5 0.003912 0.006294 0.003929 0.000005 0.088039 0.000005
# 6 0.000001 0.000000 0.000001 0.001124 0.000005 0.030709
#
#
# Mechanical properties :
#
#
# Convention : Reuss Voigt Hill
#
# Bulk Modulus (GPa) = 47.50226 64.57546 56.03886
# Shear Modulus (GPa) = 20.14886 24.77288 22.46087
#
# Velocity S-wave (km/s) = 3.28020 3.63717 3.46329
# Velocity P-wave (km/s) = 6.30183 7.21961 6.77628
#
# Compressibility (1/GPa) = 0.02105163
#
# Stress axis : x y z
#
# Youngs Moduli (GPa) = 49.73236 76.10487 57.41899
#
# Poissons Ratio (x) = 0.70737 0.18308
# Poissons Ratio (y) = 0.46224 0.13336
# Poissons Ratio (z) = 0.15857 0.17677
#
# Static dielectric constant tensor:
#      x y z
#    x 3.451880 0.000000 -0.015160 
#    y 0.000000 3.554570 0.000000 
#    z -0.015160 0.000000 3.200320 
# 
# 
# High freq. dielectric constant tensor:
#      x y z
#    x 1.726370 0.000000 -0.003800 
#    y 0.000000 1.737600 0.000000 
#    z -0.003800 0.000000 1.691830 
# 
# From -- ./inp_files/278575.got.cif
#   From: 2010.06.25/outbox.cif.g09.slc.cpg/sg12_140_cif.got.tgz:278575.got - 2010.06.28 00:19:55.
