data_PCOD8091792
_publ_section_title
;
Structure prediction by ZEFSAII (Michael W. Deem and Ramdas Pophale) SiO2 
 PCOD8091792
Probable space group: C 2/M
;
_chemical_formula_sum "Si O2"
_cell_formula_units_Z 64
_cell_length_a 15.424778
_cell_length_b 9.078694
_cell_length_c 24.726267
_cell_angle_alpha 90.000000
_cell_angle_beta 106.836183
_cell_angle_gamma 90.000000
_cell_volume 3314.170598
_symmetry_space_group_name_H-M "C 2/M"
_symmetry_group_IT_number 12
_symmetry_cell_setting 'monoclinic'
loop_
_space_group_symop_operation_xyz
x,y,z
-x,y,-z
-x,-y,-z
x,-y,z
1/2+x,1/2+y,z
1/2-x,1/2+y,-z
1/2-x,1/2-y,-z
1/2+x,1/2-y,z
loop_
_atom_site_type_symbol
_atom_site_label
_atom_site_fract_x
_atom_site_fract_y
_atom_site_fract_z
Si Si1 0.410005 0.825570 0.638061
Si Si2 0.712167 0.831445 0.744600
Si Si3 0.764383 0.668096 0.374452
Si Si4 0.479982 0.173793 0.936560
Si Si5 0.404429 0.669248 0.130884
Si Si6 0.213002 0.673180 0.143778
Si Si7 0.964336 0.675116 0.436600
Si Si8 0.967631 0.172057 0.260158
O O1 0.308326 0.770372 0.608482
O O2 0.471034 0.768010 0.599524
O O3 0.444550 0.752136 0.699953
O O4 0.412356 0.000000 0.644661
O O5 0.754120 0.822818 0.692822
O O6 0.783432 0.761252 0.799269
O O7 0.619761 0.740694 0.727224
O O8 0.691509 0.000000 0.757260
O O9 0.754186 0.500000 0.392715
O O10 0.862800 0.731700 0.407705
O O11 0.555672 0.235516 0.910188
O O12 0.378433 0.223078 0.902633
O O13 0.489139 0.000000 0.936351
O O14 0.500000 0.235012 0.000000
O O15 0.410045 0.500000 0.114556
O O16 0.299805 0.714916 0.122558
O O17 0.463698 0.699175 0.195194
O O18 0.214831 0.500000 0.157441
O O19 0.965502 0.500000 0.436865
O O20 0.000000 0.738637 0.500000
O O21 0.971138 0.000000 0.274391
#
# Coordination Sequence:
#
# PCOD8091792 Si02
#       8
#     8   8   8   8   8   8   8   8
#     4  11  22  36  57  88 116 150 196 236 282 344
#     4  10  19  34  57  85 116 149 191 234 282 345
#     4  10  21  37  56  84 118 153 189 236 291 339
#     4  10  22  39  58  82 113 148 190 236 281 333
#     4   9  20  37  56  80 111 147 186 228 281 342
#     4   9  20  38  56  80 114 152 186 229 289 339
#     4   9  19  39  62  81 112 156 195 236 287 340
#     4  10  20  36  58  84 119 154 185 233 294 342
#
# _framework density 19.311015999999999
#
# number of rings (size 3 to 8) (size 9 to 14) (size 15 to 20)
#    0.000    2.250    1.250    1.875    1.750    5.250 
#    0.000    0.000    0.000    2.625    0.000    0.000 
#    0.000    0.000    0.000    0.000    0.000    0.000 
#
# Total GULP energy -396855.932875 kJ/mol
# GULP energy per Si atom -12401.747902 kJ/mol
# Density = 1.926706 g / cm^3
# Si number density = 19.311016 Si / 1000 Ang^3
#
#
#
# Elastic Constant Matrix: (Units=GPa)
#
#
# Indices 1 2 3 4 5 6 
#
# 1 121.5313 37.5467 61.1502 0.0000 15.3298 0.0000
# 2 37.5467 63.7684 36.2695 0.0000 3.6841 0.0000
# 3 61.1502 36.2695 117.4773 0.0000 15.5850 0.0000
# 4 0.0000 0.0000 0.0000 19.1362 0.0000 1.3809
# 5 15.3298 3.6841 15.5850 0.0000 24.9201 0.0000
# 6 0.0000 0.0000 0.0000 1.3809 0.0000 31.6826
#
#
#
# Elastic Compliance Matrix: (Units=1/GPa)
#
#
# Indices 1 2 3 4 5 6 
#
# 1 0.012418 -0.004498 -0.004525 0.000000 -0.004144 0.000000
# 2 -0.004498 0.020672 -0.004364 0.000000 0.002441 0.000000
# 3 -0.004525 -0.004364 0.012824 0.000000 -0.004591 0.000000
# 4 0.000000 0.000000 0.000000 0.052422 0.000000 -0.002285
# 5 -0.004144 0.002441 -0.004591 0.000000 0.045188 0.000000
# 6 0.000000 0.000000 0.000000 -0.002285 0.000000 0.031663
#
#
# Mechanical properties :
#
#
# Convention : Reuss Voigt Hill
#
# Bulk Modulus (GPa) = 52.25243 63.63442 57.94343
# Shear Modulus (GPa) = 23.99910 26.33516 25.16713
#
# Velocity S-wave (km/s) = 3.52911 3.69689 3.61398
# Velocity P-wave (km/s) = 6.61236 7.15867 6.89093
#
# Compressibility (1/GPa) = 0.01913787
#
# Stress axis : x y z
#
# Youngs Moduli (GPa) = 80.53028 48.37538 77.97671
#
# Poissons Ratio (x) = 0.21761 0.35286
# Poissons Ratio (y) = 0.36225 0.34032
# Poissons Ratio (z) = 0.36442 0.21113
#
# Static dielectric constant tensor:
#      x y z
#    x 3.510980 0.000000 0.128590 
#    y 0.000000 3.382880 0.000000 
#    z 0.128590 0.000000 3.650690 
# 
# 
# High freq. dielectric constant tensor:
#      x y z
#    x 1.755960 0.000000 0.006440 
#    y 0.000000 1.737770 0.000000 
#    z 0.006440 0.000000 1.747420 
# 
# From -- ./inp_files/359935.got.cif
#   From: 2010.06.25/outbox.cif.g09.slc.cpg/sg12_180_cif.got.tgz:359935.got - 2010.06.28 00:19:55.
