data_PCOD8091364
_publ_section_title
;
Structure prediction by ZEFSAII (Michael W. Deem and Ramdas Pophale) SiO2 
 PCOD8091364
Probable space group: C 2/M
;
_chemical_formula_sum "Si O2"
_cell_formula_units_Z 64
_cell_length_a 24.504617
_cell_length_b 8.787457
_cell_length_c 20.719053
_cell_angle_alpha 90.000000
_cell_angle_beta 127.956276
_cell_angle_gamma 90.000000
_cell_volume 3517.806193
_symmetry_space_group_name_H-M "C 2/M"
_symmetry_group_IT_number 12
_symmetry_cell_setting 'monoclinic'
loop_
_space_group_symop_operation_xyz
x,y,z
-x,y,-z
-x,-y,-z
x,-y,z
1/2+x,1/2+y,z
1/2-x,1/2+y,-z
1/2-x,1/2-y,-z
1/2+x,1/2-y,z
loop_
_atom_site_type_symbol
_atom_site_label
_atom_site_fract_x
_atom_site_fract_y
_atom_site_fract_z
Si Si1 0.427836 0.319955 0.622839
Si Si2 0.069899 0.678694 0.730444
Si Si3 0.718999 0.822200 0.795858
Si Si4 0.069372 0.678783 0.875078
Si Si5 0.214283 0.177775 0.289775
Si Si6 0.209662 0.680222 0.030445
Si Si7 0.082378 0.320513 0.244888
Si Si8 0.204355 0.320436 0.523085
O O1 0.422846 0.500000 0.618622
O O2 0.503431 0.266457 0.653817
O O3 0.408947 0.261294 0.680346
O O4 0.372130 0.250791 0.532916
O O5 0.052937 0.500000 0.716968
O O6 0.137620 0.719369 0.738129
O O7 0.083217 0.739254 0.812698
O O8 0.746943 0.771694 0.746837
O O9 0.761240 0.733003 0.880417
O O10 0.729219 0.000000 0.816875
O O11 0.075477 0.500000 0.876722
O O12 0.991869 0.726202 0.840826
O O13 0.129450 0.738378 0.966659
O O14 0.141886 0.267356 0.239666
O O15 0.262445 0.223971 0.384446
O O16 0.197476 0.000000 0.277816
O O17 0.215480 0.500000 0.029925
O O18 0.250000 0.750000 0.000000
O O19 0.086577 0.500000 0.260081
O O20 0.200186 0.500000 0.510109
O O21 0.250000 0.250000 0.500000
#
# Coordination Sequence:
#
# PCOD8091364 Si02
#       8
#     8   8   8   8   8   8   8   8
#     4  11  21  33  53  83 113 140 180 233 279 325
#     4   9  17  34  56  77 107 146 183 221 272 331
#     4  10  21  39  58  80 113 150 184 227 280 336
#     4   8  16  31  52  79 107 138 179 224 269 318
#     4  10  22  38  57  81 112 146 184 229 279 334
#     4  11  20  34  56  84 113 144 187 234 275 327
#     4  10  19  34  56  79 108 146 184 225 276 330
#     4  11  21  35  56  83 111 144 186 232 280 330
#
# _framework density 18.193155999999998
#
# number of rings (size 3 to 8) (size 9 to 14) (size 15 to 20)
#    0.000    2.000    2.500    3.000    0.000    1.500 
#    0.000    3.125    0.000    7.500    0.000    0.000 
#    0.000    0.000    0.000    0.000    0.000    0.000 
#
# Total GULP energy -396759.577183 kJ/mol
# GULP energy per Si atom -12398.736787 kJ/mol
# Density = 1.815175 g / cm^3
# Si number density = 18.193156 Si / 1000 Ang^3
#
#
#
# Elastic Constant Matrix: (Units=GPa)
#
#
# Indices 1 2 3 4 5 6 
#
# 1 148.9811 51.9257 83.0112 0.0000 17.1133 0.0000
# 2 51.9257 77.3736 52.8957 0.0000 7.5072 0.0000
# 3 83.0112 52.8957 131.8606 0.0000 17.6726 0.0000
# 4 0.0000 0.0000 0.0000 27.7451 0.0000 4.2243
# 5 17.1133 7.5072 17.6726 0.0000 33.7664 0.0000
# 6 0.0000 0.0000 0.0000 4.2243 0.0000 27.7200
#
#
#
# Elastic Compliance Matrix: (Units=1/GPa)
#
#
# Indices 1 2 3 4 5 6 
#
# 1 0.011179 -0.003692 -0.005277 0.000000 -0.002083 0.000000
# 2 -0.003692 0.019029 -0.005370 0.000000 0.000451 0.000000
# 3 -0.005277 -0.005370 0.013488 0.000000 -0.003191 0.000000
# 4 0.000000 0.000000 0.000000 0.036899 0.000000 -0.005623
# 5 -0.002083 0.000451 -0.003191 0.000000 0.032241 0.000000
# 6 0.000000 0.000000 0.000000 -0.005623 0.000000 0.036932
#
#
# Mechanical properties :
#
#
# Convention : Reuss Voigt Hill
#
# Bulk Modulus (GPa) = 66.58862 81.54229 74.06546
# Shear Modulus (GPa) = 27.25526 29.20515 28.23020
#
# Velocity S-wave (km/s) = 3.87474 4.01094 3.94343
# Velocity P-wave (km/s) = 7.52984 8.14665 7.84431
#
# Compressibility (1/GPa) = 0.01501758
#
# Stress axis : x y z
#
# Youngs Moduli (GPa) = 89.45463 52.55031 74.14242
#
# Poissons Ratio (x) = 0.19404 0.39126
# Poissons Ratio (y) = 0.33030 0.39811
# Poissons Ratio (z) = 0.47207 0.28217
#
# Static dielectric constant tensor:
#      x y z
#    x 3.333430 0.000000 0.243970 
#    y 0.000000 3.269680 0.000000 
#    z 0.243970 0.000000 3.617800 
# 
# 
# High freq. dielectric constant tensor:
#      x y z
#    x 1.697990 0.000000 0.027630 
#    y 0.000000 1.698960 0.000000 
#    z 0.027630 0.000000 1.701700 
# 
# From -- ./inp_files/324225.got.cif
#   From: 2010.06.25/outbox.cif.g09.slc.cpg/sg12_163_cif.got.tgz:324225.got - 2010.06.28 00:19:55.
