data_PCOD8091086
_publ_section_title
;
Structure prediction by ZEFSAII (Michael W. Deem and Ramdas Pophale) SiO2 
 PCOD8091086
Probable space group: C 2/M
;
_chemical_formula_sum "Si O2"
_cell_formula_units_Z 64
_cell_length_a 14.494076
_cell_length_b 9.606539
_cell_length_c 26.588006
_cell_angle_alpha 90.000000
_cell_angle_beta 106.860678
_cell_angle_gamma 90.000000
_cell_volume 3542.917418
_symmetry_space_group_name_H-M "C 2/M"
_symmetry_group_IT_number 12
_symmetry_cell_setting 'monoclinic'
loop_
_space_group_symop_operation_xyz
x,y,z
-x,y,-z
-x,-y,-z
x,-y,z
1/2+x,1/2+y,z
1/2-x,1/2+y,-z
1/2-x,1/2-y,-z
1/2+x,1/2-y,z
loop_
_atom_site_type_symbol
_atom_site_label
_atom_site_fract_x
_atom_site_fract_y
_atom_site_fract_z
Si Si1 0.444941 0.837715 0.940209
Si Si2 0.543829 0.337664 0.582128
Si Si3 0.271752 0.657933 0.762373
Si Si4 0.344750 0.336920 0.500401
Si Si5 0.568074 0.162736 0.251148
Si Si6 0.430549 0.842285 0.317392
Si Si7 0.559870 0.164410 0.860453
Si Si8 0.773715 0.163537 0.878507
O O1 0.511816 0.788383 0.904817
O O2 0.347730 0.748441 0.924561
O O3 0.418301 0.000000 0.931455
O O4 0.500000 0.804240 0.000000
O O5 0.549049 0.500000 0.594539
O O6 0.433898 0.297003 0.550855
O O7 0.619685 0.300003 0.550168
O O8 0.576966 0.256928 0.636401
O O9 0.303217 0.500000 0.756465
O O10 0.330679 0.758047 0.734778
O O11 0.159447 0.679106 0.733724
O O12 0.292565 0.697708 0.823193
O O13 0.319752 0.500000 0.500995
O O14 0.250000 0.250000 0.500000
O O15 0.523944 0.193101 0.298866
O O16 0.499851 0.224180 0.196267
O O17 0.586785 0.000000 0.245871
O O18 0.435174 0.000000 0.338209
O O19 0.668545 0.221235 0.876724
O O20 0.564258 0.000000 0.855263
O O21 0.784786 0.000000 0.891445
#
# Coordination Sequence:
#
# PCOD8091086 Si02
#       8
#     8   8   8   8   8   8   8   8
#     4  10  21  36  54  78 106 135 172 220 269 317
#     4   9  20  38  56  79 113 147 178 221 273 316
#     4  10  20  34  52  77 105 135 175 220 262 309
#     4   9  19  37  60  82 108 145 186 224 267 319
#     4  10  19  34  55  76 101 141 182 211 256 321
#     4  10  21  36  54  79 111 143 180 220 262 319
#     4   9  17  33  55  74 100 138 171 207 262 318
#     4  10  19  34  56  76  99 136 176 213 260 317
#
# _framework density 18.064209000000002
#
# number of rings (size 3 to 8) (size 9 to 14) (size 15 to 20)
#    0.000    2.375    2.500    0.750    0.000    3.750 
#    0.000    7.500    0.000    0.000    0.000    0.000 
#    0.000    0.000    0.000    0.000    0.000    0.000 
#
# Total GULP energy -396820.022463 kJ/mol
# GULP energy per Si atom -12400.625702 kJ/mol
# Density = 1.802309 g / cm^3
# Si number density = 18.064209 Si / 1000 Ang^3
#
#
#
# Elastic Constant Matrix: (Units=GPa)
#
#
# Indices 1 2 3 4 5 6 
#
# 1 97.9086 35.7446 8.3743 0.0000 -6.2730 0.0000
# 2 35.7446 47.0502 28.2281 0.0000 -3.5983 0.0000
# 3 8.3743 28.2281 74.0812 0.0000 -8.2544 0.0000
# 4 0.0000 0.0000 0.0000 29.0403 0.0000 3.6327
# 5 -6.2730 -3.5983 -8.2544 0.0000 20.0621 0.0000
# 6 0.0000 0.0000 0.0000 3.6327 0.0000 32.7778
#
#
#
# Elastic Compliance Matrix: (Units=1/GPa)
#
#
# Indices 1 2 3 4 5 6 
#
# 1 0.015040 -0.013441 0.003854 0.000000 0.003877 0.000000
# 2 -0.013441 0.039573 -0.013873 0.000000 -0.002813 0.000000
# 3 0.003854 -0.013873 0.019081 0.000000 0.006567 0.000000
# 4 0.000000 0.000000 0.000000 0.034919 0.000000 -0.003870
# 5 0.003877 -0.002813 0.006567 0.000000 0.053255 0.000000
# 6 0.000000 0.000000 0.000000 -0.003870 0.000000 0.030937
#
#
# Mechanical properties :
#
#
# Convention : Reuss Voigt Hill
#
# Bulk Modulus (GPa) = 37.35166 40.41489 38.88328
# Shear Modulus (GPa) = 20.10848 26.15557 23.13202
#
# Velocity S-wave (km/s) = 3.34003 3.80929 3.58235
# Velocity P-wave (km/s) = 5.96628 6.46290 6.21955
#
# Compressibility (1/GPa) = 0.02677257
#
# Stress axis : x y z
#
# Youngs Moduli (GPa) = 66.49149 25.26950 52.40786
#
# Poissons Ratio (x) = 0.33965 -0.20196
# Poissons Ratio (y) = 0.89372 0.72706
# Poissons Ratio (z) = -0.25623 0.35057
#
# Static dielectric constant tensor:
#      x y z
#    x 3.396620 0.000000 -0.027520 
#    y 0.000000 3.120440 0.000000 
#    z -0.027520 0.000000 3.242210 
# 
# 
# High freq. dielectric constant tensor:
#      x y z
#    x 1.708130 0.000000 -0.001470 
#    y 0.000000 1.681590 0.000000 
#    z -0.001470 0.000000 1.696360 
# 
# From -- ./inp_files/338793.got.cif
#   From: 2010.06.25/outbox.cif.g09.slc.cpg/sg12_170_cif.got.tgz:338793.got - 2010.06.28 00:19:55.
