data_PCOD8091839
_publ_section_title
;
Structure prediction by ZEFSAII (Michael W. Deem and Ramdas Pophale) SiO2 
 PCOD8091839
Probable space group: C 2/M
;
_chemical_formula_sum "Si O2"
_cell_formula_units_Z 48
_cell_length_a 10.101998
_cell_length_b 22.773190
_cell_length_c 10.852761
_cell_angle_alpha 90.000000
_cell_angle_beta 122.959558
_cell_angle_gamma 90.000000
_cell_volume 2094.892336
_symmetry_space_group_name_H-M "C 2/M"
_symmetry_group_IT_number 12
_symmetry_cell_setting 'monoclinic'
loop_
_space_group_symop_operation_xyz
x,y,z
-x,y,-z
-x,-y,-z
x,-y,z
1/2+x,1/2+y,z
1/2-x,1/2+y,-z
1/2-x,1/2-y,-z
1/2+x,1/2-y,z
loop_
_atom_site_type_symbol
_atom_site_label
_atom_site_fract_x
_atom_site_fract_y
_atom_site_fract_z
Si Si1 0.927840 0.864493 0.098152
Si Si2 0.268832 0.690335 0.382831
Si Si3 0.999623 0.231314 0.307856
Si Si4 0.195914 0.565191 0.347636
Si Si5 0.836795 0.566123 0.141735
Si Si6 0.296067 0.433107 0.669536
O O1 0.925252 0.798241 0.148333
O O2 0.036292 0.900254 0.248637
O O3 0.752645 0.892106 0.001778
O O4 0.000000 0.866550 0.000000
O O5 0.355202 0.736119 0.332800
O O6 0.358656 0.693035 0.559369
O O7 0.283833 0.623147 0.336958
O O8 0.083409 0.707431 0.309194
O O9 0.270711 0.500000 0.354156
O O10 0.195002 0.575527 0.494286
O O11 0.020939 0.567010 0.205611
O O12 0.771049 0.500000 0.091695
O O13 0.808976 0.588394 0.267739
O O14 0.342074 0.500000 0.710879
#
# Coordination Sequence:
#
# PCOD8091839 Si02
#       6
#     8   8   8   8   8   8
#     4  10  19  34  57  89 124 161 208 257 315 378
#     4  10  22  43  66  92 123 164 218 267 310 371
#     4  10  22  42  65  91 122 166 215 261 318 372
#     4  10  19  35  59  91 126 162 210 261 313 371
#     4   9  18  31  51  85 128 169 205 252 315 375
#     4   9  16  29  52  84 123 166 211 257 302 365
#
# _framework density 22.912873000000001
#
# number of rings (size 3 to 8) (size 9 to 14) (size 15 to 20)
#    0.000    2.333    1.667    1.000    0.000    6.667 
#    6.000    7.500    0.000    2.000    0.000    1.167 
#    0.000    0.000    0.000    0.000    0.000    0.000 
#
# Total GULP energy -297342.172584 kJ/mol
# GULP energy per Si atom -12389.257191 kJ/mol
# Density = 2.286072 g / cm^3
# Si number density = 22.912873 Si / 1000 Ang^3
#
#
#
# Elastic Constant Matrix: (Units=GPa)
#
#
# Indices 1 2 3 4 5 6 
#
# 1 60.8008 26.3687 9.1060 0.0000 7.1637 0.0000
# 2 26.3687 103.5179 25.5505 0.0000 1.3868 0.0000
# 3 9.1060 25.5505 92.3971 0.0000 16.3546 0.0000
# 4 0.0000 0.0000 0.0000 38.9444 0.0000 1.4606
# 5 7.1637 1.3868 16.3546 0.0000 11.6743 0.0000
# 6 0.0000 0.0000 0.0000 1.4606 0.0000 24.6229
#
#
#
# Elastic Compliance Matrix: (Units=1/GPa)
#
#
# Indices 1 2 3 4 5 6 
#
# 1 0.020246 -0.005486 0.002135 0.000000 -0.014763 0.000000
# 2 -0.005486 0.011976 -0.004142 0.000000 0.007747 0.000000
# 3 0.002135 -0.004142 0.015827 0.000000 -0.022991 0.000000
# 4 0.000000 0.000000 0.000000 0.025735 0.000000 -0.001527
# 5 -0.014763 0.007747 -0.022991 0.000000 0.126004 0.000000
# 6 0.000000 0.000000 0.000000 -0.001527 0.000000 0.040703
#
#
# Mechanical properties :
#
#
# Convention : Reuss Voigt Hill
#
# Bulk Modulus (GPa) = 30.24611 42.08513 36.16562
# Shear Modulus (GPa) = 18.76171 28.09437 23.42804
#
# Velocity S-wave (km/s) = 2.86462 3.50543 3.20110
# Velocity P-wave (km/s) = 4.91636 5.89842 5.42964
#
# Compressibility (1/GPa) = 0.03306210
#
# Stress axis : x y z
#
# Youngs Moduli (GPa) = 49.39204 83.49803 63.18184
#
# Poissons Ratio (x) = 0.45810 -0.13488
# Poissons Ratio (y) = 0.27098 0.26172
# Poissons Ratio (z) = -0.10545 0.34588
#
# Static dielectric constant tensor:
#      x y z
#    x 3.688610 0.000000 0.100380 
#    y 0.000000 4.158090 0.000000 
#    z 0.100380 0.000000 4.114210 
# 
# 
# High freq. dielectric constant tensor:
#      x y z
#    x 1.869050 0.000000 0.008550 
#    y 0.000000 1.895910 0.000000 
#    z 0.008550 0.000000 1.899380 
# 
# From -- ./inp_files/136764.got.cif
#   From: 2010.06.25/outbox.cif.g09.slc.cpg/sg12_69_cif.got.tgz:136764.got - 2010.06.28 00:19:55.
