data_PCOD8091371
_publ_section_title
;
Structure prediction by ZEFSAII (Michael W. Deem and Ramdas Pophale) SiO2 
 PCOD8091371
Probable space group: C 2/M
;
_chemical_formula_sum "Si O2"
_cell_formula_units_Z 48
_cell_length_a 31.456147
_cell_length_b 17.340674
_cell_length_c 12.896822
_cell_angle_alpha 90.000000
_cell_angle_beta 21.720773
_cell_angle_gamma 90.000000
_cell_volume 2603.478775
_symmetry_space_group_name_H-M "C 2/M"
_symmetry_group_IT_number 12
_symmetry_cell_setting 'monoclinic'
loop_
_space_group_symop_operation_xyz
x,y,z
-x,y,-z
-x,-y,-z
x,-y,z
1/2+x,1/2+y,z
1/2-x,1/2+y,-z
1/2-x,1/2-y,-z
1/2+x,1/2-y,z
loop_
_atom_site_type_symbol
_atom_site_label
_atom_site_fract_x
_atom_site_fract_y
_atom_site_fract_z
Si Si1 0.986101 0.312210 0.154830
Si Si2 0.224657 0.321746 0.696783
Si Si3 0.258823 0.646479 0.281730
Si Si4 0.048209 0.909406 0.281586
Si Si5 0.576672 0.355783 0.634350
Si Si6 0.375140 0.415302 0.207722
O O1 0.877250 0.367509 0.426204
O O2 0.966896 0.231863 0.257038
O O3 0.000000 0.301921 0.000000
O O4 0.098487 0.352635 0.951939
O O5 0.222608 0.230258 0.709929
O O6 0.283829 0.359256 0.666173
O O7 0.316957 0.344827 0.400198
O O8 0.314226 0.584018 0.232917
O O9 0.331416 0.635825 0.011114
O O10 0.000000 0.879248 0.500000
O O11 0.953046 0.889359 0.410139
O O12 0.071671 0.000000 0.231882
O O13 0.512306 0.402542 0.874302
O O14 0.355298 0.500000 0.302303
#
# Coordination Sequence:
#
# PCOD8091371 Si02
#       6
#     8   8   8   8   8   8
#     4  11  19  32  55  80 115 156 181 210 257 324
#     4  11  20  33  52  80 115 150 179 220 268 321
#     4  10  19  34  56  79 110 144 190 221 264 322
#     4  10  21  40  63  82 104 136 181 238 288 325
#     4  10  20  31  54  79 109 139 184 232 270 313
#     4  11  20  32  50  78 114 149 186 221 260 320
#
# _framework density 18.436869999999999
#
# number of rings (size 3 to 8) (size 9 to 14) (size 15 to 20)
#    0.000    1.500    5.000    5.000    0.000    2.000 
#    0.000    5.833    0.000    0.000    0.000    2.333 
#    0.000    0.000    0.000    0.000    0.000    0.000 
#
# Total GULP energy -297376.115572 kJ/mol
# GULP energy per Si atom -12390.671482 kJ/mol
# Density = 1.839491 g / cm^3
# Si number density = 18.436870 Si / 1000 Ang^3
#
#
#
# Elastic Constant Matrix: (Units=GPa)
#
#
# Indices 1 2 3 4 5 6 
#
# 1 72.8091 18.1229 64.9110 0.0000 -7.9372 0.0000
# 2 18.1229 66.7945 36.8029 0.0000 5.3612 0.0000
# 3 64.9110 36.8029 136.0586 0.0000 -23.9651 0.0000
# 4 0.0000 0.0000 0.0000 18.0333 0.0000 2.8077
# 5 -7.9372 5.3612 -23.9651 0.0000 50.8134 0.0000
# 6 0.0000 0.0000 0.0000 2.8077 0.0000 22.2920
#
#
#
# Elastic Compliance Matrix: (Units=1/GPa)
#
#
# Indices 1 2 3 4 5 6 
#
# 1 0.024052 0.000145 -0.011838 0.000000 -0.001842 0.000000
# 2 0.000145 0.018578 -0.005928 0.000000 -0.004733 0.000000
# 3 -0.011838 -0.005928 0.015689 0.000000 0.006176 0.000000
# 4 0.000000 0.000000 0.000000 0.056562 0.000000 -0.007124
# 5 -0.001842 -0.004733 0.006176 0.000000 0.022804 0.000000
# 6 0.000000 0.000000 0.000000 -0.007124 0.000000 0.045756
#
#
# Mechanical properties :
#
#
# Convention : Reuss Voigt Hill
#
# Bulk Modulus (GPa) = 43.33549 57.25952 50.29750
# Shear Modulus (GPa) = 22.08710 28.61610 25.35160
#
# Velocity S-wave (km/s) = 3.46495 3.94396 3.71219
# Velocity P-wave (km/s) = 6.28996 7.20168 6.76121
#
# Compressibility (1/GPa) = 0.02307578
#
# Stress axis : x y z
#
# Youngs Moduli (GPa) = 41.57701 53.82649 63.73984
#
# Poissons Ratio (x) = -0.00779 0.75456
# Poissons Ratio (y) = -0.00602 0.37785
# Poissons Ratio (z) = 0.49219 0.31909
#
# Static dielectric constant tensor:
#      x y z
#    x 3.577160 0.000000 -0.404000 
#    y 0.000000 3.124510 0.000000 
#    z -0.404000 0.000000 3.729660 
# 
# 
# High freq. dielectric constant tensor:
#      x y z
#    x 1.706500 0.000000 -0.031230 
#    y 0.000000 1.695270 0.000000 
#    z -0.031230 0.000000 1.703060 
# 
# From -- ./inp_files/184150.got.cif
#   From: 2010.06.25/outbox.cif.g09.slc.cpg/sg12_93_cif.got.tgz:184150.got - 2010.06.28 00:19:55.
