data_PCOD8091956
_publ_section_title
;
Structure prediction by ZEFSAII (Michael W. Deem and Ramdas Pophale) SiO2 
 PCOD8091956
Probable space group: C 2/M
;
_chemical_formula_sum "Si O2"
_cell_formula_units_Z 64
_cell_length_a 15.449562
_cell_length_b 9.027408
_cell_length_c 33.222947
_cell_angle_alpha 90.000000
_cell_angle_beta 134.229956
_cell_angle_gamma 90.000000
_cell_volume 3320.178846
_symmetry_space_group_name_H-M "C 2/M"
_symmetry_group_IT_number 12
_symmetry_cell_setting 'monoclinic'
loop_
_space_group_symop_operation_xyz
x,y,z
-x,y,-z
-x,-y,-z
x,-y,z
1/2+x,1/2+y,z
1/2-x,1/2+y,-z
1/2-x,1/2-y,-z
1/2+x,1/2-y,z
loop_
_atom_site_type_symbol
_atom_site_label
_atom_site_fract_x
_atom_site_fract_y
_atom_site_fract_z
Si Si1 0.214374 0.175066 0.367327
Si Si2 0.286238 0.171800 0.258266
Si Si3 0.488559 0.171800 0.258266
Si Si4 0.904803 0.823568 0.936536
Si Si5 0.863833 0.325484 0.134836
Si Si6 0.887608 0.175066 0.367327
Si Si7 0.339667 0.325424 0.559778
Si Si8 0.040676 0.825484 0.134836
O O1 0.104341 0.227851 0.303918
O O2 0.337789 0.250000 0.391860
O O3 0.193271 0.227504 0.406102
O O4 0.225968 0.000000 0.367713
O O5 0.387047 0.207303 0.258031
O O6 0.307414 0.272149 0.303919
O O7 0.157791 0.218132 0.198621
O O8 0.289226 0.000000 0.271894
O O9 0.438072 0.218132 0.198621
O O10 0.526456 0.000000 0.271894
O O11 0.772147 0.764049 0.904917
O O12 0.942604 0.764049 0.904917
O O13 0.902093 0.000000 0.934729
O O14 0.000000 0.762892 0.000000
O O15 0.863505 0.500000 0.128148
O O16 0.922778 0.250000 0.115185
O O17 0.025034 0.227504 0.406102
O O18 0.877170 0.000000 0.367713
O O19 0.327026 0.500000 0.551351
O O20 0.250000 0.250000 0.500000
O O21 0.020939 0.000000 0.128148
#
# Coordination Sequence:
#
# PCOD8091956 Si02
#       8
#     8   8   8   8   8   8   8   8
#     4  11  23  40  60  88 119 150 188 232 280 335
#     4  10  19  34  58  85 114 149 186 228 281 340
#     4  10  19  34  58  85 114 149 186 228 281 340
#     4   9  18  35  57  77 104 147 192 231 276 333
#     4  10  20  35  55  82 112 144 185 230 277 334
#     4  11  23  40  60  88 119 150 188 232 280 335
#     4  10  24  43  62  84 115 150 191 236 279 327
#     4  10  20  35  55  82 112 144 185 230 277 334
#
# _framework density 19.276071000000002
#
# number of rings (size 3 to 8) (size 9 to 14) (size 15 to 20)
#    0.000    1.875    2.500    1.500    0.000    6.000 
#    0.000    3.125    0.000    0.750    0.000    0.000 
#    0.000    0.000    0.000    0.000    0.000    0.000 
#
# Total GULP energy -396936.228814 kJ/mol
# GULP energy per Si atom -12404.257150 kJ/mol
# Density = 1.923220 g / cm^3
# Si number density = 19.276071 Si / 1000 Ang^3
#
#
#
# Elastic Constant Matrix: (Units=GPa)
#
#
# Indices 1 2 3 4 5 6 
#
# 1 185.1152 48.7137 84.2218 0.0000 -5.2422 0.0000
# 2 48.7137 45.8605 41.3465 0.0000 -0.5164 0.0000
# 3 84.2218 41.3465 142.7805 0.0000 2.2755 0.0000
# 4 0.0000 0.0000 0.0000 20.1796 0.0000 -0.9731
# 5 -5.2422 -0.5164 2.2755 0.0000 13.5862 0.0000
# 6 0.0000 0.0000 0.0000 -0.9731 0.0000 34.0582
#
#
#
# Elastic Compliance Matrix: (Units=1/GPa)
#
#
# Indices 1 2 3 4 5 6 
#
# 1 0.008655 -0.006085 -0.003402 0.000000 0.003678 0.000000
# 2 -0.006085 0.033877 -0.006220 0.000000 -0.000019 0.000000
# 3 -0.003402 -0.006220 0.010865 0.000000 -0.003369 0.000000
# 4 0.000000 0.000000 0.000000 0.049623 0.000000 0.001418
# 5 0.003678 -0.000019 -0.003369 0.000000 0.075587 0.000000
# 6 0.000000 0.000000 0.000000 0.001418 0.000000 0.029402
#
#
# Mechanical properties :
#
#
# Convention : Reuss Voigt Hill
#
# Bulk Modulus (GPa) = 45.49038 80.25780 62.87409
# Shear Modulus (GPa) = 20.26321 26.86308 23.56315
#
# Velocity S-wave (km/s) = 3.24576 3.73714 3.50008
# Velocity P-wave (km/s) = 6.13981 7.76840 7.00161
#
# Compressibility (1/GPa) = 0.02198267
#
# Stress axis : x y z
#
# Youngs Moduli (GPa) = 115.53518 29.51853 92.03505
#
# Poissons Ratio (x) = 0.17963 0.31310
# Poissons Ratio (y) = 0.70307 0.57248
# Poissons Ratio (z) = 0.39305 0.18361
#
# Static dielectric constant tensor:
#      x y z
#    x 3.859810 0.000000 -0.022780 
#    y 0.000000 3.253990 0.000000 
#    z -0.022780 0.000000 3.534920 
# 
# 
# High freq. dielectric constant tensor:
#      x y z
#    x 1.770810 0.000000 -0.001610 
#    y 0.000000 1.728510 0.000000 
#    z -0.001610 0.000000 1.747840 
# 
# From -- ./inp_files/359783.got.cif
#   From: 2010.06.25/outbox.cif.g09.slc.cpg/sg12_180_cif.got.tgz:359783.got - 2010.06.28 00:19:55.
