data_PCOD8091054
_publ_section_title
;
Structure prediction by ZEFSAII (Michael W. Deem and Ramdas Pophale) SiO2 
 PCOD8091054
Probable space group: C 2/M
;
_chemical_formula_sum "Si O2"
_cell_formula_units_Z 48
_cell_length_a 8.561285
_cell_length_b 30.388327
_cell_length_c 18.348593
_cell_angle_alpha 90.000000
_cell_angle_beta 146.905789
_cell_angle_gamma 90.000000
_cell_volume 2606.483201
_symmetry_space_group_name_H-M "C 2/M"
_symmetry_group_IT_number 12
_symmetry_cell_setting 'monoclinic'
loop_
_space_group_symop_operation_xyz
x,y,z
-x,y,-z
-x,-y,-z
x,-y,z
1/2+x,1/2+y,z
1/2-x,1/2+y,-z
1/2-x,1/2-y,-z
1/2+x,1/2-y,z
loop_
_atom_site_type_symbol
_atom_site_label
_atom_site_fract_x
_atom_site_fract_y
_atom_site_fract_z
Si Si1 0.988202 0.733681 0.350407
Si Si2 0.102392 0.120330 0.395884
Si Si3 0.229590 0.385465 0.848833
Si Si4 0.791081 0.949682 0.349944
Si Si5 0.784503 0.356728 0.316123
Si Si6 0.823848 0.311182 0.722559
O O1 0.828381 0.695477 0.332241
O O2 0.755818 0.773749 0.248041
O O3 0.250000 0.750000 0.500000
O O4 0.126702 0.715979 0.331231
O O5 0.424673 0.117829 0.550097
O O6 0.065198 0.133256 0.296167
O O7 0.955440 0.072661 0.346426
O O8 0.945324 0.155655 0.387127
O O9 0.331915 0.372726 0.807400
O O10 0.008086 0.425232 0.753753
O O11 0.100804 0.342670 0.842111
O O12 0.500000 0.402342 0.000000
O O13 0.000000 0.944924 0.500000
O O14 0.724916 0.000000 0.304763
#
# Coordination Sequence:
#
# PCOD8091054 Si02
#       6
#     8   8   8   8   8   8
#     4  11  19  27  49  81 111 140 191 237 273 315
#     4  10  19  34  54  83 115 143 182 231 289 328
#     4  10  22  40  60  81 112 153 189 225 278 343
#     4  10  20  37  62  88 113 142 181 232 286 337
#     4  10  20  33  54  83 116 147 186 232 276 329
#     4  10  21  32  50  79 110 149 186 235 278 323
#
# _framework density 18.415619
#
# number of rings (size 3 to 8) (size 9 to 14) (size 15 to 20)
#    0.000    1.833    3.333    1.500    4.667    0.333 
#    0.000    9.167    0.000    1.000    0.000    0.000 
#    0.000    0.000    0.000    0.000    0.000    0.000 
#
# Total GULP energy -297395.644292 kJ/mol
# GULP energy per Si atom -12391.485179 kJ/mol
# Density = 1.837370 g / cm^3
# Si number density = 18.415619 Si / 1000 Ang^3
#
#
#
# Elastic Constant Matrix: (Units=GPa)
#
#
# Indices 1 2 3 4 5 6 
#
# 1 109.0278 56.1753 25.9711 0.0000 -4.4612 0.0000
# 2 56.1753 142.6736 36.0390 0.0000 1.7130 0.0000
# 3 25.9711 36.0390 81.8894 0.0000 -2.7085 0.0000
# 4 0.0000 0.0000 0.0000 11.3991 0.0000 -2.4476
# 5 -4.4612 1.7130 -2.7085 0.0000 17.5150 0.0000
# 6 0.0000 0.0000 0.0000 -2.4476 0.0000 24.4746
#
#
#
# Elastic Compliance Matrix: (Units=1/GPa)
#
#
# Indices 1 2 3 4 5 6 
#
# 1 0.011938 -0.004285 -0.001795 0.000000 0.003182 0.000000
# 2 -0.004285 0.009454 -0.002883 0.000000 -0.002462 0.000000
# 3 -0.001795 -0.002883 0.014116 0.000000 0.002008 0.000000
# 4 0.000000 0.000000 0.000000 0.089651 0.000000 0.008966
# 5 0.003182 -0.002462 0.002008 0.000000 0.058456 0.000000
# 6 0.000000 0.000000 0.000000 0.008966 0.000000 0.041755
#
#
# Mechanical properties :
#
#
# Convention : Reuss Voigt Hill
#
# Bulk Modulus (GPa) = 56.87772 63.32905 60.10339
# Shear Modulus (GPa) = 20.06774 25.03812 22.55293
#
# Velocity S-wave (km/s) = 3.30466 3.69129 3.50332
# Velocity P-wave (km/s) = 6.74638 7.25472 7.00516
#
# Compressibility (1/GPa) = 0.01758158
#
# Stress axis : x y z
#
# Youngs Moduli (GPa) = 83.76935 105.77568 70.84129
#
# Poissons Ratio (x) = 0.45325 0.12715
# Poissons Ratio (y) = 0.35895 0.20424
# Poissons Ratio (z) = 0.15036 0.30496
#
# Static dielectric constant tensor:
#      x y z
#    x 3.781860 0.000000 0.089970 
#    y 0.000000 3.630360 0.000000 
#    z 0.089970 0.000000 2.913540 
# 
# 
# High freq. dielectric constant tensor:
#      x y z
#    x 1.725410 0.000000 0.008760 
#    y 0.000000 1.716710 0.000000 
#    z 0.008760 0.000000 1.661270 
# 
# From -- ./inp_files/170830.got.cif
#   From: 2010.06.25/outbox.cif.g09.slc.cpg/sg12_86_cif.got.tgz:170830.got - 2010.06.28 00:19:55.
