data_PCOD8091191
_publ_section_title
;
Structure prediction by ZEFSAII (Michael W. Deem and Ramdas Pophale) SiO2 
 PCOD8091191
Probable space group: C 2/M
;
_chemical_formula_sum "Si O2"
_cell_formula_units_Z 48
_cell_length_a 18.234807
_cell_length_b 29.458797
_cell_length_c 9.990546
_cell_angle_alpha 90.000000
_cell_angle_beta 28.762620
_cell_angle_gamma 90.000000
_cell_volume 2582.347324
_symmetry_space_group_name_H-M "C 2/M"
_symmetry_group_IT_number 12
_symmetry_cell_setting 'monoclinic'
loop_
_space_group_symop_operation_xyz
x,y,z
-x,y,-z
-x,-y,-z
x,-y,z
1/2+x,1/2+y,z
1/2-x,1/2+y,-z
1/2-x,1/2-y,-z
1/2+x,1/2-y,z
loop_
_atom_site_type_symbol
_atom_site_label
_atom_site_fract_x
_atom_site_fract_y
_atom_site_fract_z
Si Si1 0.878089 0.449921 0.896282
Si Si2 0.134286 0.880666 0.382721
Si Si3 0.934034 0.776078 0.964121
Si Si4 0.370222 0.723347 0.604538
Si Si5 0.803525 0.450231 0.706723
Si Si6 0.550464 0.379690 0.061373
O O1 0.838478 0.500000 0.019919
O O2 0.853192 0.450870 0.779460
O O3 0.059088 0.439856 0.617852
O O4 0.783229 0.411448 0.124977
O O5 0.170919 0.828370 0.289010
O O6 0.000000 0.898505 0.500000
O O7 0.086516 0.884034 0.613785
O O8 0.786735 0.750972 0.139676
O O9 0.888292 0.828557 0.052598
O O10 0.000000 0.756750 0.000000
O O11 0.069956 0.771343 0.641362
O O12 0.500000 0.741776 0.500000
O O13 0.733991 0.500000 0.782164
O O14 0.687386 0.409790 0.889536
O O15 0.500000 0.399152 0.000000
#
# Coordination Sequence:
#
# PCOD8091191 Si02
#       6
#     8   8   8   8   8   8
#     4   9  18  33  55  81 106 135 176 219 262 314
#     4  10  19  34  55  80 107 136 178 225 260 306
#     4  10  21  38  56  77 109 147 180 216 268 327
#     4  10  21  36  55  81 110 136 181 231 266 309
#     4   9  18  34  54  79 108 137 173 218 264 314
#     4  10  21  36  53  78 110 142 175 215 264 317
#
# _framework density 18.58774
#
# number of rings (size 3 to 8) (size 9 to 14) (size 15 to 20)
#    0.000    2.333    1.667    2.000    0.000    2.667 
#    3.000    0.833    0.000    2.000    0.000    0.000 
#    0.000    0.000    0.000    0.000    0.000    0.000 
#
# Total GULP energy -297463.335997 kJ/mol
# GULP energy per Si atom -12394.305667 kJ/mol
# Density = 1.854543 g / cm^3
# Si number density = 18.587740 Si / 1000 Ang^3
#
#
#
# Elastic Constant Matrix: (Units=GPa)
#
#
# Indices 1 2 3 4 5 6 
#
# 1 43.8760 12.0763 11.6278 -0.0025 8.3007 0.0023
# 2 12.0763 76.7059 44.3906 -0.0002 -13.5056 0.0001
# 3 11.6278 44.3906 79.2422 -0.0026 -2.0028 0.0022
# 4 -0.0025 -0.0002 -0.0026 43.3371 0.0026 -10.0796
# 5 8.3007 -13.5056 -2.0028 0.0026 30.1765 -0.0023
# 6 0.0023 0.0001 0.0022 -10.0796 -0.0023 23.0780
#
#
#
# Elastic Compliance Matrix: (Units=1/GPa)
#
#
# Indices 1 2 3 4 5 6 
#
# 1 0.026352 -0.005127 -0.001238 0.000001 -0.009625 -0.000003
# 2 -0.005127 0.022389 -0.011520 -0.000001 0.010666 0.000002
# 3 -0.001238 -0.011520 0.019165 0.000001 -0.003543 -0.000002
# 4 0.000001 -0.000001 0.000001 0.025684 -0.000002 0.011218
# 5 -0.009625 0.010666 -0.003543 -0.000002 0.040324 0.000004
# 6 -0.000003 0.000002 -0.000002 0.011218 0.000004 0.048231
#
#
# Mechanical properties :
#
#
# Convention : Reuss Voigt Hill
#
# Bulk Modulus (GPa) = 31.11829 37.33483 34.22656
# Shear Modulus (GPa) = 21.86973 28.10029 24.98501
#
# Velocity S-wave (km/s) = 3.43383 3.89236 3.67026
# Velocity P-wave (km/s) = 5.70081 6.35059 6.03445
#
# Compressibility (1/GPa) = 0.03213544
#
# Stress axis : x y z
#
# Youngs Moduli (GPa) = 37.94819 44.66541 52.17839
#
# Poissons Ratio (x) = 0.22900 0.06459
# Poissons Ratio (y) = 0.19456 0.60110
# Poissons Ratio (z) = 0.04698 0.51455
#
# Static dielectric constant tensor:
#      x y z
#    x 3.682480 0.000000 -0.092010 
#    y 0.000000 3.475710 0.000000 
#    z -0.092010 0.000000 3.509510 
# 
# 
# High freq. dielectric constant tensor:
#      x y z
#    x 1.704570 0.000000 0.006390 
#    y 0.000000 1.720800 0.000000 
#    z 0.006390 0.000000 1.722250 
# 
# From -- ./inp_files/80552.got.cif
#   From: 2010.06.25/outbox.cif.g09.slc.cpg/sg12_41_cif.got.tgz:80552.got - 2010.06.28 00:19:55.
