data_PCOD8091137
_publ_section_title
;
Structure prediction by ZEFSAII (Michael W. Deem and Ramdas Pophale) SiO2 
 PCOD8091137
Probable space group: C 2/M
;
_chemical_formula_sum "Si O2"
_cell_formula_units_Z 56
_cell_length_a 24.886960
_cell_length_b 8.947485
_cell_length_c 16.492399
_cell_angle_alpha 90.000000
_cell_angle_beta 119.757547
_cell_angle_gamma 90.000000
_cell_volume 3188.182326
_symmetry_space_group_name_H-M "C 2/M"
_symmetry_group_IT_number 12
_symmetry_cell_setting 'monoclinic'
loop_
_space_group_symop_operation_xyz
x,y,z
-x,y,-z
-x,-y,-z
x,-y,z
1/2+x,1/2+y,z
1/2-x,1/2+y,-z
1/2-x,1/2-y,-z
1/2+x,1/2-y,z
loop_
_atom_site_type_symbol
_atom_site_label
_atom_site_fract_x
_atom_site_fract_y
_atom_site_fract_z
Si Si1 0.845191 0.175063 0.596091
Si Si2 0.194778 0.172943 0.912384
Si Si3 0.720332 0.174434 0.594449
Si Si4 0.071422 0.823056 0.907274
Si Si5 0.883453 0.325588 0.900546
Si Si6 0.241801 0.827118 0.774417
Si Si7 0.944757 0.323960 0.776525
O O1 0.788812 0.213649 0.614096
O O2 0.830265 0.236539 0.495597
O O3 0.905947 0.257442 0.673308
O O4 0.858050 0.000000 0.600463
O O5 0.129328 0.231600 0.896494
O O6 0.198549 0.204354 0.819309
O O7 0.202300 0.000000 0.937154
O O8 0.250000 0.250000 0.000000
O O9 0.714718 0.226295 0.682685
O O10 0.705968 0.000000 0.576483
O O11 0.012121 0.747614 0.822918
O O12 0.063169 0.000000 0.900287
O O13 0.079740 0.768718 0.005436
O O14 0.892862 0.500000 0.926781
O O15 0.811654 0.279686 0.848655
O O16 0.911539 0.280629 0.835368
O O17 0.240629 0.000000 0.746433
O O18 0.949961 0.500000 0.769499
#
# Coordination Sequence:
#
# PCOD8091137 Si02
#       7
#     8   8   8   8   8   8   8
#     4  10  20  34  54  79 110 142 174 215 264 317
#     4  10  21  36  55  77 104 140 182 224 265 311
#     4  10  20  33  53  82 111 139 174 216 265 318
#     4  11  23  36  52  77 108 143 183 223 264 314
#     4  10  20  34  53  77 107 144 180 215 263 319
#     4  10  19  34  55  78 108 142 176 219 268 314
#     4  11  22  36  54  77 108 145 181 217 263 320
#
# _framework density 17.564869000000002
#
# number of rings (size 3 to 8) (size 9 to 14) (size 15 to 20)
#    0.000    1.714    2.857    2.143    0.000    5.714 
#    0.000    0.000    0.000    0.857    0.000    6.000 
#    0.000    0.000    0.000    0.000    0.000    0.000 
#
# Total GULP energy -347354.568659 kJ/mol
# GULP energy per Si atom -12405.520309 kJ/mol
# Density = 1.752489 g / cm^3
# Si number density = 17.564869 Si / 1000 Ang^3
#
#
#
# Elastic Constant Matrix: (Units=GPa)
#
#
# Indices 1 2 3 4 5 6 
#
# 1 82.4944 36.1971 41.8525 0.0000 14.9156 0.0000
# 2 36.1971 69.9549 49.3957 0.0000 8.8126 0.0000
# 3 41.8525 49.3957 117.8455 0.0000 17.2785 0.0000
# 4 0.0000 0.0000 0.0000 38.3692 0.0000 2.6483
# 5 14.9156 8.8126 17.2785 0.0000 24.5566 0.0000
# 6 0.0000 0.0000 0.0000 2.6483 0.0000 24.2973
#
#
#
# Elastic Compliance Matrix: (Units=1/GPa)
#
#
# Indices 1 2 3 4 5 6 
#
# 1 0.017386 -0.006379 -0.002551 0.000000 -0.006476 0.000000
# 2 -0.006379 0.022691 -0.007381 0.000000 0.000925 0.000000
# 3 -0.002551 -0.007381 0.013236 0.000000 -0.005114 0.000000
# 4 0.000000 0.000000 0.000000 0.026260 0.000000 -0.002862
# 5 -0.006476 0.000925 -0.005114 0.000000 0.047922 0.000000
# 6 0.000000 0.000000 0.000000 -0.002862 0.000000 0.041469
#
#
# Mechanical properties :
#
#
# Convention : Reuss Voigt Hill
#
# Bulk Modulus (GPa) = 48.33320 58.35393 53.34356
# Shear Modulus (GPa) = 23.98268 26.96794 25.47531
#
# Velocity S-wave (km/s) = 3.69911 3.92258 3.81249
# Velocity P-wave (km/s) = 6.76914 7.33551 7.05801
#
# Compressibility (1/GPa) = 0.02068971
#
# Stress axis : x y z
#
# Youngs Moduli (GPa) = 57.51649 44.07025 75.55403
#
# Poissons Ratio (x) = 0.28112 0.19277
# Poissons Ratio (y) = 0.36689 0.55769
# Poissons Ratio (z) = 0.14675 0.32530
#
# Static dielectric constant tensor:
#      x y z
#    x 3.281350 0.000000 -0.028490 
#    y 0.000000 3.267600 0.000000 
#    z -0.028490 0.000000 3.237470 
# 
# 
# High freq. dielectric constant tensor:
#      x y z
#    x 1.661360 0.000000 0.001270 
#    y 0.000000 1.686750 0.000000 
#    z 0.001270 0.000000 1.680740 
# 
# From -- ./inp_files/237379.got.cif
#   From: 2010.06.25/outbox.cif.g09.slc.cpg/sg12_119_cif.got.tgz:237379.got - 2010.06.28 00:19:55.
