data_PCOD8091048
_publ_section_title
;
Structure prediction by ZEFSAII (Michael W. Deem and Ramdas Pophale) SiO2 
 PCOD8091048
Probable space group: C 2/M
;
_chemical_formula_sum "Si O2"
_cell_formula_units_Z 56
_cell_length_a 19.518896
_cell_length_b 9.105969
_cell_length_c 29.168148
_cell_angle_alpha 90.000000
_cell_angle_beta 146.376823
_cell_angle_gamma 90.000000
_cell_volume 2870.695291
_symmetry_space_group_name_H-M "C 2/M"
_symmetry_group_IT_number 12
_symmetry_cell_setting 'monoclinic'
loop_
_space_group_symop_operation_xyz
x,y,z
-x,y,-z
-x,-y,-z
x,-y,z
1/2+x,1/2+y,z
1/2-x,1/2+y,-z
1/2-x,1/2-y,-z
1/2+x,1/2-y,z
loop_
_atom_site_type_symbol
_atom_site_label
_atom_site_fract_x
_atom_site_fract_y
_atom_site_fract_z
Si Si1 0.527422 0.670351 0.310374
Si Si2 0.435732 0.174280 0.011803
Si Si3 0.024353 0.170339 0.616124
Si Si4 0.511292 0.672546 0.144274
Si Si5 0.341832 0.672421 0.131414
Si Si6 0.277471 0.331889 0.433981
Si Si7 0.254726 0.830940 0.689479
O O1 0.550867 0.500000 0.313332
O O2 0.461313 0.696530 0.321971
O O3 0.437915 0.740748 0.221793
O O4 0.658857 0.746661 0.385482
O O5 0.509995 0.246410 0.094913
O O6 0.440712 0.000000 0.020784
O O7 0.500000 0.222055 0.000000
O O8 0.295264 0.236224 0.935945
O O9 0.898090 0.239824 0.525450
O O10 0.146816 0.236897 0.661163
O O11 0.020648 0.000000 0.600629
O O12 0.525008 0.500000 0.143655
O O13 0.387999 0.708238 0.105550
O O14 0.625824 0.730186 0.237645
O O15 0.336617 0.500000 0.137324
O O16 0.260340 0.500000 0.439702
O O17 0.293819 0.317249 0.388973
O O18 0.287317 0.000000 0.720126
#
# Coordination Sequence:
#
# PCOD8091048 Si02
#       7
#     8   8   8   8   8   8   8
#     4  10  19  34  56  79 110 149 185 221 272 331
#     4  10  22  39  63  89 111 139 182 227 267 324
#     4   9  19  33  55  81 109 147 187 233 278 319
#     4  11  22  38  58  81 115 148 180 222 275 331
#     4   9  19  36  57  82 111 145 183 223 267 322
#     4  10  19  34  54  82 113 142 185 235 279 321
#     4  10  20  35  57  81 109 146 191 232 271 322
#
# _framework density 19.507470000000001
#
# number of rings (size 3 to 8) (size 9 to 14) (size 15 to 20)
#    0.000    2.143    1.429    1.714    2.000    2.000 
#    0.000    2.857    0.000    1.714    0.000    0.000 
#    0.000    0.000    0.000    0.000    0.000    0.000 
#
# Total GULP energy -347221.494523 kJ/mol
# GULP energy per Si atom -12400.767662 kJ/mol
# Density = 1.946307 g / cm^3
# Si number density = 19.507470 Si / 1000 Ang^3
#
#
#
# Elastic Constant Matrix: (Units=GPa)
#
#
# Indices 1 2 3 4 5 6 
#
# 1 104.3823 31.7115 25.8939 -0.0001 4.0359 0.0001
# 2 31.7115 37.1891 20.4812 -0.0001 -1.3691 0.0003
# 3 25.8939 20.4812 83.4051 0.0000 -3.6700 0.0000
# 4 -0.0001 -0.0001 0.0000 26.0705 0.0000 1.7502
# 5 4.0359 -1.3691 -3.6700 0.0000 36.3934 0.0000
# 6 0.0001 0.0003 0.0000 1.7502 0.0000 20.1925
#
#
#
# Elastic Compliance Matrix: (Units=1/GPa)
#
#
# Indices 1 2 3 4 5 6 
#
# 1 0.013244 -0.010470 -0.001630 0.000000 -0.002027 0.000000
# 2 -0.010470 0.039378 -0.006331 0.000000 0.002004 0.000000
# 3 -0.001630 -0.006331 0.014110 0.000000 0.001365 0.000000
# 4 0.000000 0.000000 0.000000 0.038582 0.000000 -0.003344
# 5 -0.002027 0.002004 0.001365 0.000000 0.027915 0.000000
# 6 0.000000 0.000000 0.000000 -0.003344 0.000000 0.049813
#
#
# Mechanical properties :
#
#
# Convention : Reuss Voigt Hill
#
# Bulk Modulus (GPa) = 33.47803 42.34995 37.91399
# Shear Modulus (GPa) = 21.75227 26.32394 24.03810
#
# Velocity S-wave (km/s) = 3.34289 3.67744 3.51415
# Velocity P-wave (km/s) = 5.66558 6.30779 5.99529
#
# Compressibility (1/GPa) = 0.02987033
#
# Stress axis : x y z
#
# Youngs Moduli (GPa) = 75.50799 25.39489 70.86968
#
# Poissons Ratio (x) = 0.26589 0.11550
# Poissons Ratio (y) = 0.79057 0.44868
# Poissons Ratio (z) = 0.12306 0.16078
#
# Static dielectric constant tensor:
#      x y z
#    x 3.684740 0.000000 0.057270 
#    y 0.000000 3.212550 0.000000 
#    z 0.057270 0.000000 3.702320 
# 
# 
# High freq. dielectric constant tensor:
#      x y z
#    x 1.773850 0.000000 -0.001040 
#    y 0.000000 1.717700 0.000000 
#    z -0.001040 0.000000 1.769950 
# 
# From -- ./inp_files/275044.got.cif
#   From: 2010.06.25/outbox.cif.g09.slc.cpg/sg12_138_cif.got.tgz:275044.got - 2010.06.28 00:19:55.
