data_PCOD8091937
_publ_section_title
;
Structure prediction by ZEFSAII (Michael W. Deem and Ramdas Pophale) SiO2 
 PCOD8091937
Probable space group: C 2/M
;
_chemical_formula_sum "Si O2"
_cell_formula_units_Z 52
_cell_length_a 18.061382
_cell_length_b 27.985586
_cell_length_c 11.884334
_cell_angle_alpha 90.000000
_cell_angle_beta 152.485235
_cell_angle_gamma 90.000000
_cell_volume 2775.113527
_symmetry_space_group_name_H-M "C 2/M"
_symmetry_group_IT_number 12
_symmetry_cell_setting 'monoclinic'
loop_
_space_group_symop_operation_xyz
x,y,z
-x,y,-z
-x,-y,-z
x,-y,z
1/2+x,1/2+y,z
1/2-x,1/2+y,-z
1/2-x,1/2-y,-z
1/2+x,1/2-y,z
loop_
_atom_site_type_symbol
_atom_site_label
_atom_site_fract_x
_atom_site_fract_y
_atom_site_fract_z
Si Si1 0.665955 0.500000 0.438468
Si Si2 0.844898 0.573531 0.085578
Si Si3 0.328187 0.186934 0.809409
Si Si4 0.678203 0.817846 0.933674
Si Si5 0.675329 0.077719 0.203277
Si Si6 0.616999 0.000000 0.482733
Si Si7 0.192484 0.000000 0.032706
Si Si8 0.499264 0.270906 0.370031
O O1 0.699195 0.547040 0.556943
O O2 0.750317 0.500000 0.432927
O O3 0.483236 0.500000 0.154983
O O4 0.857679 0.627673 0.146796
O O5 0.714207 0.546801 0.984835
O O6 0.015132 0.548091 0.329807
O O7 0.789761 0.571070 0.881628
O O8 0.308521 0.132831 0.738644
O O9 0.174269 0.216294 0.553201
O O10 0.500000 0.208168 0.000000
O O11 0.327898 0.189747 0.942076
O O12 0.536094 0.785439 0.690553
O O13 0.851325 0.801259 0.116083
O O14 0.500000 0.058201 0.000000
O O15 0.683960 0.000000 0.698454
O O16 0.500000 0.286243 0.500000
#
# Coordination Sequence:
#
# PCOD8091937 Si02
#       8
#     4   8   8   8   8   4   4   8
#     4  12  22  36  60  79 112 147 182 233 270 343
#     4  10  20  37  59  82 109 142 188 233 273 325
#     4   9  19  33  54  81 111 141 176 224 275 321
#     4   9  19  34  56  81 104 145 181 218 278 321
#     4  10  19  34  58  85 107 144 184 224 287 328
#     4  11  22  41  57  71 114 154 186 217 272 345
#     4  11  26  36  51  86 111 148 184 229 277 313
#     4   9  18  34  54  79 112 142 177 222 268 327
#
# _framework density 18.737971999999999
#
# number of rings (size 3 to 8) (size 9 to 14) (size 15 to 20)
#    0.000    2.154    1.538    2.308    2.154    3.077 
#    0.000    0.000    0.000    0.000    0.000    0.000 
#    0.000    0.000    0.000    0.000    0.000    0.000 
#
# Total GULP energy -322338.985949 kJ/mol
# GULP energy per Si atom -12397.653306 kJ/mol
# Density = 1.869532 g / cm^3
# Si number density = 18.737972 Si / 1000 Ang^3
#
#
#
# Elastic Constant Matrix: (Units=GPa)
#
#
# Indices 1 2 3 4 5 6 
#
# 1 72.4266 34.6932 33.0165 0.0000 22.4606 0.0000
# 2 34.6932 127.9052 51.2454 0.0000 18.7596 0.0000
# 3 33.0165 51.2454 87.1678 0.0000 31.7667 0.0000
# 4 0.0000 0.0000 0.0000 17.6662 0.0000 2.2248
# 5 22.4606 18.7596 31.7667 0.0000 37.2702 0.0000
# 6 0.0000 0.0000 0.0000 2.2248 0.0000 15.1577
#
#
#
# Elastic Compliance Matrix: (Units=1/GPa)
#
#
# Indices 1 2 3 4 5 6 
#
# 1 0.018758 -0.002925 -0.002614 0.000000 -0.007604 0.000000
# 2 -0.002925 0.010683 -0.005593 0.000000 0.001152 0.000000
# 3 -0.002614 -0.005593 0.020526 0.000000 -0.013105 0.000000
# 4 0.000000 0.000000 0.000000 0.057671 0.000000 -0.008465
# 5 -0.007604 0.001152 -0.013105 0.000000 0.042003 0.000000
# 6 0.000000 0.000000 0.000000 -0.008465 0.000000 0.067216
#
#
# Mechanical properties :
#
#
# Convention : Reuss Voigt Hill
#
# Bulk Modulus (GPa) = 36.09691 58.37886 47.23789
# Shear Modulus (GPa) = 20.13238 25.25512 22.69375
#
# Velocity S-wave (km/s) = 3.28138 3.67523 3.48388
# Velocity P-wave (km/s) = 5.80194 7.01661 6.43798
#
# Compressibility (1/GPa) = 0.02770320
#
# Stress axis : x y z
#
# Youngs Moduli (GPa) = 53.31025 93.60255 48.71907
#
# Poissons Ratio (x) = 0.27383 0.12735
# Poissons Ratio (y) = 0.15595 0.27247
# Poissons Ratio (z) = 0.13936 0.52349
#
# Static dielectric constant tensor:
#      x y z
#    x 3.422440 0.000000 0.201390 
#    y 0.000000 3.514800 0.000000 
#    z 0.201390 0.000000 3.437400 
# 
# 
# High freq. dielectric constant tensor:
#      x y z
#    x 1.719760 0.000000 0.011110 
#    y 0.000000 1.726750 0.000000 
#    z 0.011110 0.000000 1.719230 
# 
# From -- ./inp_files/160866.got.cif
#   From: 2010.06.25/outbox.cif.g09.slc.cpg/sg12_81_cif.got.tgz:160866.got - 2010.06.28 00:19:55.
