data_PCOD8091547
_publ_section_title
;
Structure prediction by ZEFSAII (Michael W. Deem and Ramdas Pophale) SiO2 
 PCOD8091547
Probable space group: C 2/M
;
_chemical_formula_sum "Si O2"
_cell_formula_units_Z 56
_cell_length_a 17.024351
_cell_length_b 16.235436
_cell_length_c 19.813673
_cell_angle_alpha 90.000000
_cell_angle_beta 148.309172
_cell_angle_gamma 90.000000
_cell_volume 2876.975850
_symmetry_space_group_name_H-M "C 2/M"
_symmetry_group_IT_number 12
_symmetry_cell_setting 'monoclinic'
loop_
_space_group_symop_operation_xyz
x,y,z
-x,y,-z
-x,-y,-z
x,-y,z
1/2+x,1/2+y,z
1/2-x,1/2+y,-z
1/2-x,1/2-y,-z
1/2+x,1/2-y,z
loop_
_atom_site_type_symbol
_atom_site_label
_atom_site_fract_x
_atom_site_fract_y
_atom_site_fract_z
Si Si1 0.079786 0.000000 0.469386
Si Si2 0.356428 0.802696 0.348169
Si Si3 0.576686 0.255767 0.877123
Si Si4 0.680588 0.361768 0.453434
Si Si5 0.026162 0.300117 0.340681
Si Si6 0.901782 0.329537 0.860943
Si Si7 0.876954 0.096722 0.742684
Si Si8 0.754628 0.500000 0.723892
O O1 0.080378 0.921452 0.422948
O O2 0.230928 0.000000 0.625811
O O3 0.918748 0.000000 0.384298
O O4 0.500000 0.779622 0.500000
O O5 0.410312 0.830512 0.312946
O O6 0.246801 0.725603 0.256141
O O7 0.264147 0.878135 0.313669
O O8 0.544926 0.239562 0.776320
O O9 0.509008 0.185107 0.875339
O O10 0.520624 0.345196 0.864194
O O11 0.750000 0.250000 0.000000
O O12 0.859418 0.373299 0.596090
O O13 0.630770 0.273003 0.446622
O O14 0.660229 0.381321 0.360424
O O15 0.846044 0.423027 0.819496
O O16 0.000000 0.311116 0.000000
O O17 0.913978 0.000000 0.780874
#
# Coordination Sequence:
#
# PCOD8091547 Si02
#       8
#     4   8   8   8   8   8   8   4
#     4  11  22  34  56  89 126 160 194 265 318 380
#     4  11  22  37  65  94 126 169 210 260 310 379
#     4  10  22  41  66  89 120 169 215 257 307 386
#     4  10  19  34  56  85 125 157 200 249 315 372
#     4  10  20  35  58  87 119 162 204 250 305 370
#     4  11  24  43  63  88 127 165 213 263 320 386
#     4  10  21  40  61  95 126 163 209 258 316 376
#     4  11  25  38  58  92 124 164 208 264 328 380
#
# _framework density 19.464884000000001
#
# number of rings (size 3 to 8) (size 9 to 14) (size 15 to 20)
#    0.000    1.571    2.143    2.786    6.000    1.429 
#    2.571    0.000    0.000   14.571    0.000    0.000 
#    0.000    0.000    0.000    0.000    0.000    0.000 
#
# Total GULP energy -346873.972345 kJ/mol
# GULP energy per Si atom -12388.356155 kJ/mol
# Density = 1.942058 g / cm^3
# Si number density = 19.464884 Si / 1000 Ang^3
#
#
#
# Elastic Constant Matrix: (Units=GPa)
#
#
# Indices 1 2 3 4 5 6 
#
# 1 117.6644 26.4655 39.5298 0.0023 5.4411 0.0006
# 2 26.4655 93.9479 38.2731 0.0041 8.2761 0.0015
# 3 39.5298 38.2731 100.4691 0.0029 20.7641 0.0016
# 4 0.0023 0.0041 0.0029 18.6009 0.0026 -2.8542
# 5 5.4411 8.2761 20.7641 0.0026 33.0988 0.0015
# 6 0.0006 0.0015 0.0016 -2.8542 0.0015 28.2164
#
#
#
# Elastic Compliance Matrix: (Units=1/GPa)
#
#
# Indices 1 2 3 4 5 6 
#
# 1 0.009980 -0.001439 -0.003578 0.000000 0.000964 0.000000
# 2 -0.001439 0.012808 -0.004251 -0.000002 -0.000299 -0.000001
# 3 -0.003578 -0.004251 0.014522 0.000000 -0.007459 0.000000
# 4 0.000000 -0.000002 0.000000 0.054608 -0.000004 0.005524
# 5 0.000964 -0.000299 -0.007459 -0.000004 0.034808 -0.000002
# 6 0.000000 -0.000001 0.000000 0.005524 -0.000002 0.035999
#
#
# Mechanical properties :
#
#
# Convention : Reuss Voigt Hill
#
# Bulk Modulus (GPa) = 53.26400 57.84647 55.55524
# Shear Modulus (GPa) = 26.66409 29.83744 28.25076
#
# Velocity S-wave (km/s) = 3.70517 3.91946 3.81382
# Velocity P-wave (km/s) = 6.76224 7.08983 6.92798
#
# Compressibility (1/GPa) = 0.01877441
#
# Stress axis : x y z
#
# Youngs Moduli (GPa) = 100.20336 78.07803 68.86129
#
# Poissons Ratio (x) = 0.11233 0.24636
# Poissons Ratio (y) = 0.14417 0.29274
# Poissons Ratio (z) = 0.35849 0.33192
#
# Static dielectric constant tensor:
#      x y z
#    x 4.079030 -0.000080 0.231090 
#    y -0.000080 3.170960 -0.000060 
#    z 0.231090 -0.000060 3.751100 
# 
# 
# High freq. dielectric constant tensor:
#      x y z
#    x 1.779390 0.000000 0.003230 
#    y 0.000000 1.740940 0.000000 
#    z 0.003230 0.000000 1.752900 
# 
# From -- ./inp_files/271481.got.cif
#   From: 2010.06.25/outbox.cif.g09.slc.cpg/sg12_136_cif.got.tgz:271481.got - 2010.06.28 00:19:55.
