data_PCOD8091678
_publ_section_title
;
Structure prediction by ZEFSAII (Michael W. Deem and Ramdas Pophale) SiO2 
 PCOD8091678
Probable space group: C 2/M
;
_chemical_formula_sum "Si O2"
_cell_formula_units_Z 52
_cell_length_a 15.653209
_cell_length_b 18.837460
_cell_length_c 17.334601
_cell_angle_alpha 90.000000
_cell_angle_beta 29.346437
_cell_angle_gamma 90.000000
_cell_volume 2505.039662
_symmetry_space_group_name_H-M "C 2/M"
_symmetry_group_IT_number 12
_symmetry_cell_setting 'monoclinic'
loop_
_space_group_symop_operation_xyz
x,y,z
-x,y,-z
-x,-y,-z
x,-y,z
1/2+x,1/2+y,z
1/2-x,1/2+y,-z
1/2-x,1/2-y,-z
1/2+x,1/2-y,z
loop_
_atom_site_type_symbol
_atom_site_label
_atom_site_fract_x
_atom_site_fract_y
_atom_site_fract_z
Si Si1 0.614366 0.647619 0.188061
Si Si2 0.516844 0.000000 0.895960
Si Si3 0.312878 0.500000 0.109572
Si Si4 0.339294 0.283489 0.302981
Si Si5 0.019680 0.238278 0.393767
Si Si6 0.987534 0.652743 0.101095
Si Si7 0.801598 0.147110 0.181657
Si Si8 0.649360 0.500000 0.104033
O O1 0.509870 0.705173 0.219737
O O2 0.563001 0.663729 0.317414
O O3 0.547157 0.570091 0.213686
O O4 0.820236 0.656276 0.012169
O O5 0.603359 0.924069 0.805250
O O6 0.500000 0.000000 0.000000
O O7 0.329038 0.000000 0.006489
O O8 0.223783 0.572202 0.211298
O O9 0.500000 0.500000 0.000000
O O10 0.323759 0.500000 0.008888
O O11 0.164903 0.270837 0.490911
O O12 0.365387 0.213586 0.229925
O O13 0.302736 0.350054 0.274122
O O14 0.000000 0.225070 0.500000
O O15 0.173548 0.292612 0.249206
O O16 0.000000 0.662482 0.000000
O O17 0.000000 0.161857 0.000000
#
# Coordination Sequence:
#
# PCOD8091678 Si02
#       8
#     8   4   4   8   8   8   8   4
#     4  11  21  37  57  80 112 149 189 242 286 332
#     4   8  18  34  51  77 111 141 181 243 291 323
#     4  10  20  36  58  89 122 147 182 237 285 335
#     4  11  21  34  55  86 115 150 192 232 279 338
#     4  10  22  38  55  81 116 150 190 234 280 339
#     4  10  19  34  57  82 109 147 193 237 286 340
#     4  10  20  37  60  85 114 152 190 230 281 342
#     4  10  22  36  57  88 113 144 196 242 286 344
#
# _framework density 20.758154999999999
#
# number of rings (size 3 to 8) (size 9 to 14) (size 15 to 20)
#    0.000    1.846    0.000    6.000    0.000    2.462 
#    0.000    5.385    0.000    0.000    0.000    0.000 
#    0.000    0.000    0.000    0.000    0.000    0.000 
#
# Total GULP energy -322140.127894 kJ/mol
# GULP energy per Si atom -12390.004919 kJ/mol
# Density = 2.071091 g / cm^3
# Si number density = 20.758155 Si / 1000 Ang^3
#
#
#
# Elastic Constant Matrix: (Units=GPa)
#
#
# Indices 1 2 3 4 5 6 
#
# 1 94.8105 48.7568 17.0496 0.0061 -4.6298 0.0012
# 2 48.7568 152.1735 51.8490 0.0194 17.7390 -0.0015
# 3 17.0496 51.8490 84.1580 0.0211 -5.1929 -0.0030
# 4 0.0061 0.0194 0.0211 12.8161 -0.0068 5.3488
# 5 -4.6298 17.7390 -5.1929 -0.0068 30.8944 -0.0026
# 6 0.0012 -0.0015 -0.0030 5.3488 -0.0026 32.6434
#
#
#
# Elastic Compliance Matrix: (Units=1/GPa)
#
#
# Indices 1 2 3 4 5 6 
#
# 1 0.013282 -0.005105 0.000766 0.000003 0.005051 -0.000001
# 2 -0.005105 0.011406 -0.006512 -0.000009 -0.008409 0.000001
# 3 0.000766 -0.006512 0.016144 -0.000015 0.006567 0.000004
# 4 0.000003 -0.000009 -0.000015 0.083755 0.000020 -0.013724
# 5 0.005051 -0.008409 0.006567 0.000020 0.039057 0.000000
# 6 -0.000001 0.000001 0.000004 -0.013724 0.000000 0.032883
#
#
# Mechanical properties :
#
#
# Convention : Reuss Voigt Hill
#
# Bulk Modulus (GPa) = 52.27303 62.93921 57.60612
# Shear Modulus (GPa) = 22.26130 29.50322 25.88226
#
# Velocity S-wave (km/s) = 3.27832 3.77408 3.53490
# Velocity P-wave (km/s) = 6.29019 7.02692 6.66874
#
# Compressibility (1/GPa) = 0.01913033
#
# Stress axis : x y z
#
# Youngs Moduli (GPa) = 75.29208 87.67217 61.94145
#
# Poissons Ratio (x) = 0.44759 -0.04746
# Poissons Ratio (y) = 0.38439 0.40335
# Poissons Ratio (z) = -0.05769 0.57090
#
# Static dielectric constant tensor:
#      x y z
#    x 3.834340 -0.000020 -0.175930 
#    y -0.000020 4.729260 0.000080 
#    z -0.175930 0.000080 3.594500 
# 
# 
# High freq. dielectric constant tensor:
#      x y z
#    x 1.826240 0.000000 -0.013910 
#    y 0.000000 1.819290 0.000010 
#    z -0.013910 0.000010 1.774180 
# 
# From -- ./inp_files/272215.got.cif
#   From: 2010.06.25/outbox.cif.g09.slc.cpg/sg12_137_cif.got.tgz:272215.got - 2010.06.28 00:19:55.
