data_PCOD8091780
_publ_section_title
;
Structure prediction by ZEFSAII (Michael W. Deem and Ramdas Pophale) SiO2 
 PCOD8091780
Probable space group: C 2/M
;
_chemical_formula_sum "Si O2"
_cell_formula_units_Z 64
_cell_length_a 27.670267
_cell_length_b 14.519324
_cell_length_c 18.620630
_cell_angle_alpha 90.000000
_cell_angle_beta 27.065792
_cell_angle_gamma 90.000000
_cell_volume 3403.911329
_symmetry_space_group_name_H-M "C 2/M"
_symmetry_group_IT_number 12
_symmetry_cell_setting 'monoclinic'
loop_
_space_group_symop_operation_xyz
x,y,z
-x,y,-z
-x,-y,-z
x,-y,z
1/2+x,1/2+y,z
1/2-x,1/2+y,-z
1/2-x,1/2-y,-z
1/2+x,1/2-y,z
loop_
_atom_site_type_symbol
_atom_site_label
_atom_site_fract_x
_atom_site_fract_y
_atom_site_fract_z
Si Si1 0.427496 0.396587 0.321839
Si Si2 0.627299 0.602914 0.155404
Si Si3 0.391477 0.716943 0.678959
Si Si4 0.129214 0.273560 0.672422
Si Si5 0.136518 0.395275 0.207015
Si Si6 0.524456 0.893988 0.206317
Si Si7 0.796135 0.604370 0.308704
Si Si8 0.789861 0.394316 0.151055
O O1 0.425258 0.500000 0.293936
O O2 0.533950 0.376068 0.223965
O O3 0.428865 0.326168 0.252320
O O4 0.327022 0.378192 0.507350
O O5 0.616639 0.500000 0.201629
O O6 0.621923 0.675003 0.225416
O O7 0.738046 0.614287 0.968821
O O8 0.500000 0.683969 0.500000
O O9 0.392638 0.827708 0.688460
O O10 0.298767 0.680380 0.750824
O O11 0.250000 0.250000 0.500000
O O12 0.122342 0.328799 0.756440
O O13 0.080704 0.334548 0.671314
O O14 0.106123 0.500000 0.268429
O O15 0.075597 0.365347 0.214709
O O16 0.490352 0.000000 0.253166
O O17 0.607688 0.874406 0.032562
O O18 0.827531 0.500000 0.287296
O O19 0.817109 0.622987 0.197708
O O20 0.750119 0.500000 0.191313
#
# Coordination Sequence:
#
# PCOD8091780 Si02
#       8
#     8   8   8   8   8   8   8   8
#     4   9  18  31  52  80 108 139 177 225 275 327
#     4  10  19  34  57  85 112 144 184 230 287 338
#     4  12  23  33  54  84 119 157 187 227 279 336
#     4  10  20  33  53  77 105 140 183 227 276 332
#     4  10  22  39  58  81 113 151 195 235 270 332
#     4  10  20  36  58  83 108 140 183 231 280 332
#     4   9  18  34  51  75 112 143 175 223 280 338
#     4  10  21  35  53  82 116 146 181 225 283 346
#
# _framework density 18.801901000000001
#
# number of rings (size 3 to 8) (size 9 to 14) (size 15 to 20)
#    0.000    2.000    1.250    2.625    1.750    4.250 
#    0.000    1.875    0.000    0.750    0.000    0.875 
#    0.000    0.000    0.000    0.000    0.000    0.000 
#
# Total GULP energy -396689.818173 kJ/mol
# GULP energy per Si atom -12396.556818 kJ/mol
# Density = 1.875911 g / cm^3
# Si number density = 18.801901 Si / 1000 Ang^3
#
#
#
# Elastic Constant Matrix: (Units=GPa)
#
#
# Indices 1 2 3 4 5 6 
#
# 1 150.5656 139.9388 85.0591 0.0000 -31.7183 0.0000
# 2 139.9388 198.8709 101.8207 0.0000 -31.5369 0.0000
# 3 85.0591 101.8207 113.7505 0.0000 -32.5060 0.0000
# 4 0.0000 0.0000 0.0000 22.2438 0.0000 -11.7602
# 5 -31.7183 -31.5369 -32.5060 0.0000 31.6524 0.0000
# 6 0.0000 0.0000 0.0000 -11.7602 0.0000 29.3131
#
#
#
# Elastic Compliance Matrix: (Units=1/GPa)
#
#
# Indices 1 2 3 4 5 6 
#
# 1 0.021017 -0.012320 -0.003082 0.000000 0.005621 0.000000
# 2 -0.012320 0.016527 -0.006233 0.000000 -0.002280 0.000000
# 3 -0.003082 -0.006233 0.019840 0.000000 0.011077 0.000000
# 4 0.000000 0.000000 0.000000 0.057059 0.000000 0.022892
# 5 0.005621 -0.002280 0.011077 0.000000 0.046330 0.000000
# 6 0.000000 0.000000 0.000000 0.022892 0.000000 0.043298
#
#
# Mechanical properties :
#
#
# Convention : Reuss Voigt Hill
#
# Bulk Modulus (GPa) = 70.84471 124.09157 97.46814
# Shear Modulus (GPa) = 19.83764 25.73308 22.78536
#
# Velocity S-wave (km/s) = 3.25173 3.70353 3.48496
# Velocity P-wave (km/s) = 7.20137 9.18863 8.25502
#
# Compressibility (1/GPa) = 0.01411538
#
# Stress axis : x y z
#
# Youngs Moduli (GPa) = 47.58075 60.50722 50.40214
#
# Poissons Ratio (x) = 0.74542 0.15534
# Poissons Ratio (y) = 0.58617 0.31415
# Poissons Ratio (z) = 0.14664 0.37714
#
# Static dielectric constant tensor:
#      x y z
#    x 3.515890 0.000000 -0.207490 
#    y 0.000000 4.277720 0.000000 
#    z -0.207490 0.000000 3.253620 
# 
# 
# High freq. dielectric constant tensor:
#      x y z
#    x 1.722460 0.000000 -0.024330 
#    y 0.000000 1.744270 0.000000 
#    z -0.024330 0.000000 1.710610 
# 
# From -- ./inp_files/290107.got.cif
#   From: 2010.06.25/outbox.cif.g09.slc.cpg/sg12_146_cif.got.tgz:290107.got - 2010.06.28 00:19:55.
