data_PCOD8091934
_publ_section_title
;
Structure prediction by ZEFSAII (Michael W. Deem and Ramdas Pophale) SiO2 
 PCOD8091934
Probable space group: C 2/M
;
_chemical_formula_sum "Si O2"
_cell_formula_units_Z 64
_cell_length_a 15.235278
_cell_length_b 31.995253
_cell_length_c 20.074002
_cell_angle_alpha 90.000000
_cell_angle_beta 160.900190
_cell_angle_gamma 90.000000
_cell_volume 3201.863311
_symmetry_space_group_name_H-M "C 2/M"
_symmetry_group_IT_number 12
_symmetry_cell_setting 'monoclinic'
loop_
_space_group_symop_operation_xyz
x,y,z
-x,y,-z
-x,-y,-z
x,-y,z
1/2+x,1/2+y,z
1/2-x,1/2+y,-z
1/2-x,1/2-y,-z
1/2+x,1/2-y,z
loop_
_atom_site_type_symbol
_atom_site_label
_atom_site_fract_x
_atom_site_fract_y
_atom_site_fract_z
Si Si1 0.235246 0.240928 0.065952
Si Si2 0.823855 0.094995 0.438956
Si Si3 0.784436 0.548474 0.024652
Si Si4 0.194366 0.818691 0.265348
Si Si5 0.768260 0.912458 0.152307
Si Si6 0.940237 0.894426 0.027584
Si Si7 0.058258 0.827314 0.774635
Si Si8 0.931301 0.662606 0.668086
O O1 0.293870 0.284945 0.145501
O O2 0.476792 0.209466 0.253762
O O3 0.250000 0.250000 0.000000
O O4 0.943889 0.220053 0.874858
O O5 0.587203 0.062310 0.256857
O O6 0.718138 0.142382 0.374883
O O7 0.000000 0.096114 0.500000
O O8 0.984498 0.080429 0.620084
O O9 0.756394 0.500000 0.019959
O O10 0.580593 0.572248 0.928024
O O11 0.702985 0.556439 0.889539
O O12 0.500000 0.806392 0.500000
O O13 0.993193 0.826152 0.183259
O O14 0.183351 0.861782 0.216356
O O15 0.750908 0.865668 0.109409
O O16 0.500000 0.922466 0.000000
O O17 0.671040 0.868329 0.822669
O O18 0.000000 0.917410 0.000000
O O19 0.765367 0.834321 0.535070
#
# Coordination Sequence:
#
# PCOD8091934 Si02
#       8
#     8   8   8   8   8   8   8   8
#     4   9  19  32  52  82 121 158 198 254 296 337
#     4  10  21  38  62  89 120 160 202 243 301 368
#     4  11  24  42  65  92 123 153 194 255 308 367
#     4  10  19  34  58  84 116 160 203 246 294 352
#     4  11  22  40  64  90 120 164 203 240 304 368
#     4  10  20  38  62  88 117 157 201 244 299 365
#     4  10  19  36  57  82 121 159 200 253 295 350
#     4   9  19  34  57  84 113 159 205 247 294 349
#
# _framework density 19.988361999999999
#
# number of rings (size 3 to 8) (size 9 to 14) (size 15 to 20)
#    0.000    2.000    2.500    1.125    1.750    1.250 
#    0.000   11.250    0.000    0.375    0.000    0.000 
#    0.000    0.000    0.000    0.000    0.000    0.000 
#
# Total GULP energy -396648.840426 kJ/mol
# GULP energy per Si atom -12395.276263 kJ/mol
# Density = 1.994287 g / cm^3
# Si number density = 19.988362 Si / 1000 Ang^3
#
#
#
# Elastic Constant Matrix: (Units=GPa)
#
#
# Indices 1 2 3 4 5 6 
#
# 1 99.6545 21.9421 11.0760 -0.0023 -4.5614 -0.0059
# 2 21.9421 105.8373 21.6784 -0.0186 -3.4150 0.0002
# 3 11.0760 21.6784 80.2310 -0.0782 -7.9544 -0.0038
# 4 -0.0023 -0.0186 -0.0782 17.3958 -0.0176 -5.4770
# 5 -4.5614 -3.4150 -7.9544 -0.0176 24.5696 -0.0003
# 6 -0.0059 0.0002 -0.0038 -5.4770 -0.0003 14.0910
#
#
#
# Elastic Compliance Matrix: (Units=1/GPa)
#
#
# Indices 1 2 3 4 5 6 
#
# 1 0.010627 -0.001996 -0.000785 -0.000002 0.001441 0.000004
# 2 -0.001996 0.010384 -0.002504 -0.000001 0.000262 -0.000002
# 3 -0.000785 -0.002504 0.013638 0.000072 0.003922 0.000032
# 4 -0.000002 -0.000001 0.000072 0.065501 0.000070 0.025459
# 5 0.001441 0.000262 0.003922 0.000070 0.042274 0.000030
# 6 0.000004 -0.000002 0.000032 0.025459 0.000030 0.080863
#
#
# Mechanical properties :
#
#
# Convention : Reuss Voigt Hill
#
# Bulk Modulus (GPa) = 41.53024 43.90174 42.71599
# Shear Modulus (GPa) = 20.67107 26.61303 23.64205
#
# Velocity S-wave (km/s) = 3.21932 3.65283 3.44290
# Velocity P-wave (km/s) = 5.88566 6.30890 6.10095
#
# Compressibility (1/GPa) = 0.02407884
#
# Stress axis : x y z
#
# Youngs Moduli (GPa) = 94.09669 96.30540 73.32529
#
# Poissons Ratio (x) = 0.19222 0.05755
# Poissons Ratio (y) = 0.18781 0.18362
# Poissons Ratio (z) = 0.07386 0.24116
#
# Static dielectric constant tensor:
#      x y z
#    x 3.609620 -0.000220 -0.132820 
#    y -0.000220 3.698480 0.000180 
#    z -0.132820 0.000180 3.766230 
# 
# 
# High freq. dielectric constant tensor:
#      x y z
#    x 1.778760 0.000000 -0.014000 
#    y 0.000000 1.763600 -0.000010 
#    z -0.014000 -0.000010 1.783320 
# 
# From -- ./inp_files/312945.got.cif
#   From: 2010.06.25/outbox.cif.g09.slc.cpg/sg12_157_cif.got.tgz:312945.got - 2010.06.28 00:19:55.
