data_PCOD8091466
_publ_section_title
;
Structure prediction by ZEFSAII (Michael W. Deem and Ramdas Pophale) SiO2 
 PCOD8091466
Probable space group: C 2/M
;
_chemical_formula_sum "Si O2"
_cell_formula_units_Z 64
_cell_length_a 19.885781
_cell_length_b 8.939822
_cell_length_c 20.164286
_cell_angle_alpha 90.000000
_cell_angle_beta 101.910667
_cell_angle_gamma 90.000000
_cell_volume 3507.536054
_symmetry_space_group_name_H-M "C 2/M"
_symmetry_group_IT_number 12
_symmetry_cell_setting 'monoclinic'
loop_
_space_group_symop_operation_xyz
x,y,z
-x,y,-z
-x,-y,-z
x,-y,z
1/2+x,1/2+y,z
1/2-x,1/2+y,-z
1/2-x,1/2-y,-z
1/2+x,1/2-y,z
loop_
_atom_site_type_symbol
_atom_site_label
_atom_site_fract_x
_atom_site_fract_y
_atom_site_fract_z
Si Si1 0.025039 0.675485 0.687708
Si Si2 0.497342 0.673928 0.922767
Si Si3 0.652112 0.676343 0.654734
Si Si4 0.407706 0.825117 0.160221
Si Si5 0.141239 0.825056 0.178671
Si Si6 0.751896 0.675861 0.429283
Si Si7 0.385907 0.325491 0.677322
Si Si8 0.218633 0.175360 0.807169
O O1 0.030045 0.500000 0.675068
O O2 0.075389 0.760160 0.647343
O O3 0.045277 0.717083 0.767146
O O4 0.948320 0.732660 0.658481
O O5 0.512346 0.500000 0.913263
O O6 0.556042 0.767423 0.898455
O O7 0.422857 0.718306 0.880063
O O8 0.500000 0.716718 0.000000
O O9 0.648680 0.500000 0.642629
O O10 0.685034 0.753889 0.597848
O O11 0.697056 0.719721 0.728143
O O12 0.333676 0.747803 0.151238
O O13 0.395423 0.000000 0.152224
O O14 0.126236 0.771180 0.250170
O O15 0.205959 0.737242 0.162543
O O16 0.158258 0.000000 0.180568
O O17 0.763874 0.500000 0.438133
O O18 0.750000 0.750000 0.500000
O O19 0.681004 0.713532 0.378364
O O20 0.404715 0.500000 0.679027
O O21 0.217440 0.000000 0.818028
#
# Coordination Sequence:
#
# PCOD8091466 Si02
#       8
#     8   8   8   8   8   8   8   8
#     4  10  20  33  55  85 114 143 182 231 276 323
#     4  10  21  37  57  81 112 149 185 224 275 332
#     4  10  20  35  56  82 113 147 183 226 277 327
#     4  10  20  34  54  81 113 147 183 226 277 328
#     4  10  19  34  56  82 112 143 182 230 276 323
#     4  11  23  39  58  82 114 149 185 224 274 331
#     4  10  20  35  57  83 111 145 184 228 274 324
#     4  10  20  33  55  84 112 142 183 232 276 324
#
# _framework density 18.246427000000001
#
# number of rings (size 3 to 8) (size 9 to 14) (size 15 to 20)
#    0.000    1.875    2.500    1.875    0.000    4.250 
#    0.000    1.250    0.000    3.750    0.000    0.000 
#    0.000    0.000    0.000    0.000    0.000    0.000 
#
# Total GULP energy -396986.999496 kJ/mol
# GULP energy per Si atom -12405.843734 kJ/mol
# Density = 1.820490 g / cm^3
# Si number density = 18.246427 Si / 1000 Ang^3
#
#
#
# Elastic Constant Matrix: (Units=GPa)
#
#
# Indices 1 2 3 4 5 6 
#
# 1 140.3138 62.6038 58.5699 0.0000 -18.7929 0.0000
# 2 62.6038 81.0342 47.1645 0.0000 -11.5767 0.0000
# 3 58.5699 47.1645 101.3080 0.0000 -8.2805 0.0000
# 4 0.0000 0.0000 0.0000 26.4672 0.0000 -6.3777
# 5 -18.7929 -11.5767 -8.2805 0.0000 27.5272 0.0000
# 6 0.0000 0.0000 0.0000 -6.3777 0.0000 39.4495
#
#
#
# Elastic Compliance Matrix: (Units=1/GPa)
#
#
# Indices 1 2 3 4 5 6 
#
# 1 0.012209 -0.006723 -0.003566 0.000000 0.004435 0.000000
# 2 -0.006723 0.021290 -0.005811 0.000000 0.002616 0.000000
# 3 -0.003566 -0.005811 0.014598 0.000000 -0.000487 0.000000
# 4 0.000000 0.000000 0.000000 0.039314 0.000000 0.006356
# 5 0.004435 0.002616 -0.000487 0.000000 0.040309 0.000000
# 6 0.000000 0.000000 0.000000 0.006356 0.000000 0.026376
#
#
# Mechanical properties :
#
#
# Convention : Reuss Voigt Hill
#
# Bulk Modulus (GPa) = 62.90490 73.25915 68.08202
# Shear Modulus (GPa) = 26.09642 28.97663 27.53653
#
# Velocity S-wave (km/s) = 3.78593 3.98938 3.88899
# Velocity P-wave (km/s) = 7.32537 7.83947 7.58678
#
# Compressibility (1/GPa) = 0.01589701
#
# Stress axis : x y z
#
# Youngs Moduli (GPa) = 81.90624 46.96931 68.50170
#
# Poissons Ratio (x) = 0.31578 0.24428
# Poissons Ratio (y) = 0.55066 0.39808
# Poissons Ratio (z) = 0.29208 0.27295
#
# Static dielectric constant tensor:
#      x y z
#    x 3.397930 0.000000 -0.045460 
#    y 0.000000 3.330270 0.000000 
#    z -0.045460 0.000000 3.114030 
# 
# 
# High freq. dielectric constant tensor:
#      x y z
#    x 1.718310 0.000000 -0.010540 
#    y 0.000000 1.714310 0.000000 
#    z -0.010540 0.000000 1.682760 
# 
# From -- ./inp_files/314032.got.cif
#   From: 2010.06.25/outbox.cif.g09.slc.cpg/sg12_158_cif.got.tgz:314032.got - 2010.06.28 00:19:55.
