data_PCOD8091243
_publ_section_title
;
Structure prediction by ZEFSAII (Michael W. Deem and Ramdas Pophale) SiO2 
 PCOD8091243
Probable space group: C 2/M
;
_chemical_formula_sum "Si O2"
_cell_formula_units_Z 56
_cell_length_a 23.802595
_cell_length_b 9.245720
_cell_length_c 15.029366
_cell_angle_alpha 90.000000
_cell_angle_beta 117.931530
_cell_angle_gamma 90.000000
_cell_volume 2922.242064
_symmetry_space_group_name_H-M "C 2/M"
_symmetry_group_IT_number 12
_symmetry_cell_setting 'monoclinic'
loop_
_space_group_symop_operation_xyz
x,y,z
-x,y,-z
-x,-y,-z
x,-y,z
1/2+x,1/2+y,z
1/2-x,1/2+y,-z
1/2-x,1/2-y,-z
1/2+x,1/2-y,z
loop_
_atom_site_type_symbol
_atom_site_label
_atom_site_fract_x
_atom_site_fract_y
_atom_site_fract_z
Si Si1 0.869810 0.835332 0.308179
Si Si2 0.066999 0.828730 0.320635
Si Si3 0.251449 0.835161 0.226310
Si Si4 0.691893 0.667444 0.003048
Si Si5 0.710190 0.670372 0.392918
Si Si6 0.934505 0.164371 0.174050
Si Si7 0.565211 0.160002 0.497458
O O1 0.803436 0.772833 0.223261
O O2 0.922207 0.820258 0.270573
O O3 0.883372 0.738793 0.404002
O O4 0.862460 0.000000 0.333880
O O5 0.136090 0.782267 0.336877
O O6 0.054327 0.754395 0.403917
O O7 0.007240 0.777162 0.212726
O O8 0.062481 0.000000 0.331015
O O9 0.232966 0.784058 0.311759
O O10 0.276784 0.000000 0.247945
O O11 0.194033 0.823265 0.112436
O O12 0.695649 0.500000 0.973675
O O13 0.623522 0.739164 0.923412
O O14 0.750000 0.750000 0.000000
O O15 0.717177 0.500000 0.415154
O O16 0.750000 0.750000 0.500000
O O17 0.933445 0.000000 0.141603
O O18 0.500000 0.146597 0.500000
O O19 0.591145 0.000000 0.492281
#
# Coordination Sequence:
#
# PCOD8091243 Si02
#       7
#     8   8   8   8   8   8   8
#     4  11  20  32  53  79 108 142 181 222 268 327
#     4  10  20  37  57  76 105 146 187 227 269 324
#     4  10  21  36  55  81 114 144 180 230 279 323
#     4  10  19  34  55  81 113 146 179 224 275 327
#     4  10  22  39  58  80 107 145 188 228 274 326
#     4   9  18  32  52  79 108 136 176 223 267 319
#     4  11  22  33  48  76 111 140 173 219 278 336
#
# _framework density 19.163367999999998
#
# number of rings (size 3 to 8) (size 9 to 14) (size 15 to 20)
#    0.000    1.857    2.857    1.714    0.000    4.000 
#    0.000    1.429    0.000    4.286    0.000    0.000 
#    0.000    4.571    0.000    0.000    0.000    0.000 
#
# Total GULP energy -346929.284612 kJ/mol
# GULP energy per Si atom -12390.331593 kJ/mol
# Density = 1.911975 g / cm^3
# Si number density = 19.163368 Si / 1000 Ang^3
#
#
#
# Elastic Constant Matrix: (Units=GPa)
#
#
# Indices 1 2 3 4 5 6 
#
# 1 95.9497 29.0776 43.6250 0.0000 27.7011 0.0000
# 2 29.0776 30.9902 24.0770 0.0000 9.4122 0.0000
# 3 43.6250 24.0770 116.5309 0.0000 23.4623 0.0000
# 4 0.0000 0.0000 0.0000 22.9132 0.0000 6.3238
# 5 27.7011 9.4122 23.4623 0.0000 38.2152 0.0000
# 6 0.0000 0.0000 0.0000 6.3238 0.0000 32.9736
#
#
#
# Elastic Compliance Matrix: (Units=1/GPa)
#
#
# Indices 1 2 3 4 5 6 
#
# 1 0.017577 -0.012104 -0.002413 0.000000 -0.008279 0.000000
# 2 -0.012104 0.047715 -0.005395 0.000000 0.000334 0.000000
# 3 -0.002413 -0.005395 0.011387 0.000000 -0.003914 0.000000
# 4 0.000000 0.000000 0.000000 0.046082 0.000000 -0.008838
# 5 -0.008279 0.000334 -0.003914 0.000000 0.034489 0.000000
# 6 0.000000 0.000000 0.000000 -0.008838 0.000000 0.032022
#
#
# Mechanical properties :
#
#
# Convention : Reuss Voigt Hill
#
# Bulk Modulus (GPa) = 27.13145 48.55888 37.84516
# Shear Modulus (GPa) = 20.71418 28.59981 24.65699
#
# Velocity S-wave (km/s) = 3.29131 3.86738 3.59091
# Velocity P-wave (km/s) = 5.35092 6.73324 6.08149
#
# Compressibility (1/GPa) = 0.03685760
#
# Stress axis : x y z
#
# Youngs Moduli (GPa) = 56.89180 20.95787 87.81794
#
# Poissons Ratio (x) = 0.25367 0.21187
# Poissons Ratio (y) = 0.68859 0.47374
# Poissons Ratio (z) = 0.13726 0.11306
#
# Static dielectric constant tensor:
#      x y z
#    x 3.581470 0.000000 0.322090 
#    y 0.000000 3.448530 0.000000 
#    z 0.322090 0.000000 3.800140 
# 
# 
# High freq. dielectric constant tensor:
#      x y z
#    x 1.733460 0.000000 0.022670 
#    y 0.000000 1.727060 0.000000 
#    z 0.022670 0.000000 1.752700 
# 
# From -- ./inp_files/238383.got.cif
#   From: 2010.06.25/outbox.cif.g09.slc.cpg/sg12_120_cif.got.tgz:238383.got - 2010.06.28 00:19:55.
