data_PCOD8091102
_publ_section_title
;
Structure prediction by ZEFSAII (Michael W. Deem and Ramdas Pophale) SiO2 
 PCOD8091102
Probable space group: C 2/M
;
_chemical_formula_sum "Si O2"
_cell_formula_units_Z 56
_cell_length_a 25.504933
_cell_length_b 13.869391
_cell_length_c 11.833901
_cell_angle_alpha 90.000000
_cell_angle_beta 41.737971
_cell_angle_gamma 90.000000
_cell_volume 2786.790939
_symmetry_space_group_name_H-M "C 2/M"
_symmetry_group_IT_number 12
_symmetry_cell_setting 'monoclinic'
loop_
_space_group_symop_operation_xyz
x,y,z
-x,y,-z
-x,-y,-z
x,-y,z
1/2+x,1/2+y,z
1/2-x,1/2+y,-z
1/2-x,1/2-y,-z
1/2+x,1/2-y,z
loop_
_atom_site_type_symbol
_atom_site_label
_atom_site_fract_x
_atom_site_fract_y
_atom_site_fract_z
Si Si1 0.012523 0.392602 0.654148
Si Si2 0.293376 0.111083 0.494247
Si Si3 0.844402 0.891355 0.005672
Si Si4 0.558774 0.801466 0.813492
Si Si5 0.326727 0.836657 0.679466
Si Si6 0.576624 0.729384 0.315480
Si Si7 0.119778 0.890780 0.793129
O O1 0.982041 0.500000 0.731980
O O2 0.027578 0.328864 0.741200
O O3 0.093891 0.402013 0.451926
O O4 0.946259 0.336658 0.690470
O O5 0.355072 0.150454 0.302034
O O6 0.302930 0.181589 0.587390
O O7 0.204275 0.116448 0.593346
O O8 0.313629 0.000000 0.496358
O O9 0.750150 0.882023 0.136991
O O10 0.868591 0.862125 0.094198
O O11 0.868772 0.000000 0.943491
O O12 0.894583 0.830605 0.837034
O O13 0.562293 0.684790 0.823846
O O14 0.500000 0.846084 0.000000
O O15 0.352236 0.740108 0.707463
O O16 0.500000 0.681452 0.500000
O O17 0.086364 0.000000 0.834142
#
# Coordination Sequence:
#
# PCOD8091102 Si02
#       7
#     8   8   8   8   8   8   8
#     4  10  21  35  51  75 105 135 169 207 249 298
#     4   9  18  33  53  77 102 130 167 207 250 300
#     4  10  19  34  55  77 101 131 170 210 248 296
#     4  11  20  31  50  74 103 135 166 204 252 299
#     4   9  17  32  55  77  99 128 168 210 245 288
#     4  10  21  34  51  78 107 134 164 203 253 304
#     4   9  19  35  54  74  97 131 174 214 248 288
#
# _framework density 20.094798000000001
#
# number of rings (size 3 to 8) (size 9 to 14) (size 15 to 20)
#    0.000    2.286    0.000    5.143    0.000    5.429 
#    0.000    0.714    0.000    5.143    0.000   10.000 
#    0.000    0.000    0.000    0.000    0.000    0.000 
#
# Total GULP energy -346866.910768 kJ/mol
# GULP energy per Si atom -12388.103956 kJ/mol
# Density = 2.004906 g / cm^3
# Si number density = 20.094798 Si / 1000 Ang^3
#
#
#
# Elastic Constant Matrix: (Units=GPa)
#
#
# Indices 1 2 3 4 5 6 
#
# 1 56.2659 38.3799 32.5668 0.0000 1.9872 0.0000
# 2 38.3799 91.8220 57.7555 0.0000 6.5576 0.0000
# 3 32.5668 57.7555 138.6869 0.0000 2.1769 0.0000
# 4 0.0000 0.0000 0.0000 20.6051 0.0000 3.0481
# 5 1.9872 6.5576 2.1769 0.0000 18.4701 0.0000
# 6 0.0000 0.0000 0.0000 3.0481 0.0000 24.6891
#
#
#
# Elastic Compliance Matrix: (Units=1/GPa)
#
#
# Indices 1 2 3 4 5 6 
#
# 1 0.025310 -0.009338 -0.002068 0.000000 0.000836 0.000000
# 2 -0.009338 0.018588 -0.005470 0.000000 -0.004950 0.000000
# 3 -0.002068 -0.005470 0.009959 0.000000 0.000991 0.000000
# 4 0.000000 0.000000 0.000000 0.049434 0.000000 -0.006103
# 5 0.000836 -0.004950 0.000991 0.000000 0.055692 0.000000
# 6 0.000000 0.000000 0.000000 -0.006103 0.000000 0.041257
#
#
# Mechanical properties :
#
#
# Convention : Reuss Voigt Hill
#
# Bulk Modulus (GPa) = 49.74117 60.46434 55.10275
# Shear Modulus (GPa) = 20.77325 23.29104 22.03214
#
# Velocity S-wave (km/s) = 3.21871 3.40819 3.31480
# Velocity P-wave (km/s) = 6.21453 6.75593 6.49088
#
# Compressibility (1/GPa) = 0.02010407
#
# Stress axis : x y z
#
# Youngs Moduli (GPa) = 39.51061 53.79743 100.41585
#
# Poissons Ratio (x) = 0.50237 0.20761
# Poissons Ratio (y) = 0.36896 0.54932
# Poissons Ratio (z) = 0.08169 0.29430
#
# Static dielectric constant tensor:
#      x y z
#    x 3.531130 0.000000 -0.151330 
#    y 0.000000 3.450360 0.000000 
#    z -0.151330 0.000000 3.871810 
# 
# 
# High freq. dielectric constant tensor:
#      x y z
#    x 1.770860 0.000000 -0.013410 
#    y 0.000000 1.758020 0.000000 
#    z -0.013410 0.000000 1.790490 
# 
# From -- ./inp_files/183436.got.cif
#   From: 2010.06.25/outbox.cif.g09.slc.cpg/sg12_92_cif.got.tgz:183436.got - 2010.06.28 00:19:55.
