data_PCOD8091462
_publ_section_title
;
Structure prediction by ZEFSAII (Michael W. Deem and Ramdas Pophale) SiO2 
 PCOD8091462
Probable space group: C 2/M
;
_chemical_formula_sum "Si O2"
_cell_formula_units_Z 56
_cell_length_a 20.038522
_cell_length_b 8.896311
_cell_length_c 19.377866
_cell_angle_alpha 90.000000
_cell_angle_beta 57.395338
_cell_angle_gamma 90.000000
_cell_volume 2910.076192
_symmetry_space_group_name_H-M "C 2/M"
_symmetry_group_IT_number 12
_symmetry_cell_setting 'monoclinic'
loop_
_space_group_symop_operation_xyz
x,y,z
-x,y,-z
-x,-y,-z
x,-y,z
1/2+x,1/2+y,z
1/2-x,1/2+y,-z
1/2-x,1/2-y,-z
1/2+x,1/2-y,z
loop_
_atom_site_type_symbol
_atom_site_label
_atom_site_fract_x
_atom_site_fract_y
_atom_site_fract_z
Si Si1 0.834385 0.822690 0.441701
Si Si2 0.916870 0.178443 0.013992
Si Si3 0.048094 0.677492 0.143931
Si Si4 0.282839 0.676204 0.191415
Si Si5 0.389744 0.821266 0.743634
Si Si6 0.523436 0.176767 0.564552
Si Si7 0.885268 0.824948 0.260968
O O1 0.750000 0.750000 0.500000
O O2 0.894846 0.760646 0.464780
O O3 0.864869 0.774752 0.349350
O O4 0.826472 0.000000 0.453230
O O5 0.846310 0.241198 0.101496
O O6 0.915078 0.000000 0.008339
O O7 0.904307 0.249486 0.945727
O O8 0.000000 0.232413 0.000000
O O9 0.052449 0.500000 0.135100
O O10 0.088007 0.734725 0.192432
O O11 0.957494 0.728647 0.192150
O O12 0.277084 0.500000 0.181804
O O13 0.196040 0.747942 0.228044
O O14 0.310012 0.710922 0.254370
O O15 0.454813 0.761015 0.653254
O O16 0.388124 0.000000 0.740225
O O17 0.500000 0.216834 0.500000
O O18 0.537267 0.000000 0.566912
O O19 0.908553 0.000000 0.243125
#
# Coordination Sequence:
#
# PCOD8091462 Si02
#       7
#     8   8   8   8   8   8   8
#     4  11  24  39  61  90 122 153 193 243 292 348
#     4  10  19  34  56  82 110 147 195 239 279 332
#     4  11  21  34  56  83 116 148 181 232 292 346
#     4   9  18  34  57  81 108 145 195 240 275 330
#     4   9  19  35  55  82 113 148 186 232 286 340
#     4  10  21  38  62  87 116 155 198 238 290 356
#     4  10  20  37  61  84 108 149 197 233 275 337
#
# _framework density 19.243483000000001
#
# number of rings (size 3 to 8) (size 9 to 14) (size 15 to 20)
#    0.000    2.000    2.857    0.857    2.000    1.714 
#    0.000    0.000    0.000    3.429    0.000    0.000 
#    0.000    0.000    0.000    0.000    0.000    0.000 
#
# Total GULP energy -347266.247777 kJ/mol
# GULP energy per Si atom -12402.365992 kJ/mol
# Density = 1.919968 g / cm^3
# Si number density = 19.243483 Si / 1000 Ang^3
#
#
#
# Elastic Constant Matrix: (Units=GPa)
#
#
# Indices 1 2 3 4 5 6 
#
# 1 147.6234 26.8534 59.5251 0.0001 -2.9138 -0.0001
# 2 26.8534 32.5245 32.0432 0.0002 2.1575 0.0004
# 3 59.5251 32.0432 116.2984 0.0000 9.2434 0.0001
# 4 0.0001 0.0002 0.0000 27.7466 0.0000 2.7613
# 5 -2.9138 2.1575 9.2434 0.0000 39.0047 -0.0001
# 6 -0.0001 0.0004 0.0001 2.7613 -0.0001 23.7352
#
#
#
# Elastic Compliance Matrix: (Units=1/GPa)
#
#
# Indices 1 2 3 4 5 6 
#
# 1 0.009002 -0.003942 -0.003661 0.000000 0.001758 0.000000
# 2 -0.003942 0.043935 -0.010060 0.000000 -0.000341 -0.000001
# 3 -0.003661 -0.010060 0.013476 0.000000 -0.002910 0.000000
# 4 0.000000 0.000000 0.000000 0.036463 0.000000 -0.004242
# 5 0.001758 -0.000341 -0.002910 0.000000 0.026478 0.000000
# 6 0.000000 -0.000001 0.000000 -0.004242 0.000000 0.042625
#
#
# Mechanical properties :
#
#
# Convention : Reuss Voigt Hill
#
# Bulk Modulus (GPa) = 32.16951 59.25443 45.71197
# Shear Modulus (GPa) = 22.97084 29.96561 26.46822
#
# Velocity S-wave (km/s) = 3.45874 3.95040 3.71271
# Velocity P-wave (km/s) = 5.71873 7.18793 6.49500
#
# Compressibility (1/GPa) = 0.03108534
#
# Stress axis : x y z
#
# Youngs Moduli (GPa) = 111.08608 22.76091 74.20772
#
# Poissons Ratio (x) = 0.08973 0.27168
# Poissons Ratio (y) = 0.43791 0.74656
# Poissons Ratio (z) = 0.40670 0.22899
#
# Static dielectric constant tensor:
#      x y z
#    x 3.689260 0.000000 0.014310 
#    y 0.000000 3.177280 0.000000 
#    z 0.014310 0.000000 3.751940 
# 
# 
# High freq. dielectric constant tensor:
#      x y z
#    x 1.757020 0.000000 0.004900 
#    y 0.000000 1.713270 0.000000 
#    z 0.004900 0.000000 1.761390 
# 
# From -- ./inp_files/280988.got.cif
#   From: 2010.06.25/outbox.cif.g09.slc.cpg/sg12_141_cif.got.tgz:280988.got - 2010.06.28 00:19:55.
