data_PCOD8091824
_publ_section_title
;
Structure prediction by ZEFSAII (Michael W. Deem and Ramdas Pophale) SiO2 
 PCOD8091824
Probable space group: C 2/M
;
_chemical_formula_sum "Si O2"
_cell_formula_units_Z 44
_cell_length_a 7.667595
_cell_length_b 20.781008
_cell_length_c 14.370596
_cell_angle_alpha 90.000000
_cell_angle_beta 115.363645
_cell_angle_gamma 90.000000
_cell_volume 2069.094255
_symmetry_space_group_name_H-M "C 2/M"
_symmetry_group_IT_number 12
_symmetry_cell_setting 'monoclinic'
loop_
_space_group_symop_operation_xyz
x,y,z
-x,y,-z
-x,-y,-z
x,-y,z
1/2+x,1/2+y,z
1/2-x,1/2+y,-z
1/2-x,1/2-y,-z
1/2+x,1/2-y,z
loop_
_atom_site_type_symbol
_atom_site_label
_atom_site_fract_x
_atom_site_fract_y
_atom_site_fract_z
Si Si1 0.632407 0.283602 0.666128
Si Si2 0.833491 0.927543 0.748793
Si Si3 0.368774 0.607764 0.548916
Si Si4 0.476321 0.847497 0.640329
Si Si5 0.000000 0.722093 0.000000
Si Si6 0.597365 0.316931 0.868503
O O1 0.456398 0.320966 0.578698
O O2 0.614384 0.208894 0.629392
O O3 0.835393 0.315427 0.684066
O O4 0.609185 0.285585 0.770763
O O5 0.876692 0.929706 0.647886
O O6 0.620064 0.899166 0.719919
O O7 0.994167 0.886364 0.840784
O O8 0.842942 0.000000 0.789597
O O9 0.500000 0.571366 0.500000
O O10 0.146778 0.615658 0.466667
O O11 0.811812 0.676375 0.961939
O O12 0.976147 0.767805 0.904338
#
# Coordination Sequence:
#
# PCOD8091824 Si02
#       6
#     8   8   8   8   4   8
#     4  10  19  34  57  87 118 143 184 240 293 332
#     4  11  24  40  55  77 116 158 193 225 267 329
#     4   9  20  35  55  84 115 150 192 235 277 321
#     4  11  20  32  55  84 116 154 191 233 275 321
#     4  10  20  38  68  94 112 130 172 234 298 354
#     4  10  21  38  62  91 115 141 175 228 290 344
#
# _framework density 21.265345
#
# number of rings (size 3 to 8) (size 9 to 14) (size 15 to 20)
#    0.000    1.818    0.000    5.455    0.000    6.182 
#    0.000    8.182    0.000    0.000    0.000    0.000 
#    0.000    0.000    0.000    0.000    0.000    0.000 
#
# Total GULP energy -272738.435100 kJ/mol
# GULP energy per Si atom -12397.201595 kJ/mol
# Density = 2.121694 g / cm^3
# Si number density = 21.265345 Si / 1000 Ang^3
#
#
#
# Elastic Constant Matrix: (Units=GPa)
#
#
# Indices 1 2 3 4 5 6 
#
# 1 125.8203 50.1929 39.5588 0.0000 17.7218 0.0000
# 2 50.1929 130.4285 42.2794 0.0000 37.9600 0.0000
# 3 39.5588 42.2794 80.9761 0.0000 10.6977 0.0000
# 4 0.0000 0.0000 0.0000 16.6526 0.0000 3.7373
# 5 17.7218 37.9600 10.6977 0.0000 43.2333 0.0000
# 6 0.0000 0.0000 0.0000 3.7373 0.0000 17.4720
#
#
#
# Elastic Compliance Matrix: (Units=1/GPa)
#
#
# Indices 1 2 3 4 5 6 
#
# 1 0.010202 -0.002433 -0.003560 0.000000 -0.001165 0.000000
# 2 -0.002433 0.012586 -0.004192 0.000000 -0.009017 0.000000
# 3 -0.003560 -0.004192 0.016125 0.000000 0.001150 0.000000
# 4 0.000000 0.000000 0.000000 0.063079 0.000000 -0.013493
# 5 -0.001165 -0.009017 0.001150 0.000000 0.031240 0.000000
# 6 0.000000 0.000000 0.000000 -0.013493 0.000000 0.060120
#
#
# Mechanical properties :
#
#
# Convention : Reuss Voigt Hill
#
# Bulk Modulus (GPa) = 53.92531 66.80968 60.36750
# Shear Modulus (GPa) = 22.73734 29.15116 25.94425
#
# Velocity S-wave (km/s) = 3.27344 3.70649 3.49667
# Velocity P-wave (km/s) = 6.30084 7.05711 6.68967
#
# Compressibility (1/GPa) = 0.01854417
#
# Stress axis : x y z
#
# Youngs Moduli (GPa) = 98.02332 79.45101 62.01553
#
# Poissons Ratio (x) = 0.19331 0.22075
# Poissons Ratio (y) = 0.23850 0.25996
# Poissons Ratio (z) = 0.34892 0.33304
#
# Static dielectric constant tensor:
#      x y z
#    x 4.116080 0.000000 0.035910 
#    y 0.000000 3.418460 0.000000 
#    z 0.035910 0.000000 3.849840 
# 
# 
# High freq. dielectric constant tensor:
#      x y z
#    x 1.853940 0.000000 0.007350 
#    y 0.000000 1.793490 0.000000 
#    z 0.007350 0.000000 1.825440 
# 
# From -- ./inp_files/197265.got.cif
#   From: 2010.06.25/outbox.cif.g09.slc.cpg/sg12_99_cif.got.tgz:197265.got - 2010.06.28 00:19:55.
