data_PCOD8091746
_publ_section_title
;
Structure prediction by ZEFSAII (Michael W. Deem and Ramdas Pophale) SiO2 
 PCOD8091746
Probable space group: C 2/M
;
_chemical_formula_sum "Si O2"
_cell_formula_units_Z 48
_cell_length_a 9.720182
_cell_length_b 28.310972
_cell_length_c 13.653695
_cell_angle_alpha 90.000000
_cell_angle_beta 36.529286
_cell_angle_gamma 90.000000
_cell_volume 2236.489201
_symmetry_space_group_name_H-M "C 2/M"
_symmetry_group_IT_number 12
_symmetry_cell_setting 'monoclinic'
loop_
_space_group_symop_operation_xyz
x,y,z
-x,y,-z
-x,-y,-z
x,-y,z
1/2+x,1/2+y,z
1/2-x,1/2+y,-z
1/2-x,1/2-y,-z
1/2+x,1/2-y,z
loop_
_atom_site_type_symbol
_atom_site_label
_atom_site_fract_x
_atom_site_fract_y
_atom_site_fract_z
Si Si1 0.122446 0.204671 0.185827
Si Si2 0.616938 0.945702 0.328549
Si Si3 0.968180 0.609624 0.236348
Si Si4 0.085495 0.710246 0.795517
Si Si5 0.948326 0.103908 0.850610
Si Si6 0.738543 0.051787 0.805717
O O1 0.186955 0.210256 0.264517
O O2 0.006165 0.154916 0.224328
O O3 0.932790 0.243863 0.263358
O O4 0.359885 0.209051 0.991580
O O5 0.500000 0.944851 0.500000
O O6 0.449150 0.918979 0.348439
O O7 0.847254 0.913943 0.197061
O O8 0.665951 0.000000 0.267438
O O9 0.909211 0.665053 0.280054
O O10 0.773657 0.588039 0.276656
O O11 0.221308 0.603123 0.046424
O O12 0.936730 0.067147 0.767513
O O13 0.797690 0.000000 0.731167
O O14 0.500000 0.052291 0.000000
#
# Coordination Sequence:
#
# PCOD8091746 Si02
#       6
#     8   8   8   8   8   8
#     4   9  17  29  49  83 119 143 170 217 274 326
#     4  11  25  41  54  75 111 151 189 231 280 331
#     4  10  19  34  57  84 110 140 183 228 272 326
#     4   9  17  29  49  83 119 143 170 217 274 326
#     4  10  19  34  57  84 110 140 183 228 272 326
#     4   9  16  28  50  79 107 131 165 223 278 317
#
# _framework density 21.462209000000001
#
# number of rings (size 3 to 8) (size 9 to 14) (size 15 to 20)
#    0.000    2.333    1.667    1.500    2.333    2.667 
#    0.000    0.833    0.000    4.000    0.000    0.000 
#    0.000    0.000    0.000    0.000    0.000    0.000 
#
# Total GULP energy -297521.475024 kJ/mol
# GULP energy per Si atom -12396.728126 kJ/mol
# Density = 2.141336 g / cm^3
# Si number density = 21.462209 Si / 1000 Ang^3
#
#
#
# Elastic Constant Matrix: (Units=GPa)
#
#
# Indices 1 2 3 4 5 6 
#
# 1 113.1678 53.5476 2.3773 0.0000 13.7819 0.0000
# 2 53.5476 167.6863 8.1595 0.0000 9.1987 0.0000
# 3 2.3773 8.1595 8.6361 0.0000 5.8845 0.0000
# 4 0.0000 0.0000 0.0000 10.8844 0.0000 1.3612
# 5 13.7819 9.1987 5.8845 0.0000 13.4349 0.0000
# 6 0.0000 0.0000 0.0000 1.3612 0.0000 46.4395
#
#
#
# Elastic Compliance Matrix: (Units=1/GPa)
#
#
# Indices 1 2 3 4 5 6 
#
# 1 0.012031 -0.003536 0.009677 0.000000 -0.014159 0.000000
# 2 -0.003536 0.007346 -0.007143 0.000000 0.001727 0.000000
# 3 0.009677 -0.007143 0.175769 0.000000 -0.082023 0.000000
# 4 0.000000 0.000000 0.000000 0.092213 0.000000 -0.002703
# 5 -0.014159 0.001727 -0.082023 0.000000 0.123702 0.000000
# 6 0.000000 0.000000 0.000000 -0.002703 0.000000 0.021613
#
#
# Mechanical properties :
#
#
# Convention : Reuss Voigt Hill
#
# Bulk Modulus (GPa) = 5.17760 46.40654 25.79207
# Shear Modulus (GPa) = 10.01891 29.17881 19.59886
#
# Velocity S-wave (km/s) = 2.16294 3.69120 3.02517
# Velocity P-wave (km/s) = 2.94201 6.31158 4.92399
#
# Compressibility (1/GPa) = 0.19313961
#
# Stress axis : x y z
#
# Youngs Moduli (GPa) = 83.12183 136.13753 5.68930
#
# Poissons Ratio (x) = 0.48137 -0.05505
# Poissons Ratio (y) = 0.29391 0.04064
# Poissons Ratio (z) = -0.80435 0.97247
#
# Static dielectric constant tensor:
#      x y z
#    x 4.078070 0.000000 -0.058450 
#    y 0.000000 4.154860 0.000000 
#    z -0.058450 0.000000 3.205020 
# 
# 
# High freq. dielectric constant tensor:
#      x y z
#    x 1.853600 0.000000 -0.000800 
#    y 0.000000 1.856020 0.000000 
#    z -0.000800 0.000000 1.780690 
# 
# From -- ./inp_files/200785.got.cif
#   From: 2010.06.25/outbox.cif.g09.slc.cpg/sg12_101_cif.got.tgz:200785.got - 2010.06.28 00:19:55.
