data_PCOD8091650
_publ_section_title
;
Structure prediction by ZEFSAII (Michael W. Deem and Ramdas Pophale) SiO2 
 PCOD8091650
Probable space group: C 2/M
;
_chemical_formula_sum "Si O2"
_cell_formula_units_Z 56
_cell_length_a 20.644588
_cell_length_b 9.247770
_cell_length_c 15.358462
_cell_angle_alpha 90.000000
_cell_angle_beta 100.409874
_cell_angle_gamma 90.000000
_cell_volume 2883.919594
_symmetry_space_group_name_H-M "C 2/M"
_symmetry_group_IT_number 12
_symmetry_cell_setting 'monoclinic'
loop_
_space_group_symop_operation_xyz
x,y,z
-x,y,-z
-x,-y,-z
x,-y,z
1/2+x,1/2+y,z
1/2-x,1/2+y,-z
1/2-x,1/2-y,-z
1/2+x,1/2-y,z
loop_
_atom_site_type_symbol
_atom_site_label
_atom_site_fract_x
_atom_site_fract_y
_atom_site_fract_z
Si Si1 0.209468 0.341370 0.873126
Si Si2 0.911723 0.330464 0.725868
Si Si3 0.436306 0.828523 0.540313
Si Si4 0.266607 0.162437 0.731199
Si Si5 0.157199 0.158555 0.999156
Si Si6 0.943028 0.670005 0.921508
Si Si7 0.694310 0.663634 0.536767
O O1 0.180106 0.500000 0.842775
O O2 0.234656 0.266450 0.793159
O O3 0.267645 0.362631 0.956033
O O4 0.152945 0.245374 0.906482
O O5 0.905174 0.500000 0.716422
O O6 0.944811 0.275972 0.643645
O O7 0.836949 0.270981 0.717502
O O8 0.955433 0.289940 0.822351
O O9 0.500000 0.783029 0.500000
O O10 0.374525 0.746511 0.484967
O O11 0.423829 0.000000 0.531176
O O12 0.214651 0.157234 0.641477
O O13 0.276728 0.000000 0.772060
O O14 0.123041 0.248991 0.067290
O O15 0.124186 0.000000 0.979397
O O16 0.932090 0.500000 0.930660
O O17 0.000000 0.726158 0.000000
O O18 0.687838 0.500000 0.497937
O O19 0.750000 0.750000 0.500000
#
# Coordination Sequence:
#
# PCOD8091650 Si02
#       7
#     8   8   8   8   8   8   8
#     4  10  20  33  53  81 109 141 186 230 277 339
#     4   9  17  34  58  81 109 148 191 238 294 349
#     4  10  21  40  63  86 118 160 200 242 303 365
#     4  10  19  34  57  81 113 150 186 236 298 350
#     4  10  20  34  53  77 109 144 181 227 288 340
#     4  10  20  35  56  79 108 147 195 243 282 333
#     4  11  22  37  60  89 121 152 195 248 301 358
#
# _framework density 19.418016000000001
#
# number of rings (size 3 to 8) (size 9 to 14) (size 15 to 20)
#    0.000    2.000    2.857    1.286    0.000    2.857 
#    2.571    0.714    0.000    0.000    0.000    0.000 
#    0.000    0.000    0.000    0.000    0.000    0.000 
#
# Total GULP energy -347043.953734 kJ/mol
# GULP energy per Si atom -12394.426919 kJ/mol
# Density = 1.937382 g / cm^3
# Si number density = 19.418016 Si / 1000 Ang^3
#
#
#
# Elastic Constant Matrix: (Units=GPa)
#
#
# Indices 1 2 3 4 5 6 
#
# 1 80.8898 35.0715 48.8743 0.0000 -5.4196 0.0000
# 2 35.0715 96.7356 42.8373 0.0000 -13.4101 0.0000
# 3 48.8743 42.8373 131.8612 0.0000 -16.8389 0.0000
# 4 0.0000 0.0000 0.0000 24.9215 0.0000 -0.3881
# 5 -5.4196 -13.4101 -16.8389 0.0000 38.4248 0.0000
# 6 0.0000 0.0000 0.0000 -0.3881 0.0000 24.1929
#
#
#
# Elastic Compliance Matrix: (Units=1/GPa)
#
#
# Indices 1 2 3 4 5 6 
#
# 1 0.017204 -0.004111 -0.005206 0.000000 -0.001289 0.000000
# 2 -0.004111 0.013315 -0.002418 0.000000 0.003008 0.000000
# 3 -0.005206 -0.002418 0.010696 0.000000 0.003109 0.000000
# 4 0.000000 0.000000 0.000000 0.040136 0.000000 0.000644
# 5 -0.001289 0.003008 0.003109 0.000000 0.028255 0.000000
# 6 0.000000 0.000000 0.000000 0.000644 0.000000 0.041345
#
#
# Mechanical properties :
#
#
# Convention : Reuss Voigt Hill
#
# Bulk Modulus (GPa) = 56.35073 62.56142 59.45608
# Shear Modulus (GPa) = 27.72610 29.68807 28.70708
#
# Velocity S-wave (km/s) = 3.78280 3.91435 3.84913
# Velocity P-wave (km/s) = 6.93990 7.26069 7.10211
#
# Compressibility (1/GPa) = 0.01774600
#
# Stress axis : x y z
#
# Youngs Moduli (GPa) = 58.12674 75.10045 93.49414
#
# Poissons Ratio (x) = 0.30871 0.48671
# Poissons Ratio (y) = 0.23894 0.22608
# Poissons Ratio (z) = 0.30260 0.18160
#
# Static dielectric constant tensor:
#      x y z
#    x 3.482010 0.000000 0.002500 
#    y 0.000000 3.701330 0.000000 
#    z 0.002500 0.000000 3.782850 
# 
# 
# High freq. dielectric constant tensor:
#      x y z
#    x 1.728850 0.000000 -0.010320 
#    y 0.000000 1.748850 0.000000 
#    z -0.010320 0.000000 1.761920 
# 
# From -- ./inp_files/230969.got.cif
#   From: 2010.06.25/outbox.cif.g09.slc.cpg/sg12_116_cif.got.tgz:230969.got - 2010.06.28 00:19:55.
