data_PCOD8091044
_publ_section_title
;
Structure prediction by ZEFSAII (Michael W. Deem and Ramdas Pophale) SiO2 
 PCOD8091044
Probable space group: C 2/M
;
_chemical_formula_sum "Si O2"
_cell_formula_units_Z 40
_cell_length_a 29.994119
_cell_length_b 8.907153
_cell_length_c 15.051204
_cell_angle_alpha 90.000000
_cell_angle_beta 29.926765
_cell_angle_gamma 90.000000
_cell_volume 2006.103641
_symmetry_space_group_name_H-M "C 2/M"
_symmetry_group_IT_number 12
_symmetry_cell_setting 'monoclinic'
loop_
_space_group_symop_operation_xyz
x,y,z
-x,y,-z
-x,-y,-z
x,-y,z
1/2+x,1/2+y,z
1/2-x,1/2+y,-z
1/2-x,1/2-y,-z
1/2+x,1/2-y,z
loop_
_atom_site_type_symbol
_atom_site_label
_atom_site_fract_x
_atom_site_fract_y
_atom_site_fract_z
Si Si1 0.730805 0.178179 0.439127
Si Si2 0.639505 0.323997 0.937165
Si Si3 0.447078 0.675096 0.323531
Si Si4 0.948807 0.329077 0.501619
Si Si5 0.750640 0.830573 0.091926
O O1 0.750000 0.250000 0.500000
O O2 0.807591 0.239710 0.239651
O O3 0.633688 0.225804 0.572676
O O4 0.733443 0.000000 0.443391
O O5 0.659680 0.500000 0.906998
O O6 0.679161 0.254649 0.960446
O O7 0.533796 0.291576 0.111988
O O8 0.421378 0.500000 0.365015
O O9 0.474000 0.721645 0.376649
O O10 0.979174 0.500000 0.428457
O O11 0.843871 0.320767 0.696923
O O12 0.000000 0.268103 0.500000
O O13 0.778214 0.000000 0.023138
O O14 0.750000 0.750000 0.000000
#
# Coordination Sequence:
#
# PCOD8091044 Si02
#       5
#     8   8   8   8   8
#     4  11  23  44  67  89 121 159 200 250 306 363
#     4   9  20  39  61  83 120 163 196 240 304 364
#     4  11  22  38  62  91 119 156 205 250 298 359
#     4  10  20  35  56  84 122 164 202 247 305 356
#     4  10  19  34  54  81 117 160 200 240 295 352
#
# _framework density 19.939146999999998
#
# number of rings (size 3 to 8) (size 9 to 14) (size 15 to 20)
#    0.000    1.800    2.000    2.400    0.000    2.000 
#    0.000    9.000    0.000    0.000    0.000    0.000 
#    0.000    0.000    0.000    0.000    0.000    0.000 
#
# Total GULP energy -248001.595186 kJ/mol
# GULP energy per Si atom -12400.079759 kJ/mol
# Density = 1.989377 g / cm^3
# Si number density = 19.939147 Si / 1000 Ang^3
#
#
#
# Elastic Constant Matrix: (Units=GPa)
#
#
# Indices 1 2 3 4 5 6 
#
# 1 125.7215 35.9531 58.5177 0.0000 17.0557 0.0000
# 2 35.9531 64.8229 39.7539 0.0000 8.3087 0.0000
# 3 58.5177 39.7539 124.0867 0.0000 9.8653 0.0000
# 4 0.0000 0.0000 0.0000 22.7555 0.0000 0.6847
# 5 17.0557 8.3087 9.8653 0.0000 34.9935 0.0000
# 6 0.0000 0.0000 0.0000 0.6847 0.0000 37.7991
#
#
#
# Elastic Compliance Matrix: (Units=1/GPa)
#
#
# Indices 1 2 3 4 5 6 
#
# 1 0.011231 -0.003357 -0.003937 0.000000 -0.003567 0.000000
# 2 -0.003357 0.020492 -0.004833 0.000000 -0.001867 0.000000
# 3 -0.003937 -0.004833 0.011478 0.000000 -0.000169 0.000000
# 4 0.000000 0.000000 0.000000 0.043969 0.000000 -0.000796
# 5 -0.003567 -0.001867 -0.000169 0.000000 0.030806 0.000000
# 6 0.000000 0.000000 0.000000 -0.000796 0.000000 0.026470
#
#
# Mechanical properties :
#
#
# Convention : Reuss Voigt Hill
#
# Bulk Modulus (GPa) = 52.78525 64.78672 58.78598
# Shear Modulus (GPa) = 28.56880 31.13673 29.85276
#
# Velocity S-wave (km/s) = 3.78934 3.95598 3.87356
# Velocity P-wave (km/s) = 6.75841 7.30952 7.03936
#
# Compressibility (1/GPa) = 0.01894469
#
# Stress axis : x y z
#
# Youngs Moduli (GPa) = 89.04280 48.79912 87.12691
#
# Poissons Ratio (x) = 0.16383 0.34302
# Poissons Ratio (y) = 0.29894 0.42113
# Poissons Ratio (z) = 0.35057 0.23587
#
# Static dielectric constant tensor:
#      x y z
#    x 3.470180 0.000000 -0.307980 
#    y 0.000000 3.470430 0.000000 
#    z -0.307980 0.000000 3.556570 
# 
# 
# High freq. dielectric constant tensor:
#      x y z
#    x 1.784540 0.000000 -0.003410 
#    y 0.000000 1.755300 0.000000 
#    z -0.003410 0.000000 1.788840 
# 
# From -- ./inp_files/211179.got.cif
#   From: 2010.06.25/outbox.cif.g09.slc.cpg/sg12_106_cif.got.tgz:211179.got - 2010.06.28 00:19:55.
