data_PCOD8091539
_publ_section_title
;
Structure prediction by ZEFSAII (Michael W. Deem and Ramdas Pophale) SiO2 
 PCOD8091539
Probable space group: C 2/M
;
_chemical_formula_sum "Si O2"
_cell_formula_units_Z 40
_cell_length_a 8.108070
_cell_length_b 27.769146
_cell_length_c 15.853354
_cell_angle_alpha 90.000000
_cell_angle_beta 149.122947
_cell_angle_gamma 90.000000
_cell_volume 1831.832456
_symmetry_space_group_name_H-M "C 2/M"
_symmetry_group_IT_number 12
_symmetry_cell_setting 'monoclinic'
loop_
_space_group_symop_operation_xyz
x,y,z
-x,y,-z
-x,-y,-z
x,-y,z
1/2+x,1/2+y,z
1/2-x,1/2+y,-z
1/2-x,1/2-y,-z
1/2+x,1/2-y,z
loop_
_atom_site_type_symbol
_atom_site_label
_atom_site_fract_x
_atom_site_fract_y
_atom_site_fract_z
Si Si1 0.339792 0.100029 0.314070
Si Si2 0.458954 0.556254 0.671867
Si Si3 0.514505 0.697540 0.194041
Si Si4 0.188155 0.397198 0.308874
Si Si5 0.878455 0.698737 0.811275
O O1 0.671499 0.086947 0.505539
O O2 0.045081 0.070566 0.229718
O O3 0.379511 0.087736 0.231294
O O4 0.283104 0.157106 0.297285
O O5 0.399040 0.500000 0.634502
O O6 0.788955 0.572151 0.768996
O O7 0.373803 0.690935 0.225107
O O8 0.679069 0.749532 0.256722
O O9 0.241000 0.692668 0.003168
O O10 0.500000 0.409835 0.500000
O O11 0.176114 0.340726 0.284425
#
# Coordination Sequence:
#
# PCOD8091539 Si02
#       5
#     8   8   8   8   8
#     4  10  19  34  56  85 111 149 188 235 280 336
#     4  10  21  38  59  84 117 150 192 238 287 340
#     4  10  20  35  60  80 116 155 191 235 277 340
#     4  10  21  36  56  86 118 147 188 235 285 337
#     4  10  20  37  55  85 115 154 194 229 282 339
#
# _framework density 21.836058000000001
#
# number of rings (size 3 to 8) (size 9 to 14) (size 15 to 20)
#    0.000    2.000    2.000    2.400    0.000    6.800 
#    3.600    3.000    0.000    3.600    0.000   14.000 
#    0.000    0.000    0.000    0.000    0.000    0.000 
#
# Total GULP energy -247848.997402 kJ/mol
# GULP energy per Si atom -12392.449870 kJ/mol
# Density = 2.178636 g / cm^3
# Si number density = 21.836058 Si / 1000 Ang^3
#
#
#
# Elastic Constant Matrix: (Units=GPa)
#
#
# Indices 1 2 3 4 5 6 
#
# 1 226.7604 74.3931 14.7022 0.0000 6.4380 0.0000
# 2 74.3931 151.9668 24.8730 0.0000 10.9866 0.0000
# 3 14.7022 24.8730 13.6821 0.0000 2.1399 0.0000
# 4 0.0000 0.0000 0.0000 -1.8139 0.0000 1.5645
# 5 6.4380 10.9866 2.1399 0.0000 12.4055 0.0000
# 6 0.0000 0.0000 0.0000 1.5645 0.0000 33.6071
#
#
#
# Elastic Compliance Matrix: (Units=1/GPa)
#
#
# Indices 1 2 3 4 5 6 
#
# 1 0.005274 -0.002326 -0.001371 0.000000 -0.000441 0.000000
# 2 -0.002326 0.010774 -0.016222 0.000000 -0.005537 0.000000
# 3 -0.001371 -0.016222 0.104512 0.000000 -0.002950 0.000000
# 4 0.000000 0.000000 0.000000 -0.530010 0.000000 0.024674
# 5 -0.000441 -0.005537 -0.002950 0.000000 0.086251 0.000000
# 6 0.000000 0.000000 0.000000 0.024674 0.000000 0.028607
#
#
# Mechanical properties :
#
#
# Convention : Reuss Voigt Hill
#
# Bulk Modulus (GPa) = 12.38777 68.92732 40.65755
# Shear Modulus (GPa) = -21.94459 27.40246 2.72893
#
# Velocity S-wave (km/s) = -3.17357 3.54633 1.11913
# Velocity P-wave (km/s) = 2.78268 6.95722 4.50886
#
# Compressibility (1/GPa) = 0.08072476
#
# Stress axis : x y z
#
# Youngs Moduli (GPa) = 189.59734 92.81334 9.56826
#
# Poissons Ratio (x) = 0.21586 0.01311
# Poissons Ratio (y) = 0.44096 0.15521
# Poissons Ratio (z) = 0.25985 1.50560
#
# Static dielectric constant tensor:
#      x y z
#    x 5.593550 0.000000 0.025750 
#    y 0.000000 3.814510 0.000000 
#    z 0.025750 0.000000 3.316890 
# 
# 
# High freq. dielectric constant tensor:
#      x y z
#    x 1.898490 0.000000 0.002000 
#    y 0.000000 1.854490 0.000000 
#    z 0.002000 0.000000 1.792670 
# 
# From -- ./inp_files/198182.got.cif
#   From: 2010.06.25/outbox.cif.g09.slc.cpg/sg12_100_cif.got.tgz:198182.got - 2010.06.28 00:19:55.
