data_PCOD8091936
_publ_section_title
;
Structure prediction by ZEFSAII (Michael W. Deem and Ramdas Pophale) SiO2 
 PCOD8091936
Probable space group: C 2/M
;
_chemical_formula_sum "Si O2"
_cell_formula_units_Z 48
_cell_length_a 16.370707
_cell_length_b 16.916017
_cell_length_c 14.584665
_cell_angle_alpha 90.000000
_cell_angle_beta 39.097966
_cell_angle_gamma 90.000000
_cell_volume 2547.118832
_symmetry_space_group_name_H-M "C 2/M"
_symmetry_group_IT_number 12
_symmetry_cell_setting 'monoclinic'
loop_
_space_group_symop_operation_xyz
x,y,z
-x,y,-z
-x,-y,-z
x,-y,z
1/2+x,1/2+y,z
1/2-x,1/2+y,-z
1/2-x,1/2-y,-z
1/2+x,1/2-y,z
loop_
_atom_site_type_symbol
_atom_site_label
_atom_site_fract_x
_atom_site_fract_y
_atom_site_fract_z
Si Si1 0.347985 0.908054 0.128065
Si Si2 0.761848 0.689377 0.369695
Si Si3 0.912373 0.171184 0.311171
Si Si4 0.866335 0.690198 0.651585
Si Si5 0.316709 0.703059 0.859817
Si Si6 0.125067 0.908816 0.840558
O O1 0.297918 0.882281 0.271468
O O2 0.284025 0.855990 0.102645
O O3 0.314612 0.000000 0.140128
O O4 0.500000 0.892395 0.000000
O O5 0.887166 0.738767 0.296717
O O6 0.682667 0.651405 0.522049
O O7 0.670650 0.750596 0.397115
O O8 0.879477 0.106861 0.263163
O O9 0.061746 0.155365 0.205701
O O10 0.882849 0.736425 0.731800
O O11 0.756581 0.626006 0.767473
O O12 0.000000 0.650052 0.500000
O O13 0.250000 0.750000 0.000000
O O14 0.128110 0.000000 0.860598
O O15 0.000000 0.869569 0.000000
#
# Coordination Sequence:
#
# PCOD8091936 Si02
#       6
#     8   8   8   8   8   8
#     4  10  22  39  56  79 117 154 185 226 283 343
#     4   9  19  35  58  82 112 142 181 229 284 330
#     4  10  19  34  58  85 107 140 185 236 272 326
#     4  10  19  36  59  83 113 143 185 235 279 333
#     4  11  21  34  60  87 108 143 189 233 277 328
#     4  10  22  38  54  77 115 155 186 223 279 338
#
# _framework density 18.844822000000001
#
# number of rings (size 3 to 8) (size 9 to 14) (size 15 to 20)
#    0.000    2.000    1.667    2.000    0.000    6.333 
#    0.000    1.667    0.000    0.000    0.000    0.000 
#    0.000    0.000    0.000    0.000    0.000    0.000 
#
# Total GULP energy -297555.011414 kJ/mol
# GULP energy per Si atom -12398.125476 kJ/mol
# Density = 1.880193 g / cm^3
# Si number density = 18.844822 Si / 1000 Ang^3
#
#
#
# Elastic Constant Matrix: (Units=GPa)
#
#
# Indices 1 2 3 4 5 6 
#
# 1 74.3169 23.4121 31.6715 -0.0001 -3.7514 0.0001
# 2 23.4121 71.1468 44.7370 0.0000 -2.9105 0.0000
# 3 31.6715 44.7370 126.0380 -0.0003 -3.7658 0.0002
# 4 -0.0001 0.0000 -0.0003 24.8430 0.0002 0.8542
# 5 -3.7514 -2.9105 -3.7658 0.0002 41.6414 -0.0002
# 6 0.0001 0.0000 0.0002 0.8542 -0.0002 17.9070
#
#
#
# Elastic Compliance Matrix: (Units=1/GPa)
#
#
# Indices 1 2 3 4 5 6 
#
# 1 0.015740 -0.003439 -0.002707 0.000000 0.000933 0.000000
# 2 -0.003439 0.018865 -0.005817 0.000000 0.000483 0.000000
# 3 -0.002707 -0.005817 0.010689 0.000000 0.000316 0.000000
# 4 0.000000 0.000000 0.000000 0.040319 0.000000 -0.001923
# 5 0.000933 0.000483 0.000316 0.000000 0.024161 0.000000
# 6 0.000000 0.000000 0.000000 -0.001923 0.000000 0.055936
#
#
# Mechanical properties :
#
#
# Convention : Reuss Voigt Hill
#
# Bulk Modulus (GPa) = 46.80178 52.34919 49.57549
# Shear Modulus (GPa) = 25.41192 28.32370 26.86781
#
# Velocity S-wave (km/s) = 3.67615 3.88106 3.77999
# Velocity P-wave (km/s) = 6.55043 6.92263 6.73910
#
# Compressibility (1/GPa) = 0.02136671
#
# Stress axis : x y z
#
# Youngs Moduli (GPa) = 63.53259 53.00830 93.55821
#
# Poissons Ratio (x) = 0.18232 0.25322
# Poissons Ratio (y) = 0.21852 0.54426
# Poissons Ratio (z) = 0.17195 0.30837
#
# Static dielectric constant tensor:
#      x y z
#    x 3.724100 0.000000 0.087650 
#    y 0.000000 3.144850 0.000000 
#    z 0.087650 0.000000 3.706070 
# 
# 
# High freq. dielectric constant tensor:
#      x y z
#    x 1.743400 0.000000 0.002650 
#    y 0.000000 1.700100 0.000000 
#    z 0.002650 0.000000 1.749270 
# 
# From -- ./inp_files/75045.got.cif
#   From: 2010.06.25/outbox.cif.g09.slc.cpg/sg12_38_cif.got.tgz:75045.got - 2010.06.28 00:19:55.
