data_PCOD8091814
_publ_section_title
;
Structure prediction by ZEFSAII (Michael W. Deem and Ramdas Pophale) SiO2 
 PCOD8091814
Probable space group: C 2/M
;
_chemical_formula_sum "Si O2"
_cell_formula_units_Z 64
_cell_length_a 22.030183
_cell_length_b 13.679176
_cell_length_c 26.307511
_cell_angle_alpha 90.000000
_cell_angle_beta 24.284343
_cell_angle_gamma 90.000000
_cell_volume 3260.467365
_symmetry_space_group_name_H-M "C 2/M"
_symmetry_group_IT_number 12
_symmetry_cell_setting 'monoclinic'
loop_
_space_group_symop_operation_xyz
x,y,z
-x,y,-z
-x,-y,-z
x,-y,z
1/2+x,1/2+y,z
1/2-x,1/2+y,-z
1/2-x,1/2-y,-z
1/2+x,1/2-y,z
loop_
_atom_site_type_symbol
_atom_site_label
_atom_site_fract_x
_atom_site_fract_y
_atom_site_fract_z
Si Si1 0.162884 0.389934 0.986199
Si Si2 0.421268 0.734752 0.373574
Si Si3 0.354483 0.385134 0.742022
Si Si4 0.606909 0.396158 0.963209
Si Si5 0.053498 0.775471 0.834563
Si Si6 0.535415 0.612682 0.195389
Si Si7 0.078130 0.614172 0.316998
Si Si8 0.869914 0.756330 0.636321
O O1 0.105146 0.500000 0.023673
O O2 0.235132 0.355999 0.876832
O O3 0.287537 0.383531 0.934897
O O4 0.022035 0.330384 0.115138
O O5 0.250000 0.750000 0.500000
O O6 0.482541 0.655791 0.367636
O O7 0.470873 0.696002 0.281153
O O8 0.477709 0.841097 0.348847
O O9 0.365995 0.500000 0.727563
O O10 0.313565 0.339546 0.718640
O O11 0.632044 0.500000 0.973935
O O12 0.758804 0.357878 0.824685
O O13 0.500000 0.422084 0.000000
O O14 0.535044 0.311261 0.049529
O O15 0.020391 0.854888 0.816777
O O16 0.228563 0.771421 0.709806
O O17 0.482654 0.500000 0.247215
O O18 0.043547 0.500000 0.348923
O O19 0.061393 0.663970 0.385316
O O20 0.000000 0.794967 0.500000
#
# Coordination Sequence:
#
# PCOD8091814 Si02
#       8
#     8   8   8   8   8   8   8   8
#     4   9  20  39  63  91 117 149 200 252 297 355
#     4  10  21  38  62  86 115 152 209 250 282 347
#     4   9  20  41  65  84 114 158 201 250 305 351
#     4  10  19  34  57  86 116 148 193 237 291 358
#     4  12  22  35  63  89 122 161 193 240 306 356
#     4  10  22  39  60  90 123 155 193 242 305 362
#     4  10  22  40  61  87 119 155 196 250 302 352
#     4  11  25  39  55  86 125 158 202 245 290 356
#
# _framework density 19.629086000000001
#
# number of rings (size 3 to 8) (size 9 to 14) (size 15 to 20)
#    0.000    1.875    1.250    4.125    3.500    2.500 
#    0.000    3.125    0.000    0.000    0.000    0.000 
#    0.000    0.000    0.000    0.000    0.000    0.000 
#
# Total GULP energy -396477.914909 kJ/mol
# GULP energy per Si atom -12389.934841 kJ/mol
# Density = 1.958441 g / cm^3
# Si number density = 19.629086 Si / 1000 Ang^3
#
#
#
# Elastic Constant Matrix: (Units=GPa)
#
#
# Indices 1 2 3 4 5 6 
#
# 1 92.1567 34.8168 35.1676 -0.0013 -7.7613 0.0027
# 2 34.8168 101.6937 17.4618 -0.0099 -0.0889 -0.0026
# 3 35.1676 17.4618 75.2035 -0.0067 -13.2929 -0.0051
# 4 -0.0013 -0.0099 -0.0067 19.9321 -0.0145 0.1901
# 5 -7.7613 -0.0889 -13.2929 -0.0145 21.8511 -0.0041
# 6 0.0027 -0.0026 -0.0051 0.1901 -0.0041 30.8680
#
#
#
# Elastic Compliance Matrix: (Units=1/GPa)
#
#
# Indices 1 2 3 4 5 6 
#
# 1 0.014674 -0.004060 -0.005603 -0.000002 0.001787 -0.000002
# 2 -0.004060 0.011414 -0.001119 0.000004 -0.002076 0.000001
# 3 -0.005603 -0.001119 0.017731 0.000011 0.008792 0.000004
# 4 -0.000002 0.000004 0.000011 0.050173 0.000040 -0.000309
# 5 0.001787 -0.002076 0.008792 0.000040 0.051739 0.000008
# 6 -0.000002 0.000001 0.000004 -0.000309 0.000008 0.032398
#
#
# Mechanical properties :
#
#
# Convention : Reuss Voigt Hill
#
# Bulk Modulus (GPa) = 44.93417 49.32737 47.13077
# Shear Modulus (GPa) = 24.14161 26.63742 25.38952
#
# Velocity S-wave (km/s) = 3.51078 3.68780 3.60038
# Velocity P-wave (km/s) = 6.27499 6.58160 6.43012
#
# Compressibility (1/GPa) = 0.02225478
#
# Stress axis : x y z
#
# Youngs Moduli (GPa) = 68.14886 87.61350 56.39736
#
# Poissons Ratio (x) = 0.35572 0.31602
# Poissons Ratio (y) = 0.27669 0.06308
# Poissons Ratio (z) = 0.38186 0.09800
#
# Static dielectric constant tensor:
#      x y z
#    x 4.100360 -0.022210 -0.246010 
#    y -0.022210 12.784230 0.007980 
#    z -0.246010 0.007980 3.437020 
# 
# 
# High freq. dielectric constant tensor:
#      x y z
#    x 1.764300 0.000000 -0.009060 
#    y 0.000000 1.776730 0.000000 
#    z -0.009060 0.000000 1.743650 
# 
# From -- ./inp_files/344003.got.cif
#   From: 2010.06.25/outbox.cif.g09.slc.cpg/sg12_173_cif.got.tgz:344003.got - 2010.06.28 00:19:55.
