data_PCOD8091690
_publ_section_title
;
Structure prediction by ZEFSAII (Michael W. Deem and Ramdas Pophale) SiO2 
 PCOD8091690
Probable space group: C 2/M
;
_chemical_formula_sum "Si O2"
_cell_formula_units_Z 48
_cell_length_a 22.350093
_cell_length_b 13.439852
_cell_length_c 25.643583
_cell_angle_alpha 90.000000
_cell_angle_beta 159.257864
_cell_angle_gamma 90.000000
_cell_volume 2728.068860
_symmetry_space_group_name_H-M "C 2/M"
_symmetry_group_IT_number 12
_symmetry_cell_setting 'monoclinic'
loop_
_space_group_symop_operation_xyz
x,y,z
-x,y,-z
-x,-y,-z
x,-y,z
1/2+x,1/2+y,z
1/2-x,1/2+y,-z
1/2-x,1/2-y,-z
1/2+x,1/2-y,z
loop_
_atom_site_type_symbol
_atom_site_label
_atom_site_fract_x
_atom_site_fract_y
_atom_site_fract_z
Si Si1 0.995893 0.702993 0.886681
Si Si2 0.927651 0.783046 0.666548
Si Si3 0.015929 0.112702 0.837464
Si Si4 0.316278 0.615112 0.199378
Si Si5 0.404268 0.888264 0.138752
Si Si6 0.167651 0.885451 0.666589
O O1 0.822026 0.681631 0.773900
O O2 0.997832 0.820370 0.874402
O O3 0.006715 0.638500 0.842906
O O4 0.149941 0.678150 0.050512
O O5 0.750000 0.750000 0.500000
O O6 0.896499 0.847345 0.693694
O O7 0.022034 0.849468 0.700966
O O8 0.036599 0.684392 0.767177
O O9 0.968969 0.000000 0.814335
O O10 0.204293 0.122504 0.967726
O O11 0.279206 0.500000 0.156207
O O12 0.362606 0.631250 0.297129
O O13 0.454596 0.000000 0.195893
O O14 0.000000 0.850486 0.500000
O O15 0.210206 0.000000 0.688700
#
# Coordination Sequence:
#
# PCOD8091690 Si02
#       6
#     8   8   8   8   8   8
#     4  11  19  36  59  82 107 146 186 225 273 328
#     4  11  22  34  53  85 117 148 179 222 281 332
#     4  10  20  37  59  83 112 145 184 231 274 328
#     4  11  21  36  57  82 113 145 185 228 272 330
#     4  10  19  34  57  82 111 143 183 227 272 330
#     4  10  23  37  54  82 112 145 183 228 281 329
#
# _framework density 17.594864000000001
#
# number of rings (size 3 to 8) (size 9 to 14) (size 15 to 20)
#    0.000    1.500    3.333    3.500    4.667    2.667 
#    0.000    0.000    0.000    3.500    0.000    0.000 
#    0.000    0.000    0.000    0.000    0.000    0.000 
#
# Total GULP energy -297704.930564 kJ/mol
# GULP energy per Si atom -12404.372107 kJ/mol
# Density = 1.755482 g / cm^3
# Si number density = 17.594864 Si / 1000 Ang^3
#
#
#
# Elastic Constant Matrix: (Units=GPa)
#
#
# Indices 1 2 3 4 5 6 
#
# 1 71.2966 36.7124 33.5741 -0.0076 -9.8891 0.0023
# 2 36.7124 126.6066 43.0586 -0.0509 -13.3564 0.0015
# 3 33.5741 43.0586 114.7361 -0.0562 -14.4872 0.0014
# 4 -0.0076 -0.0509 -0.0562 22.8379 -0.0143 0.3022
# 5 -9.8891 -13.3564 -14.4872 -0.0143 25.7368 0.0037
# 6 0.0023 0.0015 0.0014 0.3022 0.0037 26.7633
#
#
#
# Elastic Compliance Matrix: (Units=1/GPa)
#
#
# Indices 1 2 3 4 5 6 
#
# 1 0.018002 -0.003713 -0.003492 -0.000009 0.003024 -0.000001
# 2 -0.003713 0.010040 -0.002372 0.000017 0.002448 -0.000001
# 3 -0.003492 -0.002372 0.011091 0.000023 0.003670 -0.000001
# 4 -0.000009 0.000017 0.000023 0.043794 0.000043 -0.000495
# 5 0.003024 0.002448 0.003670 0.000043 0.043354 -0.000007
# 6 -0.000001 -0.000001 -0.000001 -0.000495 -0.000007 0.037370
#
#
# Mechanical properties :
#
#
# Convention : Reuss Voigt Hill
#
# Bulk Modulus (GPa) = 50.05540 59.92549 54.99044
# Shear Modulus (GPa) = 26.38995 28.35387 27.37191
#
# Velocity S-wave (km/s) = 3.87701 4.01869 3.94848
# Velocity P-wave (km/s) = 6.96795 7.46094 7.21865
#
# Compressibility (1/GPa) = 0.01997786
#
# Stress axis : x y z
#
# Youngs Moduli (GPa) = 55.54925 99.59826 90.16081
#
# Poissons Ratio (x) = 0.36984 0.31487
# Poissons Ratio (y) = 0.20627 0.21388
# Poissons Ratio (z) = 0.19400 0.23627
#
# Static dielectric constant tensor:
#      x y z
#    x 3.146370 0.000010 -0.107840 
#    y 0.000010 3.431880 -0.000020 
#    z -0.107840 -0.000020 3.236780 
# 
# 
# High freq. dielectric constant tensor:
#      x y z
#    x 1.668820 0.000000 -0.009020 
#    y 0.000000 1.679510 0.000000 
#    z -0.009020 0.000000 1.678740 
# 
# From -- ./inp_files/73612.got.cif
#   From: 2010.06.25/outbox.cif.g09.slc.cpg/sg12_37_cif.got.tgz:73612.got - 2010.06.28 00:19:55.
