data_PCOD8091098
_publ_section_title
;
Structure prediction by ZEFSAII (Michael W. Deem and Ramdas Pophale) SiO2 
 PCOD8091098
Probable space group: C 2/M
;
_chemical_formula_sum "Si O2"
_cell_formula_units_Z 64
_cell_length_a 19.530160
_cell_length_b 9.487816
_cell_length_c 18.961792
_cell_angle_alpha 90.000000
_cell_angle_beta 90.884019
_cell_angle_gamma 90.000000
_cell_volume 3513.174632
_symmetry_space_group_name_H-M "C 2/M"
_symmetry_group_IT_number 12
_symmetry_cell_setting 'monoclinic'
loop_
_space_group_symop_operation_xyz
x,y,z
-x,y,-z
-x,-y,-z
x,-y,z
1/2+x,1/2+y,z
1/2-x,1/2+y,-z
1/2-x,1/2-y,-z
1/2+x,1/2-y,z
loop_
_atom_site_type_symbol
_atom_site_label
_atom_site_fract_x
_atom_site_fract_y
_atom_site_fract_z
Si Si1 0.268727 0.658258 0.934464
Si Si2 0.422435 0.667007 0.416279
Si Si3 0.923323 0.166612 0.575698
Si Si4 0.612635 0.332899 0.159121
Si Si5 0.632763 0.157754 0.848949
Si Si6 0.173897 0.167983 0.304493
Si Si7 0.169104 0.333228 0.694059
Si Si8 0.478990 0.666163 0.078014
O O1 0.282373 0.500000 0.961823
O O2 0.336377 0.724555 0.900239
O O3 0.210969 0.659889 0.874168
O O4 0.250000 0.750000 0.000000
O O5 0.412619 0.500000 0.404863
O O6 0.405389 0.713560 0.496098
O O7 0.500316 0.714729 0.400388
O O8 0.370828 0.751171 0.366665
O O9 0.866447 0.229100 0.628073
O O10 0.922661 0.000000 0.578622
O O11 0.620411 0.500000 0.161152
O O12 0.633691 0.271027 0.235511
O O13 0.536316 0.288125 0.135872
O O14 0.633377 0.206672 0.767637
O O15 0.590464 0.260650 0.898621
O O16 0.602407 0.000000 0.855243
O O17 0.252225 0.219984 0.306247
O O18 0.171826 0.000000 0.303611
O O19 0.165504 0.500000 0.680284
O O20 0.466243 0.500000 0.077730
O O21 0.500000 0.716810 0.000000
#
# Coordination Sequence:
#
# PCOD8091098 Si02
#       8
#     8   8   8   8   8   8   8   8
#     4  10  19  34  55  76  99 132 171 212 253 298
#     4   9  18  33  53  80 108 132 166 214 260 300
#     4   8  16  31  52  78 105 134 171 211 252 303
#     4   9  17  31  51  74 100 131 172 214 248 293
#     4  10  21  36  52  74 106 139 170 207 257 313
#     4   9  16  30  52  74  98 136 179 209 242 301
#     4  10  20  34  52  76 104 137 176 211 247 304
#     4  10  21  35  53  80 106 129 169 222 262 298
#
# _framework density 18.217141000000002
#
# number of rings (size 3 to 8) (size 9 to 14) (size 15 to 20)
#    0.000    2.625    1.250    1.500    1.750    2.750 
#    0.000    1.875    0.000    1.500    0.000    0.000 
#    0.000    0.000    0.000    0.000    0.000    0.000 
#
# Total GULP energy -396712.178390 kJ/mol
# GULP energy per Si atom -12397.255575 kJ/mol
# Density = 1.817568 g / cm^3
# Si number density = 18.217141 Si / 1000 Ang^3
#
#
#
# Elastic Constant Matrix: (Units=GPa)
#
#
# Indices 1 2 3 4 5 6 
#
# 1 79.4582 22.1454 39.1719 0.0000 -7.4397 0.0000
# 2 22.1454 30.6889 28.9927 0.0000 -2.0884 0.0000
# 3 39.1719 28.9927 113.9930 0.0000 -3.9260 0.0000
# 4 0.0000 0.0000 0.0000 26.7387 0.0000 4.5042
# 5 -7.4397 -2.0884 -3.9260 0.0000 39.0888 0.0000
# 6 0.0000 0.0000 0.0000 4.5042 0.0000 22.9071
#
#
#
# Elastic Compliance Matrix: (Units=1/GPa)
#
#
# Indices 1 2 3 4 5 6 
#
# 1 0.016993 -0.008766 -0.003527 0.000000 0.002412 0.000000
# 2 -0.008766 0.047469 -0.009062 0.000000 -0.000043 0.000000
# 3 -0.003527 -0.009062 0.012292 0.000000 0.000079 0.000000
# 4 0.000000 0.000000 0.000000 0.038680 0.000000 -0.007606
# 5 0.002412 -0.000043 0.000079 0.000000 0.026047 0.000000
# 6 0.000000 0.000000 0.000000 -0.007606 0.000000 0.045150
#
#
# Mechanical properties :
#
#
# Convention : Reuss Voigt Hill
#
# Bulk Modulus (GPa) = 29.37406 44.97335 37.17371
# Shear Modulus (GPa) = 20.77357 26.66894 23.72125
#
# Velocity S-wave (km/s) = 3.38054 3.83031 3.61243
# Velocity P-wave (km/s) = 5.60329 6.65602 6.15221
#
# Compressibility (1/GPa) = 0.03404364
#
# Stress axis : x y z
#
# Youngs Moduli (GPa) = 58.84818 21.06616 81.35396
#
# Poissons Ratio (x) = 0.18467 0.28691
# Poissons Ratio (y) = 0.51589 0.73725
# Poissons Ratio (z) = 0.20754 0.19091
#
# Static dielectric constant tensor:
#      x y z
#    x 3.514550 0.000000 -0.100700 
#    y 0.000000 2.923160 0.000000 
#    z -0.100700 0.000000 3.638880 
# 
# 
# High freq. dielectric constant tensor:
#      x y z
#    x 1.714750 0.000000 -0.001070 
#    y 0.000000 1.655570 0.000000 
#    z -0.001070 0.000000 1.719410 
# 
# From -- ./inp_files/276578.got.cif
#   From: 2010.06.25/outbox.cif.g09.slc.cpg/sg12_139_cif.got.tgz:276578.got - 2010.06.28 00:19:55.
