data_PCOD8091691
_publ_section_title
;
Structure prediction by ZEFSAII (Michael W. Deem and Ramdas Pophale) SiO2 
 PCOD8091691
Probable space group: C 2/M
;
_chemical_formula_sum "Si O2"
_cell_formula_units_Z 64
_cell_length_a 19.473863
_cell_length_b 9.302660
_cell_length_c 30.166075
_cell_angle_alpha 90.000000
_cell_angle_beta 141.985778
_cell_angle_gamma 90.000000
_cell_volume 3365.565038
_symmetry_space_group_name_H-M "C 2/M"
_symmetry_group_IT_number 12
_symmetry_cell_setting 'monoclinic'
loop_
_space_group_symop_operation_xyz
x,y,z
-x,y,-z
-x,-y,-z
x,-y,z
1/2+x,1/2+y,z
1/2-x,1/2+y,-z
1/2-x,1/2-y,-z
1/2+x,1/2-y,z
loop_
_atom_site_type_symbol
_atom_site_label
_atom_site_fract_x
_atom_site_fract_y
_atom_site_fract_z
Si Si1 0.530121 0.165918 0.230703
Si Si2 0.404630 0.670196 0.487018
Si Si3 0.042398 0.831579 0.387970
Si Si4 0.678778 0.669535 0.373310
Si Si5 0.910589 0.335011 0.836207
Si Si6 0.048354 0.166736 0.977879
Si Si7 0.783856 0.662907 0.129189
Si Si8 0.184217 0.165788 0.767151
O O1 0.578354 0.269650 0.292787
O O2 0.577705 0.217668 0.208108
O O3 0.397495 0.187849 0.160453
O O4 0.561478 0.000000 0.257194
O O5 0.500000 0.710595 0.500000
O O6 0.382001 0.500000 0.475484
O O7 0.437223 0.729875 0.552365
O O8 0.291394 0.750571 0.416070
O O9 0.146393 0.797773 0.408233
O O10 0.928861 0.763691 0.310127
O O11 0.023192 0.000000 0.383126
O O12 0.691615 0.500000 0.371707
O O13 0.946586 0.500000 0.859261
O O14 0.992443 0.247737 0.909049
O O15 0.781128 0.311644 0.780819
O O16 0.020154 0.000000 0.957571
O O17 0.180894 0.198516 0.044252
O O18 0.000000 0.223380 0.000000
O O19 0.773234 0.500000 0.141008
O O20 0.776769 0.760782 0.168386
O O21 0.163269 0.000000 0.767738
#
# Coordination Sequence:
#
# PCOD8091691 Si02
#       8
#     8   8   8   8   8   8   8   8
#     4  10  22  39  58  83 114 146 189 235 281 335
#     4  10  22  39  62  87 115 152 189 226 276 332
#     4   9  19  36  58  85 113 146 188 230 275 329
#     4  11  22  38  60  84 116 150 185 230 279 331
#     4  10  22  36  56  84 112 145 187 238 284 330
#     4  10  20  35  55  79 113 151 187 230 283 341
#     4  10  20  36  57  81 111 147 188 233 279 333
#     4  10  19  34  57  82 111 143 185 236 279 325
#
# _framework density 19.016123
#
# number of rings (size 3 to 8) (size 9 to 14) (size 15 to 20)
#    0.000    2.000    2.500    0.750    1.750    2.000 
#    0.000    1.250    0.000    0.000    0.000    0.000 
#    0.000    0.000    0.000    0.000    0.000    0.000 
#
# Total GULP energy -396839.159920 kJ/mol
# GULP energy per Si atom -12401.223748 kJ/mol
# Density = 1.897284 g / cm^3
# Si number density = 19.016123 Si / 1000 Ang^3
#
#
#
# Elastic Constant Matrix: (Units=GPa)
#
#
# Indices 1 2 3 4 5 6 
#
# 1 112.5805 38.5462 33.2866 0.0000 1.9101 -0.0001
# 2 38.5462 51.9304 34.8280 -0.0001 2.8943 -0.0001
# 3 33.2866 34.8280 90.1097 0.0000 11.2876 0.0000
# 4 0.0000 -0.0001 0.0000 29.2385 0.0000 0.8254
# 5 1.9101 2.8943 11.2876 0.0000 35.0703 0.0000
# 6 -0.0001 -0.0001 0.0000 0.8254 0.0000 23.1135
#
#
#
# Elastic Compliance Matrix: (Units=1/GPa)
#
#
# Indices 1 2 3 4 5 6 
#
# 1 0.012035 -0.008017 -0.001405 0.000000 0.000458 0.000000
# 2 -0.008017 0.031378 -0.009271 0.000000 0.000831 0.000000
# 3 -0.001405 -0.009271 0.015728 0.000000 -0.004221 0.000000
# 4 0.000000 0.000000 0.000000 0.034236 0.000000 -0.001223
# 5 0.000458 0.000831 -0.004221 0.000000 0.029779 0.000000
# 6 0.000000 0.000000 0.000000 -0.001223 0.000000 0.043308
#
#
# Mechanical properties :
#
#
# Convention : Reuss Voigt Hill
#
# Bulk Modulus (GPa) = 45.96072 51.99357 48.97715
# Shear Modulus (GPa) = 23.68537 27.34846 25.51691
#
# Velocity S-wave (km/s) = 3.53305 3.79644 3.66711
# Velocity P-wave (km/s) = 6.39258 6.82777 6.61376
#
# Compressibility (1/GPa) = 0.02175771
#
# Stress axis : x y z
#
# Youngs Moduli (GPa) = 83.09220 31.86934 63.57965
#
# Poissons Ratio (x) = 0.25548 0.08931
# Poissons Ratio (y) = 0.66611 0.58942
# Poissons Ratio (z) = 0.11671 0.29545
#
# Static dielectric constant tensor:
#      x y z
#    x 3.630020 0.000000 0.118900 
#    y 0.000000 3.307130 0.000000 
#    z 0.118900 0.000000 3.582970 
# 
# 
# High freq. dielectric constant tensor:
#      x y z
#    x 1.746120 0.000000 0.009870 
#    y 0.000000 1.719200 0.000000 
#    z 0.009870 0.000000 1.745800 
# 
# From -- ./inp_files/378423.got.cif
#   From: 2010.06.25/outbox.cif.g09.slc.cpg/sg12_190_cif.got.tgz:378423.got - 2010.06.28 00:19:55.
