data_PCOD8091418
_publ_section_title
;
Structure prediction by ZEFSAII (Michael W. Deem and Ramdas Pophale) SiO2 
 PCOD8091418
Probable space group: C 2/M
;
_chemical_formula_sum "Si O2"
_cell_formula_units_Z 56
_cell_length_a 21.381155
_cell_length_b 8.869226
_cell_length_c 15.417643
_cell_angle_alpha 90.000000
_cell_angle_beta 87.245054
_cell_angle_gamma 90.000000
_cell_volume 2920.334765
_symmetry_space_group_name_H-M "C 2/M"
_symmetry_group_IT_number 12
_symmetry_cell_setting 'monoclinic'
loop_
_space_group_symop_operation_xyz
x,y,z
-x,y,-z
-x,-y,-z
x,-y,z
1/2+x,1/2+y,z
1/2-x,1/2+y,-z
1/2-x,1/2-y,-z
1/2+x,1/2-y,z
loop_
_atom_site_type_symbol
_atom_site_label
_atom_site_fract_x
_atom_site_fract_y
_atom_site_fract_z
Si Si1 0.783084 0.173241 0.876011
Si Si2 0.162120 0.172778 0.944489
Si Si3 0.148438 0.673433 0.281890
Si Si4 0.556009 0.179871 0.557301
Si Si5 0.686375 0.825993 0.473738
Si Si6 0.493016 0.177688 0.732994
Si Si7 0.535790 0.821735 0.914092
O O1 0.723915 0.282049 0.888160
O O2 0.818748 0.215122 0.786754
O O3 0.760790 0.000000 0.874331
O O4 0.829351 0.200233 0.953676
O O5 0.107974 0.279882 0.914092
O O6 0.146029 0.000000 0.924924
O O7 0.154213 0.500000 0.250237
O O8 0.180801 0.697762 0.371677
O O9 0.076230 0.722463 0.292984
O O10 0.500000 0.242288 0.500000
O O11 0.624195 0.243524 0.524184
O O12 0.541917 0.235140 0.656609
O O13 0.556882 0.000000 0.549144
O O14 0.750000 0.750000 0.500000
O O15 0.691295 0.000000 0.498226
O O16 0.507942 0.247985 0.826649
O O17 0.499706 0.000000 0.739329
O O18 0.528159 0.000000 0.914835
O O19 0.500000 0.751952 0.000000
#
# Coordination Sequence:
#
# PCOD8091418 Si02
#       7
#     8   8   8   8   8   8   8
#     4  10  21  36  56  79 105 141 184 226 272 331
#     4  10  21  37  55  77 107 144 183 226 277 331
#     4  10  19  34  56  81 108 141 183 229 278 333
#     4   9  15  30  55  80 104 136 185 235 272 318
#     4  10  21  35  55  83 114 146 182 233 289 339
#     4   9  17  30  53  81 106 141 189 231 271 323
#     4  10  20  33  51  79 114 147 181 227 276 325
#
# _framework density 19.175884
#
# number of rings (size 3 to 8) (size 9 to 14) (size 15 to 20)
#    0.000    2.286    1.429    1.714    0.000    4.857 
#    0.000    2.143    0.000    1.286    0.000    0.000 
#    0.000    0.000    0.000    0.000    0.000    0.000 
#
# Total GULP energy -347179.715260 kJ/mol
# GULP energy per Si atom -12399.275545 kJ/mol
# Density = 1.913224 g / cm^3
# Si number density = 19.175884 Si / 1000 Ang^3
#
#
#
# Elastic Constant Matrix: (Units=GPa)
#
#
# Indices 1 2 3 4 5 6 
#
# 1 125.0642 19.4185 62.7527 0.0000 5.6014 0.0000
# 2 19.4185 22.3317 26.4319 0.0000 0.7227 0.0000
# 3 62.7527 26.4319 122.0037 0.0000 -7.1523 0.0000
# 4 0.0000 0.0000 0.0000 17.8315 0.0000 -1.5997
# 5 5.6014 0.7227 -7.1523 0.0000 33.5107 0.0000
# 6 0.0000 0.0000 0.0000 -1.5997 0.0000 29.7566
#
#
#
# Elastic Compliance Matrix: (Units=1/GPa)
#
#
# Indices 1 2 3 4 5 6 
#
# 1 0.011293 -0.003560 -0.005209 0.000000 -0.002923 0.000000
# 2 -0.003560 0.061916 -0.011773 0.000000 -0.003253 0.000000
# 3 -0.005209 -0.011773 0.013663 0.000000 0.004041 0.000000
# 4 0.000000 0.000000 0.000000 0.056352 0.000000 0.003029
# 5 -0.002923 -0.003253 0.004041 0.000000 0.031262 0.000000
# 6 0.000000 0.000000 0.000000 0.003029 0.000000 0.033769
#
#
# Mechanical properties :
#
#
# Convention : Reuss Voigt Hill
#
# Bulk Modulus (GPa) = 21.84017 54.06731 37.95374
# Shear Modulus (GPa) = 18.89628 26.93952 22.91790
#
# Velocity S-wave (km/s) = 3.14254 3.75222 3.46083
# Velocity P-wave (km/s) = 4.95798 6.85776 5.98375
#
# Compressibility (1/GPa) = 0.04578719
#
# Stress axis : x y z
#
# Youngs Moduli (GPa) = 88.54976 16.15100 73.19016
#
# Poissons Ratio (x) = 0.05750 0.38122
# Poissons Ratio (y) = 0.31528 0.86169
# Poissons Ratio (z) = 0.46122 0.19015
#
# Static dielectric constant tensor:
#      x y z
#    x 3.516060 0.000000 -0.067030 
#    y 0.000000 3.110980 0.000000 
#    z -0.067030 0.000000 3.743920 
# 
# 
# High freq. dielectric constant tensor:
#      x y z
#    x 1.751040 0.000000 -0.004730 
#    y 0.000000 1.705440 0.000000 
#    z -0.004730 0.000000 1.756000 
# 
# From -- ./inp_files/230995.got.cif
#   From: 2010.06.25/outbox.cif.g09.slc.cpg/sg12_116_cif.got.tgz:230995.got - 2010.06.28 00:19:55.
