data_PCOD8091136
_publ_section_title
;
Structure prediction by ZEFSAII (Michael W. Deem and Ramdas Pophale) SiO2 
 PCOD8091136
Probable space group: C 2/M
;
_chemical_formula_sum "Si O2"
_cell_formula_units_Z 64
_cell_length_a 20.029387
_cell_length_b 9.242195
_cell_length_c 28.162678
_cell_angle_alpha 90.000000
_cell_angle_beta 42.212505
_cell_angle_gamma 90.000000
_cell_volume 3502.756173
_symmetry_space_group_name_H-M "C 2/M"
_symmetry_group_IT_number 12
_symmetry_cell_setting 'monoclinic'
loop_
_space_group_symop_operation_xyz
x,y,z
-x,y,-z
-x,-y,-z
x,-y,z
1/2+x,1/2+y,z
1/2-x,1/2+y,-z
1/2-x,1/2-y,-z
1/2+x,1/2-y,z
loop_
_atom_site_type_symbol
_atom_site_label
_atom_site_fract_x
_atom_site_fract_y
_atom_site_fract_z
Si Si1 0.903029 0.828360 0.233298
Si Si2 0.145747 0.670468 0.554816
Si Si3 0.960105 0.833878 0.306536
Si Si4 0.276859 0.168052 0.055160
Si Si5 0.295671 0.171964 0.712184
Si Si6 0.009035 0.670099 0.442472
Si Si7 0.689921 0.335837 0.199598
Si Si8 0.598757 0.330111 0.080170
O O1 0.913346 0.775785 0.282086
O O2 0.798299 0.772451 0.268468
O O3 0.992190 0.768597 0.153385
O O4 0.910176 0.000000 0.229524
O O5 0.161807 0.500000 0.552867
O O6 0.250000 0.750000 0.500000
O O7 0.077651 0.728844 0.632687
O O8 0.090724 0.705477 0.534174
O O9 0.077853 0.820444 0.240354
O O10 0.928003 0.000000 0.334029
O O11 0.261707 0.207577 0.118308
O O12 0.177658 0.212109 0.079084
O O13 0.299261 0.000000 0.036743
O O14 0.371315 0.255131 0.985215
O O15 0.394814 0.235486 0.635028
O O16 0.286275 0.229675 0.770156
O O17 0.298649 0.000000 0.713479
O O18 0.025824 0.500000 0.438068
O O19 0.000000 0.738415 0.500000
O O20 0.709977 0.500000 0.205528
O O21 0.594791 0.500000 0.073163
#
# Coordination Sequence:
#
# PCOD8091136 Si02
#       8
#     8   8   8   8   8   8   8   8
#     4   9  18  33  56  81 105 140 182 221 264 316
#     4  11  23  38  57  83 112 139 175 222 265 313
#     4  10  19  35  59  81 105 140 179 220 265 313
#     4   9  17  30  50  76 105 140 176 213 266 324
#     4  10  20  35  56  79 105 137 179 221 259 312
#     4   9  19  35  55  79 105 137 176 215 256 310
#     4  10  19  34  55  78 108 142 176 215 267 324
#     4   9  16  30  50  77 106 133 176 227 265 305
#
# _framework density 18.271326999999999
#
# number of rings (size 3 to 8) (size 9 to 14) (size 15 to 20)
#    0.000    2.375    2.500    0.375    1.750    0.500 
#    0.000    2.500    0.000    5.625    0.000    0.000 
#    0.000    0.000    0.000    0.000    0.000    0.000 
#
# Total GULP energy -396798.633857 kJ/mol
# GULP energy per Si atom -12399.957308 kJ/mol
# Density = 1.822974 g / cm^3
# Si number density = 18.271327 Si / 1000 Ang^3
#
#
#
# Elastic Constant Matrix: (Units=GPa)
#
#
# Indices 1 2 3 4 5 6 
#
# 1 109.6333 36.2971 49.1155 0.0003 13.4288 0.0025
# 2 36.2971 41.7890 39.5962 0.0006 2.9332 0.0043
# 3 49.1155 39.5962 119.8546 0.0000 15.5250 0.0004
# 4 0.0003 0.0006 0.0000 29.9672 0.0000 0.8485
# 5 13.4288 2.9332 15.5250 0.0000 28.9082 0.0004
# 6 0.0025 0.0043 0.0004 0.8485 0.0004 21.6611
#
#
#
# Elastic Compliance Matrix: (Units=1/GPa)
#
#
# Indices 1 2 3 4 5 6 
#
# 1 0.013754 -0.009955 -0.001774 0.000000 -0.004426 0.000001
# 2 -0.009955 0.042258 -0.010667 -0.000001 0.006065 -0.000007
# 3 -0.001774 -0.010667 0.013271 0.000000 -0.005220 0.000002
# 4 0.000000 -0.000001 0.000000 0.033407 0.000000 -0.001309
# 5 -0.004426 0.006065 -0.005220 0.000000 0.038837 -0.000001
# 6 0.000001 -0.000007 0.000002 -0.001309 -0.000001 0.046217
#
#
# Mechanical properties :
#
#
# Convention : Reuss Voigt Hill
#
# Bulk Modulus (GPa) = 40.83161 57.92160 49.37660
# Shear Modulus (GPa) = 20.77290 25.85849 23.31570
#
# Velocity S-wave (km/s) = 3.37547 3.76606 3.57610
# Velocity P-wave (km/s) = 6.13087 7.11903 6.64335
#
# Compressibility (1/GPa) = 0.02449083
#
# Stress axis : x y z
#
# Youngs Moduli (GPa) = 72.70542 23.66439 75.35387
#
# Poissons Ratio (x) = 0.23557 0.13370
# Poissons Ratio (y) = 0.72376 0.80379
# Poissons Ratio (z) = 0.12900 0.25242
#
# Static dielectric constant tensor:
#      x y z
#    x 3.418320 0.000000 0.015090 
#    y 0.000000 3.133480 0.000000 
#    z 0.015090 0.000000 3.648590 
# 
# 
# High freq. dielectric constant tensor:
#      x y z
#    x 1.701580 0.000000 0.002810 
#    y 0.000000 1.676160 0.000000 
#    z 0.002810 0.000000 1.721830 
# 
# From -- ./inp_files/343063.got.cif
#   From: 2010.06.25/outbox.cif.g09.slc.cpg/sg12_172_cif.got.tgz:343063.got - 2010.06.28 00:19:55.
