data_PCOD8091213
_publ_section_title
;
Structure prediction by ZEFSAII (Michael W. Deem and Ramdas Pophale) SiO2 
 PCOD8091213
Probable space group: C 2/M
;
_chemical_formula_sum "Si O2"
_cell_formula_units_Z 48
_cell_length_a 29.896940
_cell_length_b 9.075139
_cell_length_c 18.939655
_cell_angle_alpha 90.000000
_cell_angle_beta 29.143972
_cell_angle_gamma 90.000000
_cell_volume 2502.570032
_symmetry_space_group_name_H-M "C 2/M"
_symmetry_group_IT_number 12
_symmetry_cell_setting 'monoclinic'
loop_
_space_group_symop_operation_xyz
x,y,z
-x,y,-z
-x,-y,-z
x,-y,z
1/2+x,1/2+y,z
1/2-x,1/2+y,-z
1/2-x,1/2-y,-z
1/2+x,1/2-y,z
loop_
_atom_site_type_symbol
_atom_site_label
_atom_site_fract_x
_atom_site_fract_y
_atom_site_fract_z
Si Si1 0.024212 0.666653 0.891631
Si Si2 0.546668 0.326486 0.149699
Si Si3 0.262811 0.163181 0.412743
Si Si4 0.894654 0.829446 0.625623
Si Si5 0.252649 0.675120 0.072533
Si Si6 0.105990 0.825478 0.530934
O O1 0.985526 0.500000 0.938337
O O2 0.132363 0.664993 0.750246
O O3 0.984440 0.757257 0.881364
O O4 0.000000 0.740453 0.000000
O O5 0.534911 0.500000 0.157812
O O6 0.481175 0.267044 0.303351
O O7 0.651188 0.282574 0.022634
O O8 0.250000 0.250000 0.500000
O O9 0.200089 0.230842 0.437265
O O10 0.224700 0.000000 0.479121
O O11 0.830757 0.734955 0.765389
O O12 0.889082 0.760931 0.554669
O O13 0.000000 0.812919 0.500000
O O14 0.862873 0.000000 0.673888
O O15 0.243410 0.500000 0.076126
O O16 0.250000 0.750000 0.000000
O O17 0.097849 0.000000 0.534912
#
# Coordination Sequence:
#
# PCOD8091213 Si02
#       6
#     8   8   8   8   8   8
#     4  10  22  36  54  83 117 151 193 240 286 341
#     4  10  21  39  60  83 113 152 195 236 287 346
#     4  10  19  34  55  80 110 151 195 234 281 338
#     4  10  21  39  64  90 116 152 193 235 292 357
#     4  11  24  41  62  89 119 153 194 241 293 352
#     4   9  18  34  58  82 110 149 191 235 282 340
#
# _framework density 19.180282999999999
#
# number of rings (size 3 to 8) (size 9 to 14) (size 15 to 20)
#    0.000    2.000    1.667    1.500    2.333    4.667 
#    0.000    1.667    0.000    0.000    0.000    0.000 
#    0.000    0.000    0.000    0.000    0.000    0.000 
#
# Total GULP energy -297489.345224 kJ/mol
# GULP energy per Si atom -12395.389384 kJ/mol
# Density = 1.913663 g / cm^3
# Si number density = 19.180283 Si / 1000 Ang^3
#
#
#
# Elastic Constant Matrix: (Units=GPa)
#
#
# Indices 1 2 3 4 5 6 
#
# 1 159.7235 45.3738 73.6511 -0.0017 16.2477 0.0008
# 2 45.3738 53.5951 45.5514 -0.0024 3.8958 0.0024
# 3 73.6511 45.5514 125.1031 -0.0056 19.7545 0.0025
# 4 -0.0017 -0.0024 -0.0056 26.2695 0.0029 3.7031
# 5 16.2477 3.8958 19.7545 0.0029 44.1436 -0.0006
# 6 0.0008 0.0024 0.0025 3.7031 -0.0006 30.9640
#
#
#
# Elastic Compliance Matrix: (Units=1/GPa)
#
#
# Indices 1 2 3 4 5 6 
#
# 1 0.009426 -0.004855 -0.003552 0.000000 -0.001451 0.000000
# 2 -0.004855 0.029716 -0.008425 0.000000 0.002935 -0.000001
# 3 -0.003552 -0.008425 0.013804 0.000003 -0.004126 -0.000001
# 4 0.000000 0.000000 0.000003 0.038720 -0.000004 -0.004631
# 5 -0.001451 0.002935 -0.004126 -0.000004 0.024775 0.000001
# 6 0.000000 -0.000001 -0.000001 -0.004631 0.000001 0.032849
#
#
# Mechanical properties :
#
#
# Convention : Reuss Voigt Hill
#
# Bulk Modulus (GPa) = 51.86484 74.17492 63.01988
# Shear Modulus (GPa) = 26.40178 31.86513 29.13346
#
# Velocity S-wave (km/s) = 3.71415 4.08039 3.90157
# Velocity P-wave (km/s) = 6.74483 7.80742 7.29550
#
# Compressibility (1/GPa) = 0.01928088
#
# Stress axis : x y z
#
# Youngs Moduli (GPa) = 106.09361 33.65180 72.44408
#
# Poissons Ratio (x) = 0.16339 0.25733
# Poissons Ratio (y) = 0.51512 0.61033
# Poissons Ratio (z) = 0.37685 0.28351
#
# Static dielectric constant tensor:
#      x y z
#    x 3.761000 -0.000070 -0.001720 
#    y -0.000070 3.101490 0.000150 
#    z -0.001720 0.000150 3.595610 
# 
# 
# High freq. dielectric constant tensor:
#      x y z
#    x 1.766020 0.000000 -0.000850 
#    y 0.000000 1.718400 0.000000 
#    z -0.000850 0.000000 1.759860 
# 
# From -- ./inp_files/295355.got.cif
#   From: 2010.06.25/outbox.cif.g09.slc.cpg/sg12_148_cif.got.tgz:295355.got - 2010.06.28 00:19:55.
