data_PCOD8091797
_publ_section_title
;
Structure prediction by ZEFSAII (Michael W. Deem and Ramdas Pophale) SiO2 
 PCOD8091797
Probable space group: C 2/M
;
_chemical_formula_sum "Si O2"
_cell_formula_units_Z 56
_cell_length_a 18.570705
_cell_length_b 8.726926
_cell_length_c 17.094677
_cell_angle_alpha 90.000000
_cell_angle_beta 81.751484
_cell_angle_gamma 90.000000
_cell_volume 2741.791668
_symmetry_space_group_name_H-M "C 2/M"
_symmetry_group_IT_number 12
_symmetry_cell_setting 'monoclinic'
loop_
_space_group_symop_operation_xyz
x,y,z
-x,y,-z
-x,-y,-z
x,-y,z
1/2+x,1/2+y,z
1/2-x,1/2+y,-z
1/2-x,1/2-y,-z
1/2+x,1/2-y,z
loop_
_atom_site_type_symbol
_atom_site_label
_atom_site_fract_x
_atom_site_fract_y
_atom_site_fract_z
Si Si1 0.870699 0.682238 0.209397
Si Si2 0.283237 0.817747 0.764859
Si Si3 0.575044 0.823278 0.964982
Si Si4 0.591153 0.820990 0.370839
Si Si5 0.195127 0.674191 0.066230
Si Si6 0.830122 0.319763 0.479866
Si Si7 0.559629 0.318407 0.657287
O O1 0.870322 0.500000 0.213396
O O2 0.792615 0.744079 0.249938
O O3 0.886614 0.745999 0.118617
O O4 0.933138 0.748004 0.256714
O O5 0.347787 0.761297 0.698819
O O6 0.303747 0.753270 0.847708
O O7 0.275778 0.000000 0.761606
O O8 0.561112 0.000000 0.946170
O O9 0.500000 0.739816 0.000000
O O10 0.617597 0.804136 0.039052
O O11 0.621285 0.785087 0.451836
O O12 0.516234 0.731550 0.369549
O O13 0.574914 0.000000 0.361524
O O14 0.218796 0.500000 0.070831
O O15 0.250000 0.750000 0.000000
O O16 0.822648 0.500000 0.466104
O O17 0.750000 0.250000 0.500000
O O18 0.871372 0.242230 0.401628
O O19 0.562734 0.500000 0.661019
#
# Coordination Sequence:
#
# PCOD8091797 Si02
#       7
#     8   8   8   8   8   8   8
#     4  11  22  38  62  87 119 161 207 254 305 368
#     4  10  21  37  61  89 123 159 199 253 308 365
#     4   9  19  34  56  85 116 154 202 250 301 364
#     4  10  23  42  64  92 122 158 201 246 301 362
#     4  10  19  34  57  85 117 156 199 248 301 360
#     4  11  23  42  69  98 129 163 202 246 295 360
#     4  12  26  42  62  90 126 162 203 253 305 359
#
# _framework density 20.424600999999999
#
# number of rings (size 3 to 8) (size 9 to 14) (size 15 to 20)
#    0.000    1.571    1.429    3.429    2.000    4.571 
#    0.000    0.000    0.000    2.143    0.000    0.000 
#    0.000    0.000    0.000    0.000    0.000    0.000 
#
# Total GULP energy -347188.029604 kJ/mol
# GULP energy per Si atom -12399.572486 kJ/mol
# Density = 2.037811 g / cm^3
# Si number density = 20.424601 Si / 1000 Ang^3
#
#
#
# Elastic Constant Matrix: (Units=GPa)
#
#
# Indices 1 2 3 4 5 6 
#
# 1 110.4891 41.5610 29.0736 0.0000 -10.4082 0.0000
# 2 41.5610 69.5107 26.9264 0.0000 2.2595 0.0000
# 3 29.0736 26.9264 91.3072 0.0000 2.7636 0.0000
# 4 0.0000 0.0000 0.0000 24.5483 0.0000 -0.7362
# 5 -10.4082 2.2595 2.7636 0.0000 39.7013 0.0000
# 6 0.0000 0.0000 0.0000 -0.7362 0.0000 35.6672
#
#
#
# Elastic Compliance Matrix: (Units=1/GPa)
#
#
# Indices 1 2 3 4 5 6 
#
# 1 0.012518 -0.006796 -0.002097 0.000000 0.003815 0.000000
# 2 -0.006796 0.019945 -0.003637 0.000000 -0.002664 0.000000
# 3 -0.002097 -0.003637 0.012730 0.000000 -0.001229 0.000000
# 4 0.000000 0.000000 0.000000 0.040761 0.000000 0.000841
# 5 0.003815 -0.002664 -0.001229 0.000000 0.026425 0.000000
# 6 0.000000 0.000000 0.000000 0.000841 0.000000 0.028054
#
#
# Mechanical properties :
#
#
# Convention : Reuss Voigt Hill
#
# Bulk Modulus (GPa) = 49.67277 51.82544 50.74911
# Shear Modulus (GPa) = 29.03490 31.56644 30.30067
#
# Velocity S-wave (km/s) = 3.77446 3.93556 3.85585
# Velocity P-wave (km/s) = 6.58545 6.78827 6.68763
#
# Compressibility (1/GPa) = 0.02013175
#
# Stress axis : x y z
#
# Youngs Moduli (GPa) = 79.88259 50.13676 78.55691
#
# Poissons Ratio (x) = 0.34075 0.16475
# Poissons Ratio (y) = 0.54292 0.28573
# Poissons Ratio (z) = 0.16753 0.18236
#
# Static dielectric constant tensor:
#      x y z
#    x 3.576050 0.000000 -0.035560 
#    y 0.000000 3.481200 0.000000 
#    z -0.035560 0.000000 4.023150 
# 
# 
# High freq. dielectric constant tensor:
#      x y z
#    x 1.811390 0.000000 0.005000 
#    y 0.000000 1.776980 0.000000 
#    z 0.005000 0.000000 1.815090 
# 
# From -- ./inp_files/275031.got.cif
#   From: 2010.06.25/outbox.cif.g09.slc.cpg/sg12_138_cif.got.tgz:275031.got - 2010.06.28 00:19:55.
