data_PCOD8091883
_publ_section_title
;
Structure prediction by ZEFSAII (Michael W. Deem and Ramdas Pophale) SiO2 
 PCOD8091883
Probable space group: C 2/M
;
_chemical_formula_sum "Si O2"
_cell_formula_units_Z 64
_cell_length_a 20.030397
_cell_length_b 8.802767
_cell_length_c 20.310325
_cell_angle_alpha 90.000000
_cell_angle_beta 101.428752
_cell_angle_gamma 90.000000
_cell_volume 3510.167721
_symmetry_space_group_name_H-M "C 2/M"
_symmetry_group_IT_number 12
_symmetry_cell_setting 'monoclinic'
loop_
_space_group_symop_operation_xyz
x,y,z
-x,y,-z
-x,-y,-z
x,-y,z
1/2+x,1/2+y,z
1/2-x,1/2+y,-z
1/2-x,1/2-y,-z
1/2+x,1/2-y,z
loop_
_atom_site_type_symbol
_atom_site_label
_atom_site_fract_x
_atom_site_fract_y
_atom_site_fract_z
Si Si1 0.478118 0.821413 0.814138
Si Si2 0.348679 0.320716 0.845040
Si Si3 0.117340 0.820789 0.824717
Si Si4 0.365682 0.321148 0.319974
Si Si5 0.007853 0.179815 0.574802
Si Si6 0.747240 0.820594 0.070911
Si Si7 0.581351 0.825362 0.337935
Si Si8 0.785245 0.676526 0.706863
O O1 0.425434 0.740253 0.852709
O O2 0.553254 0.762162 0.845671
O O3 0.459860 0.777459 0.735399
O O4 0.472475 0.000000 0.824400
O O5 0.350012 0.500000 0.852702
O O6 0.317532 0.248349 0.904507
O O7 0.303056 0.275399 0.773685
O O8 0.125746 0.757720 0.752121
O O9 0.184058 0.774336 0.877765
O O10 0.104622 0.000000 0.823442
O O11 0.375602 0.500000 0.319892
O O12 0.423251 0.250720 0.379130
O O13 0.290446 0.279244 0.332501
O O14 0.000000 0.248131 0.500000
O O15 0.942639 0.224932 0.605511
O O16 0.011875 0.000000 0.572116
O O17 0.738730 0.000000 0.064854
O O18 0.750000 0.750000 0.000000
O O19 0.661701 0.793254 0.341886
O O20 0.568025 0.000000 0.352707
O O21 0.788788 0.500000 0.729921
#
# Coordination Sequence:
#
# PCOD8091883 Si02
#       8
#     8   8   8   8   8   8   8   8
#     4  10  20  34  55  83 113 142 180 229 275 320
#     4  11  21  34  55  83 113 145 182 224 273 325
#     4  10  19  34  58  83 108 143 183 224 270 323
#     4   9  16  31  54  77 104 139 179 221 266 316
#     4  10  20  33  51  75 105 142 181 220 266 323
#     4  11  23  40  59  82 114 148 183 222 273 330
#     4   9  18  31  50  75 103 137 175 219 271 322
#     4   9  17  33  54  77 104 139 181 224 273 323
#
# _framework density 18.232747
#
# number of rings (size 3 to 8) (size 9 to 14) (size 15 to 20)
#    0.000    2.125    2.500    2.625    0.000    3.250 
#    0.000    1.875    0.000    3.750    0.000    0.000 
#    0.000    0.000    0.000    0.000    0.000    0.000 
#
# Total GULP energy -396824.754243 kJ/mol
# GULP energy per Si atom -12400.773570 kJ/mol
# Density = 1.819125 g / cm^3
# Si number density = 18.232747 Si / 1000 Ang^3
#
#
#
# Elastic Constant Matrix: (Units=GPa)
#
#
# Indices 1 2 3 4 5 6 
#
# 1 148.2228 42.0674 62.0335 0.0000 -10.2092 0.0000
# 2 42.0674 61.5303 37.8723 0.0000 -5.0717 0.0000
# 3 62.0335 37.8723 109.7438 0.0000 -9.0387 0.0000
# 4 0.0000 0.0000 0.0000 22.7731 0.0000 -5.3839
# 5 -10.2092 -5.0717 -9.0387 0.0000 27.0274 0.0000
# 6 0.0000 0.0000 0.0000 -5.3839 0.0000 30.9313
#
#
#
# Elastic Compliance Matrix: (Units=1/GPa)
#
#
# Indices 1 2 3 4 5 6 
#
# 1 0.009647 -0.004050 -0.003926 0.000000 0.001571 0.000000
# 2 -0.004050 0.022397 -0.005368 0.000000 0.000878 0.000000
# 3 -0.003926 -0.005368 0.013346 0.000000 0.001973 0.000000
# 4 0.000000 0.000000 0.000000 0.045796 0.000000 0.007971
# 5 0.001571 0.000878 0.001973 0.000000 0.038418 0.000000
# 6 0.000000 0.000000 0.000000 0.007971 0.000000 0.033717
#
#
# Mechanical properties :
#
#
# Convention : Reuss Voigt Hill
#
# Bulk Modulus (GPa) = 53.46610 67.04926 60.25768
# Shear Modulus (GPa) = 25.47856 27.98128 26.72992
#
# Velocity S-wave (km/s) = 3.74225 3.92174 3.83304
# Velocity P-wave (km/s) = 6.93256 7.57368 7.26020
#
# Compressibility (1/GPa) = 0.01870344
#
# Stress axis : x y z
#
# Youngs Moduli (GPa) = 103.65520 44.64872 74.92629
#
# Poissons Ratio (x) = 0.18081 0.29419
# Poissons Ratio (y) = 0.41976 0.40219
# Poissons Ratio (z) = 0.40699 0.23967
#
# Static dielectric constant tensor:
#      x y z
#    x 3.603400 0.000000 0.026680 
#    y 0.000000 3.165860 0.000000 
#    z 0.026680 0.000000 3.246500 
# 
# 
# High freq. dielectric constant tensor:
#      x y z
#    x 1.723650 0.000000 -0.006890 
#    y 0.000000 1.693370 0.000000 
#    z -0.006890 0.000000 1.677950 
# 
# From -- ./inp_files/319220.got.cif
#   From: 2010.06.25/outbox.cif.g09.slc.cpg/sg12_160_cif.got.tgz:319220.got - 2010.06.28 00:19:55.
