data_PCOD8091610
_publ_section_title
;
Structure prediction by ZEFSAII (Michael W. Deem and Ramdas Pophale) SiO2 
 PCOD8091610
Probable space group: C 2/M
;
_chemical_formula_sum "Si O2"
_cell_formula_units_Z 56
_cell_length_a 14.426017
_cell_length_b 8.686919
_cell_length_c 32.267129
_cell_angle_alpha 90.000000
_cell_angle_beta 133.583640
_cell_angle_gamma 90.000000
_cell_volume 2929.086782
_symmetry_space_group_name_H-M "C 2/M"
_symmetry_group_IT_number 12
_symmetry_cell_setting 'monoclinic'
loop_
_space_group_symop_operation_xyz
x,y,z
-x,y,-z
-x,-y,-z
x,-y,z
1/2+x,1/2+y,z
1/2-x,1/2+y,-z
1/2-x,1/2-y,-z
1/2+x,1/2-y,z
loop_
_atom_site_type_symbol
_atom_site_label
_atom_site_fract_x
_atom_site_fract_y
_atom_site_fract_z
Si Si1 0.620725 0.181425 0.736963
Si Si2 0.061009 0.322086 0.944696
Si Si3 0.849429 0.318006 0.562602
Si Si4 0.374850 0.682805 0.349292
Si Si5 0.707670 0.321251 0.132672
Si Si6 0.281422 0.677631 0.075230
Si Si7 0.834622 0.681200 0.651323
O O1 0.666196 0.266459 0.709403
O O2 0.718189 0.226974 0.803074
O O3 0.478612 0.237397 0.706538
O O4 0.619016 0.000000 0.727395
O O5 0.076922 0.500000 0.937621
O O6 0.100190 0.217802 0.917866
O O7 0.916196 0.284291 0.911142
O O8 0.148567 0.282188 0.011206
O O9 0.855574 0.500000 0.560085
O O10 0.750000 0.250000 0.500000
O O11 0.803836 0.268779 0.594627
O O12 0.989211 0.252176 0.595764
O O13 0.383412 0.500000 0.354186
O O14 0.268875 0.751059 0.348639
O O15 0.670702 0.500000 0.121882
O O16 0.795726 0.282892 0.120319
O O17 0.289254 0.500000 0.090379
O O18 0.827877 0.500000 0.653642
#
# Coordination Sequence:
#
# PCOD8091610 Si02
#       7
#     8   8   8   8   8   8   8
#     4   9  20  38  54  75 107 141 176 218 265 312
#     4  10  21  37  56  78 107 142 179 223 276 332
#     4  10  20  36  55  79 112 144 175 217 262 311
#     4  10  19  34  57  81 103 138 182 219 261 313
#     4  11  22  35  55  81 110 144 181 223 274 329
#     4  10  21  37  56  79 107 139 179 226 275 330
#     4   8  17  35  56  74 102 142 176 209 258 313
#
# _framework density 19.118584999999999
#
# number of rings (size 3 to 8) (size 9 to 14) (size 15 to 20)
#    0.000    2.286    0.000    3.429    0.000    6.286 
#    0.000   11.429    0.000    0.000    0.000    0.000 
#    0.000    0.000    0.000    0.000    0.000    0.000 
#
# Total GULP energy -347239.168812 kJ/mol
# GULP energy per Si atom -12401.398886 kJ/mol
# Density = 1.907507 g / cm^3
# Si number density = 19.118585 Si / 1000 Ang^3
#
#
#
# Elastic Constant Matrix: (Units=GPa)
#
#
# Indices 1 2 3 4 5 6 
#
# 1 127.0328 29.2433 36.8910 0.0000 -15.0685 0.0000
# 2 29.2433 56.6289 35.3437 0.0000 -4.1803 0.0000
# 3 36.8910 35.3437 75.1025 0.0000 -16.1954 0.0000
# 4 0.0000 0.0000 0.0000 30.8460 0.0000 -2.2777
# 5 -15.0685 -4.1803 -16.1954 0.0000 17.0049 0.0000
# 6 0.0000 0.0000 0.0000 -2.2777 0.0000 31.6655
#
#
#
# Elastic Compliance Matrix: (Units=1/GPa)
#
#
# Indices 1 2 3 4 5 6 
#
# 1 0.009963 -0.003487 -0.001930 0.000000 0.006133 0.000000
# 2 -0.003487 0.026783 -0.012758 0.000000 -0.008657 0.000000
# 3 -0.001930 -0.012758 0.024190 0.000000 0.018192 0.000000
# 4 0.000000 0.000000 0.000000 0.032592 0.000000 0.002344
# 5 0.006133 -0.008657 0.018192 0.000000 0.079439 0.000000
# 6 0.000000 0.000000 0.000000 0.002344 0.000000 0.031749
#
#
# Mechanical properties :
#
#
# Convention : Reuss Voigt Hill
#
# Bulk Modulus (GPa) = 40.67520 51.30225 45.98873
# Shear Modulus (GPa) = 20.05913 26.38904 23.22409
#
# Velocity S-wave (km/s) = 3.24264 3.71925 3.48909
# Velocity P-wave (km/s) = 5.94483 6.73318 6.35125
#
# Compressibility (1/GPa) = 0.02458500
#
# Stress axis : x y z
#
# Youngs Moduli (GPa) = 100.37368 37.33646 41.33876
#
# Poissons Ratio (x) = 0.13021 0.07979
# Poissons Ratio (y) = 0.35005 0.52741
# Poissons Ratio (z) = 0.19373 0.47635
#
# Static dielectric constant tensor:
#      x y z
#    x 3.638530 0.000000 -0.058970 
#    y 0.000000 3.355350 0.000000 
#    z -0.058970 0.000000 3.466300 
# 
# 
# High freq. dielectric constant tensor:
#      x y z
#    x 1.749340 0.000000 -0.005310 
#    y 0.000000 1.737940 0.000000 
#    z -0.005310 0.000000 1.740240 
# 
# From -- ./inp_files/338195.got.cif
#   From: 2010.06.25/outbox.cif.g09.slc.cpg/sg12_170_cif.got.tgz:338195.got - 2010.06.28 00:19:55.
