data_PCOD8091734
_publ_section_title
;
Structure prediction by ZEFSAII (Michael W. Deem and Ramdas Pophale) SiO2 
 PCOD8091734
Probable space group: C 2/M
;
_chemical_formula_sum "Si O2"
_cell_formula_units_Z 64
_cell_length_a 15.151069
_cell_length_b 14.776925
_cell_length_c 23.043383
_cell_angle_alpha 90.000000
_cell_angle_beta 139.431438
_cell_angle_gamma 90.000000
_cell_volume 3355.256627
_symmetry_space_group_name_H-M "C 2/M"
_symmetry_group_IT_number 12
_symmetry_cell_setting 'monoclinic'
loop_
_space_group_symop_operation_xyz
x,y,z
-x,y,-z
-x,-y,-z
x,-y,z
1/2+x,1/2+y,z
1/2-x,1/2+y,-z
1/2-x,1/2-y,-z
1/2+x,1/2-y,z
loop_
_atom_site_type_symbol
_atom_site_label
_atom_site_fract_x
_atom_site_fract_y
_atom_site_fract_z
Si Si1 0.755688 0.231725 0.771438
Si Si2 0.911080 0.102759 0.589452
Si Si3 0.957643 0.251571 0.122748
Si Si4 0.391988 0.309482 0.401182
Si Si5 0.314782 0.895552 0.614704
Si Si6 0.513377 0.260730 0.727303
Si Si7 0.235294 0.104103 0.019373
Si Si8 0.135537 0.099633 0.091270
O O1 0.674648 0.228231 0.669859
O O2 0.663110 0.277324 0.775008
O O3 0.795635 0.133774 0.815428
O O4 0.899308 0.282389 0.833901
O O5 0.767530 0.119080 0.486003
O O6 0.032557 0.122552 0.604913
O O7 0.914635 0.164537 0.648870
O O8 0.925934 0.000000 0.617508
O O9 0.977851 0.227736 0.200050
O O10 0.863111 0.337630 0.061308
O O11 0.900842 0.157579 0.067625
O O12 0.500000 0.266299 0.500000
O O13 0.275341 0.364902 0.375488
O O14 0.453010 0.837775 0.680588
O O15 0.354940 0.000000 0.643455
O O16 0.245475 0.101944 0.094389
O O17 0.236898 0.000000 0.996115
O O18 0.086578 0.000000 0.083629
O O19 0.000000 0.152279 0.000000
#
# Coordination Sequence:
#
# PCOD8091734 Si02
#       8
#     8   8   8   8   8   8   8   8
#     4  11  21  36  55  86 118 150 189 237 287 344
#     4   9  19  35  55  80 114 154 194 235 283 340
#     4  11  22  38  60  87 114 152 188 234 297 344
#     4   9  18  34  57  83 114 152 194 239 287 334
#     4  10  19  34  57  83 112 149 195 244 287 328
#     4  11  22  35  55  86 115 151 191 235 285 340
#     4  10  22  40  61  86 115 147 191 241 288 346
#     4  10  19  34  58  84 110 146 191 239 284 334
#
# _framework density 19.074546000000002
#
# number of rings (size 3 to 8) (size 9 to 14) (size 15 to 20)
#    0.000    1.875    3.750    0.750    0.000    3.000 
#    0.000    0.625    0.000    1.125    0.000    0.000 
#    0.000    0.000    0.000    0.000    0.000    0.000 
#
# Total GULP energy -396516.427958 kJ/mol
# GULP energy per Si atom -12391.138374 kJ/mol
# Density = 1.903113 g / cm^3
# Si number density = 19.074546 Si / 1000 Ang^3
#
#
#
# Elastic Constant Matrix: (Units=GPa)
#
#
# Indices 1 2 3 4 5 6 
#
# 1 74.6866 29.1663 34.2946 0.0000 9.7490 0.0000
# 2 29.1663 112.7783 66.2689 0.0000 -11.5698 0.0000
# 3 34.2946 66.2689 110.0690 0.0000 -6.6273 0.0000
# 4 0.0000 0.0000 0.0000 25.5812 0.0000 -3.3663
# 5 9.7490 -11.5698 -6.6273 0.0000 32.4828 0.0000
# 6 0.0000 0.0000 0.0000 -3.3663 0.0000 20.3859
#
#
#
# Elastic Compliance Matrix: (Units=1/GPa)
#
#
# Indices 1 2 3 4 5 6 
#
# 1 0.017286 -0.002750 -0.004152 0.000000 -0.007015 0.000000
# 2 -0.002750 0.014504 -0.007608 0.000000 0.004439 0.000000
# 3 -0.004152 -0.007608 0.015057 0.000000 0.001608 0.000000
# 4 0.000000 0.000000 0.000000 0.039959 0.000000 0.006599
# 5 -0.007015 0.004439 0.001608 0.000000 0.034800 0.000000
# 6 0.000000 0.000000 0.000000 0.006599 0.000000 0.050143
#
#
# Mechanical properties :
#
#
# Convention : Reuss Voigt Hill
#
# Bulk Modulus (GPa) = 56.10162 61.88817 58.99489
# Shear Modulus (GPa) = 24.18819 26.87692 25.53256
#
# Velocity S-wave (km/s) = 3.56488 3.75780 3.66261
# Velocity P-wave (km/s) = 6.81323 7.16547 6.99157
#
# Compressibility (1/GPa) = 0.01782480
#
# Stress axis : x y z
#
# Youngs Moduli (GPa) = 57.85186 68.94505 66.41594
#
# Poissons Ratio (x) = 0.18960 0.27579
# Poissons Ratio (y) = 0.15909 0.50532
# Poissons Ratio (z) = 0.24022 0.52457
#
# Static dielectric constant tensor:
#      x y z
#    x 3.526340 0.000000 0.049690 
#    y 0.000000 3.332180 0.000000 
#    z 0.049690 0.000000 3.754940 
# 
# 
# High freq. dielectric constant tensor:
#      x y z
#    x 1.739640 0.000000 0.005340 
#    y 0.000000 1.713000 0.000000 
#    z 0.005340 0.000000 1.752400 
# 
# From -- ./inp_files/340127.got.cif
#   From: 2010.06.25/outbox.cif.g09.slc.cpg/sg12_171_cif.got.tgz:340127.got - 2010.06.28 00:19:55.
