data_PCOD8091915
_publ_section_title
;
Structure prediction by ZEFSAII (Michael W. Deem and Ramdas Pophale) SiO2 
 PCOD8091915
Probable space group: C 2/M
;
_chemical_formula_sum "Si O2"
_cell_formula_units_Z 64
_cell_length_a 20.558857
_cell_length_b 8.977962
_cell_length_c 18.710249
_cell_angle_alpha 90.000000
_cell_angle_beta 89.411599
_cell_angle_gamma 90.000000
_cell_volume 3453.292730
_symmetry_space_group_name_H-M "C 2/M"
_symmetry_group_IT_number 12
_symmetry_cell_setting 'monoclinic'
loop_
_space_group_symop_operation_xyz
x,y,z
-x,y,-z
-x,-y,-z
x,-y,z
1/2+x,1/2+y,z
1/2-x,1/2+y,-z
1/2-x,1/2-y,-z
1/2+x,1/2-y,z
loop_
_atom_site_type_symbol
_atom_site_label
_atom_site_fract_x
_atom_site_fract_y
_atom_site_fract_z
Si Si1 0.805735 0.673390 0.954100
Si Si2 0.627750 0.827475 0.575415
Si Si3 0.879662 0.174526 0.574330
Si Si4 0.752476 0.173190 0.664839
Si Si5 0.494970 0.173286 0.657370
Si Si6 0.555796 0.674148 0.211837
Si Si7 0.809634 0.326958 0.789807
Si Si8 0.059107 0.825719 0.048792
O O1 0.806990 0.500000 0.972169
O O2 0.789356 0.704225 0.871524
O O3 0.875840 0.739551 0.974308
O O4 0.750000 0.750000 0.000000
O O5 0.628311 0.724071 0.506732
O O6 0.688419 0.780415 0.623067
O O7 0.563856 0.794278 0.621458
O O8 0.631807 0.000000 0.551875
O O9 0.814083 0.217121 0.616229
O O10 0.939946 0.258489 0.608079
O O11 0.893773 0.000000 0.577148
O O12 0.752998 0.267957 0.738349
O O13 0.751787 0.000000 0.685029
O O14 0.496296 0.247639 0.735967
O O15 0.480977 0.000000 0.666410
O O16 0.555454 0.500000 0.227222
O O17 0.626451 0.735003 0.231722
O O18 0.538657 0.711865 0.130172
O O19 0.823644 0.500000 0.776859
O O20 0.073137 0.000000 0.038545
O O21 0.000000 0.770975 0.000000
#
# Coordination Sequence:
#
# PCOD8091915 Si02
#       8
#     8   8   8   8   8   8   8   8
#     4  10  21  37  58  86 117 150 191 234 278 333
#     4  10  23  40  55  78 113 150 183 226 281 332
#     4  11  22  36  59  85 107 141 189 234 276 331
#     4  10  21  38  58  81 112 147 186 227 277 333
#     4  11  22  37  57  80 111 148 187 229 276 329
#     4  10  19  34  58  84 110 146 188 228 274 329
#     4  10  20  35  58  85 111 145 189 231 272 326
#     4   9  19  37  60  85 116 151 186 230 285 337
#
# _framework density 18.533037
#
# number of rings (size 3 to 8) (size 9 to 14) (size 15 to 20)
#    0.000    1.875    1.250    2.625    0.000    5.750 
#    2.250    0.000    0.000    0.000    0.000    0.000 
#    0.000    0.000    0.000    0.000    0.000    0.000 
#
# Total GULP energy -396938.605009 kJ/mol
# GULP energy per Si atom -12404.331407 kJ/mol
# Density = 1.849086 g / cm^3
# Si number density = 18.533037 Si / 1000 Ang^3
#
#
#
# Elastic Constant Matrix: (Units=GPa)
#
#
# Indices 1 2 3 4 5 6 
#
# 1 142.2842 63.4102 76.3330 0.0000 11.1748 0.0000
# 2 63.4102 91.6656 62.6236 0.0000 -3.0760 0.0000
# 3 76.3330 62.6236 125.6085 0.0000 6.3536 0.0000
# 4 0.0000 0.0000 0.0000 36.0564 0.0000 -1.7881
# 5 11.1748 -3.0760 6.3536 0.0000 27.1133 0.0000
# 6 0.0000 0.0000 0.0000 -1.7881 0.0000 27.1710
#
#
#
# Elastic Compliance Matrix: (Units=1/GPa)
#
#
# Indices 1 2 3 4 5 6 
#
# 1 0.012272 -0.005629 -0.004415 0.000000 -0.004662 0.000000
# 2 -0.005629 0.019534 -0.006626 0.000000 0.006089 0.000000
# 3 -0.004415 -0.006626 0.014061 0.000000 -0.002227 0.000000
# 4 0.000000 0.000000 0.000000 0.027825 0.000000 0.001831
# 5 -0.004662 0.006089 -0.002227 0.000000 0.040016 0.000000
# 6 0.000000 0.000000 0.000000 0.001831 0.000000 0.036924
#
#
# Mechanical properties :
#
#
# Convention : Reuss Voigt Hill
#
# Bulk Modulus (GPa) = 79.83736 84.92133 82.37935
# Shear Modulus (GPa) = 26.57468 28.54758 27.56113
#
# Velocity S-wave (km/s) = 3.79081 3.92900 3.86052
# Velocity P-wave (km/s) = 7.89507 8.15499 8.02608
#
# Compressibility (1/GPa) = 0.01252546
#
# Stress axis : x y z
#
# Youngs Moduli (GPa) = 81.48832 51.19196 71.11987
#
# Poissons Ratio (x) = 0.28816 0.31402
# Poissons Ratio (y) = 0.45869 0.47126
# Poissons Ratio (z) = 0.35980 0.33921
#
# Static dielectric constant tensor:
#      x y z
#    x 3.293780 0.000000 -0.009260 
#    y 0.000000 3.468030 0.000000 
#    z -0.009260 0.000000 3.567440 
# 
# 
# High freq. dielectric constant tensor:
#      x y z
#    x 1.711490 0.000000 0.001060 
#    y 0.000000 1.727640 0.000000 
#    z 0.001060 0.000000 1.729630 
# 
# From -- ./inp_files/281322.got.cif
#   From: 2010.06.25/outbox.cif.g09.slc.cpg/sg12_141_cif.got.tgz:281322.got - 2010.06.28 00:19:55.
