data_PCOD8091862
_publ_section_title
;
Structure prediction by ZEFSAII (Michael W. Deem and Ramdas Pophale) SiO2 
 PCOD8091862
Probable space group: C 2/M
;
_chemical_formula_sum "Si O2"
_cell_formula_units_Z 48
_cell_length_a 29.224709
_cell_length_b 9.243358
_cell_length_c 19.127747
_cell_angle_alpha 90.000000
_cell_angle_beta 148.446900
_cell_angle_gamma 90.000000
_cell_volume 2703.865055
_symmetry_space_group_name_H-M "C 2/M"
_symmetry_group_IT_number 12
_symmetry_cell_setting 'monoclinic'
loop_
_space_group_symop_operation_xyz
x,y,z
-x,y,-z
-x,-y,-z
x,-y,z
1/2+x,1/2+y,z
1/2-x,1/2+y,-z
1/2-x,1/2-y,-z
1/2+x,1/2-y,z
loop_
_atom_site_type_symbol
_atom_site_label
_atom_site_fract_x
_atom_site_fract_y
_atom_site_fract_z
Si Si1 0.600413 0.669602 0.136352
Si Si2 0.266718 0.334346 0.807213
Si Si3 0.767899 0.328742 0.595408
Si Si4 0.640886 0.664859 0.551405
Si Si5 0.788133 0.668277 0.115184
Si Si6 0.039703 0.835375 0.627530
O O1 0.609163 0.500000 0.166294
O O2 0.645028 0.707426 0.119671
O O3 0.645513 0.762558 0.256140
O O4 0.500000 0.717207 0.000000
O O5 0.244036 0.500000 0.764609
O O6 0.183039 0.250435 0.670139
O O7 0.276012 0.302510 0.902027
O O8 0.780866 0.500000 0.601165
O O9 0.750000 0.250000 0.500000
O O10 0.683331 0.291864 0.532702
O O11 0.662540 0.500000 0.596957
O O12 0.536809 0.691536 0.414659
O O13 0.793595 0.500000 0.104296
O O14 0.884717 0.723189 0.257768
O O15 0.750000 0.750000 0.000000
O O16 0.000000 0.805425 0.500000
O O17 0.075130 0.000000 0.679006
#
# Coordination Sequence:
#
# PCOD8091862 Si02
#       6
#     8   8   8   8   8   8
#     4   9  18  35  58  80 103 135 177 219 263 315
#     4   9  18  33  54  78 103 136 175 218 261 310
#     4  10  20  35  55  79 110 141 173 215 265 313
#     4   9  18  33  55  81 104 136 175 215 261 313
#     4  11  23  37  53  76 110 145 178 216 264 313
#     4  10  19  34  58  82 105 134 175 219 261 313
#
# _framework density 17.752365000000001
#
# number of rings (size 3 to 8) (size 9 to 14) (size 15 to 20)
#    0.000    2.333    1.667    1.000    0.000    2.667 
#    3.000    0.000    0.000    0.000    0.000    0.000 
#    0.000    0.000    0.000    0.000    0.000    0.000 
#
# Total GULP energy -297566.916330 kJ/mol
# GULP energy per Si atom -12398.621514 kJ/mol
# Density = 1.771196 g / cm^3
# Si number density = 17.752365 Si / 1000 Ang^3
#
#
#
# Elastic Constant Matrix: (Units=GPa)
#
#
# Indices 1 2 3 4 5 6 
#
# 1 112.7858 58.8407 74.0594 0.0000 -6.1464 0.0000
# 2 58.8407 90.4805 65.0132 0.0000 -10.7144 0.0000
# 3 74.0594 65.0132 110.1559 0.0000 -4.8684 0.0000
# 4 0.0000 0.0000 0.0000 36.4819 0.0000 -2.5288
# 5 -6.1464 -10.7144 -4.8684 0.0000 28.7361 0.0000
# 6 0.0000 0.0000 0.0000 -2.5288 0.0000 26.4435
#
#
#
# Elastic Compliance Matrix: (Units=1/GPa)
#
#
# Indices 1 2 3 4 5 6 
#
# 1 0.017068 -0.004900 -0.008567 0.000000 0.000372 0.000000
# 2 -0.004900 0.021425 -0.009112 0.000000 0.005397 0.000000
# 3 -0.008567 -0.009112 0.020135 0.000000 -0.001819 0.000000
# 4 0.000000 0.000000 0.000000 0.027594 0.000000 0.002639
# 5 0.000372 0.005397 -0.001819 0.000000 0.036583 0.000000
# 6 0.000000 0.000000 0.000000 0.002639 0.000000 0.038069
#
#
# Mechanical properties :
#
#
# Convention : Reuss Voigt Hill
#
# Bulk Modulus (GPa) = 74.23558 78.80544 76.52051
# Shear Modulus (GPa) = 23.75044 26.03288 24.89166
#
# Velocity S-wave (km/s) = 3.66166 3.83357 3.74861
# Velocity P-wave (km/s) = 7.73208 8.00518 7.86982
#
# Compressibility (1/GPa) = 0.01347063
#
# Stress axis : x y z
#
# Youngs Moduli (GPa) = 58.58786 46.67435 49.66454
#
# Poissons Ratio (x) = 0.22871 0.42547
# Poissons Ratio (y) = 0.28709 0.45254
# Poissons Ratio (z) = 0.50191 0.42529
#
# Static dielectric constant tensor:
#      x y z
#    x 3.696120 0.000000 0.126860 
#    y 0.000000 3.352900 0.000000 
#    z 0.126860 0.000000 3.278190 
# 
# 
# High freq. dielectric constant tensor:
#      x y z
#    x 1.700170 0.000000 0.003640 
#    y 0.000000 1.692060 0.000000 
#    z 0.003640 0.000000 1.664580 
# 
# From -- ./inp_files/274102.got.cif
#   From: 2010.06.25/outbox.cif.g09.slc.cpg/sg12_138_cif.got.tgz:274102.got - 2010.06.28 00:19:55.
