data_PCOD8091045
_publ_section_title
;
Structure prediction by ZEFSAII (Michael W. Deem and Ramdas Pophale) SiO2 
 PCOD8091045
Probable space group: C 2/M
;
_chemical_formula_sum "Si O2"
_cell_formula_units_Z 56
_cell_length_a 14.898395
_cell_length_b 16.488734
_cell_length_c 14.630469
_cell_angle_alpha 90.000000
_cell_angle_beta 58.389186
_cell_angle_gamma 90.000000
_cell_volume 3060.800247
_symmetry_space_group_name_H-M "C 2/M"
_symmetry_group_IT_number 12
_symmetry_cell_setting 'monoclinic'
loop_
_space_group_symop_operation_xyz
x,y,z
-x,y,-z
-x,-y,-z
x,-y,z
1/2+x,1/2+y,z
1/2-x,1/2+y,-z
1/2-x,1/2-y,-z
1/2+x,1/2-y,z
loop_
_atom_site_type_symbol
_atom_site_label
_atom_site_fract_x
_atom_site_fract_y
_atom_site_fract_z
Si Si1 0.199944 0.240178 0.175282
Si Si2 0.706688 0.164161 0.693107
Si Si3 0.124690 0.500000 0.822568
Si Si4 0.257924 0.368772 0.016826
Si Si5 0.488410 0.410089 0.904274
Si Si6 0.041830 0.794972 0.716959
Si Si7 0.619636 0.000000 0.026240
Si Si8 0.097017 0.095546 0.516970
O O1 0.246972 0.213263 0.246348
O O2 0.244214 0.328648 0.124583
O O3 0.073019 0.240111 0.245542
O O4 0.247177 0.188783 0.067760
O O5 0.653866 0.080406 0.751982
O O6 0.623575 0.220289 0.682516
O O7 0.800935 0.140193 0.576255
O O8 0.003807 0.500000 0.911097
O O9 0.177381 0.500000 0.895233
O O10 0.154887 0.422792 0.064260
O O11 0.364552 0.419594 0.951385
O O12 0.539140 0.500000 0.865069
O O13 0.542889 0.344200 0.810966
O O14 0.500000 0.376315 0.000000
O O15 0.072939 0.860167 0.624279
O O16 0.000000 0.106771 0.500000
O O17 0.118017 0.000000 0.523112
#
# Coordination Sequence:
#
# PCOD8091045 Si02
#       8
#     8   8   4   8   8   8   4   8
#     4  10  21  35  55  85 120 153 204 237 295 359
#     4  12  22  41  61  86 124 154 200 253 307 357
#     4  11  24  36  57  90 116 161 202 251 296 359
#     4  10  19  34  54  81 118 164 192 243 292 348
#     4  10  20  35  56  86 121 157 204 239 290 360
#     4  11  23  38  60  91 119 161 194 253 304 357
#     4  11  20  36  55  82 119 162 206 238 295 355
#     4  11  23  41  67  93 117 150 201 257 311 360
#
# _framework density 18.295867999999999
#
# number of rings (size 3 to 8) (size 9 to 14) (size 15 to 20)
#    0.000    1.286    4.286    2.571    0.000    0.000 
#    2.571    0.000    0.000    0.000    0.000    1.500 
#    0.000    0.000    0.000    0.000    0.000    0.000 
#
# Total GULP energy -347054.791432 kJ/mol
# GULP energy per Si atom -12394.813980 kJ/mol
# Density = 1.825423 g / cm^3
# Si number density = 18.295868 Si / 1000 Ang^3
#
#
#
# Elastic Constant Matrix: (Units=GPa)
#
#
# Indices 1 2 3 4 5 6 
#
# 1 78.1068 45.4190 32.3125 0.0000 -1.2336 0.0000
# 2 45.4190 108.0337 48.7802 0.0000 -1.6097 0.0000
# 3 32.3125 48.7802 98.8210 0.0000 -2.6111 0.0000
# 4 0.0000 0.0000 0.0000 66.1931 0.0000 -2.5534
# 5 -1.2336 -1.6097 -2.6111 0.0000 31.9761 0.0000
# 6 0.0000 0.0000 0.0000 -2.5534 0.0000 34.5362
#
#
#
# Elastic Compliance Matrix: (Units=1/GPa)
#
#
# Indices 1 2 3 4 5 6 
#
# 1 0.017484 -0.006136 -0.002684 0.000000 0.000146 0.000000
# 2 -0.006136 0.014065 -0.004935 0.000000 0.000068 0.000000
# 3 -0.002684 -0.004935 0.013452 0.000000 0.000747 0.000000
# 4 0.000000 0.000000 0.000000 0.015151 0.000000 0.001120
# 5 0.000146 0.000068 0.000747 0.000000 0.031343 0.000000
# 6 0.000000 0.000000 0.000000 0.001120 0.000000 0.029038
#
#
# Mechanical properties :
#
#
# Convention : Reuss Voigt Hill
#
# Bulk Modulus (GPa) = 57.17002 59.77609 58.47305
# Shear Modulus (GPa) = 32.49402 37.10441 34.79921
#
# Velocity S-wave (km/s) = 4.21887 4.50824 4.36595
# Velocity P-wave (km/s) = 7.41938 7.73575 7.57921
#
# Compressibility (1/GPa) = 0.01749169
#
# Stress axis : x y z
#
# Youngs Moduli (GPa) = 57.19513 71.09644 74.33572
#
# Poissons Ratio (x) = 0.43628 0.19951
# Poissons Ratio (y) = 0.35098 0.36682
# Poissons Ratio (z) = 0.15351 0.35084
#
# Static dielectric constant tensor:
#      x y z
#    x 3.344440 0.000000 -0.018520 
#    y 0.000000 3.503630 0.000000 
#    z -0.018520 0.000000 3.434740 
# 
# 
# High freq. dielectric constant tensor:
#      x y z
#    x 1.711440 0.000000 -0.001860 
#    y 0.000000 1.717270 0.000000 
#    z -0.001860 0.000000 1.705730 
# 
# From -- ./inp_files/146065.got.cif
#   From: 2010.06.25/outbox.cif.g09.slc.cpg/sg12_74_cif.got.tgz:146065.got - 2010.06.28 00:19:55.
