data_PCOD8091357
_publ_section_title
;
Structure prediction by ZEFSAII (Michael W. Deem and Ramdas Pophale) SiO2 
 PCOD8091357
Probable space group: C 2/M
;
_chemical_formula_sum "Si O2"
_cell_formula_units_Z 64
_cell_length_a 31.292022
_cell_length_b 8.756292
_cell_length_c 16.836221
_cell_angle_alpha 90.000000
_cell_angle_beta 47.448395
_cell_angle_gamma 90.000000
_cell_volume 3398.369594
_symmetry_space_group_name_H-M "C 2/M"
_symmetry_group_IT_number 12
_symmetry_cell_setting 'monoclinic'
loop_
_space_group_symop_operation_xyz
x,y,z
-x,y,-z
-x,-y,-z
x,-y,z
1/2+x,1/2+y,z
1/2-x,1/2+y,-z
1/2-x,1/2-y,-z
1/2+x,1/2-y,z
loop_
_atom_site_type_symbol
_atom_site_label
_atom_site_fract_x
_atom_site_fract_y
_atom_site_fract_z
Si Si1 0.765224 0.319736 0.396181
Si Si2 0.229208 0.321965 0.148831
Si Si3 0.038516 0.674089 0.198798
Si Si4 0.177241 0.819373 0.371218
Si Si5 0.018937 0.328977 0.887596
Si Si6 0.165726 0.679170 0.065446
Si Si7 0.085670 0.681938 0.588768
Si Si8 0.125916 0.824055 0.695552
O O1 0.764227 0.500000 0.402415
O O2 0.750000 0.250000 0.500000
O O3 0.723722 0.262532 0.377989
O O4 0.829719 0.256767 0.299106
O O5 0.232593 0.500000 0.164289
O O6 0.198890 0.235282 0.258925
O O7 0.189598 0.286706 0.122626
O O8 0.294161 0.260641 0.051023
O O9 0.041885 0.500000 0.222108
O O10 0.033198 0.689869 0.109876
O O11 0.100228 0.749837 0.144717
O O12 0.980959 0.743150 0.315265
O O13 0.114272 0.745041 0.471472
O O14 0.170011 0.000000 0.379378
O O15 0.045712 0.500000 0.842540
O O16 0.064044 0.195719 0.813707
O O17 0.000000 0.302811 0.000000
O O18 0.165858 0.500000 0.044997
O O19 0.086647 0.500000 0.588941
O O20 0.126201 0.744827 0.608783
O O21 0.141960 0.000000 0.663100
#
# Coordination Sequence:
#
# PCOD8091357 Si02
#       8
#     8   8   8   8   8   8   8   8
#     4  11  22  35  53  76 104 141 183 225 267 318
#     4  10  21  36  57  84 111 143 180 227 282 330
#     4   8  16  32  56  81 103 139 184 225 271 322
#     4  11  23  37  55  80 111 145 183 226 279 334
#     4   9  18  33  52  75 105 141 183 227 268 316
#     4   9  18  37  61  82 109 143 185 229 274 332
#     4  10  19  34  56  79 107 142 182 225 266 320
#     4  11  21  33  50  74 107 144 180 218 267 323
#
# _framework density 18.832560000000001
#
# number of rings (size 3 to 8) (size 9 to 14) (size 15 to 20)
#    0.000    2.125    1.250    3.375    0.000    3.250 
#    0.000    6.250    0.000    3.750    0.000    0.000 
#    0.000    0.000    0.000    0.000    0.000    0.000 
#
# Total GULP energy -396632.080425 kJ/mol
# GULP energy per Si atom -12394.752513 kJ/mol
# Density = 1.878970 g / cm^3
# Si number density = 18.832560 Si / 1000 Ang^3
#
#
#
# Elastic Constant Matrix: (Units=GPa)
#
#
# Indices 1 2 3 4 5 6 
#
# 1 88.5639 24.9546 56.5153 0.0001 -18.4102 -0.0002
# 2 24.9546 65.2157 36.7160 -0.0006 -0.8613 0.0000
# 3 56.5153 36.7160 131.5630 0.0000 -4.5334 0.0000
# 4 0.0001 -0.0006 0.0000 32.4617 0.0000 -1.4936
# 5 -18.4102 -0.8613 -4.5334 0.0000 26.6629 -0.0001
# 6 -0.0002 0.0000 0.0000 -1.4936 -0.0001 20.6962
#
#
#
# Elastic Compliance Matrix: (Units=1/GPa)
#
#
# Indices 1 2 3 4 5 6 
#
# 1 0.019068 -0.003273 -0.006868 0.000000 0.011893 0.000000
# 2 -0.003273 0.018756 -0.003908 0.000000 -0.002318 0.000000
# 3 -0.006868 -0.003908 0.011542 0.000000 -0.002906 0.000000
# 4 0.000000 0.000000 0.000000 0.030908 0.000000 0.002231
# 5 0.011893 -0.002318 -0.002906 0.000000 0.045148 0.000000
# 6 0.000000 0.000000 0.000000 0.002231 0.000000 0.048479
#
#
# Mechanical properties :
#
#
# Convention : Reuss Voigt Hill
#
# Bulk Modulus (GPa) = 47.01941 57.96825 52.49383
# Shear Modulus (GPa) = 23.91331 27.10794 25.51063
#
# Velocity S-wave (km/s) = 3.56727 3.79808 3.68448
# Velocity P-wave (km/s) = 6.47985 7.07684 6.78491
#
# Compressibility (1/GPa) = 0.02126781
#
# Stress axis : x y z
#
# Youngs Moduli (GPa) = 52.44294 53.31696 86.64184
#
# Poissons Ratio (x) = 0.17449 0.59506
# Poissons Ratio (y) = 0.17163 0.33862
# Poissons Ratio (z) = 0.36018 0.20838
#
# Static dielectric constant tensor:
#      x y z
#    x 3.563950 0.000000 -0.239190 
#    y 0.000000 3.379260 0.000000 
#    z -0.239190 0.000000 3.595370 
# 
# 
# High freq. dielectric constant tensor:
#      x y z
#    x 1.721020 0.000000 -0.013250 
#    y 0.000000 1.722500 0.000000 
#    z -0.013250 0.000000 1.733650 
# 
# From -- ./inp_files/249823.got.cif
#   From: 2010.06.25/outbox.cif.g09.slc.cpg/sg12_125_cif.got.tgz:249823.got - 2010.06.28 00:19:55.
