data_PCOD8091730
_publ_section_title
;
Structure prediction by ZEFSAII (Michael W. Deem and Ramdas Pophale) SiO2 
 PCOD8091730
Probable space group: C 2/M
;
_chemical_formula_sum "Si O2"
_cell_formula_units_Z 52
_cell_length_a 8.419362
_cell_length_b 29.608840
_cell_length_c 15.174355
_cell_angle_alpha 90.000000
_cell_angle_beta 46.050201
_cell_angle_gamma 90.000000
_cell_volume 2723.403838
_symmetry_space_group_name_H-M "C 2/M"
_symmetry_group_IT_number 12
_symmetry_cell_setting 'monoclinic'
loop_
_space_group_symop_operation_xyz
x,y,z
-x,y,-z
-x,-y,-z
x,-y,z
1/2+x,1/2+y,z
1/2-x,1/2+y,-z
1/2-x,1/2-y,-z
1/2+x,1/2-y,z
loop_
_atom_site_type_symbol
_atom_site_label
_atom_site_fract_x
_atom_site_fract_y
_atom_site_fract_z
Si Si1 0.492384 0.796236 0.864798
Si Si2 0.635146 0.704251 0.137617
Si Si3 0.565522 0.888066 0.190543
Si Si4 0.350559 0.550841 0.971191
Si Si5 0.247813 0.449127 0.574159
Si Si6 0.500000 0.080572 0.500000
Si Si7 0.862386 0.882798 0.233911
O O1 0.505967 0.750577 0.801406
O O2 0.668987 0.790544 0.871218
O O3 0.553747 0.841516 0.788701
O O4 0.242824 0.801615 0.999007
O O5 0.489158 0.661219 0.218471
O O6 0.397108 0.917205 0.310617
O O7 0.772843 0.873871 0.170408
O O8 0.642050 0.917128 0.075591
O O9 0.276262 0.500000 0.971977
O O10 0.478347 0.573188 0.838205
O O11 0.500000 0.546793 0.000000
O O12 0.500000 0.435377 0.500000
O O13 0.208871 0.500000 0.620979
O O14 0.162554 0.446754 0.504666
O O15 0.334145 0.110401 0.621480
#
# Coordination Sequence:
#
# PCOD8091730 Si02
#       7
#     8   8   8   8   8   4   8
#     4  10  20  33  57  85 113 145 183 230 285 347
#     4  10  20  34  55  84 115 146 183 228 286 343
#     4  10  19  34  57  83 112 145 184 238 287 340
#     4   9  17  30  52  82 111 143 181 230 285 337
#     4  10  22  39  60  84 114 157 202 241 283 338
#     4  10  23  38  60  82 116 156 198 240 281 344
#     4  10  20  35  56  81 113 148 189 233 283 338
#
# _framework density 19.093753
#
# number of rings (size 3 to 8) (size 9 to 14) (size 15 to 20)
#    0.000    2.154    1.538    1.615    2.154    5.538 
#    0.000    0.000    1.692    3.692    0.000    0.000 
#    0.000    0.000    0.000    0.000    0.000    0.000 
#
# Total GULP energy -322206.411577 kJ/mol
# GULP energy per Si atom -12392.554291 kJ/mol
# Density = 1.905029 g / cm^3
# Si number density = 19.093753 Si / 1000 Ang^3
#
#
#
# Elastic Constant Matrix: (Units=GPa)
#
#
# Indices 1 2 3 4 5 6 
#
# 1 82.5256 35.2881 24.0520 0.0000 -9.5844 0.0000
# 2 35.2881 147.7725 48.1646 0.0000 -4.0426 0.0000
# 3 24.0520 48.1646 90.0097 0.0000 0.3817 0.0000
# 4 0.0000 0.0000 0.0000 15.3036 0.0000 -1.8080
# 5 -9.5844 -4.0426 0.3817 0.0000 19.2861 0.0000
# 6 0.0000 0.0000 0.0000 -1.8080 0.0000 28.7088
#
#
#
# Elastic Compliance Matrix: (Units=1/GPa)
#
#
# Indices 1 2 3 4 5 6 
#
# 1 0.014742 -0.002470 -0.002647 0.000000 0.006861 0.000000
# 2 -0.002470 0.008674 -0.003984 0.000000 0.000670 0.000000
# 3 -0.002647 -0.003984 0.013959 0.000000 -0.002427 0.000000
# 4 0.000000 0.000000 0.000000 0.065834 0.000000 0.004146
# 5 0.006861 0.000670 -0.002427 0.000000 0.055449 0.000000
# 6 0.000000 0.000000 0.000000 0.004146 0.000000 0.035094
#
#
# Mechanical properties :
#
#
# Convention : Reuss Voigt Hill
#
# Bulk Modulus (GPa) = 52.15580 59.47971 55.81775
# Shear Modulus (GPa) = 22.89962 26.84657 24.87310
#
# Velocity S-wave (km/s) = 3.46688 3.75379 3.61318
# Velocity P-wave (km/s) = 6.58792 7.07156 6.83402
#
# Compressibility (1/GPa) = 0.01917332
#
# Stress axis : x y z
#
# Youngs Moduli (GPa) = 67.83439 115.28781 71.63620
#
# Poissons Ratio (x) = 0.28476 0.18959
# Poissons Ratio (y) = 0.16755 0.28542
# Poissons Ratio (z) = 0.17953 0.45934
#
# Static dielectric constant tensor:
#      x y z
#    x 3.561970 0.000000 -0.032490 
#    y 0.000000 3.594650 0.000000 
#    z -0.032490 0.000000 3.255360 
# 
# 
# High freq. dielectric constant tensor:
#      x y z
#    x 1.734520 0.000000 -0.006620 
#    y 0.000000 1.753150 0.000000 
#    z -0.006620 0.000000 1.714910 
# 
# From -- ./inp_files/201177.got.cif
#   From: 2010.06.25/outbox.cif.g09.slc.cpg/sg12_101_cif.got.tgz:201177.got - 2010.06.28 00:19:55.
