data_PCOD8091091
_publ_section_title
;
Structure prediction by ZEFSAII (Michael W. Deem and Ramdas Pophale) SiO2 
 PCOD8091091
Probable space group: C 2/M
;
_chemical_formula_sum "Si O2"
_cell_formula_units_Z 36
_cell_length_a 24.603316
_cell_length_b 12.836184
_cell_length_c 16.814084
_cell_angle_alpha 90.000000
_cell_angle_beta 159.970229
_cell_angle_gamma 90.000000
_cell_volume 1818.754043
_symmetry_space_group_name_H-M "C 2/M"
_symmetry_group_IT_number 12
_symmetry_cell_setting 'monoclinic'
loop_
_space_group_symop_operation_xyz
x,y,z
-x,y,-z
-x,-y,-z
x,-y,z
1/2+x,1/2+y,z
1/2-x,1/2+y,-z
1/2-x,1/2-y,-z
1/2+x,1/2-y,z
loop_
_atom_site_type_symbol
_atom_site_label
_atom_site_fract_x
_atom_site_fract_y
_atom_site_fract_z
Si Si1 0.500000 0.279925 0.000000
Si Si2 0.836025 0.380623 0.463407
Si Si3 0.141321 0.122510 0.925541
Si Si4 0.934485 0.265859 0.742838
Si Si5 0.045559 0.755817 0.647056
O O1 0.348368 0.353527 0.777781
O O2 0.513303 0.208696 0.937887
O O3 0.854639 0.500000 0.466469
O O4 0.946368 0.358232 0.693647
O O5 0.899539 0.312790 0.477876
O O6 0.078229 0.147973 0.750503
O O7 0.016975 0.162178 0.820979
O O8 0.163379 0.000000 0.966550
O O9 0.306751 0.180133 0.163852
O O10 0.750000 0.250000 0.500000
O O11 0.000000 0.805892 0.500000
#
# Coordination Sequence:
#
# PCOD8091091 Si02
#       5
#     4   8   8   8   8
#     4  10  19  34  55  76 104 144 183 222 269 324
#     4  10  20  34  53  79 109 140 178 224 271 318
#     4  10  21  37  57  80 109 145 181 220 270 324
#     4   9  20  35  52  77 108 137 176 225 267 313
#     4  10  21  36  55  82 112 141 178 225 268 315
#
# _framework density 19.793769999999999
#
# number of rings (size 3 to 8) (size 9 to 14) (size 15 to 20)
#    0.000    2.222    0.000    2.333    0.000    8.444 
#    0.000    0.556    0.000   21.333    0.000    0.000 
#    0.000    0.000    0.000    0.000    0.000    0.000 
#
# Total GULP energy -223083.105906 kJ/mol
# GULP energy per Si atom -12393.505884 kJ/mol
# Density = 1.974872 g / cm^3
# Si number density = 19.793770 Si / 1000 Ang^3
#
#
#
# Elastic Constant Matrix: (Units=GPa)
#
#
# Indices 1 2 3 4 5 6 
#
# 1 122.8872 6.3176 43.0618 0.0000 -22.9910 0.0000
# 2 6.3176 35.9951 14.0089 0.0000 5.9729 0.0000
# 3 43.0618 14.0089 73.1326 0.0000 -15.2412 0.0000
# 4 0.0000 0.0000 0.0000 17.4067 0.0000 3.5943
# 5 -22.9910 5.9729 -15.2412 0.0000 56.2705 0.0000
# 6 0.0000 0.0000 0.0000 3.5943 0.0000 10.5123
#
#
#
# Elastic Compliance Matrix: (Units=1/GPa)
#
#
# Indices 1 2 3 4 5 6 
#
# 1 0.010658 -0.000139 -0.005658 0.000000 0.002837 0.000000
# 2 -0.000139 0.031426 -0.007042 0.000000 -0.005300 0.000000
# 3 -0.005658 -0.007042 0.019107 0.000000 0.003611 0.000000
# 4 0.000000 0.000000 0.000000 0.061813 0.000000 -0.021135
# 5 0.002837 -0.005300 0.003611 0.000000 0.020471 0.000000
# 6 0.000000 0.000000 0.000000 -0.021135 0.000000 0.102353
#
#
# Mechanical properties :
#
#
# Convention : Reuss Voigt Hill
#
# Bulk Modulus (GPa) = 28.15943 39.86573 34.01258
# Shear Modulus (GPa) = 17.64632 28.07966 22.86299
#
# Velocity S-wave (km/s) = 2.98905 3.77053 3.40230
# Velocity P-wave (km/s) = 5.11565 6.25621 5.71446
#
# Compressibility (1/GPa) = 0.03551208
#
# Stress axis : x y z
#
# Youngs Moduli (GPa) = 93.82581 31.82044 52.33762
#
# Poissons Ratio (x) = 0.00444 0.29611
# Poissons Ratio (y) = 0.01309 0.36858
# Poissons Ratio (z) = 0.53084 0.22409
#
# Static dielectric constant tensor:
#      x y z
#    x 4.250790 0.000000 -0.200220 
#    y 0.000000 3.183360 0.000000 
#    z -0.200220 0.000000 3.846820 
# 
# 
# High freq. dielectric constant tensor:
#      x y z
#    x 1.800360 0.000000 0.000370 
#    y 0.000000 1.723910 0.000000 
#    z 0.000370 0.000000 1.780990 
# 
# From -- ./inp_files/58592.got.cif
#   From: 2010.06.25/outbox.cif.g09.slc.cpg/sg12_30_cif.got.tgz:58592.got - 2010.06.28 00:19:55.
