data_PCOD8091273
_publ_section_title
;
Structure prediction by ZEFSAII (Michael W. Deem and Ramdas Pophale) SiO2 
 PCOD8091273
Probable space group: C 2/M
;
_chemical_formula_sum "Si O2"
_cell_formula_units_Z 56
_cell_length_a 19.411002
_cell_length_b 19.019843
_cell_length_c 13.065751
_cell_angle_alpha 90.000000
_cell_angle_beta 143.759226
_cell_angle_gamma 90.000000
_cell_volume 2851.732819
_symmetry_space_group_name_H-M "C 2/M"
_symmetry_group_IT_number 12
_symmetry_cell_setting 'monoclinic'
loop_
_space_group_symop_operation_xyz
x,y,z
-x,y,-z
-x,-y,-z
x,-y,z
1/2+x,1/2+y,z
1/2-x,1/2+y,-z
1/2-x,1/2-y,-z
1/2+x,1/2-y,z
loop_
_atom_site_type_symbol
_atom_site_label
_atom_site_fract_x
_atom_site_fract_y
_atom_site_fract_z
Si Si1 0.924643 0.733714 0.642983
Si Si2 0.847548 0.777812 0.191038
Si Si3 0.740687 0.716583 0.262929
Si Si4 0.955040 0.077929 0.333798
Si Si5 0.662616 0.385484 0.438256
Si Si6 0.363546 0.423415 0.822391
Si Si7 0.602167 0.839870 0.189671
O O1 0.820272 0.698627 0.455531
O O2 0.875824 0.806089 0.630062
O O3 0.958386 0.683264 0.776745
O O4 0.031722 0.742946 0.695643
O O5 0.819191 0.752418 0.270551
O O6 0.858393 0.862648 0.192997
O O7 0.750000 0.750000 0.000000
O O8 0.689834 0.639800 0.172580
O O9 0.639024 0.771040 0.169241
O O10 0.000000 0.096408 0.500000
O O11 0.064352 0.077136 0.388179
O O12 0.897445 0.000000 0.260667
O O13 0.672674 0.421992 0.340493
O O14 0.785266 0.388403 0.649172
O O15 0.322008 0.500000 0.814822
O O16 0.500000 0.416194 0.000000
O O17 0.500000 0.878367 0.000000
#
# Coordination Sequence:
#
# PCOD8091273 Si02
#       7
#     8   8   8   8   8   8   8
#     4  10  19  34  55  83 114 156 193 247 299 346
#     4  11  23  35  57  89 120 151 199 252 299 352
#     4  11  20  37  56  84 120 153 199 254 293 352
#     4  10  21  38  60  85 118 157 193 242 311 365
#     4  10  19  36  56  87 119 152 196 241 302 352
#     4  11  23  36  58  88 118 157 199 245 301 355
#     4  11  19  31  57  87 117 151 195 249 300 346
#
# _framework density 19.637184000000001
#
# number of rings (size 3 to 8) (size 9 to 14) (size 15 to 20)
#    0.000    1.429    2.857    5.571    4.000    0.000 
#    0.000    0.000    0.000    4.286    0.000    0.000 
#    0.000    1.714    0.000    0.000    0.000    0.000 
#
# Total GULP energy -347066.256338 kJ/mol
# GULP energy per Si atom -12395.223441 kJ/mol
# Density = 1.959249 g / cm^3
# Si number density = 19.637184 Si / 1000 Ang^3
#
#
#
# Elastic Constant Matrix: (Units=GPa)
#
#
# Indices 1 2 3 4 5 6 
#
# 1 89.0185 25.6287 8.7833 0.0000 4.4344 0.0000
# 2 25.6287 116.4671 32.5773 0.0000 13.3454 0.0000
# 3 8.7833 32.5773 110.6384 0.0000 -4.0189 0.0000
# 4 0.0000 0.0000 0.0000 12.7602 0.0000 -0.0766
# 5 4.4344 13.3454 -4.0189 0.0000 25.9736 0.0000
# 6 0.0000 0.0000 0.0000 -0.0766 0.0000 20.5308
#
#
#
# Elastic Compliance Matrix: (Units=1/GPa)
#
#
# Indices 1 2 3 4 5 6 
#
# 1 0.012013 -0.002479 -0.000253 0.000000 -0.000816 0.000000
# 2 -0.002479 0.010643 -0.003138 0.000000 -0.005531 0.000000
# 3 -0.000253 -0.003138 0.010099 0.000000 0.003218 0.000000
# 4 0.000000 0.000000 0.000000 0.078370 0.000000 0.000292
# 5 -0.000816 -0.005531 0.003218 0.000000 0.041980 0.000000
# 6 0.000000 0.000000 0.000000 0.000292 0.000000 0.048708
#
#
# Mechanical properties :
#
#
# Convention : Reuss Voigt Hill
#
# Bulk Modulus (GPa) = 47.58553 50.01138 48.79846
# Shear Modulus (GPa) = 22.66960 28.46191 25.56576
#
# Velocity S-wave (km/s) = 3.40136 3.81121 3.61211
# Velocity P-wave (km/s) = 6.30164 6.70001 6.50388
#
# Compressibility (1/GPa) = 0.02101479
#
# Stress axis : x y z
#
# Youngs Moduli (GPa) = 83.24310 93.95759 99.01552
#
# Poissons Ratio (x) = 0.23293 0.02509
# Poissons Ratio (y) = 0.20636 0.31070
# Poissons Ratio (z) = 0.02109 0.29483
#
# Static dielectric constant tensor:
#      x y z
#    x 3.424650 0.000000 -0.393670 
#    y 0.000000 3.508130 0.000000 
#    z -0.393670 0.000000 3.497210 
# 
# 
# High freq. dielectric constant tensor:
#      x y z
#    x 1.766700 0.000000 -0.009670 
#    y 0.000000 1.743130 0.000000 
#    z -0.009670 0.000000 1.763610 
# 
# From -- ./inp_files/234706.got.cif
#   From: 2010.06.25/outbox.cif.g09.slc.cpg/sg12_118_cif.got.tgz:234706.got - 2010.06.28 00:19:55.
