data_PCOD8091584
_publ_section_title
;
Structure prediction by ZEFSAII (Michael W. Deem and Ramdas Pophale) SiO2 
 PCOD8091584
Probable space group: C 2/M
;
_chemical_formula_sum "Si O2"
_cell_formula_units_Z 64
_cell_length_a 29.380064
_cell_length_b 9.390297
_cell_length_c 19.522111
_cell_angle_alpha 90.000000
_cell_angle_beta 142.152099
_cell_angle_gamma 90.000000
_cell_volume 3304.617084
_symmetry_space_group_name_H-M "C 2/M"
_symmetry_group_IT_number 12
_symmetry_cell_setting 'monoclinic'
loop_
_space_group_symop_operation_xyz
x,y,z
-x,y,-z
-x,-y,-z
x,-y,z
1/2+x,1/2+y,z
1/2-x,1/2+y,-z
1/2-x,1/2-y,-z
1/2+x,1/2-y,z
loop_
_atom_site_type_symbol
_atom_site_label
_atom_site_fract_x
_atom_site_fract_y
_atom_site_fract_z
Si Si1 0.263474 0.837640 0.842867
Si Si2 0.542726 0.163761 0.246017
Si Si3 0.876191 0.660638 0.088486
Si Si4 0.777523 0.831740 0.724050
Si Si5 0.368407 0.832238 0.520403
Si Si6 0.059961 0.831654 0.128045
Si Si7 0.635309 0.333878 0.797937
Si Si8 0.001510 0.666832 0.422425
O O1 0.255134 0.734586 0.769293
O O2 0.198317 0.801707 0.817965
O O3 0.258760 0.000000 0.811359
O O4 0.341774 0.806857 0.972989
O O5 0.464257 0.177469 0.190327
O O6 0.603104 0.226451 0.372115
O O7 0.541241 0.258497 0.176961
O O8 0.559024 0.000000 0.245006
O O9 0.853649 0.500000 0.083356
O O10 0.840462 0.769366 0.100206
O O11 0.716000 0.782260 0.594894
O O12 0.858507 0.779082 0.797547
O O13 0.775667 0.000000 0.731536
O O14 0.420402 0.785494 0.518480
O O15 0.372988 0.000000 0.532061
O O16 0.057493 0.000000 0.136176
O O17 0.000000 0.783673 0.000000
O O18 0.619818 0.500000 0.788043
O O19 0.560859 0.255815 0.688678
O O20 0.985678 0.500000 0.392314
O O21 0.000000 0.707959 0.500000
#
# Coordination Sequence:
#
# PCOD8091584 Si02
#       8
#     8   8   8   8   8   8   8   8
#     4  10  22  37  54  81 115 147 185 235 283 329
#     4  10  20  36  60  84 109 144 188 238 278 324
#     4  10  20  37  58  79 109 150 192 232 273 328
#     4  10  21  38  60  82 109 148 188 229 277 333
#     4   9  18  35  56  82 111 142 191 238 270 320
#     4  10  22  39  58  85 118 145 177 227 286 346
#     4  11  22  34  51  81 117 147 181 232 288 336
#     4  10  19  34  57  79 106 151 199 236 272 326
#
# _framework density 19.366841999999998
#
# number of rings (size 3 to 8) (size 9 to 14) (size 15 to 20)
#    0.000    2.000    1.250    2.250    0.000    4.500 
#    0.000    1.250    0.000    0.000    0.000    0.000 
#    0.000    0.000    0.000    0.000    0.000    0.000 
#
# Total GULP energy -396818.420019 kJ/mol
# GULP energy per Si atom -12400.575626 kJ/mol
# Density = 1.932276 g / cm^3
# Si number density = 19.366842 Si / 1000 Ang^3
#
#
#
# Elastic Constant Matrix: (Units=GPa)
#
#
# Indices 1 2 3 4 5 6 
#
# 1 75.8462 30.6456 46.0843 0.0000 -7.6869 0.0000
# 2 30.6456 37.9107 26.1907 0.0000 -6.5285 0.0000
# 3 46.0843 26.1907 134.5869 0.0000 1.4283 0.0000
# 4 0.0000 0.0000 0.0000 22.2603 0.0000 -10.1823
# 5 -7.6869 -6.5285 1.4283 0.0000 37.9990 0.0000
# 6 0.0000 0.0000 0.0000 -10.1823 0.0000 18.8125
#
#
#
# Elastic Compliance Matrix: (Units=1/GPa)
#
#
# Indices 1 2 3 4 5 6 
#
# 1 0.022038 -0.014099 -0.004826 0.000000 0.002217 0.000000
# 2 -0.014099 0.040671 -0.003132 0.000000 0.004253 0.000000
# 3 -0.004826 -0.003132 0.009712 0.000000 -0.001879 0.000000
# 4 0.000000 0.000000 0.000000 0.059705 0.000000 0.032315
# 5 0.002217 0.004253 -0.001879 0.000000 0.027566 0.000000
# 6 0.000000 0.000000 0.000000 0.032315 0.000000 0.070647
#
#
# Mechanical properties :
#
#
# Convention : Reuss Voigt Hill
#
# Bulk Modulus (GPa) = 35.32667 50.46500 42.89583
# Shear Modulus (GPa) = 17.61249 25.50924 21.56086
#
# Velocity S-wave (km/s) = 3.01892 3.63321 3.34022
# Velocity P-wave (km/s) = 5.51654 6.61168 6.08878
#
# Compressibility (1/GPa) = 0.02830723
#
# Stress axis : x y z
#
# Youngs Moduli (GPa) = 45.37544 24.58744 102.96438
#
# Poissons Ratio (x) = 0.34666 0.49691
# Poissons Ratio (y) = 0.63975 0.32249
# Poissons Ratio (z) = 0.21898 0.07701
#
# Static dielectric constant tensor:
#      x y z
#    x 3.552370 0.000000 0.126260 
#    y 0.000000 3.351950 0.000000 
#    z 0.126260 0.000000 3.879360 
# 
# 
# High freq. dielectric constant tensor:
#      x y z
#    x 1.751190 0.000000 0.001870 
#    y 0.000000 1.733000 0.000000 
#    z 0.001870 0.000000 1.772200 
# 
# From -- ./inp_files/295873.got.cif
#   From: 2010.06.25/outbox.cif.g09.slc.cpg/sg12_148_cif.got.tgz:295873.got - 2010.06.28 00:19:55.
