data_PCOD8091592
_publ_section_title
;
Structure prediction by ZEFSAII (Michael W. Deem and Ramdas Pophale) SiO2 
 PCOD8091592
Probable space group: C 2/M
;
_chemical_formula_sum "Si O2"
_cell_formula_units_Z 64
_cell_length_a 27.733165
_cell_length_b 8.947318
_cell_length_c 14.330448
_cell_angle_alpha 90.000000
_cell_angle_beta 104.601009
_cell_angle_gamma 90.000000
_cell_volume 3441.081356
_symmetry_space_group_name_H-M "C 2/M"
_symmetry_group_IT_number 12
_symmetry_cell_setting 'monoclinic'
loop_
_space_group_symop_operation_xyz
x,y,z
-x,y,-z
-x,-y,-z
x,-y,z
1/2+x,1/2+y,z
1/2-x,1/2+y,-z
1/2-x,1/2-y,-z
1/2+x,1/2-y,z
loop_
_atom_site_type_symbol
_atom_site_label
_atom_site_fract_x
_atom_site_fract_y
_atom_site_fract_z
Si Si1 0.938348 0.171889 0.799902
Si Si2 0.803378 0.675757 0.037036
Si Si3 0.140500 0.172718 0.387331
Si Si4 0.957448 0.672579 0.148602
Si Si5 0.659879 0.326789 0.601615
Si Si6 0.889336 0.670237 0.940059
Si Si7 0.234100 0.672826 0.397953
Si Si8 0.125239 0.178055 0.780637
O O1 0.913202 0.195108 0.686230
O O2 0.898500 0.217854 0.859292
O O3 0.985780 0.277447 0.829572
O O4 0.953832 0.000000 0.822466
O O5 0.797828 0.500000 0.052678
O O6 0.831186 0.748031 0.138002
O O7 0.750000 0.750000 0.000000
O O8 0.835629 0.705460 0.959328
O O9 0.140947 0.242419 0.493081
O O10 0.181986 0.252683 0.341344
O O11 0.155801 0.000000 0.399069
O O12 0.954268 0.500000 0.176709
O O13 0.929074 0.770647 0.212036
O O14 0.932769 0.697790 0.036337
O O15 0.647352 0.500000 0.589366
O O16 0.719305 0.301516 0.649197
O O17 0.631019 0.261744 0.677098
O O18 0.891063 0.500000 0.904564
O O19 0.224033 0.500000 0.409825
O O20 0.250000 0.750000 0.500000
O O21 0.130228 0.000000 0.790238
#
# Coordination Sequence:
#
# PCOD8091592 Si02
#       8
#     8   8   8   8   8   8   8   8
#     4  11  22  34  54  81 105 133 172 220 265 304
#     4  10  21  37  55  79 112 145 174 210 257 306
#     4   9  19  35  50  73 108 138 170 212 257 305
#     4  10  21  38  56  75 103 137 171 212 264 319
#     4   8  16  32  53  74 101 138 174 208 251 308
#     4   9  20  37  55  75 103 139 173 208 259 319
#     4   9  16  29  49  72  99 133 170 206 248 297
#     4  10  19  34  57  80 101 134 179 219 257 306
#
# _framework density 18.598804999999999
#
# number of rings (size 3 to 8) (size 9 to 14) (size 15 to 20)
#    0.000    2.500    0.000    3.750    0.000    6.500 
#    0.000   10.625    0.000    3.750    0.000    0.000 
#    0.000    0.000    0.000    0.000    0.000    0.000 
#
# Total GULP energy -396654.143073 kJ/mol
# GULP energy per Si atom -12395.441971 kJ/mol
# Density = 1.855647 g / cm^3
# Si number density = 18.598805 Si / 1000 Ang^3
#
#
#
# Elastic Constant Matrix: (Units=GPa)
#
#
# Indices 1 2 3 4 5 6 
#
# 1 102.4988 39.2011 46.8970 0.0000 0.4831 0.0000
# 2 39.2011 80.5597 36.2235 0.0000 -1.3843 0.0000
# 3 46.8970 36.2235 82.2071 0.0000 -12.4000 0.0000
# 4 0.0000 0.0000 0.0000 20.0740 0.0000 -0.4806
# 5 0.4831 -1.3843 -12.4000 0.0000 26.5976 0.0000
# 6 0.0000 0.0000 0.0000 -0.4806 0.0000 35.0761
#
#
#
# Elastic Compliance Matrix: (Units=1/GPa)
#
#
# Indices 1 2 3 4 5 6 
#
# 1 0.014543 -0.003934 -0.007136 0.000000 -0.003796 0.000000
# 2 -0.003934 0.016707 -0.005352 0.000000 -0.001554 0.000000
# 3 -0.007136 -0.005352 0.019976 0.000000 0.009164 0.000000
# 4 0.000000 0.000000 0.000000 0.049832 0.000000 0.000683
# 5 -0.003796 -0.001554 0.009164 0.000000 0.041858 0.000000
# 6 0.000000 0.000000 0.000000 0.000683 0.000000 0.028519
#
#
# Mechanical properties :
#
#
# Convention : Reuss Voigt Hill
#
# Bulk Modulus (GPa) = 54.39780 56.65654 55.52717
# Shear Modulus (GPa) = 23.76355 25.87914 24.82135
#
# Velocity S-wave (km/s) = 3.57836 3.73425 3.65714
# Velocity P-wave (km/s) = 6.81061 7.00867 6.91035
#
# Compressibility (1/GPa) = 0.01838310
#
# Stress axis : x y z
#
# Youngs Moduli (GPa) = 68.75946 59.85448 50.06022
#
# Poissons Ratio (x) = 0.23544 0.35723
# Poissons Ratio (y) = 0.27047 0.26794
# Poissons Ratio (z) = 0.49066 0.32036
#
# Static dielectric constant tensor:
#      x y z
#    x 3.640090 0.000000 -0.104160 
#    y 0.000000 3.485060 0.000000 
#    z -0.104160 0.000000 3.432060 
# 
# 
# High freq. dielectric constant tensor:
#      x y z
#    x 1.723130 0.000000 -0.002300 
#    y 0.000000 1.720260 0.000000 
#    z -0.002300 0.000000 1.708370 
# 
# From -- ./inp_files/244039.got.cif
#   From: 2010.06.25/outbox.cif.g09.slc.cpg/sg12_123_cif.got.tgz:244039.got - 2010.06.28 00:19:55.
