data_PCOD8091081
_publ_section_title
;
Structure prediction by ZEFSAII (Michael W. Deem and Ramdas Pophale) SiO2 
 PCOD8091081
Probable space group: C 2/M
;
_chemical_formula_sum "Si O2"
_cell_formula_units_Z 64
_cell_length_a 19.953349
_cell_length_b 9.425401
_cell_length_c 23.870177
_cell_angle_alpha 90.000000
_cell_angle_beta 128.478857
_cell_angle_gamma 90.000000
_cell_volume 3514.334319
_symmetry_space_group_name_H-M "C 2/M"
_symmetry_group_IT_number 12
_symmetry_cell_setting 'monoclinic'
loop_
_space_group_symop_operation_xyz
x,y,z
-x,y,-z
-x,-y,-z
x,-y,z
1/2+x,1/2+y,z
1/2-x,1/2+y,-z
1/2-x,1/2-y,-z
1/2+x,1/2-y,z
loop_
_atom_site_type_symbol
_atom_site_label
_atom_site_fract_x
_atom_site_fract_y
_atom_site_fract_z
Si Si1 0.040943 0.663004 0.819965
Si Si2 0.678194 0.835739 0.799619
Si Si3 0.909128 0.163498 0.561430
Si Si4 0.368294 0.667690 0.915224
Si Si5 0.025389 0.167869 0.924391
Si Si6 0.802363 0.166236 0.401770
Si Si7 0.114385 0.665993 0.338373
Si Si8 0.893324 0.163389 0.339380
O O1 0.025808 0.500000 0.829121
O O2 0.129667 0.682714 0.833163
O O3 0.046802 0.756297 0.878064
O O4 0.962687 0.717892 0.741085
O O5 0.773521 0.770483 0.855687
O O6 0.627109 0.751523 0.726296
O O7 0.680829 0.000000 0.783030
O O8 0.851619 0.228409 0.481422
O O9 0.887513 0.251738 0.604865
O O10 0.007238 0.179799 0.594331
O O11 0.885903 0.000000 0.561704
O O12 0.363846 0.500000 0.916969
O O13 0.430462 0.711680 0.896366
O O14 0.406260 0.722432 0.993960
O O15 0.031644 0.000000 0.918582
O O16 0.702249 0.202455 0.352212
O O17 0.839993 0.229115 0.363595
O O18 0.821028 0.000000 0.410907
O O19 0.106102 0.500000 0.347706
O O20 0.868844 0.000000 0.315258
#
# Coordination Sequence:
#
# PCOD8091081 Si02
#       8
#     8   8   8   8   8   8   8   8
#     4  10  21  34  50  75 108 141 168 202 253 305
#     4  10  20  36  54  73 104 141 171 203 252 306
#     4  10  19  34  55  76 100 131 172 218 257 298
#     4   8  17  35  57  79 103 134 168 208 253 296
#     4   9  18  35  58  80 102 131 171 211 249 295
#     4   9  19  34  53  75 101 135 171 212 261 304
#     4  10  20  35  52  73 105 141 170 203 255 310
#     4  10  20  34  53  77 102 131 172 217 257 299
#
# _framework density 18.211131000000002
#
# number of rings (size 3 to 8) (size 9 to 14) (size 15 to 20)
#    0.000    2.500    1.250    1.500    1.750    3.000 
#    0.000    3.125    0.000    1.500    0.000    0.000 
#    0.000    0.000    0.000    0.000    0.000    0.000 
#
# Total GULP energy -396817.361607 kJ/mol
# GULP energy per Si atom -12400.542550 kJ/mol
# Density = 1.816968 g / cm^3
# Si number density = 18.211131 Si / 1000 Ang^3
#
#
#
# Elastic Constant Matrix: (Units=GPa)
#
#
# Indices 1 2 3 4 5 6 
#
# 1 83.0056 23.7894 20.5590 0.0000 -2.2364 0.0000
# 2 23.7894 37.5419 22.5051 0.0000 -8.7280 0.0000
# 3 20.5590 22.5051 70.1400 0.0000 0.4228 0.0000
# 4 0.0000 0.0000 0.0000 19.5331 0.0000 -5.7310
# 5 -2.2364 -8.7280 0.4228 0.0000 39.9047 0.0000
# 6 0.0000 0.0000 0.0000 -5.7310 0.0000 23.6181
#
#
#
# Elastic Compliance Matrix: (Units=1/GPa)
#
#
# Indices 1 2 3 4 5 6 
#
# 1 0.014916 -0.008770 -0.001552 0.000000 -0.001066 0.000000
# 2 -0.008770 0.040427 -0.010452 0.000000 0.008461 0.000000
# 3 -0.001552 -0.010452 0.018081 0.000000 -0.002565 0.000000
# 4 0.000000 0.000000 0.000000 0.055119 0.000000 0.013375
# 5 -0.001066 0.008461 -0.002565 0.000000 0.026878 0.000000
# 6 0.000000 0.000000 0.000000 0.013375 0.000000 0.045586
#
#
# Mechanical properties :
#
#
# Convention : Reuss Voigt Hill
#
# Bulk Modulus (GPa) = 31.37009 36.04381 33.70695
# Shear Modulus (GPa) = 19.74880 24.86678 22.30779
#
# Velocity S-wave (km/s) = 3.29665 3.69924 3.50373
# Velocity P-wave (km/s) = 5.63504 6.17098 5.90909
#
# Compressibility (1/GPa) = 0.03187750
#
# Stress axis : x y z
#
# Youngs Moduli (GPa) = 67.04018 24.73617 55.30628
#
# Poissons Ratio (x) = 0.21693 0.08583
# Poissons Ratio (y) = 0.58791 0.57805
# Poissons Ratio (z) = 0.10405 0.25854
#
# Static dielectric constant tensor:
#      x y z
#    x 3.567600 0.000000 0.204990 
#    y 0.000000 3.057200 0.000000 
#    z 0.204990 0.000000 3.510410 
# 
# 
# High freq. dielectric constant tensor:
#      x y z
#    x 1.719290 0.000000 0.004860 
#    y 0.000000 1.672200 0.000000 
#    z 0.004860 0.000000 1.711510 
# 
# From -- ./inp_files/346078.got.cif
#   From: 2010.06.25/outbox.cif.g09.slc.cpg/sg12_174_cif.got.tgz:346078.got - 2010.06.28 00:19:55.
