data_PCOD8091271
_publ_section_title
;
Structure prediction by ZEFSAII (Michael W. Deem and Ramdas Pophale) SiO2 
 PCOD8091271
Probable space group: C 2/M
;
_chemical_formula_sum "Si O2"
_cell_formula_units_Z 64
_cell_length_a 30.164583
_cell_length_b 12.739602
_cell_length_c 17.940355
_cell_angle_alpha 90.000000
_cell_angle_beta 29.363441
_cell_angle_gamma 90.000000
_cell_volume 3380.558138
_symmetry_space_group_name_H-M "C 2/M"
_symmetry_group_IT_number 12
_symmetry_cell_setting 'monoclinic'
loop_
_space_group_symop_operation_xyz
x,y,z
-x,y,-z
-x,-y,-z
x,-y,z
1/2+x,1/2+y,z
1/2-x,1/2+y,-z
1/2-x,1/2-y,-z
1/2+x,1/2-y,z
loop_
_atom_site_type_symbol
_atom_site_label
_atom_site_fract_x
_atom_site_fract_y
_atom_site_fract_z
Si Si1 0.392839 0.303411 0.501077
Si Si2 0.954839 0.122314 0.258006
Si Si3 0.867638 0.758885 0.029662
Si Si4 0.764522 0.618530 0.674068
Si Si5 0.447093 0.614906 0.653043
Si Si6 0.281848 0.621595 0.802927
Si Si7 0.900305 0.383880 0.117015
Si Si8 0.178403 0.787459 0.663355
O O1 0.389831 0.358080 0.424272
O O2 0.356930 0.185150 0.545543
O O3 0.497409 0.304272 0.376225
O O4 0.327770 0.365151 0.653751
O O5 0.908896 0.163675 0.249232
O O6 0.975309 0.000000 0.218460
O O7 0.048862 0.184350 0.133069
O O8 0.809779 0.846562 0.157107
O O9 0.804809 0.697605 0.061938
O O10 0.904058 0.669603 0.031288
O O11 0.792825 0.500000 0.648983
O O12 0.721783 0.625862 0.654173
O O13 0.500000 0.597116 0.500000
O O14 0.440956 0.500000 0.702172
O O15 0.348013 0.656297 0.774118
O O16 0.254687 0.500000 0.851663
O O17 0.856315 0.500000 0.174816
O O18 0.842288 0.315431 0.258477
O O19 0.000000 0.394667 0.000000
O O20 0.250000 0.750000 0.500000
#
# Coordination Sequence:
#
# PCOD8091271 Si02
#       8
#     8   8   8   8   8   8   8   8
#     4  10  19  34  55  83 110 133 177 225 269 320
#     4  12  23  36  54  77 108 143 178 219 268 319
#     4  10  21  36  52  78 109 141 186 215 256 317
#     4  10  21  37  55  73 104 145 181 220 261 311
#     4   8  14  28  54  85 109 133 169 218 273 316
#     4   9  17  33  59  85 108 137 176 223 269 314
#     4  10  20  36  57  76 105 141 179 220 260 306
#     4  11  22  39  51  81 109 135 178 220 271 316
#
# _framework density 18.931785000000001
#
# number of rings (size 3 to 8) (size 9 to 14) (size 15 to 20)
#    0.000    2.000    2.500    3.000    0.000    1.000 
#    0.000    3.750    0.000   10.125    0.000    0.000 
#    0.000    0.000    0.000    0.000    0.000    0.000 
#
# Total GULP energy -396677.353450 kJ/mol
# GULP energy per Si atom -12396.167295 kJ/mol
# Density = 1.888870 g / cm^3
# Si number density = 18.931785 Si / 1000 Ang^3
#
#
#
# Elastic Constant Matrix: (Units=GPa)
#
#
# Indices 1 2 3 4 5 6 
#
# 1 83.6152 38.1623 14.7266 0.0000 -26.1660 0.0000
# 2 38.1623 127.3847 29.9649 0.0000 -18.9378 0.0000
# 3 14.7266 29.9649 57.0410 0.0000 -13.5373 0.0000
# 4 0.0000 0.0000 0.0000 23.1580 0.0000 -3.7237
# 5 -26.1660 -18.9378 -13.5373 0.0000 31.8819 0.0000
# 6 0.0000 0.0000 0.0000 -3.7237 0.0000 18.9925
#
#
#
# Elastic Compliance Matrix: (Units=1/GPa)
#
#
# Indices 1 2 3 4 5 6 
#
# 1 0.017323 -0.003419 0.000240 0.000000 0.012288 0.000000
# 2 -0.003419 0.010041 -0.004051 0.000000 0.001438 0.000000
# 3 0.000240 -0.004051 0.021210 0.000000 0.006797 0.000000
# 4 0.000000 0.000000 0.000000 0.044587 0.000000 0.008742
# 5 0.012288 0.001438 0.006797 0.000000 0.045191 0.000000
# 6 0.000000 0.000000 0.000000 0.008742 0.000000 0.054366
#
#
# Mechanical properties :
#
#
# Convention : Reuss Voigt Hill
#
# Bulk Modulus (GPa) = 29.31269 48.19429 38.75349
# Shear Modulus (GPa) = 22.87788 27.15229 25.01508
#
# Velocity S-wave (km/s) = 3.48003 3.79121 3.63895
# Velocity P-wave (km/s) = 5.62711 6.68405 6.17822
#
# Compressibility (1/GPa) = 0.03411491
#
# Stress axis : x y z
#
# Youngs Moduli (GPa) = 57.72558 99.58853 47.14682
#
# Poissons Ratio (x) = 0.34053 -0.01132
# Poissons Ratio (y) = 0.19739 0.19098
# Poissons Ratio (z) = -0.01387 0.40342
#
# Static dielectric constant tensor:
#      x y z
#    x 3.875870 0.000000 -0.256560 
#    y 0.000000 3.440760 0.000000 
#    z -0.256560 0.000000 3.245760 
# 
# 
# High freq. dielectric constant tensor:
#      x y z
#    x 1.739550 0.000000 -0.016330 
#    y 0.000000 1.726590 0.000000 
#    z -0.016330 0.000000 1.714950 
# 
# From -- ./inp_files/296484.got.cif
#   From: 2010.06.25/outbox.cif.g09.slc.cpg/sg12_149_cif.got.tgz:296484.got - 2010.06.28 00:19:55.
