data_PCOD8091509
_publ_section_title
;
Structure prediction by ZEFSAII (Michael W. Deem and Ramdas Pophale) SiO2 
 PCOD8091509
Probable space group: C 2/M
;
_chemical_formula_sum "Si O2"
_cell_formula_units_Z 64
_cell_length_a 18.191225
_cell_length_b 10.935302
_cell_length_c 31.225877
_cell_angle_alpha 90.000000
_cell_angle_beta 31.746317
_cell_angle_gamma 90.000000
_cell_volume 3268.320146
_symmetry_space_group_name_H-M "C 2/M"
_symmetry_group_IT_number 12
_symmetry_cell_setting 'monoclinic'
loop_
_space_group_symop_operation_xyz
x,y,z
-x,y,-z
-x,-y,-z
x,-y,z
1/2+x,1/2+y,z
1/2-x,1/2+y,-z
1/2-x,1/2-y,-z
1/2+x,1/2-y,z
loop_
_atom_site_type_symbol
_atom_site_label
_atom_site_fract_x
_atom_site_fract_y
_atom_site_fract_z
Si Si1 0.841097 0.361287 0.565053
Si Si2 0.708266 0.639807 0.098892
Si Si3 0.015827 0.248679 0.626476
Si Si4 0.717899 0.140038 0.311693
Si Si5 0.502846 0.239678 0.950538
Si Si6 0.306767 0.356602 0.799554
Si Si7 0.498345 0.641449 0.134722
Si Si8 0.727369 0.636078 0.463625
O O1 0.816397 0.500000 0.558164
O O2 0.752482 0.345853 0.652456
O O3 0.795298 0.252009 0.556512
O O4 0.000000 0.346285 0.500000
O O5 0.666255 0.500000 0.121497
O O6 0.664802 0.696316 0.166625
O O7 0.621363 0.702489 0.102981
O O8 0.874459 0.646283 0.009534
O O9 0.115975 0.355122 0.595191
O O10 0.115339 0.142502 0.557997
O O11 0.924569 0.294781 0.631770
O O12 0.914819 0.205808 0.714243
O O13 0.850066 0.200295 0.221907
O O14 0.699685 0.000000 0.307204
O O15 0.645688 0.171093 0.867964
O O16 0.475704 0.343841 0.928700
O O17 0.500000 0.296786 0.000000
O O18 0.330651 0.500000 0.784901
O O19 0.492978 0.500000 0.148078
O O20 0.711997 0.500000 0.449937
#
# Coordination Sequence:
#
# PCOD8091509 Si02
#       8
#     8   8   8   8   8   8   8   8
#     4  10  21  39  64  88 114 156 204 246 293 359
#     4   9  19  34  55  82 111 146 189 240 287 339
#     4  11  22  39  59  83 118 158 200 242 295 366
#     4  10  20  37  59  83 110 150 201 247 287 345
#     4  10  19  34  56  83 114 149 182 232 294 351
#     4  10  20  35  56  83 112 147 197 247 291 341
#     4  10  20  34  55  82 111 148 192 235 284 344
#     4  11  25  40  60  90 124 160 195 251 314 357
#
# _framework density 19.581924999999998
#
# number of rings (size 3 to 8) (size 9 to 14) (size 15 to 20)
#    0.000    1.875    2.500    1.500    1.750    4.500 
#    0.000    0.000    0.000    0.000    0.000    0.000 
#    0.000    0.000    0.000    0.000    0.000    0.000 
#
# Total GULP energy -396493.874956 kJ/mol
# GULP energy per Si atom -12390.433592 kJ/mol
# Density = 1.953736 g / cm^3
# Si number density = 19.581925 Si / 1000 Ang^3
#
#
#
# Elastic Constant Matrix: (Units=GPa)
#
#
# Indices 1 2 3 4 5 6 
#
# 1 118.0766 43.1668 52.0064 0.0004 -3.1079 -0.0027
# 2 43.1668 85.0886 32.8838 0.0002 2.0422 -0.0007
# 3 52.0064 32.8838 128.4520 0.0002 3.2873 -0.0002
# 4 0.0004 0.0002 0.0002 16.7795 -0.0001 3.3504
# 5 -3.1079 2.0422 3.2873 -0.0001 32.0388 0.0006
# 6 -0.0027 -0.0007 -0.0002 3.3504 0.0006 25.9629
#
#
#
# Elastic Compliance Matrix: (Units=1/GPa)
#
#
# Indices 1 2 3 4 5 6 
#
# 1 0.011814 -0.004629 -0.003645 0.000000 0.001815 0.000001
# 2 -0.004629 0.014864 -0.001900 0.000000 -0.001201 0.000000
# 3 -0.003645 -0.001900 0.009779 0.000000 -0.001236 0.000000
# 4 0.000000 0.000000 0.000000 0.061173 0.000000 -0.007894
# 5 0.001815 -0.001201 -0.001236 0.000000 0.031592 -0.000001
# 6 0.000001 0.000000 0.000000 -0.007894 -0.000001 0.039535
#
#
# Mechanical properties :
#
#
# Convention : Reuss Voigt Hill
#
# Bulk Modulus (GPa) = 62.07557 65.30348 63.68953
# Shear Modulus (GPa) = 25.71037 28.52692 27.11865
#
# Velocity S-wave (km/s) = 3.62742 3.82094 3.72544
# Velocity P-wave (km/s) = 7.02235 7.27237 7.14846
#
# Compressibility (1/GPa) = 0.01610940
#
# Stress axis : x y z
#
# Youngs Moduli (GPa) = 84.64306 67.27717 102.26177
#
# Poissons Ratio (x) = 0.31140 0.37272
# Poissons Ratio (y) = 0.39177 0.19434
# Poissons Ratio (z) = 0.30851 0.12786
#
# Static dielectric constant tensor:
#      x y z
#    x 3.873720 0.000000 -0.031990 
#    y 0.000000 3.183550 0.000000 
#    z -0.031990 0.000000 3.794260 
# 
# 
# High freq. dielectric constant tensor:
#      x y z
#    x 1.773160 0.000000 -0.002320 
#    y 0.000000 1.721220 0.000000 
#    z -0.002320 0.000000 1.779460 
# 
# From -- ./inp_files/379088.got.cif
#   From: 2010.06.25/outbox.cif.g09.slc.cpg/sg12_190_cif.got.tgz:379088.got - 2010.06.28 00:19:55.
