data_PCOD8091158
_publ_section_title
;
Structure prediction by ZEFSAII (Michael W. Deem and Ramdas Pophale) SiO2 
 PCOD8091158
Probable space group: C 2/M
;
_chemical_formula_sum "Si O2"
_cell_formula_units_Z 48
_cell_length_a 28.380143
_cell_length_b 8.963008
_cell_length_c 17.616675
_cell_angle_alpha 90.000000
_cell_angle_beta 144.204937
_cell_angle_gamma 90.000000
_cell_volume 2620.986947
_symmetry_space_group_name_H-M "C 2/M"
_symmetry_group_IT_number 12
_symmetry_cell_setting 'monoclinic'
loop_
_space_group_symop_operation_xyz
x,y,z
-x,y,-z
-x,-y,-z
x,-y,z
1/2+x,1/2+y,z
1/2-x,1/2+y,-z
1/2-x,1/2-y,-z
1/2+x,1/2-y,z
loop_
_atom_site_type_symbol
_atom_site_label
_atom_site_fract_x
_atom_site_fract_y
_atom_site_fract_z
Si Si1 0.055320 0.177375 0.005825
Si Si2 0.765956 0.822680 0.744405
Si Si3 0.870489 0.173770 0.145904
Si Si4 0.721840 0.175807 0.849885
Si Si5 0.304995 0.822534 0.507230
Si Si6 0.475932 0.325036 0.746150
O O1 0.018885 0.228884 0.878765
O O2 0.059053 0.000000 0.014048
O O3 0.144162 0.244167 0.133558
O O4 0.000000 0.243128 0.000000
O O5 0.718540 0.768760 0.758054
O O6 0.724346 0.764290 0.613421
O O7 0.769968 0.000000 0.748924
O O8 0.853273 0.254518 0.203127
O O9 0.961666 0.210739 0.240103
O O10 0.859418 0.000000 0.144944
O O11 0.806743 0.227069 0.998365
O O12 0.713177 0.000000 0.842536
O O13 0.250000 0.750000 0.500000
O O14 0.396690 0.772425 0.633739
O O15 0.298272 0.000000 0.505649
O O16 0.453448 0.500000 0.719645
#
# Coordination Sequence:
#
# PCOD8091158 Si02
#       6
#     8   8   8   8   8   8
#     4   9  15  26  50  78  98 124 172 224 259 297
#     4   9  17  32  53  78 102 134 181 222 255 302
#     4   9  17  30  51  80 109 135 167 212 268 317
#     4   9  16  30  53  79 105 133 173 220 260 304
#     4  11  23  38  56  77 106 142 178 216 263 315
#     4  10  19  34  55  79 106 137 174 217 263 314
#
# _framework density 18.313711999999999
#
# number of rings (size 3 to 8) (size 9 to 14) (size 15 to 20)
#    0.000    2.500    1.667    1.500    0.000    3.333 
#    0.000    2.500    0.000   10.500    0.000    0.000 
#    0.000    0.000    0.000    0.000    0.000    0.000 
#
# Total GULP energy -297534.275650 kJ/mol
# GULP energy per Si atom -12397.261485 kJ/mol
# Density = 1.827203 g / cm^3
# Si number density = 18.313712 Si / 1000 Ang^3
#
#
#
# Elastic Constant Matrix: (Units=GPa)
#
#
# Indices 1 2 3 4 5 6 
#
# 1 167.6362 38.6921 63.4887 0.0000 -7.2297 0.0000
# 2 38.6921 32.5840 27.9909 0.0000 0.7450 0.0000
# 3 63.4887 27.9909 108.0633 0.0000 -1.5961 0.0000
# 4 0.0000 0.0000 0.0000 22.2283 0.0000 2.5945
# 5 -7.2297 0.7450 -1.5961 0.0000 32.7132 0.0000
# 6 0.0000 0.0000 0.0000 2.5945 0.0000 29.6592
#
#
#
# Elastic Compliance Matrix: (Units=1/GPa)
#
#
# Indices 1 2 3 4 5 6 
#
# 1 0.009161 -0.008138 -0.003244 0.000000 0.002052 0.000000
# 2 -0.008138 0.046767 -0.007380 0.000000 -0.003224 0.000000
# 3 -0.003244 -0.007380 0.013072 0.000000 0.000089 0.000000
# 4 0.000000 0.000000 0.000000 0.045452 0.000000 -0.003976
# 5 0.002052 -0.003224 0.000089 0.000000 0.031100 0.000000
# 6 0.000000 0.000000 0.000000 -0.003976 0.000000 0.034064
#
#
# Mechanical properties :
#
#
# Convention : Reuss Voigt Hill
#
# Bulk Modulus (GPa) = 31.77001 63.18076 47.47539
# Shear Modulus (GPa) = 21.96524 28.79425 25.37975
#
# Velocity S-wave (km/s) = 3.46697 3.96950 3.72672
# Velocity P-wave (km/s) = 5.78030 7.45542 6.67065
#
# Compressibility (1/GPa) = 0.03147623
#
# Stress axis : x y z
#
# Youngs Moduli (GPa) = 109.16236 21.38251 76.49663
#
# Poissons Ratio (x) = 0.17402 0.24813
# Poissons Ratio (y) = 0.88840 0.56455
# Poissons Ratio (z) = 0.35409 0.15780
#
# Static dielectric constant tensor:
#      x y z
#    x 3.682990 0.000000 -0.072300 
#    y 0.000000 2.980390 0.000000 
#    z -0.072300 0.000000 3.390350 
# 
# 
# High freq. dielectric constant tensor:
#      x y z
#    x 1.730340 0.000000 -0.000830 
#    y 0.000000 1.669820 0.000000 
#    z -0.000830 0.000000 1.697040 
# 
# From -- ./inp_files/274078.got.cif
#   From: 2010.06.25/outbox.cif.g09.slc.cpg/sg12_138_cif.got.tgz:274078.got - 2010.06.28 00:19:55.
