data_PCOD8091479
_publ_section_title
;
Structure prediction by ZEFSAII (Michael W. Deem and Ramdas Pophale) SiO2 
 PCOD8091479
Probable space group: C 2/M
;
_chemical_formula_sum "Si O2"
_cell_formula_units_Z 48
_cell_length_a 15.957543
_cell_length_b 8.678518
_cell_length_c 29.533430
_cell_angle_alpha 90.000000
_cell_angle_beta 144.635341
_cell_angle_gamma 90.000000
_cell_volume 2367.214998
_symmetry_space_group_name_H-M "C 2/M"
_symmetry_group_IT_number 12
_symmetry_cell_setting 'monoclinic'
loop_
_space_group_symop_operation_xyz
x,y,z
-x,y,-z
-x,-y,-z
x,-y,z
1/2+x,1/2+y,z
1/2-x,1/2+y,-z
1/2-x,1/2-y,-z
1/2+x,1/2-y,z
loop_
_atom_site_type_symbol
_atom_site_label
_atom_site_fract_x
_atom_site_fract_y
_atom_site_fract_z
Si Si1 0.663069 0.179004 0.338559
Si Si2 0.154054 0.178907 0.666854
Si Si3 0.158801 0.816906 0.499902
Si Si4 0.644641 0.182694 0.820169
Si Si5 0.668615 0.320042 0.179832
Si Si6 0.626813 0.817870 0.914494
O O1 0.719436 0.207758 0.313116
O O2 0.771270 0.253536 0.423300
O O3 0.500888 0.249697 0.268099
O O4 0.657648 0.000000 0.347825
O O5 0.193655 0.279448 0.728131
O O6 0.005866 0.239330 0.578927
O O7 0.142953 0.000000 0.675920
O O8 0.250000 0.750000 0.500000
O O9 0.162027 0.000000 0.501563
O O10 0.784457 0.226067 0.851074
O O11 0.654739 0.247646 0.875915
O O12 0.627764 0.000000 0.815589
O O13 0.632909 0.500000 0.167141
O O14 0.529025 0.226140 0.134013
O O15 0.638545 0.000000 0.919674
O O16 0.750000 0.750000 0.000000
#
# Coordination Sequence:
#
# PCOD8091479 Si02
#       6
#     8   8   8   8   8   8
#     4   9  16  32  56  80 107 151 202 240 279 343
#     4  10  19  34  56  82 113 154 201 245 290 344
#     4  10  20  32  51  79 112 151 199 248 290 341
#     4   9  19  36  61  86 116 157 198 234 284 353
#     4  11  22  38  62  92 119 153 197 243 291 347
#     4  11  23  43  66  90 120 155 192 238 291 353
#
# _framework density 20.276993000000001
#
# number of rings (size 3 to 8) (size 9 to 14) (size 15 to 20)
#    0.000    2.000    1.667    2.500    0.000    4.667 
#    0.000    7.500    0.000    2.000    0.000    0.000 
#    0.000    0.000    0.000    0.000    0.000    0.000 
#
# Total GULP energy -297493.318612 kJ/mol
# GULP energy per Si atom -12395.554942 kJ/mol
# Density = 2.023084 g / cm^3
# Si number density = 20.276993 Si / 1000 Ang^3
#
#
#
# Elastic Constant Matrix: (Units=GPa)
#
#
# Indices 1 2 3 4 5 6 
#
# 1 112.7888 22.3037 64.7011 0.0000 -6.8100 0.0000
# 2 22.3037 31.1431 22.7430 0.0000 -1.1693 0.0000
# 3 64.7011 22.7430 145.2408 0.0000 -10.5608 0.0000
# 4 0.0000 0.0000 0.0000 29.5751 0.0000 1.1966
# 5 -6.8100 -1.1693 -10.5608 0.0000 25.5420 0.0000
# 6 0.0000 0.0000 0.0000 1.1966 0.0000 28.7767
#
#
#
# Elastic Compliance Matrix: (Units=1/GPa)
#
#
# Indices 1 2 3 4 5 6 
#
# 1 0.012759 -0.005652 -0.004712 0.000000 0.001195 0.000000
# 2 -0.005652 0.038772 -0.003644 0.000000 -0.001238 0.000000
# 3 -0.004712 -0.003644 0.009744 0.000000 0.002606 0.000000
# 4 0.000000 0.000000 0.000000 0.033869 0.000000 -0.001408
# 5 0.001195 -0.001238 0.002606 0.000000 0.040491 0.000000
# 6 0.000000 0.000000 0.000000 -0.001408 0.000000 0.034809
#
#
# Mechanical properties :
#
#
# Convention : Reuss Voigt Hill
#
# Bulk Modulus (GPa) = 30.06574 56.51871 43.29222
# Shear Modulus (GPa) = 23.86131 28.74042 26.30086
#
# Velocity S-wave (km/s) = 3.43413 3.76891 3.60541
# Velocity P-wave (km/s) = 5.53028 6.84642 6.22324
#
# Compressibility (1/GPa) = 0.03326045
#
# Stress axis : x y z
#
# Youngs Moduli (GPa) = 78.37706 25.79203 102.62567
#
# Poissons Ratio (x) = 0.14577 0.48356
# Poissons Ratio (y) = 0.44296 0.37392
# Poissons Ratio (z) = 0.36930 0.09397
#
# Static dielectric constant tensor:
#      x y z
#    x 3.940710 0.000000 0.035080 
#    y 0.000000 3.227180 0.000000 
#    z 0.035080 0.000000 4.231090 
# 
# 
# High freq. dielectric constant tensor:
#      x y z
#    x 1.804660 0.000000 -0.000920 
#    y 0.000000 1.748750 0.000000 
#    z -0.000920 0.000000 1.803460 
# 
# From -- ./inp_files/308597.got.cif
#   From: 2010.06.25/outbox.cif.g09.slc.cpg/sg12_155_cif.got.tgz:308597.got - 2010.06.28 00:19:55.
