data_PCOD8091217
_publ_section_title
;
Structure prediction by ZEFSAII (Michael W. Deem and Ramdas Pophale) SiO2 
 PCOD8091217
Probable space group: C 2/M
;
_chemical_formula_sum "Si O2"
_cell_formula_units_Z 48
_cell_length_a 16.590878
_cell_length_b 17.257103
_cell_length_c 14.645642
_cell_angle_alpha 90.000000
_cell_angle_beta 37.531254
_cell_angle_gamma 90.000000
_cell_volume 2554.473280
_symmetry_space_group_name_H-M "C 2/M"
_symmetry_group_IT_number 12
_symmetry_cell_setting 'monoclinic'
loop_
_space_group_symop_operation_xyz
x,y,z
-x,y,-z
-x,-y,-z
x,-y,z
1/2+x,1/2+y,z
1/2-x,1/2+y,-z
1/2-x,1/2-y,-z
1/2+x,1/2-y,z
loop_
_atom_site_type_symbol
_atom_site_label
_atom_site_fract_x
_atom_site_fract_y
_atom_site_fract_z
Si Si1 0.207652 0.309133 0.616605
Si Si2 0.947048 0.089128 0.834690
Si Si3 0.933682 0.592029 0.386527
Si Si4 0.271066 0.910212 0.831455
Si Si5 0.546666 0.409211 0.555036
Si Si6 0.807886 0.840904 0.280749
O O1 0.250000 0.250000 0.500000
O O2 0.082727 0.360146 0.693793
O O3 0.316157 0.372293 0.541044
O O4 0.185866 0.253411 0.723104
O O5 0.943126 0.110067 0.729985
O O6 0.060552 0.133983 0.785865
O O7 0.984354 0.000000 0.813613
O O8 0.803151 0.107640 0.006269
O O9 0.923870 0.500000 0.377894
O O10 0.821205 0.619879 0.557637
O O11 0.076392 0.615119 0.298620
O O12 0.193117 0.863284 0.824017
O O13 0.261481 0.000000 0.813945
O O14 0.500000 0.374073 0.500000
O O15 0.570985 0.500000 0.522750
#
# Coordination Sequence:
#
# PCOD8091217 Si02
#       6
#     8   8   8   8   8   8
#     4  10  20  33  55  78 110 144 184 225 272 315
#     4  10  19  35  58  84 113 143 180 230 276 325
#     4  10  19  34  55  80 112 147 186 226 270 324
#     4  10  21  34  56  87 115 143 177 224 281 333
#     4  10  20  36  61  84 104 142 195 235 266 314
#     4  11  20  33  55  83 115 148 182 220 275 332
#
# _framework density 18.790566999999999
#
# number of rings (size 3 to 8) (size 9 to 14) (size 15 to 20)
#    0.000    1.833    3.333    3.000    0.000    5.333 
#    0.000    0.833    3.667    0.000    0.000    5.833 
#    0.000    0.000    0.000    0.000    0.000    0.000 
#
# Total GULP energy -297440.170978 kJ/mol
# GULP energy per Si atom -12393.340457 kJ/mol
# Density = 1.874780 g / cm^3
# Si number density = 18.790567 Si / 1000 Ang^3
#
#
#
# Elastic Constant Matrix: (Units=GPa)
#
#
# Indices 1 2 3 4 5 6 
#
# 1 109.6317 38.5627 31.6619 0.0000 11.5082 -0.0002
# 2 38.5627 60.1329 21.5787 0.0000 9.1356 -0.0001
# 3 31.6619 21.5787 71.0711 0.0001 2.2253 -0.0003
# 4 0.0000 0.0000 0.0001 11.2919 -0.0001 9.4736
# 5 11.5082 9.1356 2.2253 -0.0001 26.6445 0.0002
# 6 -0.0002 -0.0001 -0.0003 9.4736 0.0002 17.4442
#
#
#
# Elastic Compliance Matrix: (Units=1/GPa)
#
#
# Indices 1 2 3 4 5 6 
#
# 1 0.012741 -0.006410 -0.003636 0.000000 -0.003002 0.000000
# 2 -0.006410 0.022876 -0.003941 0.000000 -0.004746 0.000000
# 3 -0.003636 -0.003941 0.016839 -0.000001 0.001515 0.000001
# 4 0.000000 0.000000 -0.000001 0.162682 0.000001 -0.088349
# 5 -0.003002 -0.004746 0.001515 0.000001 0.040328 -0.000001
# 6 0.000000 0.000000 0.000001 -0.088349 -0.000001 0.105306
#
#
# Mechanical properties :
#
#
# Convention : Reuss Voigt Hill
#
# Bulk Modulus (GPa) = 40.84661 47.16027 44.00344
# Shear Modulus (GPa) = 12.59734 21.01160 16.80447
#
# Velocity S-wave (km/s) = 2.59203 3.34758 2.99373
# Velocity P-wave (km/s) = 5.54465 6.33198 5.95135
#
# Compressibility (1/GPa) = 0.02448183
#
# Stress axis : x y z
#
# Youngs Moduli (GPa) = 78.48451 43.71408 59.38430
#
# Poissons Ratio (x) = 0.28021 0.21592
# Poissons Ratio (y) = 0.50310 0.23405
# Poissons Ratio (z) = 0.28537 0.17229
#
# Static dielectric constant tensor:
#      x y z
#    x 3.550400 0.000020 0.070820 
#    y 0.000020 3.175600 0.000020 
#    z 0.070820 0.000020 3.404980 
# 
# 
# High freq. dielectric constant tensor:
#      x y z
#    x 1.731650 0.000000 -0.001670 
#    y 0.000000 1.730580 0.000000 
#    z -0.001670 0.000000 1.708600 
# 
# From -- ./inp_files/216228.got.cif
#   From: 2010.06.25/outbox.cif.g09.slc.cpg/sg12_109_cif.got.tgz:216228.got - 2010.06.28 00:19:55.
