data_PCOD8091453
_publ_section_title
;
Structure prediction by ZEFSAII (Michael W. Deem and Ramdas Pophale) SiO2 
 PCOD8091453
Probable space group: C 2/M
;
_chemical_formula_sum "Si O2"
_cell_formula_units_Z 60
_cell_length_a 14.760552
_cell_length_b 18.561137
_cell_length_c 19.036112
_cell_angle_alpha 90.000000
_cell_angle_beta 140.841074
_cell_angle_gamma 90.000000
_cell_volume 3293.370765
_symmetry_space_group_name_H-M "C 2/M"
_symmetry_group_IT_number 12
_symmetry_cell_setting 'monoclinic'
loop_
_space_group_symop_operation_xyz
x,y,z
-x,y,-z
-x,-y,-z
x,-y,z
1/2+x,1/2+y,z
1/2-x,1/2+y,-z
1/2-x,1/2-y,-z
1/2+x,1/2-y,z
loop_
_atom_site_type_symbol
_atom_site_label
_atom_site_fract_x
_atom_site_fract_y
_atom_site_fract_z
Si Si1 0.674874 0.679197 0.871365
Si Si2 0.432143 0.179197 0.128635
Si Si3 0.372538 0.766108 0.872538
Si Si4 0.239349 0.620787 0.739349
Si Si5 0.478150 0.918321 0.282853
Si Si6 0.412445 0.581679 0.717147
Si Si7 0.307930 0.820737 0.500000
Si Si8 0.000000 0.667646 0.500000
O O1 0.578241 0.750000 0.828241
O O2 0.760872 0.686340 0.849951
O O3 0.574199 0.609729 0.806430
O O4 0.781575 0.666656 0.000000
O O5 0.560971 0.186340 0.150049
O O6 0.461339 0.109729 0.193570
O O7 0.286749 0.701015 0.786749
O O8 0.500000 0.736929 0.000000
O O9 0.179445 0.583190 0.773984
O O10 0.368523 0.583190 0.773984
O O11 0.106098 0.615690 0.606098
O O12 0.598167 0.869383 0.391841
O O13 0.533764 0.000000 0.313685
O O14 0.406394 0.500000 0.686315
O O15 0.314485 0.630617 0.608159
O O16 0.250000 0.750000 0.500000
O O17 0.408764 0.785584 0.500000
#
# Coordination Sequence:
#
# PCOD8091453 Si02
#       8
#     8   8   8   8   8   8   8   4
#     4  10  20  36  57  81 109 145 189 233 272 322
#     4  10  20  36  57  81 109 145 189 233 272 322
#     4  10  20  35  58  82 108 143 191 236 269 320
#     4  10  19  34  56  81 114 144 180 224 281 331
#     4  11  22  36  55  84 118 148 180 226 284 338
#     4  11  22  36  55  84 118 148 180 226 284 338
#     4  10  21  37  58  81 110 147 190 226 269 326
#     4   8  20  32  51  82 107 138 172 226 270 320
#
# _framework density 18.218416999999999
#
# number of rings (size 3 to 8) (size 9 to 14) (size 15 to 20)
#    0.000    1.867    2.667    1.600    3.733    0.533 
#    0.000    4.667    0.000    4.800    0.000    2.800 
#    0.000    0.000    0.000    0.000    0.000    0.000 
#
# Total GULP energy -371834.105303 kJ/mol
# GULP energy per Si atom -12394.470177 kJ/mol
# Density = 1.817695 g / cm^3
# Si number density = 18.218417 Si / 1000 Ang^3
#
#
#
# Elastic Constant Matrix: (Units=GPa)
#
#
# Indices 1 2 3 4 5 6 
#
# 1 142.3305 63.3665 41.5525 0.0000 2.0843 0.0000
# 2 63.3665 130.9087 48.8036 0.0000 0.6166 0.0000
# 3 41.5525 48.8036 75.6858 0.0000 0.7377 -0.0001
# 4 0.0000 0.0000 0.0000 18.9469 0.0000 -0.1583
# 5 2.0843 0.6166 0.7377 0.0000 25.8346 0.0000
# 6 0.0000 0.0000 -0.0001 -0.1583 0.0000 15.2089
#
#
#
# Elastic Compliance Matrix: (Units=1/GPa)
#
#
# Indices 1 2 3 4 5 6 
#
# 1 0.009437 -0.003470 -0.002938 0.000000 -0.000595 0.000000
# 2 -0.003470 0.011332 -0.005404 0.000000 0.000164 0.000000
# 3 -0.002938 -0.005404 0.018311 0.000000 -0.000157 0.000000
# 4 0.000000 0.000000 0.000000 0.052784 0.000000 0.000549
# 5 -0.000595 0.000164 -0.000157 0.000000 0.038756 0.000000
# 6 0.000000 0.000000 0.000000 0.000549 0.000000 0.065756
#
#
# Mechanical properties :
#
#
# Convention : Reuss Voigt Hill
#
# Bulk Modulus (GPa) = 64.69285 72.93004 68.81145
# Shear Modulus (GPa) = 22.20708 25.01158 23.60933
#
# Velocity S-wave (km/s) = 3.49511 3.70925 3.60377
# Velocity P-wave (km/s) = 7.20239 7.64608 7.42755
#
# Compressibility (1/GPa) = 0.01545766
#
# Stress axis : x y z
#
# Youngs Moduli (GPa) = 105.96404 88.24247 54.61068
#
# Poissons Ratio (x) = 0.30621 0.16043
# Poissons Ratio (y) = 0.36770 0.29511
# Poissons Ratio (z) = 0.31130 0.47685
#
# Static dielectric constant tensor:
#      x y z
#    x 3.711870 0.000000 0.011670 
#    y 0.000000 3.022780 0.000000 
#    z 0.011670 0.000000 3.436180 
# 
# 
# High freq. dielectric constant tensor:
#      x y z
#    x 1.719600 0.000000 0.000390 
#    y 0.000000 1.672640 0.000000 
#    z 0.000390 0.000000 1.710430 
# 
# From -- ./inp_files/311059.got.cif
#   From: 2010.06.25/outbox.cif.g09.slc.cpg/sg12_156_cif.got.tgz:311059.got - 2010.06.28 00:19:55.
