data_PCOD8091027
_publ_section_title
;
Structure prediction by ZEFSAII (Michael W. Deem and Ramdas Pophale) SiO2 
 PCOD8091027
Probable space group: C 2/M
;
_chemical_formula_sum "Si O2"
_cell_formula_units_Z 56
_cell_length_a 24.254522
_cell_length_b 9.442698
_cell_length_c 14.655393
_cell_angle_alpha 90.000000
_cell_angle_beta 120.321885
_cell_angle_gamma 90.000000
_cell_volume 2897.337699
_symmetry_space_group_name_H-M "C 2/M"
_symmetry_group_IT_number 12
_symmetry_cell_setting 'monoclinic'
loop_
_space_group_symop_operation_xyz
x,y,z
-x,y,-z
-x,-y,-z
x,-y,z
1/2+x,1/2+y,z
1/2-x,1/2+y,-z
1/2-x,1/2-y,-z
1/2+x,1/2-y,z
loop_
_atom_site_type_symbol
_atom_site_label
_atom_site_fract_x
_atom_site_fract_y
_atom_site_fract_z
Si Si1 0.523299 0.661619 0.917702
Si Si2 0.374336 0.844669 0.932788
Si Si3 0.576441 0.338458 0.323535
Si Si4 0.737346 0.657610 0.901298
Si Si5 0.189842 0.665298 0.700895
Si Si6 0.825336 0.837558 0.736108
Si Si7 0.439401 0.833592 0.508524
O O1 0.545595 0.500000 0.927711
O O2 0.471187 0.698573 0.798634
O O3 0.500000 0.697193 0.000000
O O4 0.584674 0.763036 0.955437
O O5 0.303632 0.863985 0.908074
O O6 0.371531 0.755043 0.837814
O O7 0.404062 0.000000 0.938086
O O8 0.568344 0.500000 0.349405
O O9 0.649105 0.313220 0.346248
O O10 0.559417 0.238273 0.392432
O O11 0.709030 0.500000 0.900236
O O12 0.690860 0.742861 0.794115
O O13 0.750000 0.750000 0.000000
O O14 0.189123 0.500000 0.727399
O O15 0.250304 0.699425 0.684982
O O16 0.125821 0.710568 0.595718
O O17 0.838045 0.000000 0.775369
O O18 0.500000 0.781546 0.500000
O O19 0.442949 0.000000 0.528106
#
# Coordination Sequence:
#
# PCOD8091027 Si02
#       7
#     8   8   8   8   8   8   8
#     4  10  19  34  54  79 115 153 184 218 272 336
#     4  10  20  32  50  80 114 145 180 226 278 328
#     4  10  21  36  57  84 111 146 191 234 276 331
#     4  10  21  36  55  82 113 145 185 233 280 331
#     4   9  19  37  61  82 107 148 187 227 284 339
#     4   9  17  34  57  81 110 142 180 225 279 339
#     4  10  23  42  59  79 112 150 188 234 286 335
#
# _framework density 19.328088000000001
#
# number of rings (size 3 to 8) (size 9 to 14) (size 15 to 20)
#    0.000    2.286    1.429    0.857    0.000    5.714 
#    0.000    4.286    0.000    0.000    0.000    0.000 
#    0.000    0.000    0.000    0.000    0.000    0.000 
#
# Total GULP energy -347078.022336 kJ/mol
# GULP energy per Si atom -12395.643655 kJ/mol
# Density = 1.928410 g / cm^3
# Si number density = 19.328088 Si / 1000 Ang^3
#
#
#
# Elastic Constant Matrix: (Units=GPa)
#
#
# Indices 1 2 3 4 5 6 
#
# 1 82.3260 41.2978 62.0569 0.0000 -0.3899 0.0000
# 2 41.2978 95.9656 67.5935 0.0000 -3.3950 0.0000
# 3 62.0569 67.5935 131.4893 0.0000 -3.4612 0.0000
# 4 0.0000 0.0000 0.0000 29.7349 0.0000 -5.6719
# 5 -0.3899 -3.3950 -3.4612 0.0000 33.5890 0.0000
# 6 0.0000 0.0000 0.0000 -5.6719 0.0000 23.3585
#
#
#
# Elastic Compliance Matrix: (Units=1/GPa)
#
#
# Indices 1 2 3 4 5 6 
#
# 1 0.019407 -0.003002 -0.007639 0.000000 -0.000865 0.000000
# 2 -0.003002 0.016820 -0.007206 0.000000 0.000923 0.000000
# 3 -0.007639 -0.007206 0.014933 0.000000 0.000722 0.000000
# 4 0.000000 0.000000 0.000000 0.035264 0.000000 0.008563
# 5 -0.000865 0.000923 0.000722 0.000000 0.029929 0.000000
# 6 0.000000 0.000000 0.000000 0.008563 0.000000 0.044890
#
#
# Mechanical properties :
#
#
# Convention : Reuss Voigt Hill
#
# Bulk Modulus (GPa) = 64.64945 72.40858 68.52901
# Shear Modulus (GPa) = 24.74131 26.59200 25.66665
#
# Velocity S-wave (km/s) = 3.58169 3.71323 3.64805
# Velocity P-wave (km/s) = 7.11517 7.47852 7.29911
#
# Compressibility (1/GPa) = 0.01546804
#
# Stress axis : x y z
#
# Youngs Moduli (GPa) = 51.52906 59.45294 66.96383
#
# Poissons Ratio (x) = 0.17846 0.51152
# Poissons Ratio (y) = 0.15467 0.48251
# Poissons Ratio (z) = 0.39362 0.42839
#
# Static dielectric constant tensor:
#      x y z
#    x 3.860540 0.000000 0.004120 
#    y 0.000000 3.832690 0.000000 
#    z 0.004120 0.000000 3.445480 
# 
# 
# High freq. dielectric constant tensor:
#      x y z
#    x 1.749340 0.000000 0.007830 
#    y 0.000000 1.755710 0.000000 
#    z 0.007830 0.000000 1.737350 
# 
# From -- ./inp_files/238867.got.cif
#   From: 2010.06.25/outbox.cif.g09.slc.cpg/sg12_120_cif.got.tgz:238867.got - 2010.06.28 00:19:55.
