data_PCOD8091168
_publ_section_title
;
Structure prediction by ZEFSAII (Michael W. Deem and Ramdas Pophale) SiO2 
 PCOD8091168
Probable space group: C 2/M
;
_chemical_formula_sum "Si O2"
_cell_formula_units_Z 64
_cell_length_a 23.440591
_cell_length_b 17.608319
_cell_length_c 13.965459
_cell_angle_alpha 90.000000
_cell_angle_beta 34.181702
_cell_angle_gamma 90.000000
_cell_volume 3238.457899
_symmetry_space_group_name_H-M "C 2/M"
_symmetry_group_IT_number 12
_symmetry_cell_setting 'monoclinic'
loop_
_space_group_symop_operation_xyz
x,y,z
-x,y,-z
-x,-y,-z
x,-y,z
1/2+x,1/2+y,z
1/2-x,1/2+y,-z
1/2-x,1/2-y,-z
1/2+x,1/2-y,z
loop_
_atom_site_type_symbol
_atom_site_label
_atom_site_fract_x
_atom_site_fract_y
_atom_site_fract_z
Si Si1 0.889335 0.586147 0.169434
Si Si2 0.592216 0.167040 0.500406
Si Si3 0.358732 0.176503 0.835152
Si Si4 0.283871 0.169097 0.488263
Si Si5 0.245766 0.585534 0.175456
Si Si6 0.712480 0.912841 0.892916
Si Si7 0.116179 0.910262 0.847679
Si Si8 0.615309 0.304019 0.331897
O O1 0.906077 0.500000 0.180065
O O2 0.822293 0.624695 0.342929
O O3 0.829985 0.591410 0.153438
O O4 0.000000 0.624686 0.000000
O O5 0.473474 0.155137 0.644961
O O6 0.620704 0.176295 0.572006
O O7 0.648444 0.092887 0.380813
O O8 0.637739 0.239874 0.380575
O O9 0.271572 0.133557 0.896225
O O10 0.350963 0.267044 0.819329
O O11 0.348230 0.149367 0.958905
O O12 0.250000 0.250000 0.500000
O O13 0.185925 0.129182 0.670983
O O14 0.258790 0.500000 0.123015
O O15 0.344676 0.611593 0.099626
O O16 0.827309 0.882758 0.729900
O O17 0.707256 0.000000 0.939283
O O18 0.124763 0.000000 0.818945
O O19 0.000000 0.881976 0.000000
O O20 0.500000 0.329205 0.500000
#
# Coordination Sequence:
#
# PCOD8091168 Si02
#       8
#     8   8   8   8   8   8   8   8
#     4  10  22  39  56  77 110 150 187 223 267 323
#     4   9  19  34  54  79 106 139 175 219 276 328
#     4  10  19  34  55  79 108 139 174 219 275 327
#     4  11  21  35  57  83 110 141 184 233 274 321
#     4   9  17  30  52  82 111 137 171 218 270 327
#     4  11  22  35  54  79 108 142 181 223 262 312
#     4   9  19  37  58  81 111 144 178 220 275 331
#     4   9  19  37  56  75 104 140 176 215 266 323
#
# _framework density 19.762492000000002
#
# number of rings (size 3 to 8) (size 9 to 14) (size 15 to 20)
#    0.000    2.250    0.000    3.750    0.000    2.750 
#    0.000    7.500    0.000    1.500    0.000    0.000 
#    0.000    0.000    0.000    0.000    0.000    0.000 
#
# Total GULP energy -396584.604789 kJ/mol
# GULP energy per Si atom -12393.268900 kJ/mol
# Density = 1.971751 g / cm^3
# Si number density = 19.762492 Si / 1000 Ang^3
#
#
#
# Elastic Constant Matrix: (Units=GPa)
#
#
# Indices 1 2 3 4 5 6 
#
# 1 92.5811 31.3574 39.6719 0.0000 -4.4872 0.0000
# 2 31.3574 62.8381 41.9929 0.0000 -2.0961 0.0000
# 3 39.6719 41.9929 90.7072 0.0000 -2.3916 0.0000
# 4 0.0000 0.0000 0.0000 24.1767 0.0000 -8.4982
# 5 -4.4872 -2.0961 -2.3916 0.0000 37.7961 0.0000
# 6 0.0000 0.0000 0.0000 -8.4982 0.0000 39.3736
#
#
#
# Elastic Compliance Matrix: (Units=1/GPa)
#
#
# Indices 1 2 3 4 5 6 
#
# 1 0.014069 -0.004185 -0.004185 0.000000 0.001173 0.000000
# 2 -0.004185 0.024301 -0.009413 0.000000 0.000255 0.000000
# 3 -0.004185 -0.009413 0.017215 0.000000 0.000070 0.000000
# 4 0.000000 0.000000 0.000000 0.044758 0.000000 0.009660
# 5 0.001173 0.000255 0.000070 0.000000 0.026616 0.000000
# 6 0.000000 0.000000 0.000000 0.009660 0.000000 0.027483
#
#
# Mechanical properties :
#
#
# Convention : Reuss Voigt Hill
#
# Bulk Modulus (GPa) = 49.95324 52.46345 51.20835
# Shear Modulus (GPa) = 25.42200 29.14289 27.28244
#
# Velocity S-wave (km/s) = 3.59050 3.84429 3.71956
# Velocity P-wave (km/s) = 6.52078 6.80510 6.66446
#
# Compressibility (1/GPa) = 0.02001872
#
# Stress axis : x y z
#
# Youngs Moduli (GPa) = 71.07879 41.14991 58.09043
#
# Poissons Ratio (x) = 0.17221 0.24310
# Poissons Ratio (y) = 0.29746 0.54682
# Poissons Ratio (z) = 0.29746 0.38736
#
# Static dielectric constant tensor:
#      x y z
#    x 3.788170 0.000000 -0.061850 
#    y 0.000000 3.511240 0.000000 
#    z -0.061850 0.000000 3.386930 
# 
# 
# High freq. dielectric constant tensor:
#      x y z
#    x 1.780590 0.000000 -0.003950 
#    y 0.000000 1.758410 0.000000 
#    z -0.003950 0.000000 1.767820 
# 
# From -- ./inp_files/241486.got.cif
#   From: 2010.06.25/outbox.cif.g09.slc.cpg/sg12_121_cif.got.tgz:241486.got - 2010.06.28 00:19:55.
