data_PCOD8091960
_publ_section_title
;
Structure prediction by ZEFSAII (Michael W. Deem and Ramdas Pophale) SiO2 
 PCOD8091960
Probable space group: C 2/M
;
_chemical_formula_sum "Si O2"
_cell_formula_units_Z 56
_cell_length_a 27.054192
_cell_length_b 8.858200
_cell_length_c 19.803887
_cell_angle_alpha 90.000000
_cell_angle_beta 35.390311
_cell_angle_gamma 90.000000
_cell_volume 2748.631643
_symmetry_space_group_name_H-M "C 2/M"
_symmetry_group_IT_number 12
_symmetry_cell_setting 'monoclinic'
loop_
_space_group_symop_operation_xyz
x,y,z
-x,y,-z
-x,-y,-z
x,-y,z
1/2+x,1/2+y,z
1/2-x,1/2+y,-z
1/2-x,1/2-y,-z
1/2+x,1/2-y,z
loop_
_atom_site_type_symbol
_atom_site_label
_atom_site_fract_x
_atom_site_fract_y
_atom_site_fract_z
Si Si1 0.566175 0.173417 0.479011
Si Si2 0.999645 0.678130 0.177404
Si Si3 0.748692 0.324621 0.697780
Si Si4 0.651188 0.674472 0.938996
Si Si5 0.721022 0.322637 0.101488
Si Si6 0.305440 0.821874 0.379430
Si Si7 0.948559 0.327031 0.730647
O O1 0.500000 0.253297 0.500000
O O2 0.662345 0.238801 0.369301
O O3 0.533780 0.192820 0.591776
O O4 0.572541 0.000000 0.449726
O O5 0.007708 0.500000 0.157442
O O6 0.902875 0.733722 0.277607
O O7 0.032849 0.726886 0.214206
O O8 0.056507 0.762305 0.057971
O O9 0.759272 0.500000 0.665041
O O10 0.672571 0.303862 0.836249
O O11 0.728880 0.226939 0.654660
O O12 0.656083 0.500000 0.954776
O O13 0.720075 0.767212 0.903994
O O14 0.729699 0.500000 0.086131
O O15 0.623755 0.274898 0.223495
O O16 0.750000 0.250000 0.000000
O O17 0.250000 0.750000 0.500000
O O18 0.299362 0.000000 0.393708
O O19 0.917274 0.500000 0.764944
#
# Coordination Sequence:
#
# PCOD8091960 Si02
#       7
#     8   8   8   8   8   8   8
#     4   9  17  33  59  87 117 156 201 245 295 359
#     4  10  22  39  60  86 119 160 205 251 303 366
#     4  10  22  41  64  91 123 161 202 251 308 366
#     4  11  23  39  62  91 123 160 206 253 305 365
#     4  12  23  36  56  85 123 163 203 247 303 362
#     4  11  24  43  67  93 121 159 204 252 307 365
#     4  10  19  34  58  85 114 154 203 252 302 358
#
# _framework density 20.373774000000001
#
# number of rings (size 3 to 8) (size 9 to 14) (size 15 to 20)
#    0.000    1.571    1.429    3.857    0.000    7.429 
#    0.000    5.000    0.000    1.714    0.000    0.000 
#    0.000    0.000    0.000    0.000    0.000    0.000 
#
# Total GULP energy -347268.873307 kJ/mol
# GULP energy per Si atom -12402.459761 kJ/mol
# Density = 2.032740 g / cm^3
# Si number density = 20.373774 Si / 1000 Ang^3
#
#
#
# Elastic Constant Matrix: (Units=GPa)
#
#
# Indices 1 2 3 4 5 6 
#
# 1 110.4997 41.0662 64.0713 0.0019 -11.3442 -0.0024
# 2 41.0662 82.6347 48.1092 -0.0076 -5.5557 0.0013
# 3 64.0713 48.1092 151.9491 -0.0005 -13.1384 -0.0006
# 4 0.0019 -0.0076 -0.0005 30.8749 0.0007 -0.7240
# 5 -11.3442 -5.5557 -13.1384 0.0007 38.1832 0.0009
# 6 -0.0024 0.0013 -0.0006 -0.7240 0.0009 32.2814
#
#
#
# Elastic Compliance Matrix: (Units=1/GPa)
#
#
# Indices 1 2 3 4 5 6 
#
# 1 0.013107 -0.004001 -0.004095 -0.000002 0.001903 0.000001
# 2 -0.004001 0.016069 -0.003402 0.000004 -0.000021 -0.000001
# 3 -0.004095 -0.003402 0.009520 0.000000 0.001564 0.000000
# 4 -0.000002 0.000004 0.000000 0.032406 -0.000001 0.000727
# 5 0.001903 -0.000021 0.001564 -0.000001 0.027290 -0.000001
# 6 0.000001 -0.000001 0.000000 0.000727 -0.000001 0.030994
#
#
# Mechanical properties :
#
#
# Convention : Reuss Voigt Hill
#
# Bulk Modulus (GPa) = 63.70020 72.39742 68.04881
# Shear Modulus (GPa) = 31.72244 33.05703 32.38973
#
# Velocity S-wave (km/s) = 3.95019 4.03243 3.99152
# Velocity P-wave (km/s) = 7.22074 7.56918 7.39701
#
# Compressibility (1/GPa) = 0.01569854
#
# Stress axis : x y z
#
# Youngs Moduli (GPa) = 76.29645 62.23003 105.03714
#
# Poissons Ratio (x) = 0.24901 0.43015
# Poissons Ratio (y) = 0.30530 0.35738
# Poissons Ratio (z) = 0.31245 0.21173
#
# Static dielectric constant tensor:
#      x y z
#    x 3.777350 0.000000 -0.109650 
#    y 0.000000 3.420200 0.000120 
#    z -0.109650 0.000120 3.681790 
# 
# 
# High freq. dielectric constant tensor:
#      x y z
#    x 1.796170 0.000000 -0.002150 
#    y 0.000000 1.773830 0.000000 
#    z -0.002150 0.000000 1.814240 
# 
# From -- ./inp_files/329546.got.cif
#   From: 2010.06.25/outbox.cif.g09.slc.cpg/sg12_165_cif.got.tgz:329546.got - 2010.06.28 00:19:55.
