data_PCOD8091339
_publ_section_title
;
Structure prediction by ZEFSAII (Michael W. Deem and Ramdas Pophale) SiO2 
 PCOD8091339
Probable space group: C 2/M
;
_chemical_formula_sum "Si O2"
_cell_formula_units_Z 56
_cell_length_a 14.346209
_cell_length_b 8.860369
_cell_length_c 32.343898
_cell_angle_alpha 90.000000
_cell_angle_beta 47.429112
_cell_angle_gamma 90.000000
_cell_volume 3027.744535
_symmetry_space_group_name_H-M "C 2/M"
_symmetry_group_IT_number 12
_symmetry_cell_setting 'monoclinic'
loop_
_space_group_symop_operation_xyz
x,y,z
-x,y,-z
-x,-y,-z
x,-y,z
1/2+x,1/2+y,z
1/2-x,1/2+y,-z
1/2-x,1/2-y,-z
1/2+x,1/2-y,z
loop_
_atom_site_type_symbol
_atom_site_label
_atom_site_fract_x
_atom_site_fract_y
_atom_site_fract_z
Si Si1 0.773104 0.677569 0.139982
Si Si2 0.903002 0.821282 0.732412
Si Si3 0.252086 0.822970 0.935731
Si Si4 0.940384 0.677187 0.950890
Si Si5 0.162409 0.179026 0.560759
Si Si6 0.168313 0.319729 0.647048
Si Si7 0.624144 0.677025 0.351465
O O1 0.764809 0.500000 0.136224
O O2 0.701093 0.727853 0.202959
O O3 0.707875 0.756534 0.120452
O O4 0.917598 0.733513 0.099594
O O5 0.851132 0.768798 0.703109
O O6 0.032592 0.735533 0.704139
O O7 0.930415 0.000000 0.724446
O O8 0.361692 0.773558 0.934313
O O9 0.238238 0.000000 0.936429
O O10 0.117791 0.755552 0.991019
O O11 0.933970 0.500000 0.960668
O O12 0.250000 0.250000 0.500000
O O13 0.201552 0.248545 0.592892
O O14 0.018023 0.223619 0.592901
O O15 0.180214 0.000000 0.557364
O O16 0.170145 0.500000 0.643015
O O17 0.273036 0.254781 0.647816
O O18 0.639932 0.500000 0.348611
#
# Coordination Sequence:
#
# PCOD8091339 Si02
#       7
#     8   8   8   8   8   8   8
#     4  10  20  34  53  73  98 134 171 204 248 308
#     4   9  19  36  53  73 101 134 171 211 252 297
#     4  10  20  33  51  75 101 127 162 211 258 298
#     4   9  19  35  52  71  98 134 169 200 246 313
#     4  10  20  36  55  79 110 140 171 209 249 295
#     4  10  19  34  56  79 102 135 174 211 252 297
#     4   8  17  34  55  74 100 139 174 202 244 302
#
# _framework density 18.495615000000001
#
# number of rings (size 3 to 8) (size 9 to 14) (size 15 to 20)
#    0.000    2.571    0.000    2.571    0.000    5.143 
#    0.000   12.857    0.000    0.000    0.000    0.000 
#    0.000    0.000    0.000    0.000    0.000    0.000 
#
# Total GULP energy -347200.931645 kJ/mol
# GULP energy per Si atom -12400.033273 kJ/mol
# Density = 1.845352 g / cm^3
# Si number density = 18.495615 Si / 1000 Ang^3
#
#
#
# Elastic Constant Matrix: (Units=GPa)
#
#
# Indices 1 2 3 4 5 6 
#
# 1 131.1648 31.7234 65.8139 0.0000 9.4682 0.0001
# 2 31.7234 44.2765 40.2562 0.0003 4.9253 0.0003
# 3 65.8139 40.2562 153.2157 0.0000 5.9576 0.0001
# 4 0.0000 0.0003 0.0000 31.8250 0.0001 1.9567
# 5 9.4682 4.9253 5.9576 0.0001 18.0586 0.0001
# 6 0.0001 0.0003 0.0001 1.9567 0.0001 27.4564
#
#
#
# Elastic Compliance Matrix: (Units=1/GPa)
#
#
# Indices 1 2 3 4 5 6 
#
# 1 0.010526 -0.004179 -0.003295 0.000000 -0.003292 0.000000
# 2 -0.004179 0.031902 -0.006416 0.000000 -0.004393 0.000000
# 3 -0.003295 -0.006416 0.009616 0.000000 0.000305 0.000000
# 4 0.000000 0.000000 0.000000 0.031560 0.000000 -0.002249
# 5 -0.003292 -0.004393 0.000305 0.000000 0.058199 0.000000
# 6 0.000000 0.000000 0.000000 -0.002249 0.000000 0.036582
#
#
# Mechanical properties :
#
#
# Convention : Reuss Voigt Hill
#
# Bulk Modulus (GPa) = 41.21555 67.13823 54.17689
# Shear Modulus (GPa) = 23.33691 28.19225 25.76458
#
# Velocity S-wave (km/s) = 3.55597 3.90842 3.73635
# Velocity P-wave (km/s) = 6.26037 7.53300 6.92597
#
# Compressibility (1/GPa) = 0.02426269
#
# Stress axis : x y z
#
# Youngs Moduli (GPa) = 95.00364 31.34618 103.99227
#
# Poissons Ratio (x) = 0.13101 0.34269
# Poissons Ratio (y) = 0.39706 0.66720
# Poissons Ratio (z) = 0.31307 0.20111
#
# Static dielectric constant tensor:
#      x y z
#    x 3.760000 0.000000 0.097510 
#    y 0.000000 3.242620 0.000000 
#    z 0.097510 0.000000 3.520920 
# 
# 
# High freq. dielectric constant tensor:
#      x y z
#    x 1.723260 0.000000 0.005010 
#    y 0.000000 1.705210 0.000000 
#    z 0.005010 0.000000 1.719940 
# 
# From -- ./inp_files/338146.got.cif
#   From: 2010.06.25/outbox.cif.g09.slc.cpg/sg12_170_cif.got.tgz:338146.got - 2010.06.28 00:19:55.
