data_PCOD8091935
_publ_section_title
;
Structure prediction by ZEFSAII (Michael W. Deem and Ramdas Pophale) SiO2 
 PCOD8091935
Probable space group: C 2/M
;
_chemical_formula_sum "Si O2"
_cell_formula_units_Z 56
_cell_length_a 18.426551
_cell_length_b 18.237047
_cell_length_c 10.106248
_cell_angle_alpha 90.000000
_cell_angle_beta 118.833087
_cell_angle_gamma 90.000000
_cell_volume 2975.134981
_symmetry_space_group_name_H-M "C 2/M"
_symmetry_group_IT_number 12
_symmetry_cell_setting 'monoclinic'
loop_
_space_group_symop_operation_xyz
x,y,z
-x,y,-z
-x,-y,-z
x,-y,z
1/2+x,1/2+y,z
1/2-x,1/2+y,-z
1/2-x,1/2-y,-z
1/2+x,1/2-y,z
loop_
_atom_site_type_symbol
_atom_site_label
_atom_site_fract_x
_atom_site_fract_y
_atom_site_fract_z
Si Si1 0.640728 0.209961 0.315373
Si Si2 0.504343 0.315099 0.859535
Si Si3 0.318124 0.704360 0.387400
Si Si4 0.413755 0.080984 0.581634
Si Si5 0.391913 0.916708 0.270019
Si Si6 0.157884 0.734414 0.871318
Si Si7 0.939342 0.084125 0.570129
O O1 0.565672 0.253266 0.185450
O O2 0.658893 0.241578 0.475471
O O3 0.718649 0.206564 0.284697
O O4 0.616852 0.126774 0.321035
O O5 0.591472 0.274445 0.907404
O O6 0.483442 0.376054 0.732213
O O7 0.500000 0.354055 0.000000
O O8 0.359203 0.732701 0.289029
O O9 0.353347 0.623807 0.455068
O O10 0.510581 0.092847 0.649563
O O11 0.366641 0.097422 0.401043
O O12 0.392405 0.000000 0.607705
O O13 0.351382 0.854397 0.141011
O O14 0.365409 0.000000 0.203047
O O15 0.250000 0.750000 0.000000
O O16 0.000000 0.088529 0.500000
O O17 0.919805 0.000000 0.591288
#
# Coordination Sequence:
#
# PCOD8091935 Si02
#       7
#     8   8   8   8   8   8   8
#     4  10  19  34  58  84 122 145 196 247 297 348
#     4  11  23  39  61  88 121 156 198 250 295 356
#     4  10  21  35  56  88 115 153 197 252 286 346
#     4   9  16  29  57  87 111 146 187 242 302 350
#     4   9  18  33  55  87 117 144 193 244 293 352
#     4  12  22  36  59  83 119 163 204 236 297 350
#     4  10  21  40  66  89 115 158 203 244 298 355
#
# _framework density 18.822673999999999
#
# number of rings (size 3 to 8) (size 9 to 14) (size 15 to 20)
#    0.000    1.857    4.286    1.714    0.000    0.857 
#    0.000    1.429    0.000    3.429    0.000    0.000 
#    0.000    0.000    0.000    0.000    0.000    0.000 
#
# Total GULP energy -347029.777137 kJ/mol
# GULP energy per Si atom -12393.920612 kJ/mol
# Density = 1.877983 g / cm^3
# Si number density = 18.822674 Si / 1000 Ang^3
#
#
#
# Elastic Constant Matrix: (Units=GPa)
#
#
# Indices 1 2 3 4 5 6 
#
# 1 86.8263 33.9901 32.1912 0.0000 1.7172 0.0000
# 2 33.9901 131.0201 36.1499 0.0000 2.4205 0.0000
# 3 32.1912 36.1499 63.9801 0.0000 -4.4898 0.0000
# 4 0.0000 0.0000 0.0000 19.3845 0.0000 0.0707
# 5 1.7172 2.4205 -4.4898 0.0000 33.2764 0.0000
# 6 0.0000 0.0000 0.0000 0.0707 0.0000 25.4291
#
#
#
# Elastic Compliance Matrix: (Units=1/GPa)
#
#
# Indices 1 2 3 4 5 6 
#
# 1 0.014696 -0.002034 -0.006348 0.000000 -0.001467 0.000000
# 2 -0.002034 0.009385 -0.004361 0.000000 -0.001166 0.000000
# 3 -0.006348 -0.004361 0.021537 0.000000 0.003551 0.000000
# 4 0.000000 0.000000 0.000000 0.051588 0.000000 -0.000143
# 5 -0.001467 -0.001166 0.003551 0.000000 0.030691 0.000000
# 6 0.000000 0.000000 0.000000 -0.000143 0.000000 0.039325
#
#
# Mechanical properties :
#
#
# Convention : Reuss Voigt Hill
#
# Bulk Modulus (GPa) = 49.67220 54.05434 51.86327
# Shear Modulus (GPa) = 25.07282 27.58435 26.32858
#
# Velocity S-wave (km/s) = 3.65369 3.83232 3.74407
# Velocity P-wave (km/s) = 6.65178 6.95430 6.80472
#
# Compressibility (1/GPa) = 0.02013198
#
# Stress axis : x y z
#
# Youngs Moduli (GPa) = 68.04556 106.55410 46.43164
#
# Poissons Ratio (x) = 0.21673 0.29474
# Poissons Ratio (y) = 0.13840 0.20249
# Poissons Ratio (z) = 0.43195 0.46469
#
# Static dielectric constant tensor:
#      x y z
#    x 3.242240 0.000000 0.438090 
#    y 0.000000 3.606070 0.000000 
#    z 0.438090 0.000000 2.207940 
# 
# 
# High freq. dielectric constant tensor:
#      x y z
#    x 1.728540 0.000000 -0.006850 
#    y 0.000000 1.731360 0.000000 
#    z -0.006850 0.000000 1.715900 
# 
# From -- ./inp_files/75961.got.cif
#   From: 2010.06.25/outbox.cif.g09.slc.cpg/sg12_38_cif.got.tgz:75961.got - 2010.06.28 00:19:55.
