data_PCOD8091182
_publ_section_title
;
Structure prediction by ZEFSAII (Michael W. Deem and Ramdas Pophale) SiO2 
 PCOD8091182
Probable space group: C 2/M
;
_chemical_formula_sum "Si O2"
_cell_formula_units_Z 64
_cell_length_a 11.827662
_cell_length_b 18.042987
_cell_length_c 27.897260
_cell_angle_alpha 90.000000
_cell_angle_beta 35.862887
_cell_angle_gamma 90.000000
_cell_volume 3487.815454
_symmetry_space_group_name_H-M "C 2/M"
_symmetry_group_IT_number 12
_symmetry_cell_setting 'monoclinic'
loop_
_space_group_symop_operation_xyz
x,y,z
-x,y,-z
-x,-y,-z
x,-y,z
1/2+x,1/2+y,z
1/2-x,1/2+y,-z
1/2-x,1/2-y,-z
1/2+x,1/2-y,z
loop_
_atom_site_type_symbol
_atom_site_label
_atom_site_fract_x
_atom_site_fract_y
_atom_site_fract_z
Si Si1 0.861605 0.087533 0.314323
Si Si2 0.579311 0.694772 0.617325
Si Si3 0.159296 0.165005 0.484180
Si Si4 0.289004 0.210165 0.767074
Si Si5 0.955584 0.584369 0.653351
Si Si6 0.043197 0.419070 0.041121
Si Si7 0.800689 0.178571 0.840093
Si Si8 0.837107 0.806623 0.932903
O O1 0.868106 0.129567 0.363165
O O2 0.659256 0.102519 0.356587
O O3 0.024230 0.119638 0.222488
O O4 0.894931 0.000000 0.311653
O O5 0.748773 0.755979 0.561823
O O6 0.560262 0.664409 0.570262
O O7 0.369471 0.731941 0.699478
O O8 0.320997 0.101600 0.431534
O O9 0.000000 0.142652 0.500000
O O10 0.379354 0.130334 0.725383
O O11 0.359636 0.246024 0.792538
O O12 0.062405 0.200458 0.848440
O O13 0.926043 0.500000 0.678195
O O14 0.029038 0.500000 0.070630
O O15 0.887026 0.362463 0.118183
O O16 0.260223 0.387848 0.975649
O O17 0.000000 0.427565 0.000000
O O18 0.746771 0.206064 0.911542
O O19 0.750000 0.750000 0.000000
#
# Coordination Sequence:
#
# PCOD8091182 Si02
#       8
#     8   8   8   8   8   8   8   8
#     4  10  20  35  58  86 118 148 184 241 297 343
#     4   9  22  36  58  87 116 148 195 234 285 344
#     4  10  22  38  61  83 115 154 190 234 280 339
#     4  10  20  35  55  81 111 152 182 235 276 338
#     4  10  22  38  58  88 115 147 191 234 291 351
#     4   9  18  30  48  78 108 137 176 229 281 323
#     4  10  19  34  55  79 113 145 190 233 281 340
#     4  11  20  32  54  80 114 146 190 229 279 333
#
# _framework density 18.349595000000001
#
# number of rings (size 3 to 8) (size 9 to 14) (size 15 to 20)
#    0.000    2.125    2.500    0.375    5.250    2.750 
#    0.000    1.250    0.000    0.750    0.000    1.750 
#    0.000    0.000    0.000    0.000    0.000    0.000 
#
# Total GULP energy -396528.463403 kJ/mol
# GULP energy per Si atom -12391.514481 kJ/mol
# Density = 1.830783 g / cm^3
# Si number density = 18.349595 Si / 1000 Ang^3
#
#
#
# Elastic Constant Matrix: (Units=GPa)
#
#
# Indices 1 2 3 4 5 6 
#
# 1 89.9813 59.0301 55.5252 -0.0016 -1.2180 -0.0007
# 2 59.0301 124.8200 47.6253 -0.0039 6.2624 0.0015
# 3 55.5252 47.6253 122.4287 -0.0062 -5.1044 0.0028
# 4 -0.0016 -0.0039 -0.0062 24.2086 0.0015 0.1508
# 5 -1.2180 6.2624 -5.1044 0.0015 37.3632 -0.0007
# 6 -0.0007 0.0015 0.0028 0.1508 -0.0007 23.9508
#
#
#
# Elastic Compliance Matrix: (Units=1/GPa)
#
#
# Indices 1 2 3 4 5 6 
#
# 1 0.019407 -0.006908 -0.006074 -0.000001 0.000961 0.000002
# 2 -0.006908 0.012032 -0.001650 0.000001 -0.002467 -0.000001
# 3 -0.006074 -0.001650 0.011634 0.000002 0.001668 -0.000001
# 4 -0.000001 0.000001 0.000002 0.041309 -0.000002 -0.000260
# 5 0.000961 -0.002467 0.001668 -0.000002 0.027437 0.000001
# 6 0.000002 -0.000001 -0.000001 -0.000260 0.000001 0.041754
#
#
# Mechanical properties :
#
#
# Convention : Reuss Voigt Hill
#
# Bulk Modulus (GPa) = 72.42380 73.51013 72.96696
# Shear Modulus (GPa) = 26.67500 28.77448 27.72474
#
# Velocity S-wave (km/s) = 3.81689 3.96425 3.89127
# Velocity P-wave (km/s) = 7.67981 7.81675 7.74858
#
# Compressibility (1/GPa) = 0.01380762
#
# Stress axis : x y z
#
# Youngs Moduli (GPa) = 51.52855 83.11070 85.95294
#
# Poissons Ratio (x) = 0.57417 0.52208
# Poissons Ratio (y) = 0.35598 0.14184
# Poissons Ratio (z) = 0.31299 0.13715
#
# Static dielectric constant tensor:
#      x y z
#    x 3.295370 -0.000100 0.140730 
#    y -0.000100 3.642200 -0.000190 
#    z 0.140730 -0.000190 3.885600 
# 
# 
# High freq. dielectric constant tensor:
#      x y z
#    x 1.682030 0.000000 -0.002280 
#    y 0.000000 1.707880 0.000000 
#    z -0.002280 0.000000 1.727830 
# 
# From -- ./inp_files/374440.got.cif
#   From: 2010.06.25/outbox.cif.g09.slc.cpg/sg12_188_cif.got.tgz:374440.got - 2010.06.28 00:19:55.
