data_PCOD8091132
_publ_section_title
;
Structure prediction by ZEFSAII (Michael W. Deem and Ramdas Pophale) SiO2 
 PCOD8091132
Probable space group: C 2/M
;
_chemical_formula_sum "Si O2"
_cell_formula_units_Z 64
_cell_length_a 23.711742
_cell_length_b 8.689471
_cell_length_c 16.963594
_cell_angle_alpha 90.000000
_cell_angle_beta 86.013453
_cell_angle_gamma 90.000000
_cell_volume 3486.764191
_symmetry_space_group_name_H-M "C 2/M"
_symmetry_group_IT_number 12
_symmetry_cell_setting 'monoclinic'
loop_
_space_group_symop_operation_xyz
x,y,z
-x,y,-z
-x,-y,-z
x,-y,z
1/2+x,1/2+y,z
1/2-x,1/2+y,-z
1/2-x,1/2-y,-z
1/2+x,1/2-y,z
loop_
_atom_site_type_symbol
_atom_site_label
_atom_site_fract_x
_atom_site_fract_y
_atom_site_fract_z
Si Si1 0.639034 0.322622 0.277576
Si Si2 0.042793 0.177838 0.161339
Si Si3 0.049859 0.182096 0.602376
Si Si4 0.574034 0.681584 0.429243
Si Si5 0.623580 0.818529 0.035802
Si Si6 0.283840 0.819084 0.850293
Si Si7 0.070680 0.319310 0.763814
Si Si8 0.656114 0.317832 0.871170
O O1 0.656367 0.500000 0.277556
O O2 0.582781 0.294569 0.232209
O O3 0.624422 0.258964 0.367064
O O4 0.692365 0.232798 0.236939
O O5 0.065251 0.276684 0.085252
O O6 0.980581 0.231877 0.189419
O O7 0.041028 0.000000 0.136758
O O8 0.085441 0.224170 0.519507
O O9 0.077146 0.272993 0.671977
O O10 0.986340 0.244538 0.594873
O O11 0.051381 0.000000 0.619714
O O12 0.569433 0.500000 0.420817
O O13 0.676063 0.756071 0.083577
O O14 0.626806 0.000000 0.020324
O O15 0.624181 0.729078 0.953771
O O16 0.220664 0.757232 0.869133
O O17 0.284918 0.000000 0.852291
O O18 0.061334 0.500000 0.772904
O O19 0.128141 0.267702 0.800289
O O20 0.652781 0.500000 0.859130
#
# Coordination Sequence:
#
# PCOD8091132 Si02
#       8
#     8   8   8   8   8   8   8   8
#     4   9  16  29  53  82 108 135 171 212 256 306
#     4  10  19  34  55  78 106 142 178 207 252 316
#     4   9  16  31  53  76 107 142 175 209 250 310
#     4   8  14  27  52  82 107 136 174 211 249 304
#     4  10  20  36  57  83 110 130 162 219 275 309
#     4   9  20  36  55  79 106 135 170 217 266 308
#     4  12  24  36  51  75 109 142 175 219 266 307
#     4  11  23  39  56  74  99 140 186 215 252 315
#
# _framework density 18.355127
#
# number of rings (size 3 to 8) (size 9 to 14) (size 15 to 20)
#    0.000    2.250    1.250    3.375    0.000    2.500 
#    0.000    4.375    0.000    0.750    0.000    0.000 
#    0.000    0.000    0.000    0.000    0.000    0.000 
#
# Total GULP energy -396773.867720 kJ/mol
# GULP energy per Si atom -12399.183366 kJ/mol
# Density = 1.831335 g / cm^3
# Si number density = 18.355127 Si / 1000 Ang^3
#
#
#
# Elastic Constant Matrix: (Units=GPa)
#
#
# Indices 1 2 3 4 5 6 
#
# 1 39.9450 17.4755 30.5311 0.0000 2.7071 0.0000
# 2 17.4755 40.3059 18.3333 0.0000 3.0465 0.0000
# 3 30.5311 18.3333 126.3543 0.0000 -4.7045 0.0000
# 4 0.0000 0.0000 0.0000 26.7009 0.0000 -3.9923
# 5 2.7071 3.0465 -4.7045 0.0000 22.8751 0.0000
# 6 0.0000 0.0000 0.0000 -3.9923 0.0000 23.0837
#
#
#
# Elastic Compliance Matrix: (Units=1/GPa)
#
#
# Indices 1 2 3 4 5 6 
#
# 1 0.036029 -0.012078 -0.007107 0.000000 -0.004117 0.000000
# 2 -0.012078 0.031051 -0.001701 0.000000 -0.003056 0.000000
# 3 -0.007107 -0.001701 0.009994 0.000000 0.003123 0.000000
# 4 0.000000 0.000000 0.000000 0.038446 0.000000 0.006649
# 5 -0.004117 -0.003056 0.003123 0.000000 0.045252 0.000000
# 6 0.000000 0.000000 0.000000 0.006649 0.000000 0.044471
#
#
# Mechanical properties :
#
#
# Convention : Reuss Voigt Hill
#
# Bulk Modulus (GPa) = 28.32470 37.69832 33.01151
# Shear Modulus (GPa) = 19.32127 23.88296 21.60212
#
# Velocity S-wave (km/s) = 3.24796 3.61107 3.43432
# Velocity P-wave (km/s) = 5.43421 6.16193 5.80947
#
# Compressibility (1/GPa) = 0.03530487
#
# Stress axis : x y z
#
# Youngs Moduli (GPa) = 27.75536 32.20466 100.05504
#
# Poissons Ratio (x) = 0.38895 0.71105
# Poissons Ratio (y) = 0.33522 0.17018
# Poissons Ratio (z) = 0.19725 0.05478
#
# Static dielectric constant tensor:
#      x y z
#    x 3.337570 0.000000 -0.166060 
#    y 0.000000 3.196780 0.000000 
#    z -0.166060 0.000000 3.618520 
# 
# 
# High freq. dielectric constant tensor:
#      x y z
#    x 1.686060 0.000000 -0.016070 
#    y 0.000000 1.699380 0.000000 
#    z -0.016070 0.000000 1.718130 
# 
# From -- ./inp_files/281406.got.cif
#   From: 2010.06.25/outbox.cif.g09.slc.cpg/sg12_141_cif.got.tgz:281406.got - 2010.06.28 00:19:55.
