data_PCOD8091477
_publ_section_title
;
Structure prediction by ZEFSAII (Michael W. Deem and Ramdas Pophale) SiO2 
 PCOD8091477
Probable space group: C 2/M
;
_chemical_formula_sum "Si O2"
_cell_formula_units_Z 48
_cell_length_a 31.203206
_cell_length_b 8.497555
_cell_length_c 9.011121
_cell_angle_alpha 90.000000
_cell_angle_beta 89.896445
_cell_angle_gamma 90.000000
_cell_volume 2389.303474
_symmetry_space_group_name_H-M "C 2/M"
_symmetry_group_IT_number 12
_symmetry_cell_setting 'monoclinic'
loop_
_space_group_symop_operation_xyz
x,y,z
-x,y,-z
-x,-y,-z
x,-y,z
1/2+x,1/2+y,z
1/2-x,1/2+y,-z
1/2-x,1/2-y,-z
1/2+x,1/2-y,z
loop_
_atom_site_type_symbol
_atom_site_label
_atom_site_fract_x
_atom_site_fract_y
_atom_site_fract_z
Si Si1 0.290955 0.685680 0.416691
Si Si2 0.290090 0.184497 0.088537
Si Si3 0.542184 0.687861 0.581900
Si Si4 0.958243 0.813051 0.083463
Si Si5 0.128430 0.186598 0.076447
Si Si6 0.874234 0.813130 0.584135
O O1 0.290535 0.500000 0.427287
O O2 0.250000 0.750000 0.500000
O O3 0.291541 0.735123 0.247342
O O4 0.332979 0.754049 0.498281
O O5 0.333307 0.222228 0.001660
O O6 0.284451 0.000000 0.109701
O O7 0.250000 0.250000 0.000000
O O8 0.500000 0.751935 0.500000
O O9 0.542551 0.500000 0.582244
O O10 0.542855 0.753433 0.749439
O O11 0.583404 0.755123 0.495060
O O12 0.915708 0.758485 0.998541
O O13 0.960868 0.000000 0.085862
O O14 0.000000 0.743985 0.000000
O O15 0.135742 0.000000 0.060880
O O16 0.127067 0.242700 0.246258
O O17 0.875245 0.000000 0.576799
#
# Coordination Sequence:
#
# PCOD8091477 Si02
#       6
#     8   8   8   8   8   8
#     4  11  22  38  59  84 115 149 187 231 282 339
#     4  12  25  41  60  83 111 145 188 236 291 350
#     4   9  15  24  40  67 106 146 182 222 270 323
#     4   9  16  26  45  76 112 149 188 231 279 333
#     4  10  19  34  56  82 113 147 187 234 284 339
#     4   9  18  31  50  77 108 143 180 223 275 329
#
# _framework density 20.089535999999999
#
# number of rings (size 3 to 8) (size 9 to 14) (size 15 to 20)
#    0.000    2.000    0.000    5.000    0.000    8.000 
#    0.000    0.833    0.000    0.500    0.000    0.000 
#    0.000    8.000    0.000    0.000    0.000    0.000 
#
# Total GULP energy -297652.539058 kJ/mol
# GULP energy per Si atom -12402.189127 kJ/mol
# Density = 2.004381 g / cm^3
# Si number density = 20.089536 Si / 1000 Ang^3
#
#
#
# Elastic Constant Matrix: (Units=GPa)
#
#
# Indices 1 2 3 4 5 6 
#
# 1 205.3828 17.1827 101.7653 0.0000 3.7397 0.0000
# 2 17.1827 29.1559 5.6269 0.0000 2.9761 0.0000
# 3 101.7653 5.6269 195.1711 0.0000 6.3541 0.0000
# 4 0.0000 0.0000 0.0000 19.9409 0.0000 -3.7393
# 5 3.7397 2.9761 6.3541 0.0000 50.7608 0.0000
# 6 0.0000 0.0000 0.0000 -3.7393 0.0000 22.1216
#
#
#
# Elastic Compliance Matrix: (Units=1/GPa)
#
#
# Indices 1 2 3 4 5 6 
#
# 1 0.006882 -0.003395 -0.003495 0.000000 0.000129 0.000000
# 2 -0.003395 0.036349 0.000787 0.000000 -0.001980 0.000000
# 3 -0.003495 0.000787 0.006945 0.000000 -0.000658 0.000000
# 4 0.000000 0.000000 0.000000 0.051790 0.000000 0.008754
# 5 0.000129 -0.001980 -0.000658 0.000000 0.019889 0.000000
# 6 0.000000 0.000000 0.000000 0.008754 0.000000 0.046684
#
#
# Mechanical properties :
#
#
# Convention : Reuss Voigt Hill
#
# Bulk Modulus (GPa) = 26.33644 75.42885 50.88264
# Shear Modulus (GPa) = 25.85281 38.90698 32.37990
#
# Velocity S-wave (km/s) = 3.59120 4.40555 4.01905
# Velocity P-wave (km/s) = 5.50760 7.96908 6.84981
#
# Compressibility (1/GPa) = 0.03797021
#
# Stress axis : x y z
#
# Youngs Moduli (GPa) = 145.30050 27.51083 143.99393
#
# Poissons Ratio (x) = 0.09339 0.50324
# Poissons Ratio (y) = 0.49326 -0.11326
# Poissons Ratio (z) = 0.50781 -0.02164
#
# Static dielectric constant tensor:
#      x y z
#    x 4.038890 0.000000 -0.058530 
#    y 0.000000 3.096640 0.000000 
#    z -0.058530 0.000000 4.032510 
# 
# 
# High freq. dielectric constant tensor:
#      x y z
#    x 1.807130 0.000000 0.000470 
#    y 0.000000 1.729300 0.000000 
#    z 0.000470 0.000000 1.806860 
# 
# From -- ./inp_files/108623.got.cif
#   From: 2010.06.25/outbox.cif.g09.slc.cpg/sg12_55_cif.got.tgz:108623.got - 2010.06.28 00:19:55.
