data_PCOD8091768
_publ_section_title
;
Structure prediction by ZEFSAII (Michael W. Deem and Ramdas Pophale) SiO2 
 PCOD8091768
Probable space group: C 2/M
;
_chemical_formula_sum "Si O2"
_cell_formula_units_Z 56
_cell_length_a 26.888288
_cell_length_b 8.792913
_cell_length_c 13.459578
_cell_angle_alpha 90.000000
_cell_angle_beta 63.501504
_cell_angle_gamma 90.000000
_cell_volume 2847.896737
_symmetry_space_group_name_H-M "C 2/M"
_symmetry_group_IT_number 12
_symmetry_cell_setting 'monoclinic'
loop_
_space_group_symop_operation_xyz
x,y,z
-x,y,-z
-x,-y,-z
x,-y,z
1/2+x,1/2+y,z
1/2-x,1/2+y,-z
1/2-x,1/2-y,-z
1/2+x,1/2-y,z
loop_
_atom_site_type_symbol
_atom_site_label
_atom_site_fract_x
_atom_site_fract_y
_atom_site_fract_z
Si Si1 0.166574 0.675280 0.104052
Si Si2 0.558430 0.825329 0.325498
Si Si3 0.945598 0.320252 0.327496
Si Si4 0.881301 0.822285 0.550636
Si Si5 0.774969 0.179389 0.765934
Si Si6 0.835069 0.178775 0.105605
Si Si7 0.057457 0.320885 0.895885
O O1 0.180384 0.500000 0.066867
O O2 0.104381 0.692660 0.199818
O O3 0.210318 0.737167 0.144608
O O4 0.171705 0.776931 0.002637
O O5 0.501637 0.760467 0.330100
O O6 0.573111 0.729617 0.409716
O O7 0.552550 0.000000 0.364552
O O8 0.944182 0.500000 0.329748
O O9 0.892618 0.256706 0.434736
O O10 0.944155 0.262055 0.215881
O O11 0.819584 0.775307 0.641583
O O12 0.886680 0.000000 0.531027
O O13 0.714278 0.239404 0.787490
O O14 0.774892 0.000000 0.783850
O O15 0.894074 0.233484 0.091693
O O16 0.829594 0.000000 0.124206
O O17 0.068921 0.500000 0.892999
O O18 0.000000 0.277576 0.000000
#
# Coordination Sequence:
#
# PCOD8091768 Si02
#       7
#     8   8   8   8   8   8   8
#     4  10  19  34  57  84 115 149 185 227 276 330
#     4   9  18  33  55  83 113 147 185 222 266 326
#     4  10  20  35  57  82 109 145 186 226 270 324
#     4  10  21  35  54  82 114 146 181 226 276 325
#     4  10  21  38  57  80 112 148 187 229 275 328
#     4  12  24  37  56  83 113 146 185 229 279 330
#     4  10  22  42  64  84 109 144 186 227 270 324
#
# _framework density 19.663633000000001
#
# number of rings (size 3 to 8) (size 9 to 14) (size 15 to 20)
#    0.000    1.857    0.000    4.286    0.000    7.714 
#    0.000    2.143    0.000    0.000    0.000    0.000 
#    0.000    0.000    0.000    0.000    0.000    0.000 
#
# Total GULP energy -347301.168727 kJ/mol
# GULP energy per Si atom -12403.613169 kJ/mol
# Density = 1.961888 g / cm^3
# Si number density = 19.663633 Si / 1000 Ang^3
#
#
#
# Elastic Constant Matrix: (Units=GPa)
#
#
# Indices 1 2 3 4 5 6 
#
# 1 97.0077 31.0301 47.7145 0.0000 -20.2818 0.0000
# 2 31.0301 42.7553 26.8211 0.0000 -8.6021 0.0000
# 3 47.7145 26.8211 129.7346 0.0000 -10.8108 0.0000
# 4 0.0000 0.0000 0.0000 30.2182 0.0000 -4.0414
# 5 -20.2818 -8.6021 -10.8108 0.0000 15.4749 0.0000
# 6 0.0000 0.0000 0.0000 -4.0414 0.0000 27.1048
#
#
#
# Elastic Compliance Matrix: (Units=1/GPa)
#
#
# Indices 1 2 3 4 5 6 
#
# 1 0.018022 -0.007350 -0.003696 0.000000 0.016952 0.000000
# 2 -0.007350 0.032043 -0.003440 0.000000 0.005775 0.000000
# 3 -0.003696 -0.003440 0.009785 0.000000 0.000080 0.000000
# 4 0.000000 0.000000 0.000000 0.033766 0.000000 0.005035
# 5 0.016952 0.005775 0.000080 0.000000 0.090104 0.000000
# 6 0.000000 0.000000 0.000000 0.005035 0.000000 0.037645
#
#
# Mechanical properties :
#
#
# Convention : Reuss Voigt Hill
#
# Bulk Modulus (GPa) = 32.38577 53.40325 42.89451
# Shear Modulus (GPa) = 19.18427 25.48836 22.33632
#
# Velocity S-wave (km/s) = 3.12688 3.60421 3.37400
# Velocity P-wave (km/s) = 5.43527 6.67366 6.08605
#
# Compressibility (1/GPa) = 0.03087776
#
# Stress axis : x y z
#
# Youngs Moduli (GPa) = 55.48858 31.20767 102.19534
#
# Poissons Ratio (x) = 0.22939 0.37771
# Poissons Ratio (y) = 0.40786 0.35155
# Poissons Ratio (z) = 0.20508 0.10735
#
# Static dielectric constant tensor:
#      x y z
#    x 3.682720 0.000000 -0.208900 
#    y 0.000000 3.505100 0.000000 
#    z -0.208900 0.000000 3.738010 
# 
# 
# High freq. dielectric constant tensor:
#      x y z
#    x 1.761860 0.000000 -0.020080 
#    y 0.000000 1.763100 0.000000 
#    z -0.020080 0.000000 1.771000 
# 
# From -- ./inp_files/180660.got.cif
#   From: 2010.06.25/outbox.cif.g09.slc.cpg/sg12_91_cif.got.tgz:180660.got - 2010.06.28 00:19:55.
