data_PCOD8091471
_publ_section_title
;
Structure prediction by ZEFSAII (Michael W. Deem and Ramdas Pophale) SiO2 
 PCOD8091471
Probable space group: C 2/M
;
_chemical_formula_sum "Si O2"
_cell_formula_units_Z 32
_cell_length_a 21.846618
_cell_length_b 10.499108
_cell_length_c 6.688268
_cell_angle_alpha 90.000000
_cell_angle_beta 98.961449
_cell_angle_gamma 90.000000
_cell_volume 1515.362002
_symmetry_space_group_name_H-M "C 2/M"
_symmetry_group_IT_number 12
_symmetry_cell_setting 'monoclinic'
loop_
_space_group_symop_operation_xyz
x,y,z
-x,y,-z
-x,-y,-z
x,-y,z
1/2+x,1/2+y,z
1/2-x,1/2+y,-z
1/2-x,1/2-y,-z
1/2+x,1/2-y,z
loop_
_atom_site_type_symbol
_atom_site_label
_atom_site_fract_x
_atom_site_fract_y
_atom_site_fract_z
Si Si1 0.653874 0.723932 0.360268
Si Si2 0.617351 0.353219 0.932782
Si Si3 0.769991 0.137036 0.257304
Si Si4 0.068180 0.355121 0.618647
O O1 0.713552 0.772387 0.271637
O O2 0.680430 0.624830 0.534538
O O3 0.616441 0.832187 0.461973
O O4 0.609964 0.660510 0.169366
O O5 0.600172 0.500000 0.864426
O O6 0.688974 0.320470 0.912529
O O7 0.574586 0.248971 0.799453
O O8 0.740490 0.000000 0.201479
O O9 0.078892 0.500000 0.703953
O O10 0.000000 0.338540 0.500000
#
# Coordination Sequence:
#
# PCOD8091471 Si02
#       4
#     8   8   8   8
#     4  10  19  34  56  82 112 149 185 223 275 330
#     4  10  21  37  59  86 114 145 183 229 280 335
#     4   9  18  32  52  82 116 146 179 222 273 331
#     4  10  23  41  58  80 111 147 190 236 277 324
#
# _framework density 21.117065
#
# number of rings (size 3 to 8) (size 9 to 14) (size 15 to 20)
#    0.000    2.250    0.000    2.250    0.000    4.500 
#    0.000   10.000    0.000    0.000    0.000    0.000 
#    0.000    0.000    0.000    0.000    0.000    0.000 
#
# Total GULP energy -198213.903032 kJ/mol
# GULP energy per Si atom -12388.368939 kJ/mol
# Density = 2.106900 g / cm^3
# Si number density = 21.117065 Si / 1000 Ang^3
#
#
#
# Elastic Constant Matrix: (Units=GPa)
#
#
# Indices 1 2 3 4 5 6 
#
# 1 50.5032 24.4735 12.9731 0.0000 10.5345 0.0000
# 2 24.4735 105.4231 37.5336 0.0000 8.6015 0.0000
# 3 12.9731 37.5336 115.6691 0.0000 -3.0316 0.0000
# 4 0.0000 0.0000 0.0000 14.2069 0.0000 -16.7804
# 5 10.5345 8.6015 -3.0316 0.0000 17.3440 0.0000
# 6 0.0000 0.0000 0.0000 -16.7804 0.0000 -4.2882
#
#
#
# Elastic Compliance Matrix: (Units=1/GPa)
#
#
# Indices 1 2 3 4 5 6 
#
# 1 0.025065 -0.004056 -0.001850 0.000000 -0.013536 0.000000
# 2 -0.004056 0.012030 -0.003557 0.000000 -0.004124 0.000000
# 3 -0.001850 -0.003557 0.010129 0.000000 0.004658 0.000000
# 4 0.000000 0.000000 0.000000 0.012520 0.000000 -0.048993
# 5 -0.013536 -0.004124 0.004658 0.000000 0.068738 0.000000
# 6 0.000000 0.000000 0.000000 -0.048993 0.000000 -0.041480
#
#
# Mechanical properties :
#
#
# Convention : Reuss Voigt Hill
#
# Bulk Modulus (GPa) = 35.33701 46.83952 41.08827
# Shear Modulus (GPa) = 43.34253 18.56021 30.95137
#
# Velocity S-wave (km/s) = 4.53535 2.96787 3.83260
# Velocity P-wave (km/s) = 6.64802 5.82867 6.25178
#
# Compressibility (1/GPa) = 0.02829894
#
# Stress axis : x y z
#
# Youngs Moduli (GPa) = 39.89670 83.12596 98.72567
#
# Poissons Ratio (x) = 0.33713 0.18263
# Poissons Ratio (y) = 0.16181 0.35115
# Poissons Ratio (z) = 0.07381 0.29567
#
# Static dielectric constant tensor:
#      x y z
#    x 3.614270 0.000000 -0.125990 
#    y 0.000000 3.663860 0.000000 
#    z -0.125990 0.000000 3.902810 
# 
# 
# High freq. dielectric constant tensor:
#      x y z
#    x 1.809890 0.000000 -0.009780 
#    y 0.000000 1.823220 0.000000 
#    z -0.009780 0.000000 1.831050 
# 
# From -- ./inp_files/19172.got.cif
#   From: 2010.06.25/outbox.cif.g09.slc.cpg/sg12_10_cif.got.tgz:19172.got - 2010.06.28 00:19:55.
