data_PCOD8091626
_publ_section_title
;
Structure prediction by ZEFSAII (Michael W. Deem and Ramdas Pophale) SiO2 
 PCOD8091626
Probable space group: C 2/M
;
_chemical_formula_sum "Si O2"
_cell_formula_units_Z 64
_cell_length_a 29.830852
_cell_length_b 8.829333
_cell_length_c 15.047004
_cell_angle_alpha 90.000000
_cell_angle_beta 59.083280
_cell_angle_gamma 90.000000
_cell_volume 3400.069980
_symmetry_space_group_name_H-M "C 2/M"
_symmetry_group_IT_number 12
_symmetry_cell_setting 'monoclinic'
loop_
_space_group_symop_operation_xyz
x,y,z
-x,y,-z
-x,-y,-z
x,-y,z
1/2+x,1/2+y,z
1/2-x,1/2+y,-z
1/2-x,1/2-y,-z
1/2+x,1/2-y,z
loop_
_atom_site_type_symbol
_atom_site_label
_atom_site_fract_x
_atom_site_fract_y
_atom_site_fract_z
Si Si1 0.112568 0.173200 0.502701
Si Si2 0.468063 0.319143 0.273889
Si Si3 0.729133 0.325823 0.433696
Si Si4 0.914196 0.179509 0.828226
Si Si5 0.250935 0.676111 0.229569
Si Si6 0.647342 0.681131 0.279615
Si Si7 0.132359 0.823418 0.939596
Si Si8 0.448623 0.178896 0.105467
O O1 0.067474 0.247708 0.609469
O O2 0.166904 0.191462 0.498668
O O3 0.117823 0.244129 0.398307
O O4 0.096926 0.000000 0.505627
O O5 0.464735 0.500000 0.271318
O O6 0.526526 0.261319 0.233524
O O7 0.447270 0.253767 0.203096
O O8 0.746250 0.500000 0.412437
O O9 0.750000 0.250000 0.500000
O O10 0.754536 0.242467 0.324417
O O11 0.883539 0.244512 0.774127
O O12 0.912747 0.000000 0.825426
O O13 0.886708 0.237975 0.945603
O O14 0.237657 0.500000 0.249233
O O15 0.206402 0.757384 0.216669
O O16 0.306012 0.706424 0.126252
O O17 0.650691 0.500000 0.278922
O O18 0.103183 0.730629 0.892966
O O19 0.118795 0.000000 0.940776
O O20 0.448408 0.000000 0.116747
O O21 0.500000 0.234551 0.000000
#
# Coordination Sequence:
#
# PCOD8091626 Si02
#       8
#     8   8   8   8   8   8   8   8
#     4   8  17  32  52  79 107 137 175 220 264 312
#     4  10  19  34  57  81 107 143 183 218 264 328
#     4  10  20  35  53  77 110 143 180 226 274 325
#     4   9  18  33  57  83 105 139 184 226 271 323
#     4  10  21  36  54  78 108 143 185 228 269 321
#     4   9  18  36  57  79 111 142 176 228 278 323
#     4  10  21  37  56  80 109 143 186 227 265 323
#     4  11  23  37  53  78 112 144 177 224 276 326
#
# _framework density 18.823143000000002
#
# number of rings (size 3 to 8) (size 9 to 14) (size 15 to 20)
#    0.000    2.375    1.250    1.875    1.750    2.500 
#    0.000    6.250    0.000    0.000    0.000    4.375 
#    0.000    0.000    0.000    0.000    0.000    0.000 
#
# Total GULP energy -396799.756420 kJ/mol
# GULP energy per Si atom -12399.992388 kJ/mol
# Density = 1.878030 g / cm^3
# Si number density = 18.823143 Si / 1000 Ang^3
#
#
#
# Elastic Constant Matrix: (Units=GPa)
#
#
# Indices 1 2 3 4 5 6 
#
# 1 132.6084 33.3068 83.4848 0.0000 18.9009 0.0000
# 2 33.3068 43.9222 34.4048 0.0000 -1.1867 0.0000
# 3 83.4848 34.4048 127.1878 0.0000 -6.9990 0.0000
# 4 0.0000 0.0000 0.0000 19.7325 0.0000 -2.9405
# 5 18.9009 -1.1867 -6.9990 0.0000 36.6651 0.0000
# 6 0.0000 0.0000 0.0000 -2.9405 0.0000 23.6294
#
#
#
# Elastic Compliance Matrix: (Units=1/GPa)
#
#
# Indices 1 2 3 4 5 6 
#
# 1 0.016793 -0.004982 -0.010268 0.000000 -0.010778 0.000000
# 2 -0.004982 0.030378 -0.004802 0.000000 0.002635 0.000000
# 3 -0.010268 -0.004802 0.016356 0.000000 0.008260 0.000000
# 4 0.000000 0.000000 0.000000 0.051635 0.000000 0.006426
# 5 -0.010778 0.002635 0.008260 0.000000 0.034492 0.000000
# 6 0.000000 0.000000 0.000000 0.006426 0.000000 0.043120
#
#
# Mechanical properties :
#
#
# Convention : Reuss Voigt Hill
#
# Bulk Modulus (GPa) = 42.69482 67.34568 55.02025
# Shear Modulus (GPa) = 20.77384 26.17352 23.47368
#
# Velocity S-wave (km/s) = 3.32570 3.73298 3.53521
# Velocity P-wave (km/s) = 6.12196 7.37808 6.77917
#
# Compressibility (1/GPa) = 0.02342205
#
# Stress axis : x y z
#
# Youngs Moduli (GPa) = 59.54843 32.91803 61.14036
#
# Poissons Ratio (x) = 0.16401 0.62780
# Poissons Ratio (y) = 0.29670 0.29360
# Poissons Ratio (z) = 0.61145 0.15808
#
# Static dielectric constant tensor:
#      x y z
#    x 3.505740 0.000000 -0.001490 
#    y 0.000000 3.208740 0.000000 
#    z -0.001490 0.000000 3.766030 
# 
# 
# High freq. dielectric constant tensor:
#      x y z
#    x 1.735350 0.000000 -0.000070 
#    y 0.000000 1.703600 0.000000 
#    z -0.000070 0.000000 1.741430 
# 
# From -- ./inp_files/248968.got.cif
#   From: 2010.06.25/outbox.cif.g09.slc.cpg/sg12_125_cif.got.tgz:248968.got - 2010.06.28 00:19:55.
