data_PCOD8091216
_publ_section_title
;
Structure prediction by ZEFSAII (Michael W. Deem and Ramdas Pophale) SiO2 
 PCOD8091216
Probable space group: C 2/M
;
_chemical_formula_sum "Si O2"
_cell_formula_units_Z 56
_cell_length_a 29.709597
_cell_length_b 8.907474
_cell_length_c 12.414275
_cell_angle_alpha 90.000000
_cell_angle_beta 106.275144
_cell_angle_gamma 90.000000
_cell_volume 3153.630993
_symmetry_space_group_name_H-M "C 2/M"
_symmetry_group_IT_number 12
_symmetry_cell_setting 'monoclinic'
loop_
_space_group_symop_operation_xyz
x,y,z
-x,y,-z
-x,-y,-z
x,-y,z
1/2+x,1/2+y,z
1/2-x,1/2+y,-z
1/2-x,1/2-y,-z
1/2+x,1/2-y,z
loop_
_atom_site_type_symbol
_atom_site_label
_atom_site_fract_x
_atom_site_fract_y
_atom_site_fract_z
Si Si1 0.300368 0.174525 0.407966
Si Si2 0.443613 0.173564 0.624092
Si Si3 0.451244 0.675045 0.024118
Si Si4 0.106447 0.325845 0.191795
Si Si5 0.706145 0.828059 0.349155
Si Si6 0.449945 0.174074 0.252254
Si Si7 0.891551 0.177107 0.393540
O O1 0.308210 0.213903 0.538653
O O2 0.248598 0.225168 0.336126
O O3 0.338634 0.263755 0.365497
O O4 0.306609 0.000000 0.388351
O O5 0.421270 0.229043 0.720969
O O6 0.498942 0.200286 0.663080
O O7 0.422989 0.268850 0.513562
O O8 0.430371 0.000000 0.595133
O O9 0.446828 0.500000 0.047878
O O10 0.447999 0.769634 0.129730
O O11 0.500000 0.714755 0.000000
O O12 0.409001 0.724690 0.918438
O O13 0.094864 0.500000 0.161353
O O14 0.161779 0.299362 0.243311
O O15 0.722873 0.000000 0.356243
O O16 0.412449 0.265017 0.295843
O O17 0.436499 0.000000 0.245449
O O18 0.890953 0.000000 0.392158
#
# Coordination Sequence:
#
# PCOD8091216 Si02
#       7
#     8   8   8   8   8   8   8
#     4  10  19  34  55  80 112 146 184 224 272 333
#     4  10  20  36  56  81 111 148 189 226 269 329
#     4  11  23  37  55  82 114 145 185 235 279 320
#     4  10  19  35  58  82 112 148 187 227 272 327
#     4   9  18  33  54  82 112 142 181 229 276 323
#     4  11  23  39  59  78 107 151 195 230 271 329
#     4  12  24  36  54  81 116 150 184 228 281 332
#
# _framework density 17.757307999999998
#
# number of rings (size 3 to 8) (size 9 to 14) (size 15 to 20)
#    0.000    1.571    2.857    3.000    0.000    5.143 
#    0.000    0.000    0.000    0.857    0.000    0.000 
#    0.000    0.000    0.000    0.000    0.000    0.000 
#
# Total GULP energy -347358.390278 kJ/mol
# GULP energy per Si atom -12405.656796 kJ/mol
# Density = 1.771689 g / cm^3
# Si number density = 17.757308 Si / 1000 Ang^3
#
#
#
# Elastic Constant Matrix: (Units=GPa)
#
#
# Indices 1 2 3 4 5 6 
#
# 1 104.2491 59.3193 40.7250 0.0000 -3.7741 0.0000
# 2 59.3193 95.8506 42.5344 0.0000 -3.2703 0.0000
# 3 40.7250 42.5344 64.0739 0.0000 -0.0680 0.0000
# 4 0.0000 0.0000 0.0000 26.4901 0.0000 -0.0075
# 5 -3.7741 -3.2703 -0.0680 0.0000 25.2466 0.0000
# 6 0.0000 0.0000 0.0000 -0.0075 0.0000 31.2378
#
#
#
# Elastic Compliance Matrix: (Units=1/GPa)
#
#
# Indices 1 2 3 4 5 6 
#
# 1 0.015934 -0.007542 -0.005120 0.000000 0.001391 0.000000
# 2 -0.007542 0.018450 -0.007453 0.000000 0.001242 0.000000
# 3 -0.005120 -0.007453 0.023807 0.000000 -0.001667 0.000000
# 4 0.000000 0.000000 0.000000 0.037750 0.000000 0.000009
# 5 0.001391 0.001242 -0.001667 0.000000 0.039974 0.000000
# 6 0.000000 0.000000 0.000000 0.000009 0.000000 0.032013
#
#
# Mechanical properties :
#
#
# Convention : Reuss Voigt Hill
#
# Bulk Modulus (GPa) = 55.67269 61.03679 58.35474
# Shear Modulus (GPa) = 23.34885 24.70122 24.02504
#
# Velocity S-wave (km/s) = 3.63007 3.73372 3.68226
# Velocity P-wave (km/s) = 6.99928 7.28251 7.14230
#
# Compressibility (1/GPa) = 0.01796213
#
# Stress axis : x y z
#
# Youngs Moduli (GPa) = 62.75792 54.20049 42.00503
#
# Poissons Ratio (x) = 0.40878 0.21505
# Poissons Ratio (y) = 0.47331 0.31306
# Poissons Ratio (z) = 0.32130 0.40395
#
# Static dielectric constant tensor:
#      x y z
#    x 3.345530 0.000000 0.038140 
#    y 0.000000 3.318780 0.000000 
#    z 0.038140 0.000000 3.135030 
# 
# 
# High freq. dielectric constant tensor:
#      x y z
#    x 1.689560 0.000000 0.005860 
#    y 0.000000 1.693080 0.000000 
#    z 0.005860 0.000000 1.669640 
# 
# From -- ./inp_files/186805.got.cif
#   From: 2010.06.25/outbox.cif.g09.slc.cpg/sg12_94_cif.got.tgz:186805.got - 2010.06.28 00:19:55.
