data_PCOD8091029
_publ_section_title
;
Structure prediction by ZEFSAII (Michael W. Deem and Ramdas Pophale) SiO2 
 PCOD8091029
Probable space group: C 2/M
;
_chemical_formula_sum "Si O2"
_cell_formula_units_Z 64
_cell_length_a 24.959528
_cell_length_b 9.311702
_cell_length_c 19.038676
_cell_angle_alpha 90.000000
_cell_angle_beta 51.177902
_cell_angle_gamma 90.000000
_cell_volume 3447.412777
_symmetry_space_group_name_H-M "C 2/M"
_symmetry_group_IT_number 12
_symmetry_cell_setting 'monoclinic'
loop_
_space_group_symop_operation_xyz
x,y,z
-x,y,-z
-x,-y,-z
x,-y,z
1/2+x,1/2+y,z
1/2-x,1/2+y,-z
1/2-x,1/2-y,-z
1/2+x,1/2-y,z
loop_
_atom_site_type_symbol
_atom_site_label
_atom_site_fract_x
_atom_site_fract_y
_atom_site_fract_z
Si Si1 0.806961 0.334737 0.198299
Si Si2 0.386439 0.165089 0.270880
Si Si3 0.072425 0.163425 0.972164
Si Si4 0.584454 0.338722 0.509934
Si Si5 0.318704 0.661909 0.444019
Si Si6 0.041897 0.169794 0.298628
Si Si7 0.652735 0.329621 0.315693
Si Si8 0.015308 0.164323 0.164195
O O1 0.809524 0.500000 0.172486
O O2 0.824970 0.319527 0.265729
O O3 0.862393 0.253169 0.106126
O O4 0.730580 0.268320 0.249742
O O5 0.373310 0.260325 0.349960
O O6 0.455827 0.232449 0.182552
O O7 0.397179 0.000000 0.283680
O O8 0.082211 0.000000 0.938188
O O9 0.073614 0.172471 0.056362
O O10 0.000000 0.221777 0.000000
O O11 0.560125 0.500000 0.512512
O O12 0.652276 0.339487 0.501661
O O13 0.520727 0.262340 0.603234
O O14 0.607514 0.263954 0.417669
O O15 0.305036 0.500000 0.428691
O O16 0.250000 0.750000 0.500000
O O17 0.114426 0.212416 0.274768
O O18 0.041963 0.224396 0.217787
O O19 0.031781 0.000000 0.305547
O O20 0.657707 0.500000 0.322768
O O21 0.988642 0.000000 0.193654
#
# Coordination Sequence:
#
# PCOD8091029 Si02
#       8
#     8   8   8   8   8   8   8   8
#     4  10  21  35  52  77 110 140 173 219 266 318
#     4  11  21  33  51  76 107 141 172 212 265 317
#     4  10  20  34  55  78 104 138 176 217 263 321
#     4   9  16  28  49  76 105 135 174 219 255 301
#     4  11  21  33  49  74 110 145 179 218 262 314
#     4   9  16  29  52  78 104 136 174 219 264 303
#     4   9  17  30  49  77 108 136 172 219 264 305
#     4  10  19  34  54  80 105 130 173 220 263 312
#
# _framework density 18.564647000000001
#
# number of rings (size 3 to 8) (size 9 to 14) (size 15 to 20)
#    0.000    2.125    2.500    1.875    0.000    4.750 
#    0.000    0.625    0.000    0.750    0.000    0.875 
#    0.000    0.000    0.000    0.000    0.000    0.000 
#
# Total GULP energy -396637.834760 kJ/mol
# GULP energy per Si atom -12394.932336 kJ/mol
# Density = 1.852239 g / cm^3
# Si number density = 18.564647 Si / 1000 Ang^3
#
#
#
# Elastic Constant Matrix: (Units=GPa)
#
#
# Indices 1 2 3 4 5 6 
#
# 1 112.1993 22.2569 50.0233 0.0001 -2.7696 0.0000
# 2 22.2569 59.6116 25.0255 0.0003 -0.3360 -0.0005
# 3 50.0233 25.0255 105.2353 -0.0002 4.2261 0.0001
# 4 0.0001 0.0003 -0.0002 26.0146 0.0000 -2.2903
# 5 -2.7696 -0.3360 4.2261 0.0000 25.9374 0.0000
# 6 0.0000 -0.0005 0.0001 -2.2903 0.0000 15.6022
#
#
#
# Elastic Compliance Matrix: (Units=1/GPa)
#
#
# Indices 1 2 3 4 5 6 
#
# 1 0.011679 -0.002204 -0.005110 0.000000 0.002051 0.000000
# 2 -0.002204 0.019076 -0.003512 0.000000 0.000584 0.000001
# 3 -0.005110 -0.003512 0.012875 0.000000 -0.002689 0.000000
# 4 0.000000 0.000000 0.000000 0.038943 0.000000 0.005716
# 5 0.002051 0.000584 -0.002689 0.000000 0.039219 0.000000
# 6 0.000000 0.000001 0.000000 0.005716 0.000000 0.064933
#
#
# Mechanical properties :
#
#
# Convention : Reuss Voigt Hill
#
# Bulk Modulus (GPa) = 45.50067 52.40638 48.95353
# Shear Modulus (GPa) = 23.18022 25.49355 24.33689
#
# Velocity S-wave (km/s) = 3.53742 3.70973 3.62460
# Velocity P-wave (km/s) = 6.42238 6.82934 6.62898
#
# Compressibility (1/GPa) = 0.02197770
#
# Stress axis : x y z
#
# Youngs Moduli (GPa) = 85.62656 52.42235 77.67227
#
# Poissons Ratio (x) = 0.11552 0.39688
# Poissons Ratio (y) = 0.18870 0.27280
# Poissons Ratio (z) = 0.43753 0.18412
#
# Static dielectric constant tensor:
#      x y z
#    x 3.384510 0.000000 0.560330 
#    y 0.000000 3.052550 -0.000010 
#    z 0.560330 -0.000010 0.792810 
# 
# 
# High freq. dielectric constant tensor:
#      x y z
#    x 1.718650 0.000000 0.006250 
#    y 0.000000 1.673200 0.000000 
#    z 0.006250 0.000000 1.723860 
# 
# From -- ./inp_files/324203.got.cif
#   From: 2010.06.25/outbox.cif.g09.slc.cpg/sg12_163_cif.got.tgz:324203.got - 2010.06.28 00:19:55.
