data_PCOD8091773
_publ_section_title
;
Structure prediction by ZEFSAII (Michael W. Deem and Ramdas Pophale) SiO2 
 PCOD8091773
Probable space group: C 2/M
;
_chemical_formula_sum "Si O2"
_cell_formula_units_Z 64
_cell_length_a 26.453216
_cell_length_b 12.527450
_cell_length_c 15.377445
_cell_angle_alpha 90.000000
_cell_angle_beta 41.835640
_cell_angle_gamma 90.000000
_cell_volume 3398.979951
_symmetry_space_group_name_H-M "C 2/M"
_symmetry_group_IT_number 12
_symmetry_cell_setting 'monoclinic'
loop_
_space_group_symop_operation_xyz
x,y,z
-x,y,-z
-x,-y,-z
x,-y,z
1/2+x,1/2+y,z
1/2-x,1/2+y,-z
1/2-x,1/2-y,-z
1/2+x,1/2-y,z
loop_
_atom_site_type_symbol
_atom_site_label
_atom_site_fract_x
_atom_site_fract_y
_atom_site_fract_z
Si Si1 0.303615 0.123019 0.831344
Si Si2 0.051414 0.623217 0.664063
Si Si3 0.116185 0.375077 0.100858
Si Si4 0.837315 0.783213 0.398443
Si Si5 0.192265 0.744136 0.859492
Si Si6 0.086934 0.126031 0.872314
Si Si7 0.577551 0.789440 0.445635
Si Si8 0.179777 0.876244 0.397587
O O1 0.327675 0.168219 0.895495
O O2 0.236190 0.191956 0.877944
O O3 0.376600 0.134784 0.677403
O O4 0.277843 0.000000 0.868844
O O5 0.053826 0.500000 0.687024
O O6 0.113870 0.678134 0.644690
O O7 0.071284 0.638141 0.538425
O O8 0.968213 0.674759 0.785396
O O9 0.108336 0.500000 0.125365
O O10 0.148118 0.349939 0.964993
O O11 0.750000 0.750000 0.500000
O O12 0.876012 0.838119 0.266023
O O13 0.842403 0.864935 0.472909
O O14 0.134803 0.825046 0.889022
O O15 0.243107 0.688929 0.720268
O O16 0.093580 0.000000 0.869750
O O17 0.000000 0.162834 0.000000
O O18 0.500000 0.757877 0.500000
O O19 0.616109 0.675672 0.417545
O O20 0.188557 0.000000 0.361690
#
# Coordination Sequence:
#
# PCOD8091773 Si02
#       8
#     8   8   8   8   8   8   8   8
#     4  10  20  33  55  85 113 148 189 235 288 343
#     4  10  21  35  57  88 117 149 190 238 291 346
#     4  10  20  35  56  82 116 153 186 228 289 353
#     4  11  22  42  60  88 115 155 196 246 300 349
#     4  11  21  38  57  83 115 151 195 241 291 345
#     4  11  24  42  64  87 117 156 200 250 299 353
#     4  10  19  34  57  84 117 150 188 235 287 342
#     4  10  22  38  58  83 115 151 192 240 293 349
#
# _framework density 18.829177000000001
#
# number of rings (size 3 to 8) (size 9 to 14) (size 15 to 20)
#    0.000    1.625    2.500    2.625    0.000    1.750 
#    0.000    0.000    0.000    4.125    0.000    0.000 
#    0.000    0.000    0.000    0.000    0.000    0.000 
#
# Total GULP energy -396773.535647 kJ/mol
# GULP energy per Si atom -12399.172989 kJ/mol
# Density = 1.878632 g / cm^3
# Si number density = 18.829177 Si / 1000 Ang^3
#
#
#
# Elastic Constant Matrix: (Units=GPa)
#
#
# Indices 1 2 3 4 5 6 
#
# 1 117.6984 38.2896 40.9089 0.0000 -11.3891 0.0000
# 2 38.2896 70.4659 18.6054 -0.0001 -8.7047 0.0001
# 3 40.9089 18.6054 107.1231 0.0000 2.1976 0.0000
# 4 0.0000 -0.0001 0.0000 30.5899 0.0000 6.0686
# 5 -11.3891 -8.7047 2.1976 0.0000 34.0525 0.0000
# 6 0.0000 0.0001 0.0000 6.0686 0.0000 32.1827
#
#
#
# Elastic Compliance Matrix: (Units=1/GPa)
#
#
# Indices 1 2 3 4 5 6 
#
# 1 0.011675 -0.005029 -0.003644 0.000000 0.002854 0.000000
# 2 -0.005029 0.017597 -0.001195 0.000000 0.002893 0.000000
# 3 -0.003644 -0.001195 0.010980 0.000000 -0.002233 0.000000
# 4 0.000000 0.000000 0.000000 0.033961 0.000000 -0.006404
# 5 0.002854 0.002893 -0.002233 0.000000 0.031205 0.000000
# 6 0.000000 0.000000 0.000000 -0.006404 0.000000 0.032280
#
#
# Mechanical properties :
#
#
# Convention : Reuss Voigt Hill
#
# Bulk Modulus (GPa) = 48.74235 54.54390 51.64312
# Shear Modulus (GPa) = 30.43726 32.53059 31.48392
#
# Velocity S-wave (km/s) = 4.02493 4.16103 4.09355
# Velocity P-wave (km/s) = 6.89513 7.21916 7.05900
#
# Compressibility (1/GPa) = 0.02051604
#
# Stress axis : x y z
#
# Youngs Moduli (GPa) = 85.65275 56.82785 91.07585
#
# Poissons Ratio (x) = 0.28581 0.33184
# Poissons Ratio (y) = 0.43078 0.10884
# Poissons Ratio (z) = 0.31208 0.06791
#
# Static dielectric constant tensor:
#      x y z
#    x 3.542200 0.000000 -0.155690 
#    y 0.000000 3.222060 0.000000 
#    z -0.155690 0.000000 3.437450 
# 
# 
# High freq. dielectric constant tensor:
#      x y z
#    x 1.740770 0.000000 -0.001130 
#    y 0.000000 1.720430 0.000000 
#    z -0.001130 0.000000 1.742670 
# 
# From -- ./inp_files/245918.got.cif
#   From: 2010.06.25/outbox.cif.g09.slc.cpg/sg12_123_cif.got.tgz:245918.got - 2010.06.28 00:19:55.
