data_PCOD8091441
_publ_section_title
;
Structure prediction by ZEFSAII (Michael W. Deem and Ramdas Pophale) SiO2 
 PCOD8091441
Probable space group: C 2/M
;
_chemical_formula_sum "Si O2"
_cell_formula_units_Z 52
_cell_length_a 26.926314
_cell_length_b 15.408258
_cell_length_c 19.820289
_cell_angle_alpha 90.000000
_cell_angle_beta 161.264957
_cell_angle_gamma 90.000000
_cell_volume 2641.225616
_symmetry_space_group_name_H-M "C 2/M"
_symmetry_group_IT_number 12
_symmetry_cell_setting 'monoclinic'
loop_
_space_group_symop_operation_xyz
x,y,z
-x,y,-z
-x,-y,-z
x,-y,z
1/2+x,1/2+y,z
1/2-x,1/2+y,-z
1/2-x,1/2-y,-z
1/2+x,1/2-y,z
loop_
_atom_site_type_symbol
_atom_site_label
_atom_site_fract_x
_atom_site_fract_y
_atom_site_fract_z
Si Si1 0.140454 0.313013 0.631706
Si Si2 0.933677 0.348593 0.249960
Si Si3 0.549669 0.336220 0.358366
Si Si4 0.165776 0.322231 0.198264
Si Si5 0.319678 0.600953 0.974214
Si Si6 0.185856 0.500000 0.153805
Si Si7 0.490264 0.500000 0.375529
Si Si8 0.864364 0.500000 0.060743
O O1 0.232373 0.228353 0.726094
O O2 0.262365 0.373740 0.826750
O O3 0.000000 0.283105 0.500000
O O4 0.073599 0.368731 0.482871
O O5 0.774807 0.353896 0.086829
O O6 0.955704 0.251302 0.252862
O O7 0.933082 0.415556 0.186883
O O8 0.734775 0.323323 0.603760
O O9 0.503813 0.412252 0.350476
O O10 0.497229 0.367609 0.215732
O O11 0.129237 0.416796 0.122520
O O12 0.000000 0.276992 0.000000
O O13 0.299858 0.500000 0.958299
O O14 0.374937 0.500000 0.393778
O O15 0.091752 0.500000 0.961838
O O16 0.319372 0.500000 0.184575
#
# Coordination Sequence:
#
# PCOD8091441 Si02
#       8
#     8   8   8   8   8   4   4   4
#     4   9  22  36  60  90 117 147 194 242 283 339
#     4  10  20  32  52  83 123 161 181 233 296 340
#     4  10  19  34  56  81 110 155 196 237 283 347
#     4  10  22  43  62  80 114 155 194 238 300 349
#     4  11  19  33  56  85 121 154 193 233 288 345
#     4  10  24  34  56  83 110 154 200 242 281 342
#     4  10  19  35  50  84 121 152 190 234 300 340
#     4  12  21  31  53  86 126 154 189 233 295 347
#
# _framework density 19.687829000000001
#
# number of rings (size 3 to 8) (size 9 to 14) (size 15 to 20)
#    0.000    1.846    3.077    0.923    3.231    4.615 
#    0.000    0.769    0.000    0.462    0.000    0.000 
#    0.000    0.000    0.000    0.000    0.000    0.000 
#
# Total GULP energy -322151.850586 kJ/mol
# GULP energy per Si atom -12390.455792 kJ/mol
# Density = 1.964302 g / cm^3
# Si number density = 19.687829 Si / 1000 Ang^3
#
#
#
# Elastic Constant Matrix: (Units=GPa)
#
#
# Indices 1 2 3 4 5 6 
#
# 1 46.9823 25.2391 53.9230 0.0212 -12.0877 0.0208
# 2 25.2391 108.4520 50.1938 0.0072 -8.2302 0.0078
# 3 53.9230 50.1938 155.1499 0.0264 -25.5608 0.0260
# 4 0.0212 0.0072 0.0264 -39.1162 0.0266 -68.3760
# 5 -12.0877 -8.2302 -25.5608 0.0266 40.8839 0.0259
# 6 0.0208 0.0078 0.0260 -68.3760 0.0259 -42.7042
#
#
#
# Elastic Compliance Matrix: (Units=1/GPa)
#
#
# Indices 1 2 3 4 5 6 
#
# 1 0.036628 -0.003097 -0.011200 0.000004 0.003203 0.000005
# 2 -0.003097 0.011106 -0.002563 0.000000 -0.000282 -0.000001
# 3 -0.011200 -0.002563 0.011747 0.000001 0.003517 0.000001
# 4 0.000004 0.000000 0.000001 0.014212 0.000007 -0.022755
# 5 0.003203 -0.000282 0.003517 0.000007 0.027548 0.000009
# 6 0.000005 -0.000001 0.000001 -0.022755 0.000009 0.013018
#
#
# Mechanical properties :
#
#
# Convention : Reuss Voigt Hill
#
# Bulk Modulus (GPa) = 38.82115 63.25512 51.03813
# Shear Modulus (GPa) = 31.93540 3.89459 17.91499
#
# Velocity S-wave (km/s) = 4.03189 1.40800 3.01981
# Velocity P-wave (km/s) = 6.43708 5.90272 6.17568
#
# Compressibility (1/GPa) = 0.02575916
#
# Stress axis : x y z
#
# Youngs Moduli (GPa) = 27.30187 90.03893 85.13031
#
# Poissons Ratio (x) = 0.27887 0.95349
# Poissons Ratio (y) = 0.08456 0.21821
# Poissons Ratio (z) = 0.30579 0.23079
#
# Static dielectric constant tensor:
#      x y z
#    x 3.148460 0.000000 -0.375320 
#    y 0.000000 3.545480 0.000000 
#    z -0.375320 0.000000 4.220140 
# 
# 
# High freq. dielectric constant tensor:
#      x y z
#    x 1.709260 0.000000 -0.030520 
#    y 0.000000 1.771220 0.000000 
#    z -0.030520 0.000000 1.791350 
# 
# From -- ./inp_files/155455.got.cif
#   From: 2010.06.25/outbox.cif.g09.slc.cpg/sg12_78_cif.got.tgz:155455.got - 2010.06.28 00:19:55.
