data_PCOD8091458
_publ_section_title
;
Structure prediction by ZEFSAII (Michael W. Deem and Ramdas Pophale) SiO2 
 PCOD8091458
Probable space group: C 2/M
;
_chemical_formula_sum "Si O2"
_cell_formula_units_Z 48
_cell_length_a 30.640743
_cell_length_b 8.827216
_cell_length_c 8.980111
_cell_angle_alpha 90.000000
_cell_angle_beta 87.532026
_cell_angle_gamma 90.000000
_cell_volume 2426.619777
_symmetry_space_group_name_H-M "C 2/M"
_symmetry_group_IT_number 12
_symmetry_cell_setting 'monoclinic'
loop_
_space_group_symop_operation_xyz
x,y,z
-x,y,-z
-x,-y,-z
x,-y,z
1/2+x,1/2+y,z
1/2-x,1/2+y,-z
1/2-x,1/2-y,-z
1/2+x,1/2-y,z
loop_
_atom_site_type_symbol
_atom_site_label
_atom_site_fract_x
_atom_site_fract_y
_atom_site_fract_z
Si Si1 0.590199 0.825025 0.642749
Si Si2 0.167807 0.179264 0.797759
Si Si3 0.072127 0.178930 0.334993
Si Si4 0.152475 0.823318 0.132889
Si Si5 0.247364 0.823099 0.160660
Si Si6 0.003660 0.674006 0.828499
O O1 0.633210 0.734025 0.682126
O O2 0.571794 0.761803 0.491946
O O3 0.553505 0.800548 0.773270
O O4 0.602425 0.000000 0.622608
O O5 0.215672 0.243852 0.742807
O O6 0.170536 0.000000 0.795038
O O7 0.155169 0.243658 0.964269
O O8 0.112007 0.246370 0.229864
O O9 0.026834 0.215630 0.261586
O O10 0.076469 0.000000 0.359241
O O11 0.197248 0.793619 0.220701
O O12 0.144165 0.000000 0.114922
O O13 0.257537 0.000000 0.149653
O O14 0.250000 0.750000 0.000000
O O15 0.989173 0.500000 0.805143
O O16 0.000000 0.721894 0.000000
#
# Coordination Sequence:
#
# PCOD8091458 Si02
#       6
#     8   8   8   8   8   8
#     4  11  23  38  55  78 110 145 179 218 268 323
#     4  10  19  34  56  82 109 139 181 228 272 317
#     4  11  22  37  57  81 110 144 180 218 265 318
#     4   8  17  33  54  80 109 140 177 223 267 314
#     4   9  16  30  52  79 110 142 179 223 270 315
#     4  10  22  40  60  82 108 139 177 221 268 319
#
# _framework density 19.780604
#
# number of rings (size 3 to 8) (size 9 to 14) (size 15 to 20)
#    0.000    2.167    0.000    4.500    0.000    3.667 
#    0.000   10.000    0.000    0.000    0.000    0.000 
#    0.000    0.000    0.000    0.000    0.000    0.000 
#
# Total GULP energy -297562.738948 kJ/mol
# GULP energy per Si atom -12398.447456 kJ/mol
# Density = 1.973558 g / cm^3
# Si number density = 19.780604 Si / 1000 Ang^3
#
#
#
# Elastic Constant Matrix: (Units=GPa)
#
#
# Indices 1 2 3 4 5 6 
#
# 1 97.5232 35.3037 16.7212 0.0000 25.2283 0.0000
# 2 35.3037 80.9115 18.9310 0.0000 7.9530 0.0000
# 3 16.7212 18.9310 69.1851 0.0000 16.2188 0.0000
# 4 0.0000 0.0000 0.0000 25.0321 0.0000 6.9484
# 5 25.2283 7.9530 16.2188 0.0000 22.8799 0.0000
# 6 0.0000 0.0000 0.0000 6.9484 0.0000 35.5626
#
#
#
# Elastic Compliance Matrix: (Units=1/GPa)
#
#
# Indices 1 2 3 4 5 6 
#
# 1 0.016635 -0.005938 0.001704 0.000000 -0.017486 0.000000
# 2 -0.005938 0.015438 -0.003677 0.000000 0.003788 0.000000
# 3 0.001704 -0.003677 0.018216 0.000000 -0.013513 0.000000
# 4 0.000000 0.000000 0.000000 0.042240 0.000000 -0.008253
# 5 -0.017486 0.003788 -0.013513 0.000000 0.071249 0.000000
# 6 0.000000 0.000000 0.000000 -0.008253 0.000000 0.029732
#
#
# Mechanical properties :
#
#
# Convention : Reuss Voigt Hill
#
# Bulk Modulus (GPa) = 29.01419 43.28128 36.14774
# Shear Modulus (GPa) = 22.64266 28.47253 25.55759
#
# Velocity S-wave (km/s) = 3.38700 3.79808 3.59841
# Velocity P-wave (km/s) = 5.47682 6.41577 5.96480
#
# Compressibility (1/GPa) = 0.03446589
#
# Stress axis : x y z
#
# Youngs Moduli (GPa) = 60.11452 64.77464 54.89603
#
# Poissons Ratio (x) = 0.38464 -0.09352
# Poissons Ratio (y) = 0.35697 0.20186
# Poissons Ratio (z) = -0.10241 0.23819
#
# Static dielectric constant tensor:
#      x y z
#    x 4.035240 0.000000 -0.117890 
#    y 0.000000 3.546250 0.000000 
#    z -0.117890 0.000000 3.494740 
# 
# 
# High freq. dielectric constant tensor:
#      x y z
#    x 1.789340 0.000000 0.004950 
#    y 0.000000 1.764460 0.000000 
#    z 0.004950 0.000000 1.747900 
# 
# From -- ./inp_files/108671.got.cif
#   From: 2010.06.25/outbox.cif.g09.slc.cpg/sg12_55_cif.got.tgz:108671.got - 2010.06.28 00:19:55.
