data_PCOD8091589
_publ_section_title
;
Structure prediction by ZEFSAII (Michael W. Deem and Ramdas Pophale) SiO2 
 PCOD8091589
Probable space group: C 2/M
;
_chemical_formula_sum "Si O2"
_cell_formula_units_Z 64
_cell_length_a 19.709680
_cell_length_b 9.131835
_cell_length_c 19.530837
_cell_angle_alpha 90.000000
_cell_angle_beta 77.248382
_cell_angle_gamma 90.000000
_cell_volume 3428.568084
_symmetry_space_group_name_H-M "C 2/M"
_symmetry_group_IT_number 12
_symmetry_cell_setting 'monoclinic'
loop_
_space_group_symop_operation_xyz
x,y,z
-x,y,-z
-x,-y,-z
x,-y,z
1/2+x,1/2+y,z
1/2-x,1/2+y,-z
1/2-x,1/2-y,-z
1/2+x,1/2-y,z
loop_
_atom_site_type_symbol
_atom_site_label
_atom_site_fract_x
_atom_site_fract_y
_atom_site_fract_z
Si Si1 0.579216 0.672147 0.764701
Si Si2 0.797046 0.672820 0.626090
Si Si3 0.075922 0.172212 0.167523
Si Si4 0.835873 0.826282 0.127645
Si Si5 0.351199 0.674099 0.389267
Si Si6 0.920816 0.326715 0.502003
Si Si7 0.427594 0.674291 0.985635
Si Si8 0.193941 0.673487 0.221616
O O1 0.591405 0.500000 0.764062
O O2 0.499157 0.713874 0.787101
O O3 0.618064 0.741906 0.821433
O O4 0.611523 0.732571 0.687574
O O5 0.792735 0.500000 0.631365
O O6 0.729768 0.725947 0.597220
O O7 0.869477 0.722500 0.575096
O O8 0.793490 0.734299 0.704312
O O9 0.084659 0.233507 0.088288
O O10 0.125751 0.254181 0.207743
O O11 0.090362 0.000000 0.166869
O O12 0.756701 0.777688 0.157657
O O13 0.843116 0.000000 0.127481
O O14 0.864489 0.769167 0.048074
O O15 0.357313 0.500000 0.397064
O O16 0.391920 0.750228 0.441232
O O17 0.918485 0.500000 0.491294
O O18 0.000000 0.275102 0.500000
O O19 0.431767 0.500000 0.982144
O O20 0.500000 0.735371 0.000000
O O21 0.184837 0.500000 0.224632
#
# Coordination Sequence:
#
# PCOD8091589 Si02
#       8
#     8   8   8   8   8   8   8   8
#     4   9  16  29  51  77 100 125 167 217 251 282
#     4   9  18  35  56  74  97 134 174 206 241 294
#     4  10  20  32  49  77 107 130 161 212 261 294
#     4   9  15  28  51  76  98 129 175 212 240 289
#     4  10  19  34  57  79  98 127 171 216 249 284
#     4  10  22  37  52  75 107 137 163 198 249 307
#     4   9  15  26  48  76 101 128 168 214 252 289
#     4  10  20  34  53  75 102 136 170 203 246 304
#
# _framework density 18.666685000000001
#
# number of rings (size 3 to 8) (size 9 to 14) (size 15 to 20)
#    0.000    2.500    2.500    0.375    1.750    0.750 
#    0.000    1.250    0.000    1.125    0.000    0.000 
#    0.000    0.000    0.000    0.000    0.000    0.000 
#
# Total GULP energy -396656.960212 kJ/mol
# GULP energy per Si atom -12395.530007 kJ/mol
# Density = 1.862420 g / cm^3
# Si number density = 18.666685 Si / 1000 Ang^3
#
#
#
# Elastic Constant Matrix: (Units=GPa)
#
#
# Indices 1 2 3 4 5 6 
#
# 1 134.6944 26.8495 71.6423 0.0000 0.1973 0.0000
# 2 26.8495 13.9799 16.5152 0.0000 0.0990 0.0000
# 3 71.6423 16.5152 124.1659 0.0000 -12.4721 0.0000
# 4 0.0000 0.0000 0.0000 17.5748 0.0000 7.4634
# 5 0.1973 0.0990 -12.4721 0.0000 39.0608 0.0000
# 6 0.0000 0.0000 0.0000 7.4634 0.0000 21.1519
#
#
#
# Elastic Compliance Matrix: (Units=1/GPa)
#
#
# Indices 1 2 3 4 5 6 
#
# 1 0.014863 -0.021563 -0.005899 0.000000 -0.001904 0.000000
# 2 -0.021563 0.116743 -0.003208 0.000000 -0.001211 0.000000
# 3 -0.005899 -0.003208 0.012282 0.000000 0.003959 0.000000
# 4 0.000000 0.000000 0.000000 0.066929 0.000000 -0.023616
# 5 -0.001904 -0.001211 0.003959 0.000000 0.026878 0.000000
# 6 0.000000 0.000000 0.000000 -0.023616 0.000000 0.055610
#
#
# Mechanical properties :
#
#
# Convention : Reuss Voigt Hill
#
# Bulk Modulus (GPa) = 12.11420 55.87267 33.99344
# Shear Modulus (GPa) = 13.08354 26.07970 19.58162
#
# Velocity S-wave (km/s) = 2.65033 3.74187 3.24236
# Velocity P-wave (km/s) = 3.98365 6.97607 5.68045
#
# Compressibility (1/GPa) = 0.08254774
#
# Stress axis : x y z
#
# Youngs Moduli (GPa) = 67.28205 8.56584 81.42191
#
# Poissons Ratio (x) = 0.18471 0.48029
# Poissons Ratio (y) = 1.45080 0.26120
# Poissons Ratio (z) = 0.39689 0.02748
#
# Static dielectric constant tensor:
#      x y z
#    x 3.579750 0.000000 -0.228060 
#    y 0.000000 2.814510 0.000000 
#    z -0.228060 0.000000 3.864750 
# 
# 
# High freq. dielectric constant tensor:
#      x y z
#    x 1.736210 0.000000 -0.007200 
#    y 0.000000 1.659120 0.000000 
#    z -0.007200 0.000000 1.741990 
# 
# From -- ./inp_files/276486.got.cif
#   From: 2010.06.25/outbox.cif.g09.slc.cpg/sg12_139_cif.got.tgz:276486.got - 2010.06.28 00:19:55.
