data_PCOD8091493
_publ_section_title
;
Structure prediction by ZEFSAII (Michael W. Deem and Ramdas Pophale) SiO2 
 PCOD8091493
Probable space group: C 2/M
;
_chemical_formula_sum "Si O2"
_cell_formula_units_Z 40
_cell_length_a 22.776143
_cell_length_b 10.344631
_cell_length_c 13.228204
_cell_angle_alpha 90.000000
_cell_angle_beta 38.953529
_cell_angle_gamma 90.000000
_cell_volume 1959.442511
_symmetry_space_group_name_H-M "C 2/M"
_symmetry_group_IT_number 12
_symmetry_cell_setting 'monoclinic'
loop_
_space_group_symop_operation_xyz
x,y,z
-x,y,-z
-x,-y,-z
x,-y,z
1/2+x,1/2+y,z
1/2-x,1/2+y,-z
1/2-x,1/2-y,-z
1/2+x,1/2-y,z
loop_
_atom_site_type_symbol
_atom_site_label
_atom_site_fract_x
_atom_site_fract_y
_atom_site_fract_z
Si Si1 0.008646 0.500000 0.330152
Si Si2 0.159025 0.500000 0.287058
Si Si3 0.394765 0.148265 0.177224
Si Si4 0.646809 0.500000 0.294273
Si Si5 0.999368 0.000000 0.672070
Si Si6 0.573219 0.755601 0.650740
Si Si7 0.230379 0.756418 0.270926
O O1 0.112687 0.500000 0.237832
O O2 0.927984 0.500000 0.521108
O O3 0.997593 0.373275 0.276304
O O4 0.224552 0.624264 0.215247
O O5 0.383246 0.225270 0.297188
O O6 0.333517 0.223450 0.176630
O O7 0.359488 0.000000 0.237080
O O8 0.500000 0.151925 0.000000
O O9 0.569753 0.500000 0.484473
O O10 0.603448 0.500000 0.239816
O O11 0.708928 0.372211 0.222425
O O12 0.013246 0.124621 0.724288
O O13 0.658277 0.748536 0.459562
#
# Coordination Sequence:
#
# PCOD8091493 Si02
#       7
#     4   4   8   4   4   8   8
#     4   9  16  31  53  82 116 141 172 213 270 333
#     4   9  18  29  53  86 112 139 168 225 280 313
#     4  11  23  39  57  75 106 151 192 226 268 325
#     4   9  16  31  53  82 116 141 172 213 270 333
#     4   9  18  29  53  86 112 139 168 225 280 313
#     4  10  19  34  56  83 110 139 182 225 266 322
#     4  10  19  34  56  83 110 139 182 225 266 322
#
# _framework density 20.413969000000002
#
# number of rings (size 3 to 8) (size 9 to 14) (size 15 to 20)
#    0.000    2.200    2.000    1.800    0.000    5.600 
#    0.000    2.000    0.000    7.200    0.000    0.000 
#    0.000    0.000    0.000    0.000    0.000    0.000 
#
# Total GULP energy -248032.066949 kJ/mol
# GULP energy per Si atom -12401.603347 kJ/mol
# Density = 2.036751 g / cm^3
# Si number density = 20.413969 Si / 1000 Ang^3
#
#
#
# Elastic Constant Matrix: (Units=GPa)
#
#
# Indices 1 2 3 4 5 6 
#
# 1 154.3795 80.2282 13.7350 0.0000 -38.4865 0.0000
# 2 80.2282 187.7269 15.2691 0.0000 -21.7555 0.0000
# 3 13.7350 15.2691 16.3222 0.0000 -9.6555 0.0000
# 4 0.0000 0.0000 0.0000 9.3331 0.0000 -1.6593
# 5 -38.4865 -21.7555 -9.6555 0.0000 19.7012 0.0000
# 6 0.0000 0.0000 0.0000 -1.6593 0.0000 44.2238
#
#
#
# Elastic Compliance Matrix: (Units=1/GPa)
#
#
# Indices 1 2 3 4 5 6 
#
# 1 0.014890 -0.003658 0.008041 0.000000 0.028990 0.000000
# 2 -0.003658 0.007076 -0.004431 0.000000 -0.001503 0.000000
# 3 0.008041 -0.004431 0.091600 0.000000 0.055709 0.000000
# 4 0.000000 0.000000 0.000000 0.107865 0.000000 0.004047
# 5 0.028990 -0.001503 0.055709 0.000000 0.133033 0.000000
# 6 0.000000 0.000000 0.000000 0.004047 0.000000 0.022764
#
#
# Mechanical properties :
#
#
# Convention : Reuss Voigt Hill
#
# Bulk Modulus (GPa) = 8.81283 64.09925 36.45604
# Shear Modulus (GPa) = 12.04390 31.26471 21.65431
#
# Velocity S-wave (km/s) = 2.43159 3.91773 3.26046
# Velocity P-wave (km/s) = 3.49427 7.20643 5.66315
#
# Compressibility (1/GPa) = 0.11347087
#
# Stress axis : x y z
#
# Youngs Moduli (GPa) = 67.15808 141.31512 10.91705
#
# Poissons Ratio (x) = 0.51694 -0.08779
# Poissons Ratio (y) = 0.24567 0.04837
# Poissons Ratio (z) = -0.54003 0.62616
#
# Static dielectric constant tensor:
#      x y z
#    x 3.844280 0.000000 -0.067480 
#    y 0.000000 3.951940 0.000000 
#    z -0.067480 0.000000 3.071660 
# 
# 
# High freq. dielectric constant tensor:
#      x y z
#    x 1.812210 0.000000 -0.007900 
#    y 0.000000 1.808870 0.000000 
#    z -0.007900 0.000000 1.746240 
# 
# From -- ./inp_files/237122.got.cif
#   From: 2010.06.25/outbox.cif.g09.slc.cpg/sg12_119_cif.got.tgz:237122.got - 2010.06.28 00:19:55.
