data_PCOD8091307
_publ_section_title
;
Structure prediction by ZEFSAII (Michael W. Deem and Ramdas Pophale) SiO2 
 PCOD8091307
Probable space group: C 2/M
;
_chemical_formula_sum "Si O2"
_cell_formula_units_Z 40
_cell_length_a 5.189531
_cell_length_b 24.895248
_cell_length_c 20.575006
_cell_angle_alpha 90.000000
_cell_angle_beta 119.918224
_cell_angle_gamma 90.000000
_cell_volume 2303.946826
_symmetry_space_group_name_H-M "C 2/M"
_symmetry_group_IT_number 12
_symmetry_cell_setting 'monoclinic'
loop_
_space_group_symop_operation_xyz
x,y,z
-x,y,-z
-x,-y,-z
x,-y,z
1/2+x,1/2+y,z
1/2-x,1/2+y,-z
1/2-x,1/2-y,-z
1/2+x,1/2-y,z
loop_
_atom_site_type_symbol
_atom_site_label
_atom_site_fract_x
_atom_site_fract_y
_atom_site_fract_z
Si Si1 0.389631 0.062261 0.661049
Si Si2 0.672732 0.935901 0.084790
Si Si3 0.124787 0.227001 0.416603
Si Si4 0.342065 0.936139 0.170003
Si Si5 0.235157 0.397039 0.582852
O O1 0.491280 0.083563 0.744275
O O2 0.581003 0.095560 0.633134
O O3 0.035410 0.069151 0.610970
O O4 0.469767 0.000000 0.661247
O O5 0.514815 0.913027 0.129372
O O6 0.007565 0.913584 0.126154
O O7 0.670807 0.000000 0.084779
O O8 0.500000 0.913932 0.000000
O O9 0.250000 0.250000 0.500000
O O10 0.273608 0.259114 0.374705
O O11 0.182320 0.164453 0.417951
O O12 0.339225 0.000000 0.167113
O O13 0.000000 0.417392 0.500000
#
# Coordination Sequence:
#
# PCOD8091307 Si02
#       5
#     8   8   8   8   8
#     4  11  24  37  48  67 100 141 174 201 242 285
#     4   9  15  24  43  67  85 110 158 209 238 264
#     4  10  19  34  56  76  92 110 142 209 265 322
#     4   9  17  30  43  58  90 128 159 194 236 282
#     4  12  23  35  55  73  91 123 174 218 247 297
#
# _framework density 17.361512000000001
#
# number of rings (size 3 to 8) (size 9 to 14) (size 15 to 20)
#    0.000    1.800    2.000    4.200    2.800    8.000 
#    0.000    0.000    0.000    0.000    0.000    0.000 
#    0.000    0.000    0.000    0.000    0.000  252.000 
#
# Total GULP energy -247938.659341 kJ/mol
# GULP energy per Si atom -12396.932967 kJ/mol
# Density = 1.732200 g / cm^3
# Si number density = 17.361512 Si / 1000 Ang^3
#
#
#
# Elastic Constant Matrix: (Units=GPa)
#
#
# Indices 1 2 3 4 5 6 
#
# 1 162.4591 19.3364 50.8732 0.0000 -11.4893 0.0000
# 2 19.3364 36.6082 29.6921 0.0000 -4.0549 0.0000
# 3 50.8732 29.6921 102.5473 0.0000 -8.5589 0.0000
# 4 0.0000 0.0000 0.0000 1.2922 0.0000 -5.9503
# 5 -11.4893 -4.0549 -8.5589 0.0000 36.1229 0.0000
# 6 0.0000 0.0000 0.0000 -5.9503 0.0000 25.0396
#
#
#
# Elastic Compliance Matrix: (Units=1/GPa)
#
#
# Indices 1 2 3 4 5 6 
#
# 1 0.007403 -0.001135 -0.003222 0.000000 0.001464 0.000000
# 2 -0.001135 0.035964 -0.009736 0.000000 0.001369 0.000000
# 3 -0.003222 -0.009736 0.014274 0.000000 0.001265 0.000000
# 4 0.000000 0.000000 0.000000 -8.211610 0.000000 -1.951379
# 5 0.001464 0.001369 0.001265 0.000000 0.028602 0.000000
# 6 0.000000 0.000000 0.000000 -1.951379 0.000000 -0.423782
#
#
# Mechanical properties :
#
#
# Convention : Reuss Voigt Hill
#
# Bulk Modulus (GPa) = 33.94878 55.71312 44.83095
# Shear Modulus (GPa) = -0.58747 25.93846 12.67550
#
# Velocity S-wave (km/s) = -0.58233 3.86945 2.70495
# Velocity P-wave (km/s) = 4.37543 7.21964 5.96940
#
# Compressibility (1/GPa) = 0.02945614
#
# Stress axis : x y z
#
# Youngs Moduli (GPa) = 135.08272 27.80554 70.05539
#
# Poissons Ratio (x) = 0.03156 0.22570
# Poissons Ratio (y) = 0.15332 0.68205
# Poissons Ratio (z) = 0.43520 0.27071
#
# Static dielectric constant tensor:
#      x y z
#    x 3.367320 0.000000 0.078220 
#    y 0.000000 2.796790 0.000000 
#    z 0.078220 0.000000 3.251100 
# 
# 
# High freq. dielectric constant tensor:
#      x y z
#    x 1.705780 0.000000 -0.006670 
#    y 0.000000 1.610270 0.000000 
#    z -0.006670 0.000000 1.655150 
# 
# From -- ./inp_files/191476.got.cif
#   From: 2010.06.25/outbox.cif.g09.slc.cpg/sg12_96_cif.got.tgz:191476.got - 2010.06.28 00:19:55.
