data_PCOD8091598
_publ_section_title
;
Structure prediction by ZEFSAII (Michael W. Deem and Ramdas Pophale) SiO2 
 PCOD8091598
Probable space group: C 2/M
;
_chemical_formula_sum "Si O2"
_cell_formula_units_Z 48
_cell_length_a 27.210643
_cell_length_b 8.924030
_cell_length_c 18.549314
_cell_angle_alpha 90.000000
_cell_angle_beta 33.054492
_cell_angle_gamma 90.000000
_cell_volume 2456.811359
_symmetry_space_group_name_H-M "C 2/M"
_symmetry_group_IT_number 12
_symmetry_cell_setting 'monoclinic'
loop_
_space_group_symop_operation_xyz
x,y,z
-x,y,-z
-x,-y,-z
x,-y,z
1/2+x,1/2+y,z
1/2-x,1/2+y,-z
1/2-x,1/2-y,-z
1/2+x,1/2-y,z
loop_
_atom_site_type_symbol
_atom_site_label
_atom_site_fract_x
_atom_site_fract_y
_atom_site_fract_z
Si Si1 0.988292 0.674789 0.097779
Si Si2 0.460202 0.677718 0.702584
Si Si3 0.786835 0.323053 0.382941
Si Si4 0.697181 0.678149 0.208737
Si Si5 0.655119 0.678276 0.420435
Si Si6 0.883478 0.177358 0.948232
O O1 0.005331 0.500000 0.091403
O O2 0.889672 0.725566 0.244688
O O3 0.062405 0.768733 0.048796
O O4 0.000000 0.713313 0.000000
O O5 0.464337 0.500000 0.695641
O O6 0.387214 0.734342 0.734591
O O7 0.557593 0.744771 0.561883
O O8 0.434906 0.733862 0.813474
O O9 0.777221 0.500000 0.401610
O O10 0.750000 0.250000 0.500000
O O11 0.728772 0.263339 0.386837
O O12 0.708080 0.500000 0.192610
O O13 0.682764 0.736911 0.307711
O O14 0.785102 0.752023 0.067193
O O15 0.651384 0.500000 0.424394
O O16 0.874326 0.000000 0.961153
#
# Coordination Sequence:
#
# PCOD8091598 Si02
#       6
#     8   8   8   8   8   8
#     4  10  21  38  58  79 104 139 184 224 257 304
#     4   9  18  32  53  81 108 137 176 218 260 309
#     4  10  20  34  54  79 107 138 172 215 265 314
#     4  10  19  34  57  80 104 138 179 221 260 305
#     4   9  17  32  55  80 103 132 176 223 259 299
#     4  11  22  35  53  79 111 142 172 215 270 321
#
# _framework density 19.537519
#
# number of rings (size 3 to 8) (size 9 to 14) (size 15 to 20)
#    0.000    2.167    0.000    3.500    0.000    7.000 
#    0.000    3.333    0.000    5.000    0.000    0.000 
#    0.000    0.000    0.000    0.000    0.000    0.000 
#
# Total GULP energy -297671.541828 kJ/mol
# GULP energy per Si atom -12402.980910 kJ/mol
# Density = 1.949305 g / cm^3
# Si number density = 19.537519 Si / 1000 Ang^3
#
#
#
# Elastic Constant Matrix: (Units=GPa)
#
#
# Indices 1 2 3 4 5 6 
#
# 1 98.1732 16.4336 7.0996 0.0065 0.9863 -0.0017
# 2 16.4336 26.3616 16.4823 -0.0106 -0.2214 0.0065
# 3 7.0996 16.4823 93.0942 -0.0001 2.3503 0.0024
# 4 0.0065 -0.0106 -0.0001 28.8052 0.0063 2.9502
# 5 0.9863 -0.2214 2.3503 0.0063 41.6473 -0.0032
# 6 -0.0017 0.0065 0.0024 2.9502 -0.0032 16.3719
#
#
#
# Elastic Compliance Matrix: (Units=1/GPa)
#
#
# Indices 1 2 3 4 5 6 
#
# 1 0.011393 -0.007385 0.000447 -0.000006 -0.000334 0.000005
# 2 -0.007385 0.047460 -0.007862 0.000021 0.000871 -0.000022
# 3 0.000447 -0.007862 0.012118 -0.000003 -0.000736 0.000002
# 4 -0.000006 0.000021 -0.000003 0.035369 -0.000005 -0.006373
# 5 -0.000334 0.000871 -0.000736 -0.000005 0.024065 0.000005
# 6 0.000005 -0.000022 0.000002 -0.006373 0.000005 0.062229
#
#
# Mechanical properties :
#
#
# Convention : Reuss Voigt Hill
#
# Bulk Modulus (GPa) = 24.17030 33.07331 28.62181
# Shear Modulus (GPa) = 21.18426 29.20578 25.19502
#
# Velocity S-wave (km/s) = 3.29642 3.87053 3.59496
# Velocity P-wave (km/s) = 5.18523 6.07779 5.64917
#
# Compressibility (1/GPa) = 0.04137308
#
# Stress axis : x y z
#
# Youngs Moduli (GPa) = 87.77106 21.07022 82.52050
#
# Poissons Ratio (x) = 0.15560 -0.03689
# Poissons Ratio (y) = 0.64817 0.64874
# Poissons Ratio (z) = -0.03924 0.16565
#
# Static dielectric constant tensor:
#      x y z
#    x 4.193970 -0.000020 -0.234100 
#    y -0.000020 3.126960 0.000020 
#    z -0.234100 0.000020 3.923840 
# 
# 
# High freq. dielectric constant tensor:
#      x y z
#    x 1.780050 0.000000 -0.000700 
#    y 0.000000 1.715610 0.000000 
#    z -0.000700 0.000000 1.781080 
# 
# From -- ./inp_files/229839.got.cif
#   From: 2010.06.25/outbox.cif.g09.slc.cpg/sg12_115_cif.got.tgz:229839.got - 2010.06.28 00:19:55.
