data_PCOD8091796
_publ_section_title
;
Structure prediction by ZEFSAII (Michael W. Deem and Ramdas Pophale) SiO2 
 PCOD8091796
Probable space group: C 2/M
;
_chemical_formula_sum "Si O2"
_cell_formula_units_Z 44
_cell_length_a 25.423004
_cell_length_b 10.026604
_cell_length_c 24.885117
_cell_angle_alpha 90.000000
_cell_angle_beta 20.562670
_cell_angle_gamma 90.000000
_cell_volume 2227.994546
_symmetry_space_group_name_H-M "C 2/M"
_symmetry_group_IT_number 12
_symmetry_cell_setting 'monoclinic'
loop_
_space_group_symop_operation_xyz
x,y,z
-x,y,-z
-x,-y,-z
x,-y,z
1/2+x,1/2+y,z
1/2-x,1/2+y,-z
1/2-x,1/2-y,-z
1/2+x,1/2-y,z
loop_
_atom_site_type_symbol
_atom_site_label
_atom_site_fract_x
_atom_site_fract_y
_atom_site_fract_z
Si Si1 0.321085 0.149355 0.766735
Si Si2 0.758872 0.148443 0.651208
Si Si3 0.493150 0.348962 0.343408
Si Si4 0.999364 0.847913 0.109658
Si Si5 0.000000 0.756924 0.500000
Si Si6 0.385453 0.347067 0.884064
O O1 0.382034 0.251156 0.752409
O O2 0.395704 0.165336 0.637211
O O3 0.353874 0.000000 0.756450
O O4 0.142180 0.171125 0.934104
O O5 0.830236 0.183593 0.524501
O O6 0.631360 0.253993 0.787583
O O7 0.892500 0.151714 0.566828
O O8 0.689429 0.000000 0.717819
O O9 0.538724 0.500000 0.316050
O O10 0.489520 0.333027 0.282441
O O11 0.039564 0.804358 0.131846
O O12 0.941159 0.000000 0.163862
O O13 0.326648 0.500000 0.943985
O O14 0.250000 0.250000 0.000000
#
# Coordination Sequence:
#
# PCOD8091796 Si02
#       6
#     8   8   8   8   4   8
#     4  10  20  36  58  85 113 146 187 232 282 336
#     4  10  22  40  59  82 112 148 190 234 282 335
#     4   9  19  35  57  83 114 151 190 229 272 327
#     4  10  22  37  55  85 121 147 181 233 282 330
#     4  10  22  40  62  82 106 144 192 240 286 336
#     4  10  19  34  57  85 117 152 186 225 274 329
#
# _framework density 19.748702000000002
#
# number of rings (size 3 to 8) (size 9 to 14) (size 15 to 20)
#    0.000    2.182    1.818    0.545    0.000    7.273 
#    0.000    2.727    0.000    0.000    0.000    0.000 
#    0.000    0.000    0.000    0.000    0.000    0.000 
#
# Total GULP energy -272767.084117 kJ/mol
# GULP energy per Si atom -12398.503824 kJ/mol
# Density = 1.970375 g / cm^3
# Si number density = 19.748702 Si / 1000 Ang^3
#
#
#
# Elastic Constant Matrix: (Units=GPa)
#
#
# Indices 1 2 3 4 5 6 
#
# 1 75.4955 21.7011 45.5154 -0.0003 12.3470 0.0004
# 2 21.7011 101.3905 57.4877 0.0016 -9.2710 0.0011
# 3 45.5154 57.4877 117.4322 -0.0015 9.9807 0.0015
# 4 -0.0003 0.0016 -0.0015 33.9775 0.0014 -4.2522
# 5 12.3470 -9.2710 9.9807 0.0014 33.1439 -0.0012
# 6 0.0004 0.0011 0.0015 -4.2522 -0.0012 19.4055
#
#
#
# Elastic Compliance Matrix: (Units=1/GPa)
#
#
# Indices 1 2 3 4 5 6 
#
# 1 0.018024 -0.000843 -0.006140 0.000000 -0.005101 0.000000
# 2 -0.000843 0.014955 -0.007570 -0.000001 0.006777 0.000000
# 3 -0.006140 -0.007570 0.014970 0.000001 -0.004338 -0.000001
# 4 0.000000 -0.000001 0.000001 0.030261 -0.000002 0.006631
# 5 -0.005101 0.006777 -0.004338 -0.000002 0.035274 0.000002
# 6 0.000000 0.000000 -0.000001 0.006631 0.000002 0.052985
#
#
# Mechanical properties :
#
#
# Convention : Reuss Voigt Hill
#
# Bulk Modulus (GPa) = 53.07014 60.41409 56.74211
# Shear Modulus (GPa) = 24.77006 28.61298 26.69152
#
# Velocity S-wave (km/s) = 3.54540 3.81051 3.68034
# Velocity P-wave (km/s) = 6.60991 7.07233 6.84502
#
# Compressibility (1/GPa) = 0.01884299
#
# Stress axis : x y z
#
# Youngs Moduli (GPa) = 55.48168 66.86536 66.80047
#
# Poissons Ratio (x) = 0.05638 0.41013
# Poissons Ratio (y) = 0.04678 0.50571
# Poissons Ratio (z) = 0.34063 0.50620
#
# Static dielectric constant tensor:
#      x y z
#    x 3.542750 0.000000 0.407000 
#    y 0.000000 3.597710 0.000010 
#    z 0.407000 0.000010 3.661930 
# 
# 
# High freq. dielectric constant tensor:
#      x y z
#    x 1.756290 0.000000 0.027270 
#    y 0.000000 1.774820 0.000000 
#    z 0.027270 0.000000 1.767980 
# 
# From -- ./inp_files/368981.got.cif
#   From: 2010.06.25/outbox.cif.g09.slc.cpg/sg12_185_cif.got.tgz:368981.got - 2010.06.28 00:19:55.
