data_PCOD8091847
_publ_section_title
;
Structure prediction by ZEFSAII (Michael W. Deem and Ramdas Pophale) SiO2 
 PCOD8091847
Probable space group: C 2/M
;
_chemical_formula_sum "Si O2"
_cell_formula_units_Z 28
_cell_length_a 27.883376
_cell_length_b 7.979609
_cell_length_c 7.852653
_cell_angle_alpha 90.000000
_cell_angle_beta 34.908470
_cell_angle_gamma 90.000000
_cell_volume 999.866827
_symmetry_space_group_name_H-M "C 2/M"
_symmetry_group_IT_number 12
_symmetry_cell_setting 'monoclinic'
loop_
_space_group_symop_operation_xyz
x,y,z
-x,y,-z
-x,-y,-z
x,-y,z
1/2+x,1/2+y,z
1/2-x,1/2+y,-z
1/2-x,1/2-y,-z
1/2+x,1/2-y,z
loop_
_atom_site_type_symbol
_atom_site_label
_atom_site_fract_x
_atom_site_fract_y
_atom_site_fract_z
Si Si1 0.327528 0.311843 0.653199
Si Si2 0.752399 0.000000 0.201415
Si Si3 0.619232 0.000000 0.855614
Si Si4 0.995600 0.192060 0.714103
Si Si5 0.300083 0.500000 0.424527
O O1 0.309970 0.500000 0.785555
O O2 0.248661 0.177516 0.900200
O O3 0.414898 0.249641 0.473235
O O4 0.334721 0.336133 0.424398
O O5 0.820709 0.000000 0.159298
O O6 0.655801 0.000000 0.555428
O O7 0.568132 0.169578 0.035353
O O8 0.699480 0.000000 0.747464
O O9 0.000000 0.193446 0.500000
O O10 0.971607 0.000000 0.847591
#
# Coordination Sequence:
#
# PCOD8091847 Si02
#       5
#     8   4   4   8   4
#     4   9  19  35  57  80 105 151 177 208 268 335
#     4  10  19  34  58  78 118 138 177 214 277 316
#     4  10  22  35  55  86 111 133 182 234 260 309
#     4  10  21  39  59  75 108 146 185 221 270 317
#     4   8  20  37  52  83 114 137 179 218 265 323
#
# _framework density 28.003730000000001
#
# number of rings (size 3 to 8) (size 9 to 14) (size 15 to 20)
#    1.714    0.857    0.000    2.143    0.000    3.429 
#    2.571    4.286    0.000    0.000    0.000    0.000 
#    0.000    0.000    0.000    0.000    0.000    0.000 
#
# Total GULP energy -173483.978123 kJ/mol
# GULP energy per Si atom -12391.712723 kJ/mol
# Density = 2.793999 g / cm^3
# Si number density = 28.003730 Si / 1000 Ang^3
#
#
#
# Elastic Constant Matrix: (Units=GPa)
#
#
# Indices 1 2 3 4 5 6 
#
# 1 220.1664 40.3530 30.6365 0.0000 7.0941 0.0000
# 2 40.3530 113.9486 44.0796 0.0000 12.9275 0.0000
# 3 30.6365 44.0796 97.5022 0.0000 10.3682 0.0000
# 4 0.0000 0.0000 0.0000 60.1873 0.0000 -0.9786
# 5 7.0941 12.9275 10.3682 0.0000 32.9315 0.0000
# 6 0.0000 0.0000 0.0000 -0.9786 0.0000 24.4431
#
#
#
# Elastic Compliance Matrix: (Units=1/GPa)
#
#
# Indices 1 2 3 4 5 6 
#
# 1 0.004926 -0.001368 -0.000904 0.000000 -0.000240 0.000000
# 2 -0.001368 0.011263 -0.004369 0.000000 -0.002751 0.000000
# 3 -0.000904 -0.004369 0.012739 0.000000 -0.002101 0.000000
# 4 0.000000 0.000000 0.000000 0.016626 0.000000 0.000666
# 5 -0.000240 -0.002751 -0.002101 0.000000 0.032159 0.000000
# 6 0.000000 0.000000 0.000000 0.000666 0.000000 0.040938
#
#
# Mechanical properties :
#
#
# Convention : Reuss Voigt Hill
#
# Bulk Modulus (GPa) = 63.91614 73.52838 68.72226
# Shear Modulus (GPa) = 36.45699 44.61557 40.53628
#
# Velocity S-wave (km/s) = 3.61205 3.99582 3.80877
# Velocity P-wave (km/s) = 6.34583 6.89945 6.62842
#
# Compressibility (1/GPa) = 0.01564550
#
# Stress axis : x y z
#
# Youngs Moduli (GPa) = 202.99579 88.78988 78.49901
#
# Poissons Ratio (x) = 0.12143 0.07097
# Poissons Ratio (y) = 0.27762 0.34300
# Poissons Ratio (z) = 0.18353 0.38796
#
# Static dielectric constant tensor:
#      x y z
#    x 5.116930 0.000000 0.182600 
#    y 0.000000 5.709620 0.000000 
#    z 0.182600 0.000000 4.983570 
# 
# 
# High freq. dielectric constant tensor:
#      x y z
#    x 2.138950 0.000000 0.021160 
#    y 0.000000 2.173130 0.000000 
#    z 0.021160 0.000000 2.167270 
# 
# From -- ./inp_files/100426.got.cif
#   From: 2010.06.25/outbox.cif.g09.slc.cpg/sg12_51_cif.got.tgz:100426.got - 2010.06.28 00:19:55.
