data_PCOD8091721
_publ_section_title
;
Structure prediction by ZEFSAII (Michael W. Deem and Ramdas Pophale) SiO2 
 PCOD8091721
Probable space group: C 2/M
;
_chemical_formula_sum "Si O2"
_cell_formula_units_Z 56
_cell_length_a 15.863587
_cell_length_b 9.096839
_cell_length_c 23.310581
_cell_angle_alpha 90.000000
_cell_angle_beta 57.974799
_cell_angle_gamma 90.000000
_cell_volume 2851.977295
_symmetry_space_group_name_H-M "C 2/M"
_symmetry_group_IT_number 12
_symmetry_cell_setting 'monoclinic'
loop_
_space_group_symop_operation_xyz
x,y,z
-x,y,-z
-x,-y,-z
x,-y,z
1/2+x,1/2+y,z
1/2-x,1/2+y,-z
1/2-x,1/2-y,-z
1/2+x,1/2-y,z
loop_
_atom_site_type_symbol
_atom_site_label
_atom_site_fract_x
_atom_site_fract_y
_atom_site_fract_z
Si Si1 0.052960 0.325374 0.423733
Si Si2 0.279145 0.672074 0.343082
Si Si3 0.240946 0.329609 0.062686
Si Si4 0.628422 0.827546 0.209251
Si Si5 0.446680 0.825235 0.346389
Si Si6 0.097780 0.666147 0.927188
Si Si7 0.328329 0.672319 0.197613
O O1 0.056303 0.500000 0.421347
O O2 0.166314 0.266208 0.381327
O O3 0.000000 0.265172 0.500000
O O4 0.988510 0.270672 0.392652
O O5 0.278018 0.500000 0.357389
O O6 0.340023 0.752801 0.371619
O O7 0.333520 0.705249 0.263195
O O8 0.244635 0.500000 0.047334
O O9 0.142518 0.290066 0.136123
O O10 0.332416 0.284429 0.068391
O O11 0.250000 0.250000 0.000000
O O12 0.524746 0.764562 0.270349
O O13 0.721475 0.769435 0.213020
O O14 0.626700 0.000000 0.220189
O O15 0.433739 0.000000 0.349496
O O16 0.140969 0.500000 0.909522
O O17 0.086697 0.730535 0.866170
O O18 0.000000 0.665085 0.000000
O O19 0.344585 0.500000 0.178947
#
# Coordination Sequence:
#
# PCOD8091721 Si02
#       7
#     8   8   8   8   8   8   8
#     4   9  18  35  60  84 111 152 192 224 268 335
#     4  10  20  35  56  84 115 144 185 234 279 328
#     4  10  20  34  53  75 104 142 184 229 280 333
#     4   8  15  31  53  72  95 137 183 224 268 328
#     4  10  19  34  57  83 110 144 189 229 273 333
#     4  10  21  35  51  74 106 142 182 229 280 332
#     4   9  17  33  55  74  98 140 187 229 277 331
#
# _framework density 19.635498999999999
#
# number of rings (size 3 to 8) (size 9 to 14) (size 15 to 20)
#    0.000    2.571    1.429    1.714    0.000    3.429 
#    0.000    8.571    0.000    0.857    0.000    0.000 
#    0.000    0.000    0.000    0.000    0.000    0.000 
#
# Total GULP energy -346958.422123 kJ/mol
# GULP energy per Si atom -12391.372219 kJ/mol
# Density = 1.959081 g / cm^3
# Si number density = 19.635499 Si / 1000 Ang^3
#
#
#
# Elastic Constant Matrix: (Units=GPa)
#
#
# Indices 1 2 3 4 5 6 
#
# 1 115.6517 31.9832 58.4913 0.0000 11.2947 0.0000
# 2 31.9832 42.5383 48.8779 0.0000 5.5831 0.0001
# 3 58.4913 48.8779 142.1596 0.0000 12.3681 0.0000
# 4 0.0000 0.0000 0.0000 17.1802 0.0000 1.5016
# 5 11.2947 5.5831 12.3681 0.0000 23.5969 0.0000
# 6 0.0000 0.0001 0.0000 1.5016 0.0000 29.9572
#
#
#
# Elastic Compliance Matrix: (Units=1/GPa)
#
#
# Indices 1 2 3 4 5 6 
#
# 1 0.011804 -0.005294 -0.002781 0.000000 -0.002940 0.000000
# 2 -0.005294 0.041354 -0.011955 0.000000 -0.000985 0.000000
# 3 -0.002781 -0.011955 0.012497 0.000000 -0.002391 0.000000
# 4 0.000000 0.000000 0.000000 0.058463 0.000000 -0.002930
# 5 -0.002940 -0.000985 -0.002391 0.000000 0.045272 0.000000
# 6 0.000000 0.000000 0.000000 -0.002930 0.000000 0.033528
#
#
# Mechanical properties :
#
#
# Convention : Reuss Voigt Hill
#
# Bulk Modulus (GPa) = 39.06848 64.33937 51.70393
# Shear Modulus (GPa) = 19.88004 24.88002 22.38003
#
# Velocity S-wave (km/s) = 3.18536 3.56349 3.37972
# Velocity P-wave (km/s) = 5.78522 7.05473 6.45128
#
# Compressibility (1/GPa) = 0.02559608
#
# Stress axis : x y z
#
# Youngs Moduli (GPa) = 84.71514 24.18132 80.02065
#
# Poissons Ratio (x) = 0.12802 0.22252
# Poissons Ratio (y) = 0.44849 0.95662
# Poissons Ratio (z) = 0.23558 0.28908
#
# Static dielectric constant tensor:
#      x y z
#    x 3.174670 0.000000 -0.838390 
#    y 0.000000 3.252890 0.000000 
#    z -0.838390 0.000000 2.076920 
# 
# 
# High freq. dielectric constant tensor:
#      x y z
#    x 1.749430 0.000000 0.005500 
#    y 0.000000 1.730560 0.000000 
#    z 0.005500 0.000000 1.779330 
# 
# From -- ./inp_files/338540.got.cif
#   From: 2010.06.25/outbox.cif.g09.slc.cpg/sg12_170_cif.got.tgz:338540.got - 2010.06.28 00:19:55.
