data_PCOD8091952
_publ_section_title
;
Structure prediction by ZEFSAII (Michael W. Deem and Ramdas Pophale) SiO2 
 PCOD8091952
Probable space group: C 2/M
;
_chemical_formula_sum "Si O2"
_cell_formula_units_Z 40
_cell_length_a 19.330877
_cell_length_b 9.305812
_cell_length_c 22.404114
_cell_angle_alpha 90.000000
_cell_angle_beta 28.396048
_cell_angle_gamma 90.000000
_cell_volume 1916.647078
_symmetry_space_group_name_H-M "C 2/M"
_symmetry_group_IT_number 12
_symmetry_cell_setting 'monoclinic'
loop_
_space_group_symop_operation_xyz
x,y,z
-x,y,-z
-x,-y,-z
x,-y,z
1/2+x,1/2+y,z
1/2-x,1/2+y,-z
1/2-x,1/2-y,-z
1/2+x,1/2-y,z
loop_
_atom_site_type_symbol
_atom_site_label
_atom_site_fract_x
_atom_site_fract_y
_atom_site_fract_z
Si Si1 0.172489 0.169596 0.370960
Si Si2 0.896218 0.830891 0.902005
Si Si3 0.948441 0.154811 0.333181
Si Si4 0.345151 0.156261 0.502775
Si Si5 0.920017 0.830474 0.122597
O O1 0.223443 0.247952 0.392598
O O2 0.267517 0.242232 0.245419
O O3 0.000000 0.202166 0.500000
O O4 0.204139 0.000000 0.348737
O O5 0.993340 0.782248 0.772637
O O6 0.971603 0.782535 0.906459
O O7 0.868325 0.000000 0.924726
O O8 0.750000 0.750000 0.000000
O O9 0.777123 0.129749 0.454127
O O10 0.976192 0.260366 0.368663
O O11 0.020803 0.000000 0.294066
O O12 0.399936 0.000000 0.484893
O O13 0.884282 0.000000 0.152784
O O14 0.000000 0.789966 0.000000
#
# Coordination Sequence:
#
# PCOD8091952 Si02
#       5
#     8   8   8   8   8
#     4  11  24  40  60  89 125 161 203 255 311 371
#     4  10  21  38  59  88 122 158 201 250 303 363
#     4   9  18  34  55  82 117 148 184 238 294 350
#     4  10  19  34  58  85 113 147 191 238 292 355
#     4  10  22  43  67  90 122 163 212 264 310 367
#
# _framework density 20.869776999999999
#
# number of rings (size 3 to 8) (size 9 to 14) (size 15 to 20)
#    0.000    2.000    2.000    1.200    0.000    6.000 
#    0.000    4.000    0.000    0.000    0.000    0.000 
#    0.000    0.000    0.000    0.000    0.000    0.000 
#
# Total GULP energy -247790.687627 kJ/mol
# GULP energy per Si atom -12389.534381 kJ/mol
# Density = 2.082228 g / cm^3
# Si number density = 20.869777 Si / 1000 Ang^3
#
#
#
# Elastic Constant Matrix: (Units=GPa)
#
#
# Indices 1 2 3 4 5 6 
#
# 1 45.0786 37.2031 60.9045 0.0003 14.9805 0.0000
# 2 37.2031 114.5878 76.4998 -0.0004 15.0790 0.0000
# 3 60.9045 76.4998 152.4082 -0.0002 28.9057 0.0000
# 4 0.0003 -0.0004 -0.0002 33.8785 -0.0001 3.7428
# 5 14.9805 15.0790 28.9057 -0.0001 43.1663 0.0001
# 6 0.0000 0.0000 0.0000 3.7428 0.0001 26.6445
#
#
#
# Elastic Compliance Matrix: (Units=1/GPa)
#
#
# Indices 1 2 3 4 5 6 
#
# 1 0.050353 -0.004350 -0.017082 -0.000001 -0.004516 0.000000
# 2 -0.004350 0.013502 -0.005076 0.000000 0.000192 0.000000
# 3 -0.017082 -0.005076 0.016580 0.000000 -0.003402 0.000000
# 4 -0.000001 0.000000 0.000000 0.029983 0.000000 -0.004212
# 5 -0.004516 0.000192 -0.003402 0.000000 0.026945 0.000000
# 6 0.000000 0.000000 0.000000 -0.004212 0.000000 0.038123
#
#
# Mechanical properties :
#
#
# Convention : Reuss Voigt Hill
#
# Bulk Modulus (GPa) = 36.46781 73.47660 54.97221
# Shear Modulus (GPa) = 21.04018 29.90236 25.47127
#
# Velocity S-wave (km/s) = 3.17861 3.78935 3.49734
# Velocity P-wave (km/s) = 5.56626 7.37761 6.53500
#
# Compressibility (1/GPa) = 0.02742144
#
# Stress axis : x y z
#
# Youngs Moduli (GPa) = 19.85974 74.06088 60.31255
#
# Poissons Ratio (x) = 0.32214 1.03026
# Poissons Ratio (y) = 0.08638 0.30612
# Poissons Ratio (z) = 0.33924 0.37590
#
# Static dielectric constant tensor:
#      x y z
#    x 3.572370 0.000000 0.214970 
#    y 0.000000 3.881610 -0.000010 
#    z 0.214970 -0.000010 3.638580 
# 
# 
# High freq. dielectric constant tensor:
#      x y z
#    x 1.797600 0.000000 0.020160 
#    y 0.000000 1.820700 0.000000 
#    z 0.020160 0.000000 1.813620 
# 
# From -- ./inp_files/162517.got.cif
#   From: 2010.06.25/outbox.cif.g09.slc.cpg/sg12_82_cif.got.tgz:162517.got - 2010.06.28 00:19:55.
