data_PCOD8091210
_publ_section_title
;
Structure prediction by ZEFSAII (Michael W. Deem and Ramdas Pophale) SiO2 
 PCOD8091210
Probable space group: C 2/M
;
_chemical_formula_sum "Si O2"
_cell_formula_units_Z 48
_cell_length_a 24.578095
_cell_length_b 9.102150
_cell_length_c 19.669740
_cell_angle_alpha 90.000000
_cell_angle_beta 146.172240
_cell_angle_gamma 90.000000
_cell_volume 2449.687104
_symmetry_space_group_name_H-M "C 2/M"
_symmetry_group_IT_number 12
_symmetry_cell_setting 'monoclinic'
loop_
_space_group_symop_operation_xyz
x,y,z
-x,y,-z
-x,-y,-z
x,-y,z
1/2+x,1/2+y,z
1/2-x,1/2+y,-z
1/2-x,1/2-y,-z
1/2+x,1/2-y,z
loop_
_atom_site_type_symbol
_atom_site_label
_atom_site_fract_x
_atom_site_fract_y
_atom_site_fract_z
Si Si1 0.912349 0.825469 0.360245
Si Si2 0.786400 0.167691 0.835980
Si Si3 0.288733 0.326343 0.473519
Si Si4 0.444170 0.674972 0.102323
Si Si5 0.639030 0.332078 0.231109
Si Si6 0.989007 0.173761 0.297267
O O1 0.809823 0.761687 0.278938
O O2 0.929685 0.768071 0.301061
O O3 0.000000 0.769825 0.500000
O O4 0.906439 0.000000 0.357502
O O5 0.862154 0.177344 0.851718
O O6 0.753627 0.000000 0.813979
O O7 0.845640 0.230611 0.962770
O O8 0.278718 0.500000 0.470247
O O9 0.250000 0.250000 0.500000
O O10 0.228450 0.269223 0.346993
O O11 0.399799 0.276343 0.578075
O O12 0.445660 0.500000 0.102465
O O13 0.539223 0.731289 0.159780
O O14 0.445624 0.737123 0.181181
O O15 0.655789 0.500000 0.272997
O O16 0.982985 0.000000 0.288153
#
# Coordination Sequence:
#
# PCOD8091210 Si02
#       6
#     8   8   8   8   8   8
#     4  10  21  38  57  76 104 144 183 220 269 329
#     4  10  21  35  56  82 107 140 182 227 272 315
#     4  11  20  33  55  83 111 141 178 222 270 319
#     4   9  17  33  55  79 107 141 182 222 267 327
#     4  10  19  34  55  80 110 144 180 222 269 324
#     4   9  18  33  55  78 104 142 183 218 261 325
#
# _framework density 19.594339000000002
#
# number of rings (size 3 to 8) (size 9 to 14) (size 15 to 20)
#    0.000    2.167    1.667    2.000    0.000    5.000 
#    0.000    2.500    0.000    2.000    0.000    0.000 
#    0.000    0.000    0.000    0.000    0.000    0.000 
#
# Total GULP energy -297558.286926 kJ/mol
# GULP energy per Si atom -12398.261955 kJ/mol
# Density = 1.954974 g / cm^3
# Si number density = 19.594339 Si / 1000 Ang^3
#
#
#
# Elastic Constant Matrix: (Units=GPa)
#
#
# Indices 1 2 3 4 5 6 
#
# 1 113.0917 14.9640 44.6475 0.0000 -8.2493 0.0000
# 2 14.9640 32.8617 23.8417 0.0000 -0.9362 0.0000
# 3 44.6475 23.8417 143.4002 0.0000 -11.5528 0.0000
# 4 0.0000 0.0000 0.0000 25.3502 0.0000 2.0929
# 5 -8.2493 -0.9362 -11.5528 0.0000 30.8663 0.0000
# 6 0.0000 0.0000 0.0000 2.0929 0.0000 20.9056
#
#
#
# Elastic Compliance Matrix: (Units=1/GPa)
#
#
# Indices 1 2 3 4 5 6 
#
# 1 0.010372 -0.002765 -0.002632 0.000000 0.001703 0.000000
# 2 -0.002765 0.035380 -0.005150 0.000000 -0.001593 0.000000
# 3 -0.002632 -0.005150 0.008847 0.000000 0.002451 0.000000
# 4 0.000000 0.000000 0.000000 0.039776 0.000000 -0.003982
# 5 0.001703 -0.001593 0.002451 0.000000 0.033722 0.000000
# 6 0.000000 0.000000 0.000000 -0.003982 0.000000 0.048233
#
#
# Mechanical properties :
#
#
# Convention : Reuss Voigt Hill
#
# Bulk Modulus (GPa) = 29.84615 50.69553 40.27084
# Shear Modulus (GPa) = 23.97026 29.15113 26.56069
#
# Velocity S-wave (km/s) = 3.50140 3.86130 3.68575
# Velocity P-wave (km/s) = 5.62241 6.76818 6.22172
#
# Compressibility (1/GPa) = 0.03350515
#
# Stress axis : x y z
#
# Youngs Moduli (GPa) = 96.41697 28.26420 113.03508
#
# Poissons Ratio (x) = 0.07814 0.29755
# Poissons Ratio (y) = 0.26655 0.58213
# Poissons Ratio (z) = 0.25381 0.14556
#
# Static dielectric constant tensor:
#      x y z
#    x 3.626850 0.000000 -0.344150 
#    y 0.000000 3.273830 0.000000 
#    z -0.344150 0.000000 3.718230 
# 
# 
# High freq. dielectric constant tensor:
#      x y z
#    x 1.772500 0.000000 -0.010030 
#    y 0.000000 1.717730 0.000000 
#    z -0.010030 0.000000 1.772210 
# 
# From -- ./inp_files/165192.got.cif
#   From: 2010.06.25/outbox.cif.g09.slc.cpg/sg12_83_cif.got.tgz:165192.got - 2010.06.28 00:19:55.
