data_PCOD8091753
_publ_section_title
;
Structure prediction by ZEFSAII (Michael W. Deem and Ramdas Pophale) SiO2 
 PCOD8091753
Probable space group: C 2/M
;
_chemical_formula_sum "Si O2"
_cell_formula_units_Z 64
_cell_length_a 19.132242
_cell_length_b 9.326911
_cell_length_c 30.706569
_cell_angle_alpha 90.000000
_cell_angle_beta 142.118043
_cell_angle_gamma 90.000000
_cell_volume 3364.567967
_symmetry_space_group_name_H-M "C 2/M"
_symmetry_group_IT_number 12
_symmetry_cell_setting 'monoclinic'
loop_
_space_group_symop_operation_xyz
x,y,z
-x,y,-z
-x,-y,-z
x,-y,z
1/2+x,1/2+y,z
1/2-x,1/2+y,-z
1/2-x,1/2-y,-z
1/2+x,1/2-y,z
loop_
_atom_site_type_symbol
_atom_site_label
_atom_site_fract_x
_atom_site_fract_y
_atom_site_fract_z
Si Si1 0.813626 0.831725 0.492627
Si Si2 0.976983 0.833142 0.772744
Si Si3 0.074285 0.833437 0.620055
Si Si4 0.726329 0.838287 0.758229
Si Si5 0.024742 0.833358 0.131015
Si Si6 0.906746 0.829149 0.988151
Si Si7 0.743444 0.166328 0.361526
Si Si8 0.323700 0.161616 0.165511
O O1 0.750000 0.750000 0.500000
O O2 0.755747 0.792956 0.418187
O O3 0.944263 0.781481 0.552870
O O4 0.804952 0.000000 0.498011
O O5 0.024431 0.807588 0.845047
O O6 0.853601 0.763632 0.707140
O O7 0.066252 0.760689 0.784580
O O8 0.966249 0.000000 0.756271
O O9 0.129106 0.752238 0.687461
O O10 0.139276 0.801073 0.606601
O O11 0.079825 0.000000 0.633856
O O12 0.848994 0.765499 0.809248
O O13 0.709972 0.838129 0.801278
O O14 0.720862 0.000000 0.736830
O O15 0.939670 0.769836 0.052522
O O16 0.040105 0.000000 0.127452
O O17 0.903380 0.000000 0.983914
O O18 0.781190 0.772559 0.913946
O O19 0.000000 0.769722 0.000000
O O20 0.709695 0.000000 0.339823
O O21 0.353266 0.000000 0.164608
#
# Coordination Sequence:
#
# PCOD8091753 Si02
#       8
#     8   8   8   8   8   8   8   8
#     4  10  23  41  60  86 117 148 184 227 277 329
#     4  11  23  37  55  81 118 152 182 230 287 337
#     4  10  21  38  61  86 112 147 188 229 276 329
#     4  10  19  34  57  84 112 144 188 236 277 324
#     4   9  17  32  54  81 110 143 186 234 280 325
#     4   9  15  29  55  82 106 140 189 238 279 327
#     4  10  21  40  63  83 110 149 191 231 271 327
#     4  10  21  35  56  84 112 146 191 237 280 333
#
# _framework density 19.021758999999999
#
# number of rings (size 3 to 8) (size 9 to 14) (size 15 to 20)
#    0.000    2.125    2.500    0.750    1.750    3.500 
#    0.000    0.000    0.000    4.125    0.000    0.000 
#    0.000    0.000    0.000    0.000    0.000    0.000 
#
# Total GULP energy -396778.894174 kJ/mol
# GULP energy per Si atom -12399.340443 kJ/mol
# Density = 1.897846 g / cm^3
# Si number density = 19.021759 Si / 1000 Ang^3
#
#
#
# Elastic Constant Matrix: (Units=GPa)
#
#
# Indices 1 2 3 4 5 6 
#
# 1 83.5981 34.8244 34.4918 0.0000 8.9513 0.0000
# 2 34.8244 53.7271 38.2667 0.0001 3.3018 -0.0002
# 3 34.4918 38.2667 103.8553 0.0000 -5.4407 0.0000
# 4 0.0000 0.0001 0.0000 23.2694 0.0000 -2.4107
# 5 8.9513 3.3018 -5.4407 0.0000 33.0940 0.0000
# 6 0.0000 -0.0002 0.0000 -2.4107 0.0000 24.3986
#
#
#
# Elastic Compliance Matrix: (Units=1/GPa)
#
#
# Indices 1 2 3 4 5 6 
#
# 1 0.017269 -0.009076 -0.002611 0.000000 -0.004195 0.000000
# 2 -0.009076 0.030564 -0.008350 0.000000 -0.001967 0.000000
# 3 -0.002611 -0.008350 0.013772 0.000000 0.003803 0.000000
# 4 0.000000 0.000000 0.000000 0.043419 0.000000 0.004290
# 5 -0.004195 -0.001967 0.003803 0.000000 0.032173 0.000000
# 6 0.000000 0.000000 0.000000 0.004290 0.000000 0.041410
#
#
# Mechanical properties :
#
#
# Convention : Reuss Voigt Hill
#
# Bulk Modulus (GPa) = 46.44619 50.70518 48.57569
# Shear Modulus (GPa) = 22.13774 25.05891 23.59833
#
# Velocity S-wave (km/s) = 3.41517 3.63351 3.52603
# Velocity P-wave (km/s) = 6.32626 6.65714 6.49381
#
# Compressibility (1/GPa) = 0.02153029
#
# Stress axis : x y z
#
# Youngs Moduli (GPa) = 57.90663 32.71844 72.61132
#
# Poissons Ratio (x) = 0.29695 0.18958
# Poissons Ratio (y) = 0.52556 0.60633
# Poissons Ratio (z) = 0.15119 0.27321
#
# Static dielectric constant tensor:
#      x y z
#    x 3.441590 0.000000 -0.019040 
#    y 0.000000 3.225010 0.000000 
#    z -0.019040 0.000000 3.658920 
# 
# 
# High freq. dielectric constant tensor:
#      x y z
#    x 1.745130 0.000000 -0.003040 
#    y 0.000000 1.704320 0.000000 
#    z -0.003040 0.000000 1.750890 
# 
# From -- ./inp_files/378503.got.cif
#   From: 2010.06.25/outbox.cif.g09.slc.cpg/sg12_190_cif.got.tgz:378503.got - 2010.06.28 00:19:55.
