data_PCOD8091560
_publ_section_title
;
Structure prediction by ZEFSAII (Michael W. Deem and Ramdas Pophale) SiO2 
 PCOD8091560
Probable space group: C 2/M
;
_chemical_formula_sum "Si O2"
_cell_formula_units_Z 52
_cell_length_a 11.661895
_cell_length_b 26.446764
_cell_length_c 18.199954
_cell_angle_alpha 90.000000
_cell_angle_beta 149.970750
_cell_angle_gamma 90.000000
_cell_volume 2809.090623
_symmetry_space_group_name_H-M "C 2/M"
_symmetry_group_IT_number 12
_symmetry_cell_setting 'monoclinic'
loop_
_space_group_symop_operation_xyz
x,y,z
-x,y,-z
-x,-y,-z
x,-y,z
1/2+x,1/2+y,z
1/2-x,1/2+y,-z
1/2-x,1/2-y,-z
1/2+x,1/2-y,z
loop_
_atom_site_type_symbol
_atom_site_label
_atom_site_fract_x
_atom_site_fract_y
_atom_site_fract_z
Si Si1 0.647513 0.340688 0.477469
Si Si2 0.338923 0.686740 0.679982
Si Si3 0.806446 0.702515 0.707407
Si Si4 0.663596 0.443091 0.419843
Si Si5 0.778100 0.554164 0.926096
Si Si6 0.148138 0.338236 0.007919
Si Si7 0.500000 0.103781 0.500000
O O1 0.720279 0.317501 0.439572
O O2 0.395632 0.322297 0.358425
O O3 0.829367 0.323210 0.639855
O O4 0.643854 0.402035 0.473849
O O5 0.248155 0.738653 0.664088
O O6 0.608731 0.686250 0.841374
O O7 0.203812 0.640422 0.644219
O O8 0.039204 0.693386 0.881167
O O9 0.668583 0.500000 0.454876
O O10 0.445909 0.434578 0.246666
O O11 0.900006 0.432648 0.507387
O O12 0.744001 0.500000 0.949757
O O13 0.818036 0.603126 0.999650
O O14 0.000000 0.547855 0.000000
O O15 0.000000 0.335536 0.000000
#
# Coordination Sequence:
#
# PCOD8091560 Si02
#       7
#     8   8   8   8   8   8   4
#     4  10  20  38  54  83 112 147 182 232 272 337
#     4  11  21  37  57  80 114 150 186 232 274 328
#     4  11  22  34  58  82 113 150 186 225 285 329
#     4  10  19  35  58  84 112 145 184 235 281 325
#     4   9  16  29  54  81 106 141 178 225 280 323
#     4  11  19  37  55  81 114 143 187 236 275 329
#     4  10  19  34  56  88 110 142 195 226 272 332
#
# _framework density 18.511329
#
# number of rings (size 3 to 8) (size 9 to 14) (size 15 to 20)
#    0.000    1.692    4.615    3.000    0.000    1.231 
#    0.000    2.308    0.000    0.000    0.000    1.077 
#    0.000    0.000    0.000    0.000    0.000    0.000 
#
# Total GULP energy -322199.355902 kJ/mol
# GULP energy per Si atom -12392.282919 kJ/mol
# Density = 1.846920 g / cm^3
# Si number density = 18.511329 Si / 1000 Ang^3
#
#
#
# Elastic Constant Matrix: (Units=GPa)
#
#
# Indices 1 2 3 4 5 6 
#
# 1 58.9855 22.8245 30.8465 -0.0005 10.5075 -0.0011
# 2 22.8245 125.3539 13.5983 0.0012 -6.3618 -0.0003
# 3 30.8465 13.5983 91.8208 0.0074 0.1756 -0.0048
# 4 -0.0005 0.0012 0.0074 12.4843 0.0035 6.1965
# 5 10.5075 -6.3618 0.1756 0.0035 29.0730 -0.0010
# 6 -0.0011 -0.0003 -0.0048 6.1965 -0.0010 24.7249
#
#
#
# Elastic Compliance Matrix: (Units=1/GPa)
#
#
# Indices 1 2 3 4 5 6 
#
# 1 0.024152 -0.004071 -0.007493 0.000010 -0.009575 -0.000003
# 2 -0.004071 0.008887 0.000045 -0.000002 0.003416 0.000001
# 3 -0.007493 0.000045 0.013396 -0.000012 0.002637 0.000005
# 4 0.000010 -0.000002 -0.000012 0.091480 -0.000016 -0.022927
# 5 -0.009575 0.003416 0.002637 -0.000016 0.038588 0.000006
# 6 -0.000003 0.000001 0.000005 -0.022927 0.000006 0.046191
#
#
# Mechanical properties :
#
#
# Convention : Reuss Voigt Hill
#
# Bulk Modulus (GPa) = 42.73764 45.63318 44.18541
# Shear Modulus (GPa) = 19.72140 27.18248 23.45194
#
# Velocity S-wave (km/s) = 3.26754 3.83616 3.56321
# Velocity P-wave (km/s) = 6.11336 6.65781 6.39139
#
# Compressibility (1/GPa) = 0.02339858
#
# Stress axis : x y z
#
# Youngs Moduli (GPa) = 41.40382 112.52257 74.64815
#
# Poissons Ratio (x) = 0.45806 0.55931
# Poissons Ratio (y) = 0.16855 -0.00335
# Poissons Ratio (z) = 0.31022 -0.00505
#
# Static dielectric constant tensor:
#      x y z
#    x 3.310290 -0.000010 0.220100 
#    y -0.000010 3.887900 -0.000010 
#    z 0.220100 -0.000010 3.485130 
# 
# 
# High freq. dielectric constant tensor:
#      x y z
#    x 1.685210 0.000000 0.030040 
#    y 0.000000 1.740940 0.000000 
#    z 0.030040 0.000000 1.707090 
# 
# From -- ./inp_files/265968.got.cif
#   From: 2010.06.25/outbox.cif.g09.slc.cpg/sg12_133_cif.got.tgz:265968.got - 2010.06.28 00:19:55.
