data_PCOD8091736
_publ_section_title
;
Structure prediction by ZEFSAII (Michael W. Deem and Ramdas Pophale) SiO2 
 PCOD8091736
Probable space group: C 2/M
;
_chemical_formula_sum "Si O2"
_cell_formula_units_Z 56
_cell_length_a 18.171732
_cell_length_b 7.740639
_cell_length_c 30.315388
_cell_angle_alpha 90.000000
_cell_angle_beta 139.346734
_cell_angle_gamma 90.000000
_cell_volume 2778.031884
_symmetry_space_group_name_H-M "C 2/M"
_symmetry_group_IT_number 12
_symmetry_cell_setting 'monoclinic'
loop_
_space_group_symop_operation_xyz
x,y,z
-x,y,-z
-x,-y,-z
x,-y,z
1/2+x,1/2+y,z
1/2-x,1/2+y,-z
1/2-x,1/2-y,-z
1/2+x,1/2-y,z
loop_
_atom_site_type_symbol
_atom_site_label
_atom_site_fract_x
_atom_site_fract_y
_atom_site_fract_z
Si Si1 0.122741 0.797345 0.931566
Si Si2 0.709144 0.204369 0.804970
Si Si3 0.118111 0.699486 0.669019
Si Si4 0.683378 0.500000 0.579265
Si Si5 0.292655 0.690855 0.671944
Si Si6 0.537626 0.196686 0.799712
Si Si7 0.958999 0.205852 0.934229
Si Si8 0.001023 0.000000 0.428509
O O1 0.086649 0.701437 0.870918
O O2 0.044527 0.727903 0.935633
O O3 0.107261 0.000000 0.917674
O O4 0.250000 0.750000 0.000000
O O5 0.656834 0.261075 0.734706
O O6 0.629627 0.275699 0.807833
O O7 0.834621 0.282208 0.867582
O O8 0.718095 0.000000 0.812011
O O9 0.076164 0.500000 0.649277
O O10 0.225063 0.727819 0.686068
O O11 0.016257 0.825519 0.607945
O O12 0.760346 0.329273 0.619701
O O13 0.628351 0.500000 0.505534
O O14 0.585857 0.500000 0.570933
O O15 0.262716 0.500000 0.640111
O O16 0.423838 0.694313 0.743858
O O17 0.509523 0.000000 0.774208
O O18 0.957307 0.000000 0.934243
O O19 0.000000 0.278374 0.000000
#
# Coordination Sequence:
#
# PCOD8091736 Si02
#       8
#     8   8   8   4   8   8   8   4
#     4  11  22  36  55  79 109 144 186 236 284 340
#     4   9  18  33  54  80 106 144 188 233 280 335
#     4   9  18  34  55  81 112 147 189 232 279 336
#     4   9  18  34  54  86 120 142 182 231 281 343
#     4  10  19  34  57  83 113 148 185 232 282 335
#     4  11  21  35  56  81 110 146 184 234 285 335
#     4   9  17  32  55  78 103 142 189 233 281 337
#     4   9  18  32  56  86 115 146 181 231 285 333
#
# _framework density 20.158156999999999
#
# number of rings (size 3 to 8) (size 9 to 14) (size 15 to 20)
#    0.000    2.286    0.714    2.571    0.000    5.143 
#    2.571    2.857    0.000    3.429    0.000    0.000 
#    0.000    0.000    0.000    0.000    0.000    0.000 
#
# Total GULP energy -347226.391126 kJ/mol
# GULP energy per Si atom -12400.942540 kJ/mol
# Density = 2.011228 g / cm^3
# Si number density = 20.158157 Si / 1000 Ang^3
#
#
#
# Elastic Constant Matrix: (Units=GPa)
#
#
# Indices 1 2 3 4 5 6 
#
# 1 119.5093 28.6560 65.4582 0.0001 -6.6182 -0.0003
# 2 28.6560 82.0060 46.9500 0.0005 -4.8403 -0.0014
# 3 65.4582 46.9500 175.0923 0.0000 -12.2090 -0.0001
# 4 0.0001 0.0005 0.0000 26.2307 0.0000 -0.3433
# 5 -6.6182 -4.8403 -12.2090 0.0000 25.4620 0.0001
# 6 -0.0003 -0.0014 -0.0001 -0.3433 0.0001 16.5291
#
#
#
# Elastic Compliance Matrix: (Units=1/GPa)
#
#
# Indices 1 2 3 4 5 6 
#
# 1 0.010738 -0.001700 -0.003504 0.000000 0.000788 0.000000
# 2 -0.001700 0.014696 -0.003250 0.000000 0.000794 0.000001
# 3 -0.003504 -0.003250 0.008055 0.000000 0.002334 0.000000
# 4 0.000000 0.000000 0.000000 0.038134 0.000000 0.000792
# 5 0.000788 0.000794 0.002334 0.000000 0.040749 0.000000
# 6 0.000000 0.000001 0.000000 0.000792 0.000000 0.060516
#
#
# Mechanical properties :
#
#
# Convention : Reuss Voigt Hill
#
# Bulk Modulus (GPa) = 60.30509 73.19288 66.74899
# Shear Modulus (GPa) = 25.59891 29.34725 27.47308
#
# Velocity S-wave (km/s) = 3.56744 3.81970 3.69572
# Velocity P-wave (km/s) = 6.85199 7.47272 7.16908
#
# Compressibility (1/GPa) = 0.01658235
#
# Stress axis : x y z
#
# Youngs Moduli (GPa) = 93.12927 68.04769 124.14297
#
# Poissons Ratio (x) = 0.11567 0.43494
# Poissons Ratio (y) = 0.15830 0.40343
# Poissons Ratio (z) = 0.32629 0.22114
#
# Static dielectric constant tensor:
#      x y z
#    x 3.639710 0.000000 -0.012790 
#    y 0.000000 3.570410 0.000000 
#    z -0.012790 0.000000 3.722120 
# 
# 
# High freq. dielectric constant tensor:
#      x y z
#    x 1.773360 0.000000 -0.000980 
#    y 0.000000 1.778940 0.000000 
#    z -0.000980 0.000000 1.785170 
# 
# From -- ./inp_files/377785.got.cif
#   From: 2010.06.25/outbox.cif.g09.slc.cpg/sg12_189_cif.got.tgz:377785.got - 2010.06.28 00:19:55.
