data_PCOD8091470
_publ_section_title
;
Structure prediction by ZEFSAII (Michael W. Deem and Ramdas Pophale) SiO2 
 PCOD8091470
Probable space group: C 2/M
;
_chemical_formula_sum "Si O2"
_cell_formula_units_Z 56
_cell_length_a 23.003172
_cell_length_b 8.787113
_cell_length_c 15.166366
_cell_angle_alpha 90.000000
_cell_angle_beta 87.996349
_cell_angle_gamma 90.000000
_cell_volume 3063.725576
_symmetry_space_group_name_H-M "C 2/M"
_symmetry_group_IT_number 12
_symmetry_cell_setting 'monoclinic'
loop_
_space_group_symop_operation_xyz
x,y,z
-x,y,-z
-x,-y,-z
x,-y,z
1/2+x,1/2+y,z
1/2-x,1/2+y,-z
1/2-x,1/2-y,-z
1/2+x,1/2-y,z
loop_
_atom_site_type_symbol
_atom_site_label
_atom_site_fract_x
_atom_site_fract_y
_atom_site_fract_z
Si Si1 0.366381 0.675653 0.853156
Si Si2 0.921173 0.178582 0.333687
Si Si3 0.431119 0.829170 0.510991
Si Si4 0.054734 0.178280 0.313279
Si Si5 0.861520 0.321466 0.175824
Si Si6 0.749662 0.821002 0.096552
Si Si7 0.564433 0.323983 0.973041
O O1 0.349551 0.500000 0.840757
O O2 0.412317 0.728535 0.777060
O O3 0.308637 0.776162 0.848010
O O4 0.393831 0.703276 0.946902
O O5 0.904841 0.226148 0.434280
O O6 0.877956 0.270448 0.273049
O O7 0.987409 0.226366 0.307255
O O8 0.911207 0.000000 0.321772
O O9 0.500000 0.826971 0.500000
O O10 0.413633 0.760731 0.606611
O O11 0.406430 0.000000 0.504392
O O12 0.058963 0.000000 0.330824
O O13 0.850072 0.500000 0.173427
O O14 0.803588 0.235287 0.150507
O O15 0.914303 0.278091 0.108596
O O16 0.754005 0.000000 0.085041
O O17 0.750000 0.750000 0.000000
O O18 0.564148 0.500000 0.943083
O O19 0.500000 0.269422 0.000000
#
# Coordination Sequence:
#
# PCOD8091470 Si02
#       7
#     8   8   8   8   8   8   8
#     4  10  20  35  56  80 109 143 183 228 269 320
#     4  10  19  34  56  82 112 148 185 223 270 329
#     4   9  17  30  50  79 114 148 181 224 270 318
#     4   9  18  33  55  83 113 148 184 219 268 329
#     4  12  24  37  55  80 109 143 183 230 276 324
#     4  12  24  40  59  78 103 141 188 233 276 325
#     4  10  20  35  55  79 110 147 180 217 269 326
#
# _framework density 18.278400000000001
#
# number of rings (size 3 to 8) (size 9 to 14) (size 15 to 20)
#    0.000    1.714    1.429    4.286    0.000    5.429 
#    0.000    1.429    0.000    0.857    0.000    0.000 
#    0.000    0.000    0.000    0.000    0.000    0.000 
#
# Total GULP energy -347311.402046 kJ/mol
# GULP energy per Si atom -12403.978644 kJ/mol
# Density = 1.823680 g / cm^3
# Si number density = 18.278400 Si / 1000 Ang^3
#
#
#
# Elastic Constant Matrix: (Units=GPa)
#
#
# Indices 1 2 3 4 5 6 
#
# 1 73.9425 31.6191 10.2332 0.0000 16.5967 0.0000
# 2 31.6191 96.7625 32.5442 0.0000 9.0895 0.0000
# 3 10.2332 32.5442 80.5538 0.0000 18.4496 0.0000
# 4 0.0000 0.0000 0.0000 33.5676 0.0000 2.0646
# 5 16.5967 9.0895 18.4496 0.0000 18.9053 0.0000
# 6 0.0000 0.0000 0.0000 2.0646 0.0000 25.8147
#
#
#
# Elastic Compliance Matrix: (Units=1/GPa)
#
#
# Indices 1 2 3 4 5 6 
#
# 1 0.019698 -0.006114 0.004192 0.000000 -0.018444 0.000000
# 2 -0.006114 0.013884 -0.005838 0.000000 0.004389 0.000000
# 3 0.004192 -0.005838 0.018597 0.000000 -0.019022 0.000000
# 4 0.000000 0.000000 0.000000 0.029938 0.000000 -0.002394
# 5 -0.018444 0.004389 -0.019022 0.000000 0.085540 0.000000
# 6 0.000000 0.000000 0.000000 -0.002394 0.000000 0.038929
#
#
# Mechanical properties :
#
#
# Convention : Reuss Voigt Hill
#
# Bulk Modulus (GPa) = 27.27831 44.45021 35.86426
# Shear Modulus (GPa) = 21.33787 27.44832 24.39310
#
# Velocity S-wave (km/s) = 3.42040 3.87936 3.65709
# Velocity P-wave (km/s) = 5.52766 6.66612 6.12341
#
# Compressibility (1/GPa) = 0.03665917
#
# Stress axis : x y z
#
# Youngs Moduli (GPa) = 50.76582 72.02756 53.77313
#
# Poissons Ratio (x) = 0.44039 -0.22543
# Poissons Ratio (y) = 0.31039 0.31391
# Poissons Ratio (z) = -0.21282 0.42047
#
# Static dielectric constant tensor:
#      x y z
#    x 3.312150 0.000000 0.019390 
#    y 0.000000 3.427690 0.000000 
#    z 0.019390 0.000000 3.480580 
# 
# 
# High freq. dielectric constant tensor:
#      x y z
#    x 1.686260 0.000000 0.006710 
#    y 0.000000 1.711780 0.000000 
#    z 0.006710 0.000000 1.713310 
# 
# From -- ./inp_files/231001.got.cif
#   From: 2010.06.25/outbox.cif.g09.slc.cpg/sg12_116_cif.got.tgz:231001.got - 2010.06.28 00:19:55.
