data_PCOD8091071
_publ_section_title
;
Structure prediction by ZEFSAII (Michael W. Deem and Ramdas Pophale) SiO2 
 PCOD8091071
Probable space group: C 2/M
;
_chemical_formula_sum "Si O2"
_cell_formula_units_Z 56
_cell_length_a 10.097762
_cell_length_b 25.347333
_cell_length_c 18.510468
_cell_angle_alpha 90.000000
_cell_angle_beta 133.161757
_cell_angle_gamma 90.000000
_cell_volume 3455.856244
_symmetry_space_group_name_H-M "C 2/M"
_symmetry_group_IT_number 12
_symmetry_cell_setting 'monoclinic'
loop_
_space_group_symop_operation_xyz
x,y,z
-x,y,-z
-x,-y,-z
x,-y,z
1/2+x,1/2+y,z
1/2-x,1/2+y,-z
1/2-x,1/2-y,-z
1/2+x,1/2-y,z
loop_
_atom_site_type_symbol
_atom_site_label
_atom_site_fract_x
_atom_site_fract_y
_atom_site_fract_z
Si Si1 0.291021 0.300299 0.107950
Si Si2 0.706671 0.754867 0.567442
Si Si3 0.296268 0.060690 0.443933
Si Si4 0.786412 0.059262 0.423288
Si Si5 0.238916 0.345034 0.312456
Si Si6 0.460045 0.650034 0.692931
Si Si7 0.503382 0.206482 0.888111
O O1 0.406296 0.347822 0.187253
O O2 0.428139 0.256971 0.129391
O O3 0.161080 0.274804 0.121039
O O4 0.165035 0.320881 0.994923
O O5 0.500000 0.772712 0.500000
O O6 0.750000 0.750000 0.500000
O O7 0.744589 0.699669 0.620789
O O8 0.830457 0.799440 0.649582
O O9 0.500000 0.075810 0.500000
O O10 0.280776 0.073035 0.522303
O O11 0.155563 0.096336 0.346275
O O12 0.249988 0.000000 0.408514
O O13 0.694141 0.099354 0.333194
O O14 0.000000 0.066940 0.500000
O O15 0.730114 0.000000 0.379870
O O16 0.427445 0.347797 0.339371
O O17 0.069190 0.335829 0.196220
#
# Coordination Sequence:
#
# PCOD8091071 Si02
#       7
#     8   8   8   8   8   8   8
#     4   9  18  33  51  71  97 129 170 202 248 296
#     4  12  22  31  43  68 103 132 160 196 246 295
#     4  10  21  37  53  74 101 132 170 209 244 290
#     4  10  19  34  55  73  94 133 174 201 239 294
#     4  11  20  33  50  74 102 130 166 207 248 290
#     4  11  20  33  51  74  99 134 165 203 251 298
#     4   9  18  33  51  70  98 131 164 210 243 295
#
# _framework density 16.204377000000001
#
# number of rings (size 3 to 8) (size 9 to 14) (size 15 to 20)
#    0.000    1.714    4.286    1.714    0.000    0.000 
#    2.571    0.000    0.000    0.857    0.000    4.000 
#    0.000    3.429    0.000    0.000    0.000    0.000 
#
# Total GULP energy -347172.154917 kJ/mol
# GULP energy per Si atom -12399.005533 kJ/mol
# Density = 1.616750 g / cm^3
# Si number density = 16.204377 Si / 1000 Ang^3
#
#
#
# Elastic Constant Matrix: (Units=GPa)
#
#
# Indices 1 2 3 4 5 6 
#
# 1 104.0356 38.4070 52.3789 0.0000 1.7734 0.0000
# 2 38.4070 97.0207 63.8120 0.0000 -0.2150 0.0000
# 3 52.3789 63.8120 117.4645 0.0000 -0.7187 0.0000
# 4 0.0000 0.0000 0.0000 20.8862 0.0000 0.9418
# 5 1.7734 -0.2150 -0.7187 0.0000 21.4470 0.0000
# 6 0.0000 0.0000 0.0000 0.9418 0.0000 24.6183
#
#
#
# Elastic Compliance Matrix: (Units=1/GPa)
#
#
# Indices 1 2 3 4 5 6 
#
# 1 0.012676 -0.002020 -0.004563 0.000000 -0.001221 0.000000
# 2 -0.002020 0.016359 -0.007986 0.000000 0.000063 0.000000
# 3 -0.004563 -0.007986 0.014891 0.000000 0.000796 0.000000
# 4 0.000000 0.000000 0.000000 0.047961 0.000000 -0.001835
# 5 -0.001221 0.000063 0.000796 0.000000 0.046755 0.000000
# 6 0.000000 0.000000 0.000000 -0.001835 0.000000 0.040690
#
#
# Mechanical properties :
#
#
# Convention : Reuss Voigt Hill
#
# Bulk Modulus (GPa) = 67.61653 69.74629 68.68141
# Shear Modulus (GPa) = 23.43030 24.31850 23.87440
#
# Velocity S-wave (km/s) = 3.80666 3.87814 3.84256
# Velocity P-wave (km/s) = 7.81913 7.94911 7.88439
#
# Compressibility (1/GPa) = 0.01478928
#
# Stress axis : x y z
#
# Youngs Moduli (GPa) = 78.89160 61.12709 67.15461
#
# Poissons Ratio (x) = 0.12346 0.30639
# Poissons Ratio (y) = 0.15934 0.53631
# Poissons Ratio (z) = 0.35994 0.48817
#
# Static dielectric constant tensor:
#      x y z
#    x 3.229260 0.000000 0.021960 
#    y 0.000000 2.967390 0.000000 
#    z 0.021960 0.000000 3.171590 
# 
# 
# High freq. dielectric constant tensor:
#      x y z
#    x 1.638730 0.000000 -0.000390 
#    y 0.000000 1.600350 0.000000 
#    z -0.000390 0.000000 1.619520 
# 
# From -- ./inp_files/198386.got.cif
#   From: 2010.06.25/outbox.cif.g09.slc.cpg/sg12_100_cif.got.tgz:198386.got - 2010.06.28 00:19:55.
