data_PCOD8091545
_publ_section_title
;
Structure prediction by ZEFSAII (Michael W. Deem and Ramdas Pophale) SiO2 
 PCOD8091545
Probable space group: C 2/M
;
_chemical_formula_sum "Si O2"
_cell_formula_units_Z 56
_cell_length_a 9.153639
_cell_length_b 28.158767
_cell_length_c 20.751618
_cell_angle_alpha 90.000000
_cell_angle_beta 31.543569
_cell_angle_gamma 90.000000
_cell_volume 2798.226957
_symmetry_space_group_name_H-M "C 2/M"
_symmetry_group_IT_number 12
_symmetry_cell_setting 'monoclinic'
loop_
_space_group_symop_operation_xyz
x,y,z
-x,y,-z
-x,-y,-z
x,-y,z
1/2+x,1/2+y,z
1/2-x,1/2+y,-z
1/2-x,1/2-y,-z
1/2+x,1/2-y,z
loop_
_atom_site_type_symbol
_atom_site_label
_atom_site_fract_x
_atom_site_fract_y
_atom_site_fract_z
Si Si1 0.772103 0.801357 0.350922
Si Si2 0.397113 0.445978 0.966492
Si Si3 0.725729 0.945456 0.767442
Si Si4 0.021606 0.781696 0.382083
Si Si5 0.260125 0.120883 0.744374
Si Si6 0.242264 0.551699 0.358311
Si Si7 0.716128 0.376291 0.370931
O O1 0.500000 0.812478 0.500000
O O2 0.770035 0.751974 0.312227
O O3 0.836886 0.840157 0.271761
O O4 0.031994 0.795453 0.302444
O O5 0.490957 0.500000 0.911439
O O6 0.510600 0.403853 0.878136
O O7 0.500000 0.435746 0.000000
O O8 0.063553 0.442312 0.085473
O O9 0.695454 0.913434 0.715937
O O10 0.977297 0.924750 0.716794
O O11 0.789845 0.000000 0.722894
O O12 0.041057 0.830749 0.413102
O O13 0.750000 0.750000 0.500000
O O14 0.387424 0.079252 0.652952
O O15 0.499804 0.141076 0.700754
O O16 0.330191 0.500000 0.300581
O O17 0.000000 0.549163 0.500000
O O18 0.500000 0.402593 0.500000
#
# Coordination Sequence:
#
# PCOD8091545 Si02
#       7
#     8   8   8   8   8   8   8
#     4  10  19  34  56  85 120 151 195 254 315 380
#     4  10  21  41  62  86 123 171 227 272 303 356
#     4  10  22  40  61  87 125 171 214 266 312 363
#     4  10  20  37  58  86 124 160 196 248 310 387
#     4  12  22  34  59  89 119 164 209 259 313 368
#     4  10  21  37  55  84 126 161 197 254 320 380
#     4  12  22  34  58  91 123 160 205 254 320 385
#
# _framework density 20.012671000000001
#
# number of rings (size 3 to 8) (size 9 to 14) (size 15 to 20)
#    0.000    1.429    1.429    6.429    0.000    1.429 
#    0.000    2.143    0.000    0.857    0.000    0.000 
#    0.000    0.000    0.000    0.000    0.000    0.000 
#
# Total GULP energy -346893.935834 kJ/mol
# GULP energy per Si atom -12389.069137 kJ/mol
# Density = 1.996712 g / cm^3
# Si number density = 20.012671 Si / 1000 Ang^3
#
#
#
# Elastic Constant Matrix: (Units=GPa)
#
#
# Indices 1 2 3 4 5 6 
#
# 1 120.4995 52.7621 21.3076 -0.0009 1.1856 0.0144
# 2 52.7621 95.8885 37.2651 -0.0021 16.3836 -0.0015
# 3 21.3076 37.2651 64.3065 0.0018 2.0498 -0.0033
# 4 -0.0009 -0.0021 0.0018 28.3255 0.0020 4.6344
# 5 1.1856 16.3836 2.0498 0.0020 32.5835 -0.0093
# 6 0.0144 -0.0015 -0.0033 4.6344 -0.0093 -3.9635
#
#
#
# Elastic Compliance Matrix: (Units=1/GPa)
#
#
# Indices 1 2 3 4 5 6 
#
# 1 0.011185 -0.006688 0.000076 -0.000005 0.002951 0.000030
# 2 -0.006688 0.018882 -0.008448 0.000002 -0.008719 -0.000001
# 3 0.000076 -0.008448 0.020326 0.000001 0.002966 -0.000019
# 4 -0.000005 0.000002 0.000001 0.029635 0.000007 0.034650
# 5 0.002951 -0.008719 0.002966 0.000007 0.034781 -0.000062
# 6 0.000030 -0.000001 -0.000019 0.034650 -0.000062 -0.211785
#
#
# Mechanical properties :
#
#
# Convention : Reuss Voigt Hill
#
# Bulk Modulus (GPa) = 49.32827 55.92934 52.62881
# Shear Modulus (GPa) = -83.19602 22.67974 -30.25814
#
# Velocity S-wave (km/s) = -6.45460 3.37006 -3.89260
# Velocity P-wave (km/s) = 5.55403 6.56892 2.48027
#
# Compressibility (1/GPa) = 0.02027235
#
# Stress axis : x y z
#
# Youngs Moduli (GPa) = 89.40715 52.96157 49.19707
#
# Poissons Ratio (x) = 0.35420 -0.00372
# Poissons Ratio (y) = 0.59795 0.41561
# Poissons Ratio (z) = -0.00675 0.44741
#
# Static dielectric constant tensor:
#      x y z
#    x 4.135570 0.000000 -0.031150 
#    y 0.000000 3.807510 -0.000010 
#    z -0.031150 -0.000010 3.313940 
# 
# 
# High freq. dielectric constant tensor:
#      x y z
#    x 1.803820 0.000000 0.000580 
#    y 0.000000 1.783360 0.000000 
#    z 0.000580 0.000000 1.736570 
# 
# From -- ./inp_files/302999.got.cif
#   From: 2010.06.25/outbox.cif.g09.slc.cpg/sg12_152_cif.got.tgz:302999.got - 2010.06.28 00:19:55.
