data_PCOD8091556
_publ_section_title
;
Structure prediction by ZEFSAII (Michael W. Deem and Ramdas Pophale) SiO2 
 PCOD8091556
Probable space group: C 2/M
;
_chemical_formula_sum "Si O2"
_cell_formula_units_Z 48
_cell_length_a 15.235710
_cell_length_b 17.760003
_cell_length_c 9.758046
_cell_angle_alpha 90.000000
_cell_angle_beta 103.230173
_cell_angle_gamma 90.000000
_cell_volume 2570.313169
_symmetry_space_group_name_H-M "C 2/M"
_symmetry_group_IT_number 12
_symmetry_cell_setting 'monoclinic'
loop_
_space_group_symop_operation_xyz
x,y,z
-x,y,-z
-x,-y,-z
x,-y,z
1/2+x,1/2+y,z
1/2-x,1/2+y,-z
1/2-x,1/2-y,-z
1/2+x,1/2-y,z
loop_
_atom_site_type_symbol
_atom_site_label
_atom_site_fract_x
_atom_site_fract_y
_atom_site_fract_z
Si Si1 0.753165 0.588348 0.577499
Si Si2 0.542039 0.329846 0.870029
Si Si3 0.735851 0.662822 0.858429
Si Si4 0.402226 0.911616 0.414380
Si Si5 0.145683 0.310604 0.856853
Si Si6 0.936507 0.914542 0.607156
O O1 0.751961 0.500000 0.604381
O O2 0.766471 0.627295 0.727671
O O3 0.834087 0.613406 0.508578
O O4 0.661369 0.614516 0.472587
O O5 0.639473 0.370636 0.878919
O O6 0.556918 0.239270 0.863079
O O7 0.470694 0.357338 0.733236
O O8 0.500000 0.352159 0.000000
O O9 0.724443 0.753327 0.832680
O O10 0.815289 0.646120 0.995965
O O11 0.500000 0.886300 0.500000
O O12 0.378383 0.871245 0.264965
O O13 0.396903 0.000000 0.382998
O O14 0.000000 0.910140 0.500000
O O15 0.932980 0.000000 0.663739
#
# Coordination Sequence:
#
# PCOD8091556 Si02
#       6
#     8   8   8   8   8   8
#     4  10  21  37  60  86 115 150 185 232 283 336
#     4  10  21  35  55  83 123 152 185 225 274 335
#     4   9  20  38  55  85 117 150 187 227 275 338
#     4  10  23  42  60  82 110 143 196 249 286 328
#     4   9  21  39  56  82 111 151 189 234 280 329
#     4  10  19  34  56  86 121 151 185 223 273 345
#
# _framework density 18.674766999999999
#
# number of rings (size 3 to 8) (size 9 to 14) (size 15 to 20)
#    1.000    1.333    1.667    0.000    2.333    5.000 
#    0.000    0.000    0.000    3.500    0.000    0.000 
#    0.000    0.000    0.000    0.000    0.000    0.000 
#
# Total GULP energy -297511.276231 kJ/mol
# GULP energy per Si atom -12396.303176 kJ/mol
# Density = 1.863226 g / cm^3
# Si number density = 18.674767 Si / 1000 Ang^3
#
#
#
# Elastic Constant Matrix: (Units=GPa)
#
#
# Indices 1 2 3 4 5 6 
#
# 1 122.3282 32.7816 78.9309 0.0000 9.6522 0.0000
# 2 32.7816 40.9690 64.2032 0.0000 9.5869 0.0000
# 3 78.9309 64.2032 187.8349 0.0000 19.2741 0.0000
# 4 0.0000 0.0000 0.0000 -66.4688 0.0000 -31.6009
# 5 9.6522 9.5869 19.2741 0.0000 24.7098 0.0000
# 6 0.0000 0.0000 0.0000 -31.6009 0.0000 21.3098
#
#
#
# Elastic Compliance Matrix: (Units=1/GPa)
#
#
# Indices 1 2 3 4 5 6 
#
# 1 0.011445 -0.003439 -0.003600 0.000000 -0.000328 0.000000
# 2 -0.003439 0.054715 -0.016540 0.000000 -0.006983 0.000000
# 3 -0.003600 -0.016540 0.012704 0.000000 -0.002086 0.000000
# 4 0.000000 0.000000 0.000000 -0.008824 0.000000 -0.013085
# 5 -0.000328 -0.006983 -0.002086 0.000000 0.044934 0.000000
# 6 0.000000 0.000000 0.000000 -0.013085 0.000000 0.027523
#
#
# Mechanical properties :
#
#
# Convention : Reuss Voigt Hill
#
# Bulk Modulus (GPa) = 31.54040 78.10705 54.82373
# Shear Modulus (GPa) = 24.97179 7.59126 16.28152
#
# Velocity S-wave (km/s) = 3.66073 2.01837 2.95591
# Velocity P-wave (km/s) = 5.89864 6.88095 6.40864
#
# Compressibility (1/GPa) = 0.03170536
#
# Stress axis : x y z
#
# Youngs Moduli (GPa) = 87.37218 18.27649 78.71340
#
# Poissons Ratio (x) = 0.06286 0.28339
# Poissons Ratio (y) = 0.30049 1.30194
# Poissons Ratio (z) = 0.31456 0.30230
#
# Static dielectric constant tensor:
#      x y z
#    x 3.496850 0.000000 0.129920 
#    y 0.000000 3.214010 0.000000 
#    z 0.129920 0.000000 3.315290 
# 
# 
# High freq. dielectric constant tensor:
#      x y z
#    x 1.723820 0.000000 0.006660 
#    y 0.000000 1.701740 0.000000 
#    z 0.006660 0.000000 1.731470 
# 
# From -- ./inp_files/63606.got.cif
#   From: 2010.06.25/outbox.cif.g09.slc.cpg/sg12_32_cif.got.tgz:63606.got - 2010.06.28 00:19:55.
