data_PCOD8091058
_publ_section_title
;
Structure prediction by ZEFSAII (Michael W. Deem and Ramdas Pophale) SiO2 
 PCOD8091058
Probable space group: C 2/M
;
_chemical_formula_sum "Si O2"
_cell_formula_units_Z 44
_cell_length_a 13.333248
_cell_length_b 23.187188
_cell_length_c 8.858893
_cell_angle_alpha 90.000000
_cell_angle_beta 124.731195
_cell_angle_gamma 90.000000
_cell_volume 2250.855350
_symmetry_space_group_name_H-M "C 2/M"
_symmetry_group_IT_number 12
_symmetry_cell_setting 'monoclinic'
loop_
_space_group_symop_operation_xyz
x,y,z
-x,y,-z
-x,-y,-z
x,-y,z
1/2+x,1/2+y,z
1/2-x,1/2+y,-z
1/2-x,1/2-y,-z
1/2+x,1/2-y,z
loop_
_atom_site_type_symbol
_atom_site_label
_atom_site_fract_x
_atom_site_fract_y
_atom_site_fract_z
Si Si1 0.048316 0.790845 0.773942
Si Si2 0.038825 0.673947 0.200719
Si Si3 0.678709 0.670248 0.589425
Si Si4 0.000000 0.131812 0.000000
Si Si5 0.063076 0.437814 0.396659
Si Si6 0.342468 0.434650 0.620646
O O1 0.145329 0.812773 0.732889
O O2 0.051668 0.722226 0.806231
O O3 0.908775 0.796770 0.600807
O O4 0.075597 0.826135 0.951495
O O5 0.183274 0.688560 0.330597
O O6 0.009013 0.613556 0.252538
O O7 0.000000 0.663609 0.000000
O O8 0.649897 0.602380 0.529307
O O9 0.083294 0.091511 0.175309
O O10 0.037871 0.500000 0.295033
O O11 0.204570 0.431747 0.555886
O O12 0.000000 0.435008 0.500000
O O13 0.387072 0.500000 0.625384
#
# Coordination Sequence:
#
# PCOD8091058 Si02
#       6
#     8   8   8   4   8   8
#     4  10  20  38  53  79 115 145 182 221 272 324
#     4  11  22  36  55  84 110 146 184 222 275 324
#     4   9  21  37  56  76 111 149 182 224 268 324
#     4  10  19  34  54  84 117 136 174 234 268 322
#     4   9  20  38  58  81 109 143 185 225 266 323
#     4   9  18  36  59  81 108 143 182 225 275 324
#
# _framework density 19.548123
#
# number of rings (size 3 to 8) (size 9 to 14) (size 15 to 20)
#    0.000    2.364    0.909    0.818    2.545    2.545 
#    0.000    8.182    0.000    0.000    0.000    0.000 
#    0.000    0.000    0.000    0.000    0.000    0.000 
#
# Total GULP energy -272567.406504 kJ/mol
# GULP energy per Si atom -12389.427568 kJ/mol
# Density = 1.950363 g / cm^3
# Si number density = 19.548123 Si / 1000 Ang^3
#
#
#
# Elastic Constant Matrix: (Units=GPa)
#
#
# Indices 1 2 3 4 5 6 
#
# 1 69.3092 57.1165 14.1159 0.0000 -15.9370 0.0000
# 2 57.1165 191.2295 52.3665 0.0000 -24.7538 0.0000
# 3 14.1159 52.3665 58.7193 0.0000 -14.9239 0.0000
# 4 0.0000 0.0000 0.0000 39.5414 0.0000 -11.9339
# 5 -15.9370 -24.7538 -14.9239 0.0000 18.8419 0.0000
# 6 0.0000 0.0000 0.0000 -11.9339 0.0000 27.5014
#
#
#
# Elastic Compliance Matrix: (Units=1/GPa)
#
#
# Indices 1 2 3 4 5 6 
#
# 1 0.021417 -0.005540 0.003188 0.000000 0.013362 0.000000
# 2 -0.005540 0.008796 -0.005968 0.000000 0.002143 0.000000
# 3 0.003188 -0.005968 0.025390 0.000000 0.014967 0.000000
# 4 0.000000 0.000000 0.000000 0.029101 0.000000 0.012628
# 5 0.013362 0.002143 0.014967 0.000000 0.079044 0.000000
# 6 0.000000 0.000000 0.000000 0.012628 0.000000 0.041842
#
#
# Mechanical properties :
#
#
# Convention : Reuss Voigt Hill
#
# Bulk Modulus (GPa) = 25.66548 62.93954 44.30251
# Shear Modulus (GPa) = 21.25709 30.22090 25.73899
#
# Velocity S-wave (km/s) = 3.30119 3.93615 3.63257
# Velocity P-wave (km/s) = 5.26197 7.27495 6.34875
#
# Compressibility (1/GPa) = 0.03896284
#
# Stress axis : x y z
#
# Youngs Moduli (GPa) = 46.69240 113.69319 39.38624
#
# Poissons Ratio (x) = 0.62989 -0.12558
# Poissons Ratio (y) = 0.25869 0.23504
# Poissons Ratio (z) = -0.14887 0.67848
#
# Static dielectric constant tensor:
#      x y z
#    x 3.552330 0.000000 0.277600 
#    y 0.000000 4.361520 0.000000 
#    z 0.277600 0.000000 4.210520 
# 
# 
# High freq. dielectric constant tensor:
#      x y z
#    x 1.750210 0.000000 -0.003230 
#    y 0.000000 1.777480 0.000000 
#    z -0.003230 0.000000 1.754120 
# 
# From -- ./inp_files/65569.got.cif
#   From: 2010.06.25/outbox.cif.g09.slc.cpg/sg12_33_cif.got.tgz:65569.got - 2010.06.28 00:19:55.
