data_PCOD8091087
_publ_section_title
;
Structure prediction by ZEFSAII (Michael W. Deem and Ramdas Pophale) SiO2 
 PCOD8091087
Probable space group: C 2/M
;
_chemical_formula_sum "Si O2"
_cell_formula_units_Z 64
_cell_length_a 9.914733
_cell_length_b 30.528982
_cell_length_c 19.371425
_cell_angle_alpha 90.000000
_cell_angle_beta 36.343744
_cell_angle_gamma 90.000000
_cell_volume 3474.860004
_symmetry_space_group_name_H-M "C 2/M"
_symmetry_group_IT_number 12
_symmetry_cell_setting 'monoclinic'
loop_
_space_group_symop_operation_xyz
x,y,z
-x,y,-z
-x,-y,-z
x,-y,z
1/2+x,1/2+y,z
1/2-x,1/2+y,-z
1/2-x,1/2-y,-z
1/2+x,1/2-y,z
loop_
_atom_site_type_symbol
_atom_site_label
_atom_site_fract_x
_atom_site_fract_y
_atom_site_fract_z
Si Si1 0.071889 0.635718 0.288426
Si Si2 0.309338 0.894358 0.129123
Si Si3 0.139756 0.744786 0.760441
Si Si4 0.949933 0.835215 0.864802
Si Si5 0.872592 0.049142 0.338022
Si Si6 0.088289 0.346341 0.123755
Si Si7 0.465680 0.050288 0.403640
Si Si8 0.610029 0.772159 0.618587
O O1 0.302756 0.641801 0.237375
O O2 0.128645 0.638252 0.184655
O O3 0.964162 0.587494 0.345173
O O4 0.896596 0.674519 0.383619
O O5 0.205955 0.852622 0.132717
O O6 0.421232 0.880319 0.154973
O O7 0.107118 0.926622 0.230092
O O8 0.500000 0.916283 0.000000
O O9 0.355807 0.753611 0.719556
O O10 0.215034 0.741795 0.648944
O O11 0.962931 0.783743 0.845447
O O12 0.022075 0.701128 0.834391
O O13 0.832816 0.844785 0.986427
O O14 0.710790 0.052610 0.338578
O O15 0.733351 0.065300 0.462289
O O16 0.946641 0.000000 0.321006
O O17 0.427394 0.000000 0.391985
O O18 0.750000 0.750000 0.500000
#
# Coordination Sequence:
#
# PCOD8091087 Si02
#       8
#     8   8   8   8   8   8   8   8
#     4  10  20  35  55  79 106 143 179 222 279 319
#     4  10  20  34  54  82 110 140 173 220 271 325
#     4  10  20  34  52  72 102 143 183 221 260 310
#     4  10  19  34  55  76 101 141 192 223 254 318
#     4   9  18  35  58  83 107 134 179 228 268 317
#     4  10  21  34  51  77 112 141 172 223 274 322
#     4   9  18  35  60  84 104 135 185 235 266 316
#     4  10  21  35  49  75 110 141 177 221 269 328
#
# _framework density 18.418009000000001
#
# number of rings (size 3 to 8) (size 9 to 14) (size 15 to 20)
#    0.000    2.250    1.250    2.625    0.000    2.250 
#    2.250    6.250    0.000    3.750    0.000    0.000 
#    0.000    0.000    0.000    0.000    0.000    0.000 
#
# Total GULP energy -396706.758016 kJ/mol
# GULP energy per Si atom -12397.086188 kJ/mol
# Density = 1.837609 g / cm^3
# Si number density = 18.418009 Si / 1000 Ang^3
#
#
#
# Elastic Constant Matrix: (Units=GPa)
#
#
# Indices 1 2 3 4 5 6 
#
# 1 40.5568 18.1594 12.6480 0.0000 1.9162 0.0000
# 2 18.1594 99.6803 47.7357 0.0001 4.7422 0.0000
# 3 12.6480 47.7357 85.7629 -0.0001 -3.7799 0.0000
# 4 0.0000 0.0001 -0.0001 28.9985 0.0000 -0.7847
# 5 1.9162 4.7422 -3.7799 0.0000 25.9941 0.0000
# 6 0.0000 0.0000 0.0000 -0.7847 0.0000 22.0759
#
#
#
# Elastic Compliance Matrix: (Units=1/GPa)
#
#
# Indices 1 2 3 4 5 6 
#
# 1 0.027086 -0.003975 -0.001850 0.000000 -0.001540 0.000000
# 2 -0.003975 0.014610 -0.007699 0.000000 -0.003492 0.000000
# 3 -0.001850 -0.007699 0.016391 0.000000 0.003924 0.000000
# 4 0.000000 0.000000 0.000000 0.034518 0.000000 0.001227
# 5 -0.001540 -0.003492 0.003924 0.000000 0.039792 0.000000
# 6 0.000000 0.000000 0.000000 0.001227 0.000000 0.045342
#
#
# Mechanical properties :
#
#
# Convention : Reuss Voigt Hill
#
# Bulk Modulus (GPa) = 32.21831 42.56514 37.39172
# Shear Modulus (GPa) = 23.24139 25.24415 24.24277
#
# Velocity S-wave (km/s) = 3.55615 3.70621 3.63196
# Velocity P-wave (km/s) = 5.86451 6.44014 6.15905
#
# Compressibility (1/GPa) = 0.03103825
#
# Stress axis : x y z
#
# Youngs Moduli (GPa) = 36.91889 68.44856 61.00816
#
# Poissons Ratio (x) = 0.27211 0.11285
# Poissons Ratio (y) = 0.14677 0.46972
# Poissons Ratio (z) = 0.06829 0.52701
#
# Static dielectric constant tensor:
#      x y z
#    x 3.333040 0.000000 -0.009570 
#    y 0.000000 3.373370 0.000000 
#    z -0.009570 0.000000 3.395300 
# 
# 
# High freq. dielectric constant tensor:
#      x y z
#    x 1.708010 0.000000 -0.002430 
#    y 0.000000 1.708580 0.000000 
#    z -0.002430 0.000000 1.715180 
# 
# From -- ./inp_files/260301.got.cif
#   From: 2010.06.25/outbox.cif.g09.slc.cpg/sg12_131_cif.got.tgz:260301.got - 2010.06.28 00:19:55.
