data_PCOD8091894
_publ_section_title
;
Structure prediction by ZEFSAII (Michael W. Deem and Ramdas Pophale) SiO2 
 PCOD8091894
Probable space group: C 2/M
;
_chemical_formula_sum "Si O2"
_cell_formula_units_Z 56
_cell_length_a 32.896343
_cell_length_b 8.855766
_cell_length_c 12.342079
_cell_angle_alpha 90.000000
_cell_angle_beta 60.607576
_cell_angle_gamma 90.000000
_cell_volume 3132.702687
_symmetry_space_group_name_H-M "C 2/M"
_symmetry_group_IT_number 12
_symmetry_cell_setting 'monoclinic'
loop_
_space_group_symop_operation_xyz
x,y,z
-x,y,-z
-x,-y,-z
x,-y,z
1/2+x,1/2+y,z
1/2-x,1/2+y,-z
1/2-x,1/2-y,-z
1/2+x,1/2-y,z
loop_
_atom_site_type_symbol
_atom_site_label
_atom_site_fract_x
_atom_site_fract_y
_atom_site_fract_z
Si Si1 0.112960 0.672886 0.984008
Si Si2 0.701350 0.676647 0.191671
Si Si3 0.610887 0.821795 0.392748
Si Si4 0.046755 0.822249 0.648431
Si Si5 0.954068 0.673363 0.122888
Si Si6 0.949879 0.322692 0.733472
Si Si7 0.203148 0.175989 0.939119
O O1 0.127181 0.500000 0.989189
O O2 0.090707 0.691605 0.895099
O O3 0.158725 0.775845 0.926667
O O4 0.075948 0.726628 0.122635
O O5 0.697076 0.500000 0.219151
O O6 0.663408 0.763202 0.312464
O O7 0.752160 0.733006 0.162459
O O8 0.693069 0.718064 0.076920
O O9 0.589622 0.748785 0.527537
O O10 0.581213 0.771421 0.327047
O O11 0.611484 0.000000 0.405346
O O12 0.053116 0.778101 0.764759
O O13 0.998591 0.762861 0.661558
O O14 0.048305 0.000000 0.634244
O O15 0.960807 0.500000 0.151806
O O16 0.000000 0.728267 0.000000
O O17 0.960428 0.500000 0.718145
O O18 0.213136 0.000000 0.911351
#
# Coordination Sequence:
#
# PCOD8091894 Si02
#       7
#     8   8   8   8   8   8   8
#     4  10  19  34  58  83 110 143 184 230 275 323
#     4  10  20  34  54  81 114 146 182 225 272 325
#     4  11  22  37  58  80 110 149 188 226 273 332
#     4  12  25  37  53  79 114 149 187 230 274 326
#     4  10  20  38  60  79 105 145 190 231 272 323
#     4  10  20  36  56  80 110 148 187 223 271 330
#     4  10  20  33  53  82 115 147 180 222 275 330
#
# _framework density 17.875938999999999
#
# number of rings (size 3 to 8) (size 9 to 14) (size 15 to 20)
#    0.000    1.571    2.857    3.000    0.000    5.429 
#    0.000    0.000    0.000    0.857    0.000    0.000 
#    0.000    0.000    0.000    0.000    0.000    0.000 
#
# Total GULP energy -347380.384161 kJ/mol
# GULP energy per Si atom -12406.442291 kJ/mol
# Density = 1.783525 g / cm^3
# Si number density = 17.875939 Si / 1000 Ang^3
#
#
#
# Elastic Constant Matrix: (Units=GPa)
#
#
# Indices 1 2 3 4 5 6 
#
# 1 78.7640 34.3878 39.5274 0.0000 -17.2210 0.0000
# 2 34.3878 79.9317 44.8821 0.0000 -9.3494 0.0000
# 3 39.5274 44.8821 104.1219 0.0000 -16.3755 0.0000
# 4 0.0000 0.0000 0.0000 27.6401 0.0000 -5.8678
# 5 -17.2210 -9.3494 -16.3755 0.0000 25.4305 0.0000
# 6 0.0000 0.0000 0.0000 -5.8678 0.0000 32.2164
#
#
#
# Elastic Compliance Matrix: (Units=1/GPa)
#
#
# Indices 1 2 3 4 5 6 
#
# 1 0.018489 -0.004977 -0.003552 0.000000 0.008403 0.000000
# 2 -0.004977 0.017908 -0.005925 0.000000 -0.000601 0.000000
# 3 -0.003552 -0.005925 0.014226 0.000000 0.004577 0.000000
# 4 0.000000 0.000000 0.000000 0.037635 0.000000 0.006855
# 5 0.008403 -0.000601 0.004577 0.000000 0.047740 0.000000
# 6 0.000000 0.000000 0.000000 0.006855 0.000000 0.032289
#
#
# Mechanical properties :
#
#
# Convention : Reuss Voigt Hill
#
# Bulk Modulus (GPa) = 46.04802 55.60135 50.82469
# Shear Modulus (GPa) = 24.45805 26.65876 25.55840
#
# Velocity S-wave (km/s) = 3.70295 3.86595 3.78533
# Velocity P-wave (km/s) = 6.64064 7.14836 6.89917
#
# Compressibility (1/GPa) = 0.02171646
#
# Stress axis : x y z
#
# Youngs Moduli (GPa) = 54.08669 55.84055 70.29252
#
# Poissons Ratio (x) = 0.27791 0.24968
# Poissons Ratio (y) = 0.26918 0.41646
# Poissons Ratio (z) = 0.19211 0.33083
#
# Static dielectric constant tensor:
#      x y z
#    x 3.250160 0.000000 -0.066250 
#    y 0.000000 3.252940 0.000000 
#    z -0.066250 0.000000 3.223960 
# 
# 
# High freq. dielectric constant tensor:
#      x y z
#    x 1.688410 0.000000 -0.011140 
#    y 0.000000 1.694560 0.000000 
#    z -0.011140 0.000000 1.679010 
# 
# From -- ./inp_files/181101.got.cif
#   From: 2010.06.25/outbox.cif.g09.slc.cpg/sg12_91_cif.got.tgz:181101.got - 2010.06.28 00:19:55.
