data_PCOD8091907
_publ_section_title
;
Structure prediction by ZEFSAII (Michael W. Deem and Ramdas Pophale) SiO2 
 PCOD8091907
Probable space group: C 2/M
;
_chemical_formula_sum "Si O2"
_cell_formula_units_Z 64
_cell_length_a 14.323386
_cell_length_b 8.850545
_cell_length_c 27.294746
_cell_angle_alpha 90.000000
_cell_angle_beta 74.923835
_cell_angle_gamma 90.000000
_cell_volume 3341.053590
_symmetry_space_group_name_H-M "C 2/M"
_symmetry_group_IT_number 12
_symmetry_cell_setting 'monoclinic'
loop_
_space_group_symop_operation_xyz
x,y,z
-x,y,-z
-x,-y,-z
x,-y,z
1/2+x,1/2+y,z
1/2-x,1/2+y,-z
1/2-x,1/2-y,-z
1/2+x,1/2-y,z
loop_
_atom_site_type_symbol
_atom_site_label
_atom_site_fract_x
_atom_site_fract_y
_atom_site_fract_z
Si Si1 0.330850 0.677292 0.134369
Si Si2 0.041357 0.180155 0.132779
Si Si3 0.626644 0.322450 0.617446
Si Si4 0.663937 0.321844 0.400998
Si Si5 0.148565 0.174053 0.508650
Si Si6 0.362219 0.822375 0.790283
Si Si7 0.443703 0.177083 0.674520
Si Si8 0.217792 0.320802 0.054943
O O1 0.341648 0.500000 0.136067
O O2 0.434961 0.746060 0.133965
O O3 0.247973 0.730013 0.184013
O O4 0.298164 0.725494 0.084289
O O5 0.064867 0.232022 0.184660
O O6 0.114626 0.252989 0.084012
O O7 0.047391 0.000000 0.128121
O O8 0.630316 0.500000 0.628268
O O9 0.731049 0.252760 0.612156
O O10 0.588100 0.289257 0.566443
O O11 0.551926 0.242628 0.664389
O O12 0.674575 0.500000 0.392001
O O13 0.605531 0.284600 0.460495
O O14 0.606784 0.254966 0.363989
O O15 0.250000 0.250000 0.500000
O O16 0.172931 0.000000 0.505187
O O17 0.385611 0.781156 0.731353
O O18 0.375065 0.000000 0.799615
O O19 0.447820 0.000000 0.665118
O O20 0.207894 0.500000 0.051723
O O21 0.250000 0.250000 0.000000
#
# Coordination Sequence:
#
# PCOD8091907 Si02
#       8
#     8   8   8   8   8   8   8   8
#     4   8  17  35  57  77 103 142 180 215 263 318
#     4  10  19  34  58  84 106 138 184 224 266 322
#     4  10  20  36  56  78 106 140 178 220 272 332
#     4  10  20  36  56  79 107 137 175 223 274 329
#     4   8  16  31  52  75 101 135 172 215 267 325
#     4   9  20  39  56  74 105 141 177 223 272 316
#     4  11  23  37  54  79 110 144 182 224 275 331
#     4  10  20  36  55  80 117 153 183 220 264 309
#
# _framework density 19.155635
#
# number of rings (size 3 to 8) (size 9 to 14) (size 15 to 20)
#    0.000    2.500    0.000    2.625    0.000    4.000 
#    0.000   12.500    0.000    0.000    0.000    0.000 
#    0.000    0.000    0.000    0.000    0.000    0.000 
#
# Total GULP energy -396562.774364 kJ/mol
# GULP energy per Si atom -12392.586699 kJ/mol
# Density = 1.911204 g / cm^3
# Si number density = 19.155635 Si / 1000 Ang^3
#
#
#
# Elastic Constant Matrix: (Units=GPa)
#
#
# Indices 1 2 3 4 5 6 
#
# 1 108.9588 32.1404 43.7747 0.0000 -3.9345 0.0000
# 2 32.1404 72.0984 48.0247 0.0000 -6.4900 0.0000
# 3 43.7747 48.0247 113.3258 0.0000 -9.6529 0.0000
# 4 0.0000 0.0000 0.0000 31.7808 0.0000 1.1589
# 5 -3.9345 -6.4900 -9.6529 0.0000 19.1630 0.0000
# 6 0.0000 0.0000 0.0000 1.1589 0.0000 30.1204
#
#
#
# Elastic Compliance Matrix: (Units=1/GPa)
#
#
# Indices 1 2 3 4 5 6 
#
# 1 0.011303 -0.002981 -0.003125 0.000000 -0.000263 0.000000
# 2 -0.002981 0.020229 -0.007199 0.000000 0.002613 0.000000
# 3 -0.003125 -0.007199 0.013394 0.000000 0.003667 0.000000
# 4 0.000000 0.000000 0.000000 0.031510 0.000000 -0.001212
# 5 -0.000263 0.002613 0.003667 0.000000 0.054862 0.000000
# 6 0.000000 0.000000 0.000000 -0.001212 0.000000 0.033247
#
#
# Mechanical properties :
#
#
# Convention : Reuss Voigt Hill
#
# Bulk Modulus (GPa) = 54.59380 60.25139 57.42260
# Shear Modulus (GPa) = 25.34727 27.57571 26.46149
#
# Velocity S-wave (km/s) = 3.64157 3.79827 3.72074
# Velocity P-wave (km/s) = 6.80025 7.12444 6.96423
#
# Compressibility (1/GPa) = 0.01831710
#
# Stress axis : x y z
#
# Youngs Moduli (GPa) = 88.47098 49.43434 74.65832
#
# Poissons Ratio (x) = 0.14735 0.23334
# Poissons Ratio (y) = 0.26370 0.53744
# Poissons Ratio (z) = 0.27651 0.35586
#
# Static dielectric constant tensor:
#      x y z
#    x 3.715520 0.000000 -0.132560 
#    y 0.000000 3.462460 0.000000 
#    z -0.132560 0.000000 3.788600 
# 
# 
# High freq. dielectric constant tensor:
#      x y z
#    x 1.742670 0.000000 -0.003360 
#    y 0.000000 1.741930 0.000000 
#    z -0.003360 0.000000 1.751130 
# 
# From -- ./inp_files/359863.got.cif
#   From: 2010.06.25/outbox.cif.g09.slc.cpg/sg12_180_cif.got.tgz:359863.got - 2010.06.28 00:19:55.
