data_PCOD8091777
_publ_section_title
;
Structure prediction by ZEFSAII (Michael W. Deem and Ramdas Pophale) SiO2 
 PCOD8091777
Probable space group: C 2/M
;
_chemical_formula_sum "Si O2"
_cell_formula_units_Z 56
_cell_length_a 15.858552
_cell_length_b 17.249424
_cell_length_c 18.300303
_cell_angle_alpha 90.000000
_cell_angle_beta 34.212052
_cell_angle_gamma 90.000000
_cell_volume 2814.696297
_symmetry_space_group_name_H-M "C 2/M"
_symmetry_group_IT_number 12
_symmetry_cell_setting 'monoclinic'
loop_
_space_group_symop_operation_xyz
x,y,z
-x,y,-z
-x,-y,-z
x,-y,z
1/2+x,1/2+y,z
1/2-x,1/2+y,-z
1/2-x,1/2-y,-z
1/2+x,1/2-y,z
loop_
_atom_site_type_symbol
_atom_site_label
_atom_site_fract_x
_atom_site_fract_y
_atom_site_fract_z
Si Si1 0.259882 0.840644 0.996537
Si Si2 0.148670 0.914714 0.347171
Si Si3 0.304749 0.408002 0.355127
Si Si4 0.050561 0.834724 0.275923
Si Si5 0.579690 0.908446 0.747877
Si Si6 0.122027 0.688151 0.578897
Si Si7 0.019515 0.908381 0.069089
O O1 0.175811 0.863206 0.130231
O O2 0.178143 0.877301 0.984597
O O3 0.250000 0.750000 0.000000
O O4 0.428146 0.869556 0.884516
O O5 0.114302 0.857232 0.307541
O O6 0.286697 0.880846 0.294996
O O7 0.000000 0.920872 0.500000
O O8 0.192147 0.000000 0.286459
O O9 0.272452 0.500000 0.379389
O O10 0.403763 0.382548 0.354868
O O11 0.151480 0.356938 0.479421
O O12 0.383890 0.382979 0.221591
O O13 0.027310 0.741134 0.302972
O O14 0.619681 0.880617 0.638658
O O15 0.561094 0.000000 0.759495
O O16 0.250000 0.750000 0.500000
O O17 0.028079 0.000000 0.061838
O O18 0.000000 0.876512 0.000000
#
# Coordination Sequence:
#
# PCOD8091777 Si02
#       7
#     8   8   8   8   8   8   8
#     4  11  22  41  58  87 124 161 204 250 314 373
#     4  10  21  38  60  91 126 159 201 253 309 367
#     4   9  17  31  58  88 116 156 204 255 306 368
#     4  10  20  36  57  83 123 162 201 248 305 371
#     4  11  23  39  63  90 124 167 209 257 307 370
#     4  10  19  34  57  84 118 159 204 251 303 365
#     4   9  19  38  63  88 115 156 207 259 310 363
#
# _framework density 19.895572999999999
#
# number of rings (size 3 to 8) (size 9 to 14) (size 15 to 20)
#    0.000    2.000    1.429    3.000    0.000    3.429 
#    2.571    1.429    0.000    0.000    0.000    4.000 
#    0.000    0.000    0.000    0.000    0.000    0.000 
#
# Total GULP energy -346923.853597 kJ/mol
# GULP energy per Si atom -12390.137628 kJ/mol
# Density = 1.985029 g / cm^3
# Si number density = 19.895573 Si / 1000 Ang^3
#
#
#
# Elastic Constant Matrix: (Units=GPa)
#
#
# Indices 1 2 3 4 5 6 
#
# 1 114.0681 40.3211 50.7743 -0.0013 9.5522 0.0005
# 2 40.3211 81.9111 38.7279 0.0029 6.2318 0.0000
# 3 50.7743 38.7279 105.6488 0.0070 1.5299 -0.0002
# 4 -0.0013 0.0029 0.0070 40.5224 -0.0011 0.5084
# 5 9.5522 6.2318 1.5299 -0.0011 29.8209 -0.0006
# 6 0.0005 0.0000 -0.0002 0.5084 -0.0006 21.2606
#
#
#
# Elastic Compliance Matrix: (Units=1/GPa)
#
#
# Indices 1 2 3 4 5 6 
#
# 1 0.012340 -0.003709 -0.004528 0.000001 -0.002945 0.000000
# 2 -0.003709 0.016122 -0.004099 -0.000001 -0.001971 0.000000
# 3 -0.004528 -0.004099 0.013120 -0.000002 0.001634 0.000000
# 4 0.000001 -0.000001 -0.000002 0.024685 0.000001 -0.000590
# 5 -0.002945 -0.001971 0.001634 0.000001 0.034805 0.000001
# 6 0.000000 0.000000 0.000000 -0.000590 0.000001 0.047050
#
#
# Mechanical properties :
#
#
# Convention : Reuss Voigt Hill
#
# Bulk Modulus (GPa) = 59.13644 62.36385 60.75015
# Shear Modulus (GPa) = 28.02194 29.77442 28.89818
#
# Velocity S-wave (km/s) = 3.75701 3.87270 3.81529
# Velocity P-wave (km/s) = 6.97195 7.17013 7.07173
#
# Compressibility (1/GPa) = 0.01691005
#
# Stress axis : x y z
#
# Youngs Moduli (GPa) = 81.03604 62.02649 76.21759
#
# Poissons Ratio (x) = 0.23009 0.34513
# Poissons Ratio (y) = 0.30060 0.31239
# Poissons Ratio (z) = 0.36695 0.25422
#
# Static dielectric constant tensor:
#      x y z
#    x 3.378220 -0.000010 -0.299810 
#    y -0.000010 3.591170 0.000070 
#    z -0.299810 0.000070 -1.290090 
# 
# 
# High freq. dielectric constant tensor:
#      x y z
#    x 1.745740 0.000000 0.008670 
#    y 0.000000 1.784020 0.000000 
#    z 0.008670 0.000000 1.790070 
# 
# From -- ./inp_files/271378.got.cif
#   From: 2010.06.25/outbox.cif.g09.slc.cpg/sg12_136_cif.got.tgz:271378.got - 2010.06.28 00:19:55.
