data_PCOD8091177
_publ_section_title
;
Structure prediction by ZEFSAII (Michael W. Deem and Ramdas Pophale) SiO2 
 PCOD8091177
Probable space group: C 2/M
;
_chemical_formula_sum "Si O2"
_cell_formula_units_Z 64
_cell_length_a 25.924783
_cell_length_b 9.022059
_cell_length_c 19.897501
_cell_angle_alpha 90.000000
_cell_angle_beta 134.067121
_cell_angle_gamma 90.000000
_cell_volume 3343.963510
_symmetry_space_group_name_H-M "C 2/M"
_symmetry_group_IT_number 12
_symmetry_cell_setting 'monoclinic'
loop_
_space_group_symop_operation_xyz
x,y,z
-x,y,-z
-x,-y,-z
x,-y,z
1/2+x,1/2+y,z
1/2-x,1/2+y,-z
1/2-x,1/2-y,-z
1/2+x,1/2-y,z
loop_
_atom_site_type_symbol
_atom_site_label
_atom_site_fract_x
_atom_site_fract_y
_atom_site_fract_z
Si Si1 0.948593 0.823791 0.600541
Si Si2 0.939384 0.830041 0.096933
Si Si3 0.392894 0.323242 0.292049
Si Si4 0.159772 0.823452 0.612333
Si Si5 0.816144 0.831770 0.092312
Si Si6 0.418297 0.172599 0.945880
Si Si7 0.926215 0.674886 0.720777
Si Si8 0.680946 0.825114 0.263868
O O1 0.894414 0.768353 0.493999
O O2 0.922215 0.754625 0.646028
O O3 0.027351 0.764346 0.652193
O O4 0.948115 0.000000 0.608302
O O5 0.886472 0.816749 0.111282
O O6 0.008360 0.731032 0.174725
O O7 0.962456 0.000000 0.106146
O O8 0.899733 0.765708 0.995536
O O9 0.395066 0.500000 0.294283
O O10 0.367141 0.260539 0.340416
O O11 0.337185 0.266493 0.184648
O O12 0.238806 0.758732 0.667906
O O13 0.160931 0.000000 0.615719
O O14 0.791493 0.000000 0.077583
O O15 0.750000 0.750000 0.000000
O O16 0.367383 0.236494 0.841048
O O17 0.403733 0.000000 0.947070
O O18 0.500000 0.201459 0.000000
O O19 0.934642 0.500000 0.718257
O O20 0.853639 0.716088 0.695586
O O21 0.683658 0.000000 0.258267
#
# Coordination Sequence:
#
# PCOD8091177 Si02
#       8
#     8   8   8   8   8   8   8   8
#     4  10  19  35  58  85 110 136 182 236 282 329
#     4  11  22  37  55  81 114 145 184 233 276 325
#     4   9  17  33  55  82 111 140 178 228 273 322
#     4   9  18  32  56  83 108 143 183 231 283 324
#     4  10  22  37  54  81 116 144 179 225 275 331
#     4  10  19  34  55  79 109 147 187 224 267 327
#     4  11  21  36  57  80 111 149 186 227 275 331
#     4   9  19  34  51  80 114 143 187 231 265 323
#
# _framework density 19.138964000000001
#
# number of rings (size 3 to 8) (size 9 to 14) (size 15 to 20)
#    0.000    2.125    2.500    1.125    1.750    3.250 
#    0.000    0.000    0.000    3.750    0.000    0.000 
#    0.000    0.000    0.000    0.000    0.000    0.000 
#
# Total GULP energy -396808.738479 kJ/mol
# GULP energy per Si atom -12400.273077 kJ/mol
# Density = 1.909540 g / cm^3
# Si number density = 19.138964 Si / 1000 Ang^3
#
#
#
# Elastic Constant Matrix: (Units=GPa)
#
#
# Indices 1 2 3 4 5 6 
#
# 1 132.1999 30.9650 88.4411 0.0000 -11.4617 0.0000
# 2 30.9650 37.7657 30.3128 0.0000 -3.2964 0.0000
# 3 88.4411 30.3128 175.6567 0.0000 -3.9151 0.0000
# 4 0.0000 0.0000 0.0000 22.0092 0.0000 -5.8877
# 5 -11.4617 -3.2964 -3.9151 0.0000 38.3109 0.0000
# 6 0.0000 0.0000 0.0000 -5.8877 0.0000 24.9695
#
#
#
# Elastic Compliance Matrix: (Units=1/GPa)
#
#
# Indices 1 2 3 4 5 6 
#
# 1 0.012769 -0.005941 -0.005343 0.000000 0.002763 0.000000
# 2 -0.005941 0.033671 -0.002801 0.000000 0.000834 0.000000
# 3 -0.005343 -0.002801 0.008845 0.000000 -0.000935 0.000000
# 4 0.000000 0.000000 0.000000 0.048494 0.000000 0.011435
# 5 0.002763 0.000834 -0.000935 0.000000 0.026905 0.000000
# 6 0.000000 0.000000 0.000000 0.011435 0.000000 0.042745
#
#
# Mechanical properties :
#
#
# Convention : Reuss Voigt Hill
#
# Bulk Modulus (GPa) = 36.87650 71.67335 54.27492
# Shear Modulus (GPa) = 23.73746 30.11814 26.92780
#
# Velocity S-wave (km/s) = 3.52557 3.97124 3.75502
# Velocity P-wave (km/s) = 5.99019 7.65231 6.87169
#
# Compressibility (1/GPa) = 0.02711754
#
# Stress axis : x y z
#
# Youngs Moduli (GPa) = 78.31184 29.69926 113.05399
#
# Poissons Ratio (x) = 0.17643 0.60399
# Poissons Ratio (y) = 0.46522 0.31666
# Poissons Ratio (z) = 0.41838 0.08319
#
# Static dielectric constant tensor:
#      x y z
#    x 4.059420 0.000000 0.274690 
#    y 0.000000 3.119250 0.000000 
#    z 0.274690 0.000000 3.978090 
# 
# 
# High freq. dielectric constant tensor:
#      x y z
#    x 1.755370 0.000000 -0.007300 
#    y 0.000000 1.698400 0.000000 
#    z -0.007300 0.000000 1.755790 
# 
# From -- ./inp_files/324300.got.cif
#   From: 2010.06.25/outbox.cif.g09.slc.cpg/sg12_163_cif.got.tgz:324300.got - 2010.06.28 00:19:55.
