data_PCOD8091413
_publ_section_title
;
Structure prediction by ZEFSAII (Michael W. Deem and Ramdas Pophale) SiO2 
 PCOD8091413
Probable space group: C 2/M
;
_chemical_formula_sum "Si O2"
_cell_formula_units_Z 64
_cell_length_a 24.956526
_cell_length_b 8.569720
_cell_length_c 14.739114
_cell_angle_alpha 90.000000
_cell_angle_beta 91.354525
_cell_angle_gamma 90.000000
_cell_volume 3151.379949
_symmetry_space_group_name_H-M "C 2/M"
_symmetry_group_IT_number 12
_symmetry_cell_setting 'monoclinic'
loop_
_space_group_symop_operation_xyz
x,y,z
-x,y,-z
-x,-y,-z
x,-y,z
1/2+x,1/2+y,z
1/2-x,1/2+y,-z
1/2-x,1/2-y,-z
1/2+x,1/2-y,z
loop_
_atom_site_type_symbol
_atom_site_label
_atom_site_fract_x
_atom_site_fract_y
_atom_site_fract_z
Si Si1 0.104124 0.817851 0.649104
Si Si2 0.087723 0.816484 0.282991
Si Si3 0.950883 0.822307 0.057054
Si Si4 0.693541 0.314614 0.793840
Si Si5 0.060441 0.317252 0.474970
Si Si6 0.019635 0.320766 0.765795
Si Si7 0.804953 0.814016 0.812968
Si Si8 0.166374 0.822089 0.990555
O O1 0.150599 0.752190 0.718119
O O2 0.104037 0.726756 0.553754
O O3 0.045825 0.784467 0.688893
O O4 0.111638 0.000000 0.630736
O O5 0.080923 0.772500 0.387349
O O6 0.041565 0.732155 0.222539
O O7 0.144627 0.758358 0.245136
O O8 0.082133 0.000000 0.269103
O O9 0.897270 0.808869 0.996405
O O10 0.946658 0.707570 0.141937
O O11 0.959411 0.000000 0.091952
O O12 0.000000 0.763344 0.000000
O O13 0.688326 0.500000 0.796903
O O14 0.752204 0.259336 0.764805
O O15 0.682355 0.243105 0.894693
O O16 0.061899 0.500000 0.454560
O O17 0.000000 0.265086 0.500000
O O18 0.022918 0.500000 0.735819
O O19 0.801361 0.000000 0.813597
O O20 0.808012 0.747353 0.917368
O O21 0.185087 0.000000 0.986137
#
# Coordination Sequence:
#
# PCOD8091413 Si02
#       8
#     8   8   8   8   8   8   8   8
#     4  11  22  39  63  89 117 156 201 240 287 358
#     4  11  23  40  62  88 119 160 203 242 293 363
#     4  10  19  34  56  80 115 162 204 243 293 357
#     4  10  21  38  61  87 119 158 202 247 294 347
#     4  11  23  39  62  94 124 151 190 246 306 355
#     4  12  23  35  55  86 123 156 192 245 302 352
#     4  10  22  39  61  88 118 155 203 250 295 348
#     4   9  17  34  57  85 118 154 201 246 287 346
#
# _framework density 20.308565000000002
#
# number of rings (size 3 to 8) (size 9 to 14) (size 15 to 20)
#    0.000    1.500    2.500    3.375    0.000    4.750 
#    0.000    1.250    0.000    0.000    0.000    0.000 
#    0.000    0.000    0.000    0.000    0.000    0.000 
#
# Total GULP energy -396751.596094 kJ/mol
# GULP energy per Si atom -12398.487378 kJ/mol
# Density = 2.026234 g / cm^3
# Si number density = 20.308565 Si / 1000 Ang^3
#
#
#
# Elastic Constant Matrix: (Units=GPa)
#
#
# Indices 1 2 3 4 5 6 
#
# 1 102.4510 11.7089 31.6289 0.0000 9.2971 0.0000
# 2 11.7089 30.8298 13.6565 0.0000 6.6155 0.0000
# 3 31.6289 13.6565 94.2930 0.0000 14.5779 0.0000
# 4 0.0000 0.0000 0.0000 14.2994 0.0000 0.1710
# 5 9.2971 6.6155 14.5779 0.0000 26.6518 0.0000
# 6 0.0000 0.0000 0.0000 0.1710 0.0000 28.6262
#
#
#
# Elastic Compliance Matrix: (Units=1/GPa)
#
#
# Indices 1 2 3 4 5 6 
#
# 1 0.011158 -0.002514 -0.003139 0.000000 -0.001551 0.000000
# 2 -0.002514 0.036255 -0.003443 0.000000 -0.006239 0.000000
# 3 -0.003139 -0.003443 0.012950 0.000000 -0.005134 0.000000
# 4 0.000000 0.000000 0.000000 0.069938 0.000000 -0.000418
# 5 -0.001551 -0.006239 -0.005134 0.000000 0.042419 0.000000
# 6 0.000000 0.000000 0.000000 -0.000418 0.000000 0.034936
#
#
# Mechanical properties :
#
#
# Convention : Reuss Voigt Hill
#
# Bulk Modulus (GPa) = 23.71284 37.95136 30.83210
# Shear Modulus (GPa) = 20.84161 25.28745 23.06453
#
# Velocity S-wave (km/s) = 3.20698 3.53251 3.37368
# Velocity P-wave (km/s) = 5.04129 5.94694 5.51275
#
# Compressibility (1/GPa) = 0.04217125
#
# Stress axis : x y z
#
# Youngs Moduli (GPa) = 89.62259 27.58250 77.21747
#
# Poissons Ratio (x) = 0.06935 0.24236
# Poissons Ratio (y) = 0.22535 0.26585
# Poissons Ratio (z) = 0.28130 0.09496
#
# Static dielectric constant tensor:
#      x y z
#    x 3.769800 0.000000 0.063760 
#    y 0.000000 3.382470 0.000000 
#    z 0.063760 0.000000 3.859070 
# 
# 
# High freq. dielectric constant tensor:
#      x y z
#    x 1.791860 0.000000 0.008400 
#    y 0.000000 1.769510 0.000000 
#    z 0.008400 0.000000 1.795160 
# 
# From -- ./inp_files/238801.got.cif
#   From: 2010.06.25/outbox.cif.g09.slc.cpg/sg12_120_cif.got.tgz:238801.got - 2010.06.28 00:19:55.
