data_PCOD8091670
_publ_section_title
;
Structure prediction by ZEFSAII (Michael W. Deem and Ramdas Pophale) SiO2 
 PCOD8091670
Probable space group: C 2/M
;
_chemical_formula_sum "Si O2"
_cell_formula_units_Z 64
_cell_length_a 20.413948
_cell_length_b 8.881620
_cell_length_c 21.553689
_cell_angle_alpha 90.000000
_cell_angle_beta 61.997243
_cell_angle_gamma 90.000000
_cell_volume 3450.361657
_symmetry_space_group_name_H-M "C 2/M"
_symmetry_group_IT_number 12
_symmetry_cell_setting 'monoclinic'
loop_
_space_group_symop_operation_xyz
x,y,z
-x,y,-z
-x,-y,-z
x,-y,z
1/2+x,1/2+y,z
1/2-x,1/2+y,-z
1/2-x,1/2-y,-z
1/2+x,1/2-y,z
loop_
_atom_site_type_symbol
_atom_site_label
_atom_site_fract_x
_atom_site_fract_y
_atom_site_fract_z
Si Si1 0.419164 0.177776 0.559138
Si Si2 0.335356 0.174619 0.078054
Si Si3 0.678740 0.177832 0.160447
Si Si4 0.775936 0.673403 0.550834
Si Si5 0.923143 0.325631 0.163940
Si Si6 0.844612 0.821750 0.704841
Si Si7 0.410691 0.821713 0.919263
Si Si8 0.796772 0.824619 0.289819
O O1 0.500000 0.225730 0.500000
O O2 0.356996 0.231693 0.537235
O O3 0.405851 0.259887 0.630144
O O4 0.412123 0.000000 0.573597
O O5 0.263945 0.275121 0.121738
O O6 0.391381 0.197537 0.109564
O O7 0.311770 0.000000 0.081641
O O8 0.375414 0.238150 0.998800
O O9 0.635907 0.257586 0.236114
O O10 0.640053 0.234151 0.114687
O O11 0.672200 0.000000 0.171539
O O12 0.781916 0.500000 0.532266
O O13 0.750000 0.750000 0.500000
O O14 0.715946 0.705426 0.631492
O O15 0.920667 0.500000 0.184907
O O16 0.878272 0.230935 0.235219
O O17 0.006248 0.259374 0.126770
O O18 0.762181 0.768674 0.723898
O O19 0.846803 0.000000 0.704842
O O20 0.415018 0.000000 0.921142
O O21 0.785875 0.000000 0.279066
#
# Coordination Sequence:
#
# PCOD8091670 Si02
#       8
#     8   8   8   8   8   8   8   8
#     4   9  19  38  61  84 112 144 181 222 270 324
#     4  10  19  34  58  82 106 139 186 232 274 325
#     4  11  21  35  55  78 111 148 185 225 273 330
#     4   9  19  35  56  82 110 143 177 217 265 316
#     4  10  19  34  57  82 108 142 186 226 269 323
#     4  11  21  35  57  83 109 143 188 231 270 317
#     4   9  20  36  53  79 112 147 181 224 278 331
#     4  10  20  36  57  81 111 145 183 224 272 323
#
# _framework density 18.548781000000002
#
# number of rings (size 3 to 8) (size 9 to 14) (size 15 to 20)
#    0.000    2.125    1.250    3.375    0.000    4.250 
#    2.250    2.500    0.000    1.500    0.000    0.000 
#    0.000    0.000    0.000    0.000    0.000    0.000 
#
# Total GULP energy -396866.840388 kJ/mol
# GULP energy per Si atom -12402.088762 kJ/mol
# Density = 1.850656 g / cm^3
# Si number density = 18.548781 Si / 1000 Ang^3
#
#
#
# Elastic Constant Matrix: (Units=GPa)
#
#
# Indices 1 2 3 4 5 6 
#
# 1 73.3468 27.5854 51.6151 -0.0004 -3.1206 0.0007
# 2 27.5854 65.6065 48.9102 -0.0008 -0.1876 0.0012
# 3 51.6151 48.9102 143.0415 -0.0003 -3.4126 0.0004
# 4 -0.0004 -0.0008 -0.0003 32.6421 0.0001 0.0133
# 5 -3.1206 -0.1876 -3.4126 0.0001 31.6670 -0.0001
# 6 0.0007 0.0012 0.0004 0.0133 -0.0001 22.2424
#
#
#
# Elastic Compliance Matrix: (Units=1/GPa)
#
#
# Indices 1 2 3 4 5 6 
#
# 1 0.019024 -0.003892 -0.005504 0.000000 0.001259 0.000000
# 2 -0.003892 0.021266 -0.005888 0.000000 -0.000892 -0.000001
# 3 -0.005504 -0.005888 0.011005 0.000000 0.000609 0.000000
# 4 0.000000 0.000000 0.000000 0.030635 0.000000 -0.000018
# 5 0.001259 -0.000892 0.000609 0.000000 0.031763 0.000000
# 6 0.000000 -0.000001 0.000000 -0.000018 0.000000 0.044959
#
#
# Mechanical properties :
#
#
# Convention : Reuss Voigt Hill
#
# Bulk Modulus (GPa) = 48.24746 59.80181 54.02463
# Shear Modulus (GPa) = 25.49318 27.56925 26.53121
#
# Velocity S-wave (km/s) = 3.71129 3.85945 3.78610
# Velocity P-wave (km/s) = 6.66577 7.22293 6.94994
#
# Compressibility (1/GPa) = 0.02072648
#
# Stress axis : x y z
#
# Youngs Moduli (GPa) = 52.56394 47.02281 90.86868
#
# Poissons Ratio (x) = 0.18303 0.50012
# Poissons Ratio (y) = 0.20460 0.53506
# Poissons Ratio (z) = 0.28930 0.27689
#
# Static dielectric constant tensor:
#      x y z
#    x 3.413460 0.000000 -0.000870 
#    y 0.000000 3.243280 0.000000 
#    z -0.000870 0.000000 3.646630 
# 
# 
# High freq. dielectric constant tensor:
#      x y z
#    x 1.709830 0.000000 0.000190 
#    y 0.000000 1.706170 0.000000 
#    z 0.000190 0.000000 1.734020 
# 
# From -- ./inp_files/319764.got.cif
#   From: 2010.06.25/outbox.cif.g09.slc.cpg/sg12_160_cif.got.tgz:319764.got - 2010.06.28 00:19:55.
