data_PCOD8091353
_publ_section_title
;
Structure prediction by ZEFSAII (Michael W. Deem and Ramdas Pophale) SiO2 
 PCOD8091353
Probable space group: C 2/M
;
_chemical_formula_sum "Si O2"
_cell_formula_units_Z 56
_cell_length_a 18.708289
_cell_length_b 8.998984
_cell_length_c 20.889628
_cell_angle_alpha 90.000000
_cell_angle_beta 57.852888
_cell_angle_gamma 90.000000
_cell_volume 2977.693285
_symmetry_space_group_name_H-M "C 2/M"
_symmetry_group_IT_number 12
_symmetry_cell_setting 'monoclinic'
loop_
_space_group_symop_operation_xyz
x,y,z
-x,y,-z
-x,-y,-z
x,-y,z
1/2+x,1/2+y,z
1/2-x,1/2+y,-z
1/2-x,1/2-y,-z
1/2+x,1/2-y,z
loop_
_atom_site_type_symbol
_atom_site_label
_atom_site_fract_x
_atom_site_fract_y
_atom_site_fract_z
Si Si1 0.048037 0.827891 0.206476
Si Si2 0.588372 0.667721 0.430418
Si Si3 0.219050 0.160838 0.823207
Si Si4 0.253502 0.829233 0.430281
Si Si5 0.091605 0.660770 0.303028
Si Si6 0.784511 0.678775 0.919655
Si Si7 0.642578 0.325897 0.730899
O O1 0.037325 0.772156 0.284978
O O2 0.119503 0.735786 0.135378
O O3 0.957583 0.802021 0.216694
O O4 0.073807 0.000000 0.194510
O O5 0.500000 0.722221 0.500000
O O6 0.582128 0.500000 0.407306
O O7 0.658433 0.683117 0.450975
O O8 0.611066 0.775724 0.362797
O O9 0.318422 0.137079 0.771038
O O10 0.217987 0.234593 0.894899
O O11 0.179935 0.245677 0.779912
O O12 0.173121 0.000000 0.846927
O O13 0.250000 0.750000 0.500000
O O14 0.318270 0.754643 0.349483
O O15 0.281307 0.000000 0.425690
O O16 0.045552 0.500000 0.329620
O O17 0.785160 0.500000 0.923248
O O18 0.750000 0.750000 0.000000
O O19 0.666682 0.500000 0.713886
#
# Coordination Sequence:
#
# PCOD8091353 Si02
#       7
#     8   8   8   8   8   8   8
#     4  10  21  35  57  85 114 147 185 229 281 336
#     4  10  22  38  54  75 106 143 188 236 287 339
#     4   8  16  33  57  81 105 140 184 224 268 326
#     4  11  24  39  56  80 112 151 191 239 291 341
#     4  10  19  34  56  79 106 141 185 234 279 332
#     4  10  20  37  61  88 118 149 186 230 277 334
#     4  10  20  38  60  81 111 150 191 236 283 338
#
# _framework density 18.806505000000001
#
# number of rings (size 3 to 8) (size 9 to 14) (size 15 to 20)
#    0.000    2.143    1.429    2.571    2.000    2.000 
#    0.000    1.429    0.000    4.286    0.000    0.000 
#    0.000    0.000    0.000    0.000    0.000    0.000 
#
# Total GULP energy -346925.945212 kJ/mol
# GULP energy per Si atom -12390.212329 kJ/mol
# Density = 1.876370 g / cm^3
# Si number density = 18.806505 Si / 1000 Ang^3
#
#
#
# Elastic Constant Matrix: (Units=GPa)
#
#
# Indices 1 2 3 4 5 6 
#
# 1 101.7587 42.7086 53.5279 0.0000 16.4104 -0.0002
# 2 42.7086 95.0849 53.4122 -0.0001 13.4799 -0.0004
# 3 53.5279 53.4122 117.0608 -0.0001 28.4894 0.0000
# 4 0.0000 -0.0001 -0.0001 -4.6473 0.0001 3.6719
# 5 16.4104 13.4799 28.4894 0.0001 32.9924 -0.0001
# 6 -0.0002 -0.0004 0.0000 3.6719 -0.0001 25.4921
#
#
#
# Elastic Compliance Matrix: (Units=1/GPa)
#
#
# Indices 1 2 3 4 5 6 
#
# 1 0.013861 -0.003572 -0.004286 0.000000 -0.001734 0.000000
# 2 -0.003572 0.015064 -0.005285 0.000000 0.000186 0.000000
# 3 -0.004286 -0.005285 0.015028 0.000000 -0.008685 0.000000
# 4 0.000000 0.000000 0.000000 -0.193192 0.000001 0.027828
# 5 -0.001734 0.000186 -0.008685 0.000001 0.038596 0.000000
# 6 0.000000 0.000000 0.000000 0.027828 0.000000 0.035219
#
#
# Mechanical properties :
#
#
# Convention : Reuss Voigt Hill
#
# Bulk Modulus (GPa) = 56.60815 68.13354 62.37085
# Shear Modulus (GPa) = -115.61015 21.71782 -46.94617
#
# Velocity S-wave (km/s) = -7.84901 3.40193 -5.00169
# Velocity P-wave (km/s) = 7.20950 7.19292 0.34553
#
# Compressibility (1/GPa) = 0.01766530
#
# Stress axis : x y z
#
# Youngs Moduli (GPa) = 72.14648 66.38389 66.54378
#
# Poissons Ratio (x) = 0.23714 0.28522
# Poissons Ratio (y) = 0.25773 0.35169
# Poissons Ratio (z) = 0.30923 0.35084
#
# Static dielectric constant tensor:
#      x y z
#    x 3.582570 0.000000 0.439420 
#    y 0.000000 3.564740 0.000000 
#    z 0.439420 0.000000 4.299820 
# 
# 
# High freq. dielectric constant tensor:
#      x y z
#    x 1.733690 0.000000 0.016500 
#    y 0.000000 1.725130 0.000000 
#    z 0.016500 0.000000 1.721350 
# 
# From -- ./inp_files/275225.got.cif
#   From: 2010.06.25/outbox.cif.g09.slc.cpg/sg12_138_cif.got.tgz:275225.got - 2010.06.28 00:19:55.
