data_PCOD8091603
_publ_section_title
;
Structure prediction by ZEFSAII (Michael W. Deem and Ramdas Pophale) SiO2 
 PCOD8091603
Probable space group: C 2/M
;
_chemical_formula_sum "Si O2"
_cell_formula_units_Z 48
_cell_length_a 18.731592
_cell_length_b 8.436578
_cell_length_c 18.075187
_cell_angle_alpha 90.000000
_cell_angle_beta 121.159353
_cell_angle_gamma 90.000000
_cell_volume 2444.338549
_symmetry_space_group_name_H-M "C 2/M"
_symmetry_group_IT_number 12
_symmetry_cell_setting 'monoclinic'
loop_
_space_group_symop_operation_xyz
x,y,z
-x,y,-z
-x,-y,-z
x,-y,z
1/2+x,1/2+y,z
1/2-x,1/2+y,-z
1/2-x,1/2-y,-z
1/2+x,1/2-y,z
loop_
_atom_site_type_symbol
_atom_site_label
_atom_site_fract_x
_atom_site_fract_y
_atom_site_fract_z
Si Si1 0.246533 0.816304 0.079640
Si Si2 0.408517 0.184098 0.925103
Si Si3 0.171922 0.185898 0.255023
Si Si4 0.495116 0.688273 0.580632
Si Si5 0.169614 0.185807 0.738662
Si Si6 0.334091 0.687876 0.580527
O O1 0.154178 0.791020 0.061482
O O2 0.313795 0.725002 0.166533
O O3 0.269398 0.000000 0.092185
O O4 0.250000 0.750000 0.000000
O O5 0.395750 0.222091 0.831557
O O6 0.389794 0.000000 0.930269
O O7 0.500000 0.232434 0.000000
O O8 0.265700 0.222001 0.278804
O O9 0.159756 0.247682 0.331825
O O10 0.154864 0.000000 0.239259
O O11 0.500000 0.756549 0.500000
O O12 0.489894 0.500000 0.575807
O O13 0.576914 0.743860 0.668984
O O14 0.413206 0.756599 0.577658
O O15 0.181095 0.000000 0.730308
O O16 0.333064 0.500000 0.577306
O O17 0.250000 0.750000 0.500000
#
# Coordination Sequence:
#
# PCOD8091603 Si02
#       6
#     8   8   8   8   8   8
#     4  11  22  37  57  81 112 146 183 226 273 325
#     4  10  21  37  57  82 111 143 183 227 272 326
#     4  10  20  34  53  78 109 142 177 220 270 325
#     4   9  18  33  54  79 106 138 177 219 262 314
#     4  10  19  34  57  80 105 141 182 222 267 317
#     4  10  21  36  54  79 107 137 177 220 266 320
#
# _framework density 19.637212999999999
#
# number of rings (size 3 to 8) (size 9 to 14) (size 15 to 20)
#    0.000    2.000    0.000    6.000    0.000    5.333 
#    0.000    3.333    0.000    4.500    0.000    0.000 
#    0.000    0.000    0.000    0.000    0.000    0.000 
#
# Total GULP energy -297652.669042 kJ/mol
# GULP energy per Si atom -12402.194543 kJ/mol
# Density = 1.959252 g / cm^3
# Si number density = 19.637213 Si / 1000 Ang^3
#
#
#
# Elastic Constant Matrix: (Units=GPa)
#
#
# Indices 1 2 3 4 5 6 
#
# 1 125.5580 7.7883 102.3524 0.0000 1.5986 0.0000
# 2 7.7883 37.0282 14.9975 0.0000 1.5582 0.0000
# 3 102.3524 14.9975 181.9038 0.0000 1.1701 0.0000
# 4 0.0000 0.0000 0.0000 28.7124 0.0000 1.0951
# 5 1.5986 1.5582 1.1701 0.0000 48.0792 0.0000
# 6 0.0000 0.0000 0.0000 1.0951 0.0000 25.2173
#
#
#
# Elastic Compliance Matrix: (Units=1/GPa)
#
#
# Indices 1 2 3 4 5 6 
#
# 1 0.014720 0.000280 -0.008304 0.000000 -0.000296 0.000000
# 2 0.000280 0.027980 -0.002459 0.000000 -0.000856 0.000000
# 3 -0.008304 -0.002459 0.010372 0.000000 0.000103 0.000000
# 4 0.000000 0.000000 0.000000 0.034886 0.000000 -0.001515
# 5 -0.000296 -0.000856 0.000103 0.000000 0.020834 0.000000
# 6 0.000000 0.000000 0.000000 -0.001515 0.000000 0.039721
#
#
# Mechanical properties :
#
#
# Convention : Reuss Voigt Hill
#
# Bulk Modulus (GPa) = 31.14715 66.08518 48.61616
# Shear Modulus (GPa) = 27.75014 35.02524 31.38769
#
# Velocity S-wave (km/s) = 3.76325 4.22787 4.00231
# Velocity P-wave (km/s) = 5.89733 7.58678 6.79477
#
# Compressibility (1/GPa) = 0.03210567
#
# Stress axis : x y z
#
# Youngs Moduli (GPa) = 67.93571 35.74045 96.41650
#
# Poissons Ratio (x) = -0.00999 0.80060
# Poissons Ratio (y) = -0.01899 0.23706
# Poissons Ratio (z) = 0.56411 0.08787
#
# Static dielectric constant tensor:
#      x y z
#    x 3.525790 0.000000 -0.106320 
#    y 0.000000 3.483550 0.000000 
#    z -0.106320 0.000000 3.852130 
# 
# 
# High freq. dielectric constant tensor:
#      x y z
#    x 1.760470 0.000000 -0.001120 
#    y 0.000000 1.754040 0.000000 
#    z -0.001120 0.000000 1.782240 
# 
# From -- ./inp_files/274574.got.cif
#   From: 2010.06.25/outbox.cif.g09.slc.cpg/sg12_138_cif.got.tgz:274574.got - 2010.06.28 00:19:55.
