data_PCOD8091705
_publ_section_title
;
Structure prediction by ZEFSAII (Michael W. Deem and Ramdas Pophale) SiO2 
 PCOD8091705
Probable space group: C 2/M
;
_chemical_formula_sum "Si O2"
_cell_formula_units_Z 64
_cell_length_a 32.421646
_cell_length_b 8.665834
_cell_length_c 12.174257
_cell_angle_alpha 90.000000
_cell_angle_beta 91.752554
_cell_angle_gamma 90.000000
_cell_volume 3418.886573
_symmetry_space_group_name_H-M "C 2/M"
_symmetry_group_IT_number 12
_symmetry_cell_setting 'monoclinic'
loop_
_space_group_symop_operation_xyz
x,y,z
-x,y,-z
-x,-y,-z
x,-y,z
1/2+x,1/2+y,z
1/2-x,1/2+y,-z
1/2-x,1/2-y,-z
1/2+x,1/2-y,z
loop_
_atom_site_type_symbol
_atom_site_label
_atom_site_fract_x
_atom_site_fract_y
_atom_site_fract_z
Si Si1 0.497338 0.678454 0.158346
Si Si2 0.062683 0.681290 0.005112
Si Si3 0.815781 0.178298 0.516423
Si Si4 0.770576 0.817870 0.894773
Si Si5 0.136599 0.817961 0.128144
Si Si6 0.761570 0.679440 0.338848
Si Si7 0.526422 0.321497 0.398103
Si Si8 0.611881 0.179083 0.355161
O O1 0.504060 0.500000 0.128609
O O2 0.453606 0.736411 0.107067
O O3 0.498136 0.705609 0.288506
O O4 0.534108 0.775124 0.106139
O O5 0.061727 0.500000 0.986365
O O6 0.108994 0.736185 0.033173
O O7 0.798781 0.223587 0.394874
O O8 0.781329 0.216159 0.604278
O O9 0.855718 0.279649 0.546770
O O10 0.828407 0.000000 0.518344
O O11 0.817079 0.755494 0.885043
O O12 0.743457 0.767461 0.787437
O O13 0.771821 0.000000 0.903635
O O14 0.750000 0.750000 0.000000
O O15 0.121001 0.779040 0.248302
O O16 0.133424 0.000000 0.112196
O O17 0.772461 0.500000 0.350687
O O18 0.500000 0.267344 0.500000
O O19 0.539726 0.500000 0.409346
O O20 0.566822 0.216936 0.397121
O O21 0.614835 0.000000 0.324697
#
# Coordination Sequence:
#
# PCOD8091705 Si02
#       8
#     8   8   8   8   8   8   8   8
#     4  10  19  34  57  82 113 152 188 229 284 341
#     4  11  21  33  54  86 117 144 186 240 286 332
#     4  10  19  34  57  84 114 147 188 235 284 337
#     4  10  22  39  59  83 116 153 189 234 285 342
#     4  11  21  38  59  83 114 150 192 236 283 337
#     4   9  18  35  55  82 115 147 187 234 286 333
#     4  10  22  40  61  84 114 153 193 232 281 343
#     4  12  23  35  57  88 117 148 189 238 285 332
#
# _framework density 18.719545
#
# number of rings (size 3 to 8) (size 9 to 14) (size 15 to 20)
#    0.000    1.625    2.500    4.125    0.000    2.750 
#    0.000    1.250    0.000    1.500    0.000    0.000 
#    0.000    0.000    0.000    0.000    0.000    0.000 
#
# Total GULP energy -396925.155542 kJ/mol
# GULP energy per Si atom -12403.911111 kJ/mol
# Density = 1.867694 g / cm^3
# Si number density = 18.719545 Si / 1000 Ang^3
#
#
#
# Elastic Constant Matrix: (Units=GPa)
#
#
# Indices 1 2 3 4 5 6 
#
# 1 95.5604 28.3616 55.7672 0.0000 13.3211 0.0000
# 2 28.3616 62.6072 25.8278 0.0000 7.0411 0.0000
# 3 55.7672 25.8278 129.0676 0.0000 10.6011 0.0000
# 4 0.0000 0.0000 0.0000 24.3418 0.0000 4.7795
# 5 13.3211 7.0411 10.6011 0.0000 31.3783 0.0000
# 6 0.0000 0.0000 0.0000 4.7795 0.0000 29.1202
#
#
#
# Elastic Compliance Matrix: (Units=1/GPa)
#
#
# Indices 1 2 3 4 5 6 
#
# 1 0.015490 -0.004319 -0.005521 0.000000 -0.003742 0.000000
# 2 -0.004319 0.018858 -0.001760 0.000000 -0.001804 0.000000
# 3 -0.005521 -0.001760 0.010554 0.000000 -0.000827 0.000000
# 4 0.000000 0.000000 0.000000 0.042450 0.000000 -0.006967
# 5 -0.003742 -0.001804 -0.000827 0.000000 0.034142 0.000000
# 6 0.000000 0.000000 0.000000 -0.006967 0.000000 0.035484
#
#
# Mechanical properties :
#
#
# Convention : Reuss Voigt Hill
#
# Bulk Modulus (GPa) = 46.07800 56.34982 51.21391
# Shear Modulus (GPa) = 26.67955 28.78663 27.73309
#
# Velocity S-wave (km/s) = 3.77931 3.92571 3.85321
# Velocity P-wave (km/s) = 6.61155 7.12150 6.87126
#
# Compressibility (1/GPa) = 0.02170233
#
# Stress axis : x y z
#
# Youngs Moduli (GPa) = 64.55756 53.02883 94.75482
#
# Poissons Ratio (x) = 0.22901 0.52318
# Poissons Ratio (y) = 0.27880 0.16672
# Poissons Ratio (z) = 0.35645 0.09331
#
# Static dielectric constant tensor:
#      x y z
#    x 3.495330 0.000000 0.327060 
#    y 0.000000 3.426180 0.000000 
#    z 0.327060 0.000000 3.428440 
# 
# 
# High freq. dielectric constant tensor:
#      x y z
#    x 1.718190 0.000000 0.028170 
#    y 0.000000 1.730420 0.000000 
#    z 0.028170 0.000000 1.719800 
# 
# From -- ./inp_files/187524.got.cif
#   From: 2010.06.25/outbox.cif.g09.slc.cpg/sg12_94_cif.got.tgz:187524.got - 2010.06.28 00:19:55.
