data_PCOD8091834
_publ_section_title
;
Structure prediction by ZEFSAII (Michael W. Deem and Ramdas Pophale) SiO2 
 PCOD8091834
Probable space group: C 2/M
;
_chemical_formula_sum "Si O2"
_cell_formula_units_Z 64
_cell_length_a 32.193179
_cell_length_b 8.644016
_cell_length_c 20.077407
_cell_angle_alpha 90.000000
_cell_angle_beta 37.181435
_cell_angle_gamma 90.000000
_cell_volume 3376.518254
_symmetry_space_group_name_H-M "C 2/M"
_symmetry_group_IT_number 12
_symmetry_cell_setting 'monoclinic'
loop_
_space_group_symop_operation_xyz
x,y,z
-x,y,-z
-x,-y,-z
x,-y,z
1/2+x,1/2+y,z
1/2-x,1/2+y,-z
1/2-x,1/2-y,-z
1/2+x,1/2-y,z
loop_
_atom_site_type_symbol
_atom_site_label
_atom_site_fract_x
_atom_site_fract_y
_atom_site_fract_z
Si Si1 0.319855 0.680115 0.147250
Si Si2 0.589465 0.679740 0.588500
Si Si3 0.555685 0.818072 0.763126
Si Si4 0.063642 0.181323 0.250814
Si Si5 0.573019 0.181427 0.378650
Si Si6 0.403620 0.182758 0.924763
Si Si7 0.673954 0.318952 0.354772
Si Si8 0.421115 0.822496 0.120189
O O1 0.301233 0.500000 0.170129
O O2 0.253590 0.780286 0.249757
O O3 0.376914 0.712070 0.130110
O O4 0.346107 0.731364 0.041335
O O5 0.590676 0.500000 0.602069
O O6 0.603566 0.762421 0.641161
O O7 0.516189 0.730719 0.651868
O O8 0.647887 0.728682 0.461654
O O9 0.478101 0.754022 0.853520
O O10 0.587866 0.763989 0.792173
O O11 0.550805 0.000000 0.768439
O O12 0.091520 0.231753 0.286813
O O13 0.106850 0.271205 0.138988
O O14 0.074453 0.000000 0.226962
O O15 0.500000 0.241856 0.500000
O O16 0.633081 0.219583 0.353174
O O17 0.570205 0.000000 0.368246
O O18 0.395750 0.000000 0.944776
O O19 0.660575 0.500000 0.358744
O O20 0.396619 0.000000 0.142499
O O21 0.500000 0.807280 0.000000
#
# Coordination Sequence:
#
# PCOD8091834 Si02
#       8
#     8   8   8   8   8   8   8   8
#     4  12  25  39  57  86 119 154 193 240 292 346
#     4   9  19  34  55  83 115 148 188 235 286 338
#     4   9  18  32  57  86 113 146 188 236 284 336
#     4  10  19  34  57  88 119 149 190 241 287 336
#     4  11  22  36  58  89 120 152 193 241 286 339
#     4  10  19  36  58  84 116 154 192 233 288 346
#     4  11  23  41  61  82 114 159 197 236 290 347
#     4  10  19  37  60  85 115 151 195 238 284 343
#
# _framework density 18.954435
#
# number of rings (size 3 to 8) (size 9 to 14) (size 15 to 20)
#    0.000    1.750    2.500    2.625    0.000    3.250 
#    0.000    1.250    0.000    0.000    0.000    0.000 
#    0.000    0.000    0.000    0.000    0.000    0.000 
#
# Total GULP energy -396913.411533 kJ/mol
# GULP energy per Si atom -12403.544110 kJ/mol
# Density = 1.891129 g / cm^3
# Si number density = 18.954435 Si / 1000 Ang^3
#
#
#
# Elastic Constant Matrix: (Units=GPa)
#
#
# Indices 1 2 3 4 5 6 
#
# 1 70.3248 13.5119 40.0228 0.0606 20.5061 -0.0238
# 2 13.5119 44.6435 18.0829 0.0839 7.8945 -0.0462
# 3 40.0228 18.0829 118.1260 0.1124 21.5150 -0.0640
# 4 0.0606 0.0839 0.1124 29.7004 -0.0396 4.2178
# 5 20.5061 7.8945 21.5150 -0.0396 34.2123 0.0199
# 6 -0.0238 -0.0462 -0.0640 4.2178 0.0199 29.9588
#
#
#
# Elastic Compliance Matrix: (Units=1/GPa)
#
#
# Indices 1 2 3 4 5 6 
#
# 1 0.019882 -0.002597 -0.004831 -0.000028 -0.008280 0.000011
# 2 -0.002597 0.024625 -0.002415 -0.000065 -0.002607 0.000042
# 3 -0.004831 -0.002415 0.011116 -0.000033 -0.003538 0.000023
# 4 -0.000028 -0.000065 -0.000033 0.034357 0.000095 -0.004837
# 5 -0.008280 -0.002607 -0.003538 0.000095 0.037019 -0.000056
# 6 0.000011 0.000042 0.000023 -0.004837 -0.000056 0.034060
#
#
# Mechanical properties :
#
#
# Convention : Reuss Voigt Hill
#
# Bulk Modulus (GPa) = 27.82495 41.81439 34.81967
# Shear Modulus (GPa) = 25.94382 29.53943 27.74163
#
# Velocity S-wave (km/s) = 3.70367 3.95200 3.82985
# Velocity P-wave (km/s) = 5.74468 6.55231 6.16174
#
# Compressibility (1/GPa) = 0.03593897
#
# Stress axis : x y z
#
# Youngs Moduli (GPa) = 50.29592 40.60926 89.95708
#
# Poissons Ratio (x) = 0.10545 0.43457
# Poissons Ratio (y) = 0.13060 0.21723
# Poissons Ratio (z) = 0.24297 0.09807
#
# Static dielectric constant tensor:
#      x y z
#    x 3.443570 -0.000020 0.248280 
#    y -0.000020 3.383010 0.000060 
#    z 0.248280 0.000060 3.560110 
# 
# 
# High freq. dielectric constant tensor:
#      x y z
#    x 1.723140 0.000000 0.025780 
#    y 0.000000 1.736770 0.000010 
#    z 0.025780 0.000010 1.735100 
# 
# From -- ./inp_files/295609.got.cif
#   From: 2010.06.25/outbox.cif.g09.slc.cpg/sg12_148_cif.got.tgz:295609.got - 2010.06.28 00:19:55.
