data_PCOD8091920
_publ_section_title
;
Structure prediction by ZEFSAII (Michael W. Deem and Ramdas Pophale) SiO2 
 PCOD8091920
Probable space group: C 2/M
;
_chemical_formula_sum "Si O2"
_cell_formula_units_Z 48
_cell_length_a 27.347365
_cell_length_b 8.541040
_cell_length_c 15.429279
_cell_angle_alpha 90.000000
_cell_angle_beta 139.130268
_cell_angle_gamma 90.000000
_cell_volume 2358.176403
_symmetry_space_group_name_H-M "C 2/M"
_symmetry_group_IT_number 12
_symmetry_cell_setting 'monoclinic'
loop_
_space_group_symop_operation_xyz
x,y,z
-x,y,-z
-x,-y,-z
x,-y,z
1/2+x,1/2+y,z
1/2-x,1/2+y,-z
1/2-x,1/2-y,-z
1/2+x,1/2-y,z
loop_
_atom_site_type_symbol
_atom_site_label
_atom_site_fract_x
_atom_site_fract_y
_atom_site_fract_z
Si Si1 0.330676 0.816728 0.931486
Si Si2 0.573474 0.814656 0.421757
Si Si3 0.831499 0.685320 0.284616
Si Si4 0.906741 0.314942 0.209839
Si Si5 0.667657 0.816877 0.387477
Si Si6 0.585863 0.318042 0.115744
O O1 0.244789 0.776653 0.802132
O O2 0.380603 0.718177 0.932763
O O3 0.344758 0.000000 0.934974
O O4 0.355440 0.764169 0.060646
O O5 0.613790 0.766995 0.564446
O O6 0.489842 0.743130 0.310476
O O7 0.618758 0.744161 0.400628
O O8 0.568862 0.000000 0.406306
O O9 0.815857 0.500000 0.261191
O O10 0.868565 0.748881 0.246003
O O11 0.913443 0.500000 0.226451
O O12 0.750000 0.750000 0.500000
O O13 0.629067 0.781383 0.244973
O O14 0.674479 0.000000 0.409792
O O15 0.595271 0.500000 0.150410
O O16 0.500000 0.266073 0.000000
#
# Coordination Sequence:
#
# PCOD8091920 Si02
#       6
#     8   8   8   8   8   8
#     4  11  22  36  56  82 114 149 185 228 280 343
#     4   9  18  33  55  82 109 142 186 231 274 325
#     4  10  19  34  58  84 112 145 182 228 277 330
#     4   9  18  33  55  83 111 143 186 230 274 329
#     4  11  22  37  59  86 119 156 194 237 285 342
#     4  11  24  41  60  83 112 148 194 246 297 346
#
# _framework density 20.354711999999999
#
# number of rings (size 3 to 8) (size 9 to 14) (size 15 to 20)
#    0.000    1.833    0.000    4.500    0.000    6.000 
#    0.000    1.667    0.000    6.000    0.000    0.000 
#    0.000    0.000    0.000    0.000    0.000    0.000 
#
# Total GULP energy -297700.068910 kJ/mol
# GULP energy per Si atom -12404.169538 kJ/mol
# Density = 2.030838 g / cm^3
# Si number density = 20.354712 Si / 1000 Ang^3
#
#
#
# Elastic Constant Matrix: (Units=GPa)
#
#
# Indices 1 2 3 4 5 6 
#
# 1 122.3354 17.0205 17.1588 0.0000 7.5676 0.0000
# 2 17.0205 27.7519 17.8833 0.0000 4.9642 0.0000
# 3 17.1588 17.8833 89.3457 0.0000 8.0384 0.0000
# 4 0.0000 0.0000 0.0000 19.0123 0.0000 2.3129
# 5 7.5676 4.9642 8.0384 0.0000 47.1007 0.0000
# 6 0.0000 0.0000 0.0000 2.3129 0.0000 20.4820
#
#
#
# Elastic Compliance Matrix: (Units=1/GPa)
#
#
# Indices 1 2 3 4 5 6 
#
# 1 0.009006 -0.004949 -0.000666 0.000000 -0.000812 0.000000
# 2 -0.004949 0.044509 -0.007726 0.000000 -0.002577 0.000000
# 3 -0.000666 -0.007726 0.012983 0.000000 -0.001294 0.000000
# 4 0.000000 0.000000 0.000000 0.053330 0.000000 -0.006022
# 5 -0.000812 -0.002577 -0.001294 0.000000 0.021854 0.000000
# 6 0.000000 0.000000 0.000000 -0.006022 0.000000 0.049503
#
#
# Mechanical properties :
#
#
# Convention : Reuss Voigt Hill
#
# Bulk Modulus (GPa) = 25.11608 38.17314 31.64461
# Shear Modulus (GPa) = 21.63173 29.81035 25.72104
#
# Velocity S-wave (km/s) = 3.26350 3.83109 3.55863
# Velocity P-wave (km/s) = 5.15428 6.19389 5.69785
#
# Compressibility (1/GPa) = 0.03981513
#
# Stress axis : x y z
#
# Youngs Moduli (GPa) = 111.03108 22.46739 77.02162
#
# Poissons Ratio (x) = 0.11120 0.05130
# Poissons Ratio (y) = 0.54954 0.59510
# Poissons Ratio (z) = 0.07395 0.17359
#
# Static dielectric constant tensor:
#      x y z
#    x 4.088940 0.000000 0.021160 
#    y 0.000000 3.316980 0.000000 
#    z 0.021160 0.000000 3.704830 
# 
# 
# High freq. dielectric constant tensor:
#      x y z
#    x 1.816480 0.000000 0.000620 
#    y 0.000000 1.760480 0.000000 
#    z 0.000620 0.000000 1.811800 
# 
# From -- ./inp_files/249349.got.cif
#   From: 2010.06.25/outbox.cif.g09.slc.cpg/sg12_125_cif.got.tgz:249349.got - 2010.06.28 00:19:55.
