data_PCOD8091383
_publ_section_title
;
Structure prediction by ZEFSAII (Michael W. Deem and Ramdas Pophale) SiO2 
 PCOD8091383
Probable space group: C 2/M
;
_chemical_formula_sum "Si O2"
_cell_formula_units_Z 56
_cell_length_a 19.164309
_cell_length_b 9.554191
_cell_length_c 25.227831
_cell_angle_alpha 90.000000
_cell_angle_beta 139.589742
_cell_angle_gamma 90.000000
_cell_volume 2994.426781
_symmetry_space_group_name_H-M "C 2/M"
_symmetry_group_IT_number 12
_symmetry_cell_setting 'monoclinic'
loop_
_space_group_symop_operation_xyz
x,y,z
-x,y,-z
-x,-y,-z
x,-y,z
1/2+x,1/2+y,z
1/2-x,1/2+y,-z
1/2-x,1/2-y,-z
1/2+x,1/2-y,z
loop_
_atom_site_type_symbol
_atom_site_label
_atom_site_fract_x
_atom_site_fract_y
_atom_site_fract_z
Si Si1 0.913017 0.666205 0.406192
Si Si2 0.183546 0.344273 0.423219
Si Si3 0.784366 0.655738 0.677800
Si Si4 0.019592 0.336063 0.855513
Si Si5 0.449603 0.834863 0.309510
Si Si6 0.188081 0.666036 0.865041
Si Si7 0.934494 0.834935 0.015299
O O1 0.902558 0.500000 0.403701
O O2 0.794971 0.729494 0.344837
O O3 0.946980 0.721950 0.367950
O O4 0.000000 0.719953 0.500000
O O5 0.183258 0.500000 0.447430
O O6 0.250000 0.250000 0.500000
O O7 0.236269 0.341791 0.396529
O O8 0.062087 0.288559 0.349086
O O9 0.757739 0.500000 0.684446
O O10 0.907493 0.694004 0.761280
O O11 0.033901 0.500000 0.876874
O O12 0.117252 0.281448 0.874345
O O13 0.014532 0.248741 0.906631
O O14 0.358409 0.772432 0.217426
O O15 0.435147 0.000000 0.302887
O O16 0.179485 0.500000 0.858887
O O17 0.310975 0.716085 0.939521
O O18 0.942073 0.000000 0.031158
O O19 0.000000 0.796370 0.000000
#
# Coordination Sequence:
#
# PCOD8091383 Si02
#       7
#     8   8   8   8   8   8   8
#     4  10  21  35  54  82 111 144 186 228 271 320
#     4  10  19  34  56  80 106 139 182 225 266 315
#     4  10  21  36  55  80 109 145 184 222 270 327
#     4  10  20  37  59  80 107 146 186 219 266 329
#     4   9  17  32  55  77 104 144 184 218 261 322
#     4   9  17  34  57  79 106 144 183 218 265 326
#     4  10  22  36  56  87 114 138 176 224 273 323
#
# _framework density 18.701409000000002
#
# number of rings (size 3 to 8) (size 9 to 14) (size 15 to 20)
#    0.000    2.286    1.429    1.286    2.000    2.857 
#    0.000    0.714    0.000    1.714    0.000    0.000 
#    0.000    0.000    0.000    0.000    0.000    0.000 
#
# Total GULP energy -347104.251696 kJ/mol
# GULP energy per Si atom -12396.580418 kJ/mol
# Density = 1.865884 g / cm^3
# Si number density = 18.701409 Si / 1000 Ang^3
#
#
#
# Elastic Constant Matrix: (Units=GPa)
#
#
# Indices 1 2 3 4 5 6 
#
# 1 109.9519 29.7947 35.5849 0.0000 -4.7710 0.0000
# 2 29.7947 37.9047 35.7069 0.0000 -2.4633 0.0000
# 3 35.5849 35.7069 99.9191 0.0000 -10.7063 0.0000
# 4 0.0000 0.0000 0.0000 27.0621 0.0000 2.5870
# 5 -4.7710 -2.4633 -10.7063 0.0000 37.4890 0.0000
# 6 0.0000 0.0000 0.0000 2.5870 0.0000 22.5752
#
#
#
# Elastic Compliance Matrix: (Units=1/GPa)
#
#
# Indices 1 2 3 4 5 6 
#
# 1 0.011685 -0.007969 -0.001249 0.000000 0.000607 0.000000
# 2 -0.007969 0.045286 -0.013550 0.000000 -0.001908 0.000000
# 3 -0.001249 -0.013550 0.015662 0.000000 0.003424 0.000000
# 4 0.000000 0.000000 0.000000 0.037361 0.000000 -0.004281
# 5 0.000607 -0.001908 0.003424 0.000000 0.027604 0.000000
# 6 0.000000 0.000000 0.000000 -0.004281 0.000000 0.044787
#
#
# Mechanical properties :
#
#
# Convention : Reuss Voigt Hill
#
# Bulk Modulus (GPa) = 36.90340 49.99431 43.44885
# Shear Modulus (GPa) = 21.10130 27.20453 24.15291
#
# Velocity S-wave (km/s) = 3.36270 3.81816 3.59765
# Velocity P-wave (km/s) = 5.90363 6.79917 6.36716
#
# Compressibility (1/GPa) = 0.02709778
#
# Stress axis : x y z
#
# Youngs Moduli (GPa) = 85.58157 22.08185 63.85016
#
# Poissons Ratio (x) = 0.17597 0.07972
# Poissons Ratio (y) = 0.68201 0.86515
# Poissons Ratio (z) = 0.10685 0.29920
#
# Static dielectric constant tensor:
#      x y z
#    x 3.548760 0.000000 -0.083330 
#    y 0.000000 3.109720 0.000000 
#    z -0.083330 0.000000 3.530460 
# 
# 
# High freq. dielectric constant tensor:
#      x y z
#    x 1.735090 0.000000 -0.001190 
#    y 0.000000 1.686270 0.000000 
#    z -0.001190 0.000000 1.738610 
# 
# From -- ./inp_files/343015.got.cif
#   From: 2010.06.25/outbox.cif.g09.slc.cpg/sg12_172_cif.got.tgz:343015.got - 2010.06.28 00:19:55.
