data_PCOD8091522
_publ_section_title
;
Structure prediction by ZEFSAII (Michael W. Deem and Ramdas Pophale) SiO2 
 PCOD8091522
Probable space group: C 2/M
;
_chemical_formula_sum "Si O2"
_cell_formula_units_Z 64
_cell_length_a 31.254415
_cell_length_b 8.902127
_cell_length_c 18.466751
_cell_angle_alpha 90.000000
_cell_angle_beta 138.836840
_cell_angle_gamma 90.000000
_cell_volume 3381.872146
_symmetry_space_group_name_H-M "C 2/M"
_symmetry_group_IT_number 12
_symmetry_cell_setting 'monoclinic'
loop_
_space_group_symop_operation_xyz
x,y,z
-x,y,-z
-x,-y,-z
x,-y,z
1/2+x,1/2+y,z
1/2-x,1/2+y,-z
1/2-x,1/2-y,-z
1/2+x,1/2-y,z
loop_
_atom_site_type_symbol
_atom_site_label
_atom_site_fract_x
_atom_site_fract_y
_atom_site_fract_z
Si Si1 0.740340 0.178588 0.769394
Si Si2 0.723897 0.178089 0.039323
Si Si3 0.882991 0.825543 0.909317
Si Si4 0.556412 0.825599 0.315734
Si Si5 0.103397 0.826514 0.229593
Si Si6 0.270808 0.166939 0.597021
Si Si7 0.350322 0.332875 0.454967
Si Si8 0.417254 0.172719 0.093118
O O1 0.736283 0.250102 0.843862
O O2 0.807935 0.236268 0.818020
O O3 0.675499 0.235070 0.645174
O O4 0.736590 0.000000 0.769534
O O5 0.734164 0.000000 0.051753
O O6 0.750000 0.250000 0.000000
O O7 0.647778 0.223344 0.948320
O O8 0.924025 0.797373 0.886776
O O9 0.877746 0.000000 0.918012
O O10 0.926607 0.757224 0.028763
O O11 0.576972 0.772061 0.261561
O O12 0.590016 0.742314 0.425681
O O13 0.479169 0.795264 0.223494
O O14 0.574131 0.000000 0.344413
O O15 0.176559 0.778408 0.302576
O O16 0.098612 0.000000 0.246905
O O17 0.250000 0.250000 0.500000
O O18 0.208773 0.151324 0.566706
O O19 0.299417 0.000000 0.617697
O O20 0.371941 0.500000 0.456835
O O21 0.413041 0.000000 0.066269
#
# Coordination Sequence:
#
# PCOD8091522 Si02
#       8
#     8   8   8   8   8   8   8   8
#     4  10  19  34  56  84 114 144 178 221 271 323
#     4  10  20  38  64  93 117 138 169 213 267 328
#     4   9  19  33  52  75 103 140 183 230 278 318
#     4  11  23  37  52  73 104 149 193 228 269 320
#     4  11  21  33  48  72 104 142 190 238 280 318
#     4  11  21  31  47  70 101 140 188 238 282 318
#     4  11  22  34  51  77 108 145 185 229 276 320
#     4   9  21  39  57  78 108 142 179 220 267 326
#
# _framework density 18.924430000000001
#
# number of rings (size 3 to 8) (size 9 to 14) (size 15 to 20)
#    0.000    1.750    2.500    2.250    0.000    4.500 
#    0.000    2.500    0.000    0.750    0.000    5.250 
#    0.000    0.000    0.000    0.000    0.000    0.000 
#
# Total GULP energy -396524.449994 kJ/mol
# GULP energy per Si atom -12391.389062 kJ/mol
# Density = 1.888136 g / cm^3
# Si number density = 18.924430 Si / 1000 Ang^3
#
#
#
# Elastic Constant Matrix: (Units=GPa)
#
#
# Indices 1 2 3 4 5 6 
#
# 1 66.3625 34.1908 46.3985 0.0000 -18.1464 0.0000
# 2 34.1908 77.3211 45.9741 0.0000 -11.8320 0.0000
# 3 46.3985 45.9741 123.6453 0.0000 -8.9209 0.0000
# 4 0.0000 0.0000 0.0000 33.4461 0.0000 -5.1670
# 5 -18.1464 -11.8320 -8.9209 0.0000 24.4428 0.0000
# 6 0.0000 0.0000 0.0000 -5.1670 0.0000 24.4314
#
#
#
# Elastic Compliance Matrix: (Units=1/GPa)
#
#
# Indices 1 2 3 4 5 6 
#
# 1 0.026754 -0.005448 -0.006954 0.000000 0.014687 0.000000
# 2 -0.005448 0.018598 -0.004635 0.000000 0.003266 0.000000
# 3 -0.006954 -0.004635 0.012208 0.000000 -0.002951 0.000000
# 4 0.000000 0.000000 0.000000 0.030909 0.000000 0.006537
# 5 0.014687 0.003266 -0.002951 0.000000 0.052319 0.000000
# 6 0.000000 0.000000 0.000000 0.006537 0.000000 0.042313
#
#
# Mechanical properties :
#
#
# Convention : Reuss Voigt Hill
#
# Bulk Modulus (GPa) = 42.58042 57.82841 50.20442
# Shear Modulus (GPa) = 22.22182 25.84841 24.03512
#
# Velocity S-wave (km/s) = 3.43044 3.69978 3.56765
# Velocity P-wave (km/s) = 6.18382 6.99107 6.59980
#
# Compressibility (1/GPa) = 0.02348497
#
# Stress axis : x y z
#
# Youngs Moduli (GPa) = 37.37785 53.76938 81.91515
#
# Poissons Ratio (x) = 0.29294 0.56965
# Poissons Ratio (y) = 0.20364 0.37968
# Poissons Ratio (z) = 0.25993 0.24923
#
# Static dielectric constant tensor:
#      x y z
#    x 3.193680 0.000000 0.026860 
#    y 0.000000 3.602390 0.000000 
#    z 0.026860 0.000000 3.647530 
# 
# 
# High freq. dielectric constant tensor:
#      x y z
#    x 1.696210 0.000000 -0.007150 
#    y 0.000000 1.747470 0.000000 
#    z -0.007150 0.000000 1.741650 
# 
# From -- ./inp_files/295773.got.cif
#   From: 2010.06.25/outbox.cif.g09.slc.cpg/sg12_148_cif.got.tgz:295773.got - 2010.06.28 00:19:55.
