data_PCOD8091661
_publ_section_title
;
Structure prediction by ZEFSAII (Michael W. Deem and Ramdas Pophale) SiO2 
 PCOD8091661
Probable space group: C 2/M
;
_chemical_formula_sum "Si O2"
_cell_formula_units_Z 56
_cell_length_a 9.556089
_cell_length_b 21.153573
_cell_length_c 22.027515
_cell_angle_alpha 90.000000
_cell_angle_beta 42.647595
_cell_angle_gamma 90.000000
_cell_volume 3016.688878
_symmetry_space_group_name_H-M "C 2/M"
_symmetry_group_IT_number 12
_symmetry_cell_setting 'monoclinic'
loop_
_space_group_symop_operation_xyz
x,y,z
-x,y,-z
-x,-y,-z
x,-y,z
1/2+x,1/2+y,z
1/2-x,1/2+y,-z
1/2-x,1/2-y,-z
1/2+x,1/2-y,z
loop_
_atom_site_type_symbol
_atom_site_label
_atom_site_fract_x
_atom_site_fract_y
_atom_site_fract_z
Si Si1 0.382658 0.623137 0.371991
Si Si2 0.164007 0.574971 0.763622
Si Si3 0.739552 0.742251 0.432391
Si Si4 0.499349 0.122676 0.304273
Si Si5 0.819925 0.930137 0.515940
Si Si6 0.376543 0.426706 0.246362
Si Si7 0.342511 0.074002 0.098679
O O1 0.621005 0.611575 0.312355
O O2 0.324497 0.694692 0.372540
O O3 0.263531 0.607331 0.472514
O O4 0.314342 0.579553 0.337288
O O5 0.193530 0.500000 0.742854
O O6 0.010158 0.607106 0.764370
O O7 0.075295 0.587607 0.859438
O O8 0.500000 0.727566 0.500000
O O9 0.750000 0.750000 0.500000
O O10 0.886776 0.687578 0.358814
O O11 0.385662 0.066982 0.377842
O O12 0.738411 0.118845 0.247975
O O13 0.000000 0.898080 0.500000
O O14 0.892589 0.000000 0.474101
O O15 0.355964 0.500000 0.233735
O O16 0.609974 0.400052 0.164086
O O17 0.330889 0.000000 0.090343
O O18 0.500000 0.105740 0.000000
#
# Coordination Sequence:
#
# PCOD8091661 Si02
#       7
#     8   8   8   8   8   8   8
#     4  11  21  35  52  73 100 144 188 227 264 300
#     4  10  19  34  57  82 107 136 178 222 267 329
#     4  12  24  39  51  68 103 149 197 233 254 305
#     4  12  22  35  50  75 108 147 181 225 268 302
#     4  11  20  31  50  74 104 143 186 221 269 320
#     4  10  21  35  53  81 111 132 170 225 270 319
#     4   8  16  34  59  84 111 140 165 202 268 343
#
# _framework density 18.563400000000001
#
# number of rings (size 3 to 8) (size 9 to 14) (size 15 to 20)
#    0.000    1.429    2.857    5.571    0.000    0.000 
#    0.000    2.143    0.000    3.429    0.000   16.000 
#    0.000    0.000    0.000    0.000    0.000    0.000 
#
# Total GULP energy -347017.098357 kJ/mol
# GULP energy per Si atom -12393.467798 kJ/mol
# Density = 1.852115 g / cm^3
# Si number density = 18.563400 Si / 1000 Ang^3
#
#
#
# Elastic Constant Matrix: (Units=GPa)
#
#
# Indices 1 2 3 4 5 6 
#
# 1 140.4107 34.3802 55.1381 0.0053 4.3770 -0.0206
# 2 34.3802 91.4585 29.4052 0.0025 -1.0347 -0.0067
# 3 55.1381 29.4052 103.7840 -0.0015 10.7769 -0.0087
# 4 0.0053 0.0025 -0.0015 12.1312 -0.0014 -0.5997
# 5 4.3770 -1.0347 10.7769 -0.0014 22.4392 0.0058
# 6 -0.0206 -0.0067 -0.0087 -0.5997 0.0058 20.4022
#
#
#
# Elastic Compliance Matrix: (Units=1/GPa)
#
#
# Indices 1 2 3 4 5 6 
#
# 1 0.009357 -0.002102 -0.004395 -0.000004 0.000189 0.000007
# 2 -0.002102 0.012617 -0.002695 -0.000002 0.002286 0.000000
# 3 -0.004395 -0.002695 0.013322 0.000004 -0.005665 0.000002
# 4 -0.000004 -0.000002 0.000004 0.082552 0.000003 0.002426
# 5 0.000189 0.002286 -0.005665 0.000003 0.047354 -0.000015
# 6 0.000007 0.000000 0.000002 0.002426 -0.000015 0.049086
#
#
# Mechanical properties :
#
#
# Convention : Reuss Voigt Hill
#
# Bulk Modulus (GPa) = 59.13380 63.72226 61.42803
# Shear Modulus (GPa) = 20.98117 25.44317 23.21217
#
# Velocity S-wave (km/s) = 3.36556 3.70619 3.53997
# Velocity P-wave (km/s) = 6.85761 7.26057 7.06196
#
# Compressibility (1/GPa) = 0.01691080
#
# Stress axis : x y z
#
# Youngs Moduli (GPa) = 106.87561 79.26098 75.06209
#
# Poissons Ratio (x) = 0.16661 0.32990
# Poissons Ratio (y) = 0.22466 0.20231
# Poissons Ratio (z) = 0.46972 0.21363
#
# Static dielectric constant tensor:
#      x y z
#    x 3.550460 0.000000 0.044260 
#    y 0.000000 3.412530 0.000000 
#    z 0.044260 0.000000 3.491550 
# 
# 
# High freq. dielectric constant tensor:
#      x y z
#    x 1.730000 0.000000 0.011160 
#    y 0.000000 1.702080 0.000000 
#    z 0.011160 0.000000 1.689510 
# 
# From -- ./inp_files/302072.got.cif
#   From: 2010.06.25/outbox.cif.g09.slc.cpg/sg12_152_cif.got.tgz:302072.got - 2010.06.28 00:19:55.
