data_PCOD8091944
_publ_section_title
;
Structure prediction by ZEFSAII (Michael W. Deem and Ramdas Pophale) SiO2 
 PCOD8091944
Probable space group: C 2/M
;
_chemical_formula_sum "Si O2"
_cell_formula_units_Z 64
_cell_length_a 20.169682
_cell_length_b 9.181199
_cell_length_c 19.982094
_cell_angle_alpha 90.000000
_cell_angle_beta 112.747694
_cell_angle_gamma 90.000000
_cell_volume 3412.497596
_symmetry_space_group_name_H-M "C 2/M"
_symmetry_group_IT_number 12
_symmetry_cell_setting 'monoclinic'
loop_
_space_group_symop_operation_xyz
x,y,z
-x,y,-z
-x,-y,-z
x,-y,z
1/2+x,1/2+y,z
1/2-x,1/2+y,-z
1/2-x,1/2-y,-z
1/2+x,1/2-y,z
loop_
_atom_site_type_symbol
_atom_site_label
_atom_site_fract_x
_atom_site_fract_y
_atom_site_fract_z
Si Si1 0.443450 0.334676 0.162911
Si Si2 0.720207 0.665650 0.925785
Si Si3 0.949563 0.166545 0.541488
Si Si4 0.961186 0.173788 0.917906
Si Si5 0.202453 0.169102 0.159055
Si Si6 0.800497 0.667206 0.318249
Si Si7 0.696387 0.828840 0.528601
Si Si8 0.567579 0.668204 0.694722
O O1 0.469019 0.500000 0.183346
O O2 0.364987 0.327142 0.100471
O O3 0.497877 0.260203 0.131160
O O4 0.443982 0.259118 0.236383
O O5 0.747897 0.500000 0.937563
O O6 0.744820 0.739687 0.867006
O O7 0.750000 0.750000 0.000000
O O8 0.883455 0.275368 0.518210
O O9 0.000000 0.212484 0.500000
O O10 0.993012 0.185912 0.626935
O O11 0.922794 0.000000 0.522158
O O12 0.878780 0.226468 0.881764
O O13 0.966155 0.000000 0.919166
O O14 0.000000 0.234293 0.000000
O O15 0.229446 0.194400 0.245569
O O16 0.207433 0.000000 0.140479
O O17 0.824569 0.500000 0.324269
O O18 0.781508 0.711666 0.386740
O O19 0.868059 0.757800 0.319635
O O20 0.750000 0.750000 0.500000
O O21 0.700650 0.000000 0.517359
O O22 0.590283 0.500000 0.711217
#
# Coordination Sequence:
#
# PCOD8091944 Si02
#       8
#     8   8   8   8   8   8   8   8
#     4   9  18  32  53  81 106 140 187 232 273 325
#     4  11  21  34  55  82 112 144 185 232 279 336
#     4  10  20  35  59  87 114 150 194 240 292 348
#     4   9  17  31  52  77 107 141 180 226 272 326
#     4  10  20  35  57  83 109 144 186 231 287 342
#     4  10  21  36  56  83 115 149 185 235 295 347
#     4  11  24  40  59  85 119 158 198 244 294 350
#     4  10  19  34  58  85 112 145 189 241 286 337
#
# _framework density 18.754591999999999
#
# number of rings (size 3 to 8) (size 9 to 14) (size 15 to 20)
#    0.000    2.000    2.500    1.500    0.000    4.250 
#    0.000    3.750    0.000    4.875    0.000    0.000 
#    0.000    0.000    0.000    0.000    0.000    0.000 
#
# Total GULP energy -396812.875105 kJ/mol
# GULP energy per Si atom -12400.402347 kJ/mol
# Density = 1.871191 g / cm^3
# Si number density = 18.754592 Si / 1000 Ang^3
#
#
#
# Elastic Constant Matrix: (Units=GPa)
#
#
# Indices 1 2 3 4 5 6 
#
# 1 116.1581 42.9733 46.8511 0.0000 -11.2983 0.0000
# 2 42.9733 59.0657 38.1338 0.0000 -4.9964 0.0000
# 3 46.8511 38.1338 121.1705 0.0000 -10.7571 0.0000
# 4 0.0000 0.0000 0.0000 19.2040 0.0000 2.6097
# 5 -11.2983 -4.9964 -10.7571 0.0000 35.7952 0.0000
# 6 0.0000 0.0000 0.0000 2.6097 0.0000 25.8620
#
#
#
# Elastic Compliance Matrix: (Units=1/GPa)
#
#
# Indices 1 2 3 4 5 6 
#
# 1 0.012497 -0.007420 -0.002300 0.000000 0.002218 0.000000
# 2 -0.007420 0.025686 -0.005244 0.000000 -0.000333 0.000000
# 3 -0.002300 -0.005244 0.010956 0.000000 0.001834 0.000000
# 4 0.000000 0.000000 0.000000 0.052796 0.000000 -0.005328
# 5 0.002218 -0.000333 0.001834 0.000000 0.029142 0.000000
# 6 0.000000 0.000000 0.000000 -0.005328 0.000000 0.039204
#
#
# Mechanical properties :
#
#
# Convention : Reuss Voigt Hill
#
# Bulk Modulus (GPa) = 52.05514 61.36784 56.71149
# Shear Modulus (GPa) = 24.19971 27.40133 25.80052
#
# Velocity S-wave (km/s) = 3.59602 3.82651 3.71305
# Velocity P-wave (km/s) = 6.71253 7.23294 6.97759
#
# Compressibility (1/GPa) = 0.01921040
#
# Stress axis : x y z
#
# Youngs Moduli (GPa) = 80.01638 38.93113 91.27817
#
# Poissons Ratio (x) = 0.28886 0.20996
# Poissons Ratio (y) = 0.59371 0.47870
# Poissons Ratio (z) = 0.18405 0.20417
#
# Static dielectric constant tensor:
#      x y z
#    x 3.367980 0.000000 -0.217140 
#    y 0.000000 3.275800 0.000000 
#    z -0.217140 0.000000 3.785950 
# 
# 
# High freq. dielectric constant tensor:
#      x y z
#    x 1.727470 0.000000 -0.004310 
#    y 0.000000 1.698060 0.000000 
#    z -0.004310 0.000000 1.748030 
# 
# From -- ./inp_files/319992.got.cif
#   From: 2010.06.25/outbox.cif.g09.slc.cpg/sg12_160_cif.got.tgz:319992.got - 2010.06.28 00:19:55.
