data_PCOD8091160
_publ_section_title
;
Structure prediction by ZEFSAII (Michael W. Deem and Ramdas Pophale) SiO2 
 PCOD8091160
Probable space group: C 2/M
;
_chemical_formula_sum "Si O2"
_cell_formula_units_Z 40
_cell_length_a 20.014689
_cell_length_b 9.164816
_cell_length_c 14.487221
_cell_angle_alpha 90.000000
_cell_angle_beta 124.929684
_cell_angle_gamma 90.000000
_cell_volume 2178.687365
_symmetry_space_group_name_H-M "C 2/M"
_symmetry_group_IT_number 12
_symmetry_cell_setting 'monoclinic'
loop_
_space_group_symop_operation_xyz
x,y,z
-x,y,-z
-x,-y,-z
x,-y,z
1/2+x,1/2+y,z
1/2-x,1/2+y,-z
1/2-x,1/2-y,-z
1/2+x,1/2-y,z
loop_
_atom_site_type_symbol
_atom_site_label
_atom_site_fract_x
_atom_site_fract_y
_atom_site_fract_z
Si Si1 0.602669 0.335710 0.490639
Si Si2 0.265094 0.830720 0.296103
Si Si3 0.201555 0.332151 0.883591
Si Si4 0.383471 0.335745 0.700959
Si Si5 0.516721 0.173055 0.717757
O O1 0.582692 0.500000 0.507943
O O2 0.655561 0.256541 0.609648
O O3 0.652224 0.338451 0.432164
O O4 0.517809 0.248266 0.403966
O O5 0.253357 0.806614 0.178038
O O6 0.184282 0.771458 0.283341
O O7 0.279412 0.000000 0.332103
O O8 0.200939 0.500000 0.910957
O O9 0.109064 0.274852 0.804528
O O10 0.250000 0.250000 0.000000
O O11 0.408575 0.500000 0.751310
O O12 0.463794 0.231672 0.763963
O O13 0.508923 0.000000 0.702201
#
# Coordination Sequence:
#
# PCOD8091160 Si02
#       5
#     8   8   8   8   8
#     4   9  18  31  52  83 111 137 168 206 258 309
#     4  10  19  34  55  79 106 138 175 212 254 307
#     4  10  23  40  57  75  99 137 180 220 262 303
#     4   8  17  32  52  80 109 136 169 207 255 309
#     4   9  18  34  54  76 106 139 170 208 259 312
#
# _framework density 18.359679
#
# number of rings (size 3 to 8) (size 9 to 14) (size 15 to 20)
#    1.200    1.600    0.000    1.200    0.000    4.000 
#    0.000    5.000    0.000    6.000    0.000    0.000 
#    0.000    0.000    0.000    0.000    0.000    0.000 
#
# Total GULP energy -247833.917736 kJ/mol
# GULP energy per Si atom -12391.695887 kJ/mol
# Density = 1.831789 g / cm^3
# Si number density = 18.359679 Si / 1000 Ang^3
#
#
#
# Elastic Constant Matrix: (Units=GPa)
#
#
# Indices 1 2 3 4 5 6 
#
# 1 42.2965 13.6199 20.8473 0.0000 3.9252 0.0000
# 2 13.6199 72.1765 32.9411 0.0000 5.0635 0.0000
# 3 20.8473 32.9411 71.7489 0.0000 -0.4858 0.0000
# 4 0.0000 0.0000 0.0000 33.6849 0.0000 3.1572
# 5 3.9252 5.0635 -0.4858 0.0000 18.0875 0.0000
# 6 0.0000 0.0000 0.0000 3.1572 0.0000 23.0924
#
#
#
# Elastic Compliance Matrix: (Units=1/GPa)
#
#
# Indices 1 2 3 4 5 6 
#
# 1 0.028427 -0.001465 -0.007628 0.000000 -0.005964 0.000000
# 2 -0.001465 0.018091 -0.007914 0.000000 -0.004959 0.000000
# 3 -0.007628 -0.007914 0.019817 0.000000 0.004403 0.000000
# 4 0.000000 0.000000 0.000000 0.030072 0.000000 -0.004111
# 5 -0.005964 -0.004959 0.004403 0.000000 0.058087 0.000000
# 6 0.000000 0.000000 0.000000 -0.004111 0.000000 0.043866
#
#
# Mechanical properties :
#
#
# Convention : Reuss Voigt Hill
#
# Bulk Modulus (GPa) = 30.93791 35.67094 33.30442
# Shear Modulus (GPa) = 20.56358 22.89389 21.72873
#
# Velocity S-wave (km/s) = 3.35033 3.53507 3.44394
# Velocity P-wave (km/s) = 5.64392 6.01111 5.83041
#
# Compressibility (1/GPa) = 0.03232281
#
# Stress axis : x y z
#
# Youngs Moduli (GPa) = 35.17745 55.27574 50.46169
#
# Poissons Ratio (x) = 0.08096 0.38491
# Poissons Ratio (y) = 0.05152 0.39935
# Poissons Ratio (z) = 0.26832 0.43745
#
# Static dielectric constant tensor:
#      x y z
#    x 3.436560 0.000000 0.018420 
#    y 0.000000 3.330920 0.000000 
#    z 0.018420 0.000000 3.007880 
# 
# 
# High freq. dielectric constant tensor:
#      x y z
#    x 1.712970 0.000000 0.001030 
#    y 0.000000 1.712440 0.000000 
#    z 0.001030 0.000000 1.676770 
# 
# From -- ./inp_files/230621.got.cif
#   From: 2010.06.25/outbox.cif.g09.slc.cpg/sg12_116_cif.got.tgz:230621.got - 2010.06.28 00:19:55.
