data_PCOD8091652
_publ_section_title
;
Structure prediction by ZEFSAII (Michael W. Deem and Ramdas Pophale) SiO2 
 PCOD8091652
Probable space group: C 2/M
;
_chemical_formula_sum "Si O2"
_cell_formula_units_Z 56
_cell_length_a 17.679071
_cell_length_b 17.250280
_cell_length_c 9.217861
_cell_angle_alpha 90.000000
_cell_angle_beta 73.013488
_cell_angle_gamma 90.000000
_cell_volume 2688.520196
_symmetry_space_group_name_H-M "C 2/M"
_symmetry_group_IT_number 12
_symmetry_cell_setting 'monoclinic'
loop_
_space_group_symop_operation_xyz
x,y,z
-x,y,-z
-x,-y,-z
x,-y,z
1/2+x,1/2+y,z
1/2-x,1/2+y,-z
1/2-x,1/2-y,-z
1/2+x,1/2-y,z
loop_
_atom_site_type_symbol
_atom_site_label
_atom_site_fract_x
_atom_site_fract_y
_atom_site_fract_z
Si Si1 0.550584 0.654459 0.840459
Si Si2 0.223441 0.090298 0.714856
Si Si3 0.320943 0.174021 0.408153
Si Si4 0.162699 0.785609 0.368481
Si Si5 0.582592 0.167483 0.902277
Si Si6 0.554462 0.415142 0.337368
Si Si7 0.193576 0.686841 0.098707
O O1 0.630611 0.608876 0.756595
O O2 0.572198 0.741888 0.871826
O O3 0.490680 0.645248 0.740172
O O4 0.500000 0.616310 0.000000
O O5 0.273939 0.121645 0.549401
O O6 0.256323 0.120193 0.850138
O O7 0.235883 0.000000 0.704074
O O8 0.258324 0.212685 0.330981
O O9 0.368088 0.243965 0.465574
O O10 0.383323 0.129429 0.267228
O O11 0.131526 0.871976 0.358794
O O12 0.138876 0.730665 0.247395
O O13 0.500000 0.129796 0.000000
O O14 0.640837 0.149870 0.002697
O O15 0.500000 0.435660 0.500000
O O16 0.577466 0.500000 0.254722
O O17 0.250000 0.750000 0.000000
#
# Coordination Sequence:
#
# PCOD8091652 Si02
#       7
#     8   8   8   8   8   8   8
#     4  11  22  37  57  89 129 164 199 238 294 374
#     4  11  24  41  62  88 124 168 206 248 311 377
#     4  10  20  37  61  83 113 157 218 260 299 353
#     4  10  19  34  57  81 116 167 205 249 292 344
#     4  11  21  37  65  95 119 154 204 264 313 356
#     4  11  23  35  50  83 130 167 195 232 289 369
#     4  11  20  39  62  90 122 153 207 262 298 360
#
# _framework density 20.829304
#
# number of rings (size 3 to 8) (size 9 to 14) (size 15 to 20)
#    0.000    1.286    2.857    5.571    0.000    2.857 
#    0.000    2.857    0.000    2.571    0.000    0.000 
#    0.000    0.000    0.000    0.000    0.000    0.000 
#
# Total GULP energy -346920.227357 kJ/mol
# GULP energy per Si atom -12390.008120 kJ/mol
# Density = 2.078190 g / cm^3
# Si number density = 20.829304 Si / 1000 Ang^3
#
#
#
# Elastic Constant Matrix: (Units=GPa)
#
#
# Indices 1 2 3 4 5 6 
#
# 1 104.1241 29.9957 60.1396 0.0000 4.9438 0.0000
# 2 29.9957 79.8531 18.6236 0.0000 3.3150 0.0000
# 3 60.1396 18.6236 140.1627 0.0000 -8.8863 0.0000
# 4 0.0000 0.0000 0.0000 14.3994 0.0000 3.8994
# 5 4.9438 3.3150 -8.8863 0.0000 39.7054 0.0000
# 6 0.0000 0.0000 0.0000 3.8994 0.0000 27.8199
#
#
#
# Elastic Compliance Matrix: (Units=1/GPa)
#
#
# Indices 1 2 3 4 5 6 
#
# 1 0.014160 -0.003868 -0.005734 0.000000 -0.002723 0.000000
# 2 -0.003868 0.014067 -0.000257 0.000000 -0.000750 0.000000
# 3 -0.005734 -0.000257 0.009815 0.000000 0.002932 0.000000
# 4 0.000000 0.000000 0.000000 0.072187 0.000000 -0.010118
# 5 -0.002723 -0.000750 0.002932 0.000000 0.026243 0.000000
# 6 0.000000 0.000000 0.000000 -0.010118 0.000000 0.037364
#
#
# Mechanical properties :
#
#
# Convention : Reuss Voigt Hill
#
# Bulk Modulus (GPa) = 54.57674 60.18420 57.38047
# Shear Modulus (GPa) = 25.04227 30.74366 27.89296
#
# Velocity S-wave (km/s) = 3.47113 3.84602 3.66337
# Velocity P-wave (km/s) = 6.50567 6.97705 6.74548
#
# Compressibility (1/GPa) = 0.01832282
#
# Stress axis : x y z
#
# Youngs Moduli (GPa) = 70.62392 71.08747 101.88582
#
# Poissons Ratio (x) = 0.27500 0.58422
# Poissons Ratio (y) = 0.27320 0.02617
# Poissons Ratio (z) = 0.40496 0.01826
#
# Static dielectric constant tensor:
#      x y z
#    x 4.246170 0.000000 -0.093500 
#    y 0.000000 3.529350 0.000000 
#    z -0.093500 0.000000 4.945200 
# 
# 
# High freq. dielectric constant tensor:
#      x y z
#    x 1.809250 0.000000 0.008740 
#    y 0.000000 1.773830 0.000000 
#    z 0.008740 0.000000 1.840070 
# 
# From -- ./inp_files/75884.got.cif
#   From: 2010.06.25/outbox.cif.g09.slc.cpg/sg12_38_cif.got.tgz:75884.got - 2010.06.28 00:19:55.
