data_PCOD8091985
_publ_section_title
;
Structure prediction by ZEFSAII (Michael W. Deem and Ramdas Pophale) SiO2 
 PCOD8091985
Probable space group: C 2/M
;
_chemical_formula_sum "Si O2"
_cell_formula_units_Z 56
_cell_length_a 18.157545
_cell_length_b 13.678770
_cell_length_c 14.439660
_cell_angle_alpha 90.000000
_cell_angle_beta 126.136721
_cell_angle_gamma 90.000000
_cell_volume 2896.436163
_symmetry_space_group_name_H-M "C 2/M"
_symmetry_group_IT_number 12
_symmetry_cell_setting 'monoclinic'
loop_
_space_group_symop_operation_xyz
x,y,z
-x,y,-z
-x,-y,-z
x,-y,z
1/2+x,1/2+y,z
1/2-x,1/2+y,-z
1/2-x,1/2-y,-z
1/2+x,1/2-y,z
loop_
_atom_site_type_symbol
_atom_site_label
_atom_site_fract_x
_atom_site_fract_y
_atom_site_fract_z
Si Si1 0.978772 0.388482 0.601923
Si Si2 0.649111 0.196449 0.022070
Si Si3 0.289778 0.113553 0.739372
Si Si4 0.237484 0.111460 0.053615
Si Si5 0.177834 0.390742 0.693905
Si Si6 0.485013 0.108878 0.815967
Si Si7 0.193170 0.743208 0.551573
O O1 0.936278 0.500000 0.559851
O O2 0.018653 0.379255 0.735409
O O3 0.908680 0.297347 0.540847
O O4 0.066837 0.377811 0.597819
O O5 0.690762 0.174168 0.153168
O O6 0.655844 0.310211 0.996904
O O7 0.703449 0.124347 0.994170
O O8 0.541659 0.175335 0.930152
O O9 0.377469 0.131464 0.739426
O O10 0.202577 0.154087 0.615314
O O11 0.271532 0.000000 0.748210
O O12 0.299988 0.142213 0.186562
O O13 0.200459 0.000000 0.031054
O O14 0.209757 0.500000 0.703033
O O15 0.234560 0.332991 0.657527
O O16 0.502788 0.000000 0.865348
O O17 0.250000 0.750000 0.500000
#
# Coordination Sequence:
#
# PCOD8091985 Si02
#       7
#     8   8   8   8   8   8   8
#     4  10  20  37  62  89 115 146 195 252 298 340
#     4  11  20  35  59  86 118 152 184 236 296 352
#     4  11  23  37  55  84 117 154 195 238 292 355
#     4  10  20  34  57  88 117 147 188 236 287 350
#     4  10  20  38  62  88 115 147 194 247 295 342
#     4  10  19  34  58  86 114 147 191 244 295 347
#     4  12  23  36  55  84 119 154 191 238 298 350
#
# _framework density 19.334105000000001
#
# number of rings (size 3 to 8) (size 9 to 14) (size 15 to 20)
#    0.000    1.429    4.286    2.571    0.000    2.857 
#    0.000    0.000    0.000    6.000    0.000    0.000 
#    0.000    0.000    0.000    0.000    0.000    0.000 
#
# Total GULP energy -346881.599511 kJ/mol
# GULP energy per Si atom -12388.628554 kJ/mol
# Density = 1.929010 g / cm^3
# Si number density = 19.334105 Si / 1000 Ang^3
#
#
#
# Elastic Constant Matrix: (Units=GPa)
#
#
# Indices 1 2 3 4 5 6 
#
# 1 72.2376 42.4221 23.1165 0.0000 -14.6278 0.0000
# 2 42.4221 105.9834 35.3087 0.0000 7.6812 0.0000
# 3 23.1165 35.3087 83.0354 0.0000 -3.5886 0.0000
# 4 0.0000 0.0000 0.0000 37.5482 0.0000 2.6975
# 5 -14.6278 7.6812 -3.5886 0.0000 34.9782 0.0000
# 6 0.0000 0.0000 0.0000 2.6975 0.0000 27.7203
#
#
#
# Elastic Compliance Matrix: (Units=1/GPa)
#
#
# Indices 1 2 3 4 5 6 
#
# 1 0.021896 -0.008952 -0.001817 0.000000 0.010936 0.000000
# 2 -0.008952 0.014955 -0.004189 0.000000 -0.007458 0.000000
# 3 -0.001817 -0.004189 0.014401 0.000000 0.001638 0.000000
# 4 0.000000 0.000000 0.000000 0.026820 0.000000 -0.002610
# 5 0.010936 -0.007458 0.001638 0.000000 0.034969 0.000000
# 6 0.000000 0.000000 0.000000 -0.002610 0.000000 0.036329
#
#
# Mechanical properties :
#
#
# Convention : Reuss Voigt Hill
#
# Bulk Modulus (GPa) = 46.86811 51.43902 49.15356
# Shear Modulus (GPa) = 26.82454 30.74328 28.78391
#
# Velocity S-wave (km/s) = 3.72885 3.99194 3.86264
# Velocity P-wave (km/s) = 6.54468 6.92174 6.73585
#
# Compressibility (1/GPa) = 0.02133647
#
# Stress axis : x y z
#
# Youngs Moduli (GPa) = 45.67013 66.86826 69.43990
#
# Poissons Ratio (x) = 0.59859 0.12614
# Poissons Ratio (y) = 0.40883 0.29090
# Poissons Ratio (z) = 0.08296 0.28013
#
# Static dielectric constant tensor:
#      x y z
#    x 3.430470 0.000000 -0.211960 
#    y 0.000000 3.555060 0.000000 
#    z -0.211960 0.000000 3.729220 
# 
# 
# High freq. dielectric constant tensor:
#      x y z
#    x 1.730340 0.000000 -0.031630 
#    y 0.000000 1.741550 0.000000 
#    z -0.031630 0.000000 1.771350 
# 
# From -- ./inp_files/223935.got.cif
#   From: 2010.06.25/outbox.cif.g09.slc.cpg/sg12_112_cif.got.tgz:223935.got - 2010.06.28 00:19:55.
