data_PCOD8091023
_publ_section_title
;
Structure prediction by ZEFSAII (Michael W. Deem and Ramdas Pophale) SiO2 
 PCOD8091023
Probable space group: C 2/M
;
_chemical_formula_sum "Si O2"
_cell_formula_units_Z 64
_cell_length_a 19.486401
_cell_length_b 11.092145
_cell_length_c 15.081715
_cell_angle_alpha 90.000000
_cell_angle_beta 78.425530
_cell_angle_gamma 90.000000
_cell_volume 3193.562239
_symmetry_space_group_name_H-M "C 2/M"
_symmetry_group_IT_number 12
_symmetry_cell_setting 'monoclinic'
loop_
_space_group_symop_operation_xyz
x,y,z
-x,y,-z
-x,-y,-z
x,-y,z
1/2+x,1/2+y,z
1/2-x,1/2+y,-z
1/2-x,1/2-y,-z
1/2+x,1/2-y,z
loop_
_atom_site_type_symbol
_atom_site_label
_atom_site_fract_x
_atom_site_fract_y
_atom_site_fract_z
Si Si1 0.549455 0.218641 0.725223
Si Si2 0.097381 0.637551 0.274748
Si Si3 0.158563 0.138407 0.368072
Si Si4 0.060760 0.863521 0.546356
Si Si5 0.682078 0.699441 0.914415
Si Si6 0.964071 0.866944 0.097376
Si Si7 0.803249 0.365880 0.251466
Si Si8 0.669575 0.868476 0.074282
O O1 0.486788 0.130777 0.712364
O O2 0.567819 0.306744 0.640546
O O3 0.521945 0.286589 0.820214
O O4 0.620380 0.146423 0.725431
O O5 0.120916 0.500000 0.299071
O O6 0.118226 0.750332 0.331312
O O7 0.132028 0.673133 0.173045
O O8 0.135479 0.146735 0.476787
O O9 0.242070 0.159406 0.339547
O O10 0.139394 0.000000 0.338433
O O11 0.000000 0.804068 0.500000
O O12 0.038472 0.000000 0.570494
O O13 0.619368 0.617300 0.895334
O O14 0.711201 0.780505 0.827339
O O15 0.746541 0.622389 0.933779
O O16 0.649078 0.778622 0.001741
O O17 0.995762 0.000000 0.105785
O O18 0.000000 0.809669 0.000000
O O19 0.796427 0.500000 0.215622
O O20 0.642570 0.000000 0.053176
#
# Coordination Sequence:
#
# PCOD8091023 Si02
#       8
#     8   8   8   8   8   8   8   8
#     4  11  22  37  60  87 118 158 196 241 301 364
#     4  11  22  38  58  88 123 157 195 245 301 355
#     4  10  21  40  63  86 115 154 199 248 296 353
#     4  10  20  37  62  89 118 151 199 252 299 354
#     4  10  19  34  54  79 111 152 198 241 297 347
#     4  10  21  36  54  81 118 154 198 248 294 347
#     4  10  21  38  58  83 116 154 196 242 295 357
#     4  10  20  33  53  81 115 151 197 246 295 350
#
# _framework density 20.040316000000001
#
# number of rings (size 3 to 8) (size 9 to 14) (size 15 to 20)
#    0.000    1.750    2.500    2.250    0.000    1.000 
#    0.000    3.125    0.000    6.000    0.000    0.000 
#    0.000    0.000    0.000    0.000    0.000    0.000 
#
# Total GULP energy -396546.719541 kJ/mol
# GULP energy per Si atom -12392.084986 kJ/mol
# Density = 1.999470 g / cm^3
# Si number density = 20.040316 Si / 1000 Ang^3
#
#
#
# Elastic Constant Matrix: (Units=GPa)
#
#
# Indices 1 2 3 4 5 6 
#
# 1 68.9533 15.5524 12.9310 0.0000 -12.2456 0.0000
# 2 15.5524 91.0426 41.0072 0.0000 -1.5857 0.0000
# 3 12.9310 41.0072 122.3970 0.0000 -15.9094 0.0000
# 4 0.0000 0.0000 0.0000 -12.6566 0.0000 -38.4408
# 5 -12.2456 -1.5857 -15.9094 0.0000 29.4326 0.0000
# 6 0.0000 0.0000 0.0000 -38.4408 0.0000 -33.4138
#
#
#
# Elastic Compliance Matrix: (Units=1/GPa)
#
#
# Indices 1 2 3 4 5 6 
#
# 1 0.016282 -0.002685 0.000044 0.000000 0.006653 0.000000
# 2 -0.002685 0.013465 -0.004602 0.000000 -0.002879 0.000000
# 3 0.000044 -0.004602 0.010409 0.000000 0.005397 0.000000
# 4 0.000000 0.000000 0.000000 0.031678 0.000000 -0.036444
# 5 0.006653 -0.002879 0.005397 0.000000 0.039506 0.000000
# 6 0.000000 0.000000 0.000000 -0.036444 0.000000 0.011999
#
#
# Mechanical properties :
#
#
# Convention : Reuss Voigt Hill
#
# Bulk Modulus (GPa) = 38.95640 46.81934 42.88787
# Shear Modulus (GPa) = 34.15738 10.86592 22.51165
#
# Velocity S-wave (km/s) = 4.13296 2.33105 3.35523
# Velocity P-wave (km/s) = 6.50049 5.53700 6.03799
#
# Compressibility (1/GPa) = 0.02566973
#
# Stress axis : x y z
#
# Youngs Moduli (GPa) = 61.41929 74.26542 96.07329
#
# Poissons Ratio (x) = 0.19943 -0.00427
# Poissons Ratio (y) = 0.16494 0.44212
# Poissons Ratio (z) = -0.00273 0.34176
#
# Static dielectric constant tensor:
#      x y z
#    x 3.610810 0.000000 -0.227470 
#    y 0.000000 3.536730 0.000000 
#    z -0.227470 0.000000 3.646680 
# 
# 
# High freq. dielectric constant tensor:
#      x y z
#    x 1.775080 0.000000 -0.024190 
#    y 0.000000 1.778610 0.000000 
#    z -0.024190 0.000000 1.782240 
# 
# From -- ./inp_files/232432.got.cif
#   From: 2010.06.25/outbox.cif.g09.slc.cpg/sg12_117_cif.got.tgz:232432.got - 2010.06.28 00:19:55.
