data_PCOD8091435
_publ_section_title
;
Structure prediction by ZEFSAII (Michael W. Deem and Ramdas Pophale) SiO2 
 PCOD8091435
Probable space group: C 2/M
;
_chemical_formula_sum "Si O2"
_cell_formula_units_Z 48
_cell_length_a 20.572587
_cell_length_b 8.668365
_cell_length_c 16.640422
_cell_angle_alpha 90.000000
_cell_angle_beta 61.783008
_cell_angle_gamma 90.000000
_cell_volume 2614.850234
_symmetry_space_group_name_H-M "C 2/M"
_symmetry_group_IT_number 12
_symmetry_cell_setting 'monoclinic'
loop_
_space_group_symop_operation_xyz
x,y,z
-x,y,-z
-x,-y,-z
x,-y,z
1/2+x,1/2+y,z
1/2-x,1/2+y,-z
1/2-x,1/2-y,-z
1/2+x,1/2-y,z
loop_
_atom_site_type_symbol
_atom_site_label
_atom_site_fract_x
_atom_site_fract_y
_atom_site_fract_z
Si Si1 0.917614 0.315838 0.545167
Si Si2 0.083177 0.681194 0.932555
Si Si3 0.720961 0.316234 0.934092
Si Si4 0.354082 0.677448 0.260640
Si Si5 0.669661 0.817332 0.559679
Si Si6 0.701825 0.176511 0.267426
O O1 0.917580 0.500000 0.550025
O O2 0.881267 0.261421 0.483668
O O3 0.870581 0.248284 0.648655
O O4 0.000000 0.248069 0.500000
O O5 0.094686 0.500000 0.935274
O O6 0.137540 0.763801 0.964317
O O7 0.098829 0.731226 0.832474
O O8 0.000000 0.731828 0.000000
O O9 0.722088 0.500000 0.935354
O O10 0.774317 0.248970 0.831893
O O11 0.750000 0.250000 0.000000
O O12 0.379193 0.500000 0.245270
O O13 0.369304 0.751864 0.338004
O O14 0.267428 0.692714 0.293217
O O15 0.750000 0.750000 0.500000
O O16 0.675356 0.000000 0.561931
O O17 0.684408 0.000000 0.259360
#
# Coordination Sequence:
#
# PCOD8091435 Si02
#       6
#     8   8   8   8   8   8
#     4   9  17  31  51  76 106 138 176 221 268 317
#     4  10  21  38  59  84 113 142 182 235 285 336
#     4  10  20  35  57  81 111 148 188 231 275 332
#     4  10  19  34  56  81 110 143 181 224 274 333
#     4  11  20  32  54  82 108 139 184 228 271 324
#     4   8  15  30  51  75 101 137 179 218 264 317
#
# _framework density 18.356691999999999
#
# number of rings (size 3 to 8) (size 9 to 14) (size 15 to 20)
#    0.000    2.333    1.667    3.000    0.000    1.333 
#    3.000    0.000    0.000    2.000    0.000    0.000 
#    0.000    0.000    0.000    0.000    0.000    0.000 
#
# Total GULP energy -297527.360608 kJ/mol
# GULP energy per Si atom -12396.973359 kJ/mol
# Density = 1.831491 g / cm^3
# Si number density = 18.356692 Si / 1000 Ang^3
#
#
#
# Elastic Constant Matrix: (Units=GPa)
#
#
# Indices 1 2 3 4 5 6 
#
# 1 134.4598 34.1304 91.2617 0.0000 1.6023 0.0002
# 2 34.1304 49.2613 30.6615 0.0001 0.7426 0.0005
# 3 91.2617 30.6615 144.7091 0.0000 2.1765 0.0000
# 4 0.0000 0.0001 0.0000 28.3838 0.0000 3.0727
# 5 1.6023 0.7426 2.1765 0.0000 37.3299 0.0000
# 6 0.0002 0.0005 0.0000 3.0727 0.0000 24.1936
#
#
#
# Elastic Compliance Matrix: (Units=1/GPa)
#
#
# Indices 1 2 3 4 5 6 
#
# 1 0.013930 -0.004819 -0.007763 0.000000 -0.000049 0.000000
# 2 -0.004819 0.025052 -0.002267 0.000000 -0.000159 0.000000
# 3 -0.007763 -0.002267 0.012292 0.000000 -0.000338 0.000000
# 4 0.000000 0.000000 0.000000 0.035723 0.000000 -0.004537
# 5 -0.000049 -0.000159 -0.000338 0.000000 0.026813 0.000000
# 6 0.000000 0.000000 0.000000 -0.004537 0.000000 0.041909
#
#
# Mechanical properties :
#
#
# Convention : Reuss Voigt Hill
#
# Bulk Modulus (GPa) = 46.34737 71.17084 58.75910
# Shear Modulus (GPa) = 25.95941 29.47323 27.71632
#
# Velocity S-wave (km/s) = 3.76462 4.01132 3.88993
# Velocity P-wave (km/s) = 6.64827 7.76592 7.22873
#
# Compressibility (1/GPa) = 0.02157620
#
# Stress axis : x y z
#
# Youngs Moduli (GPa) = 71.78700 39.91737 81.35472
#
# Poissons Ratio (x) = 0.19234 0.63159
# Poissons Ratio (y) = 0.34591 0.18442
# Poissons Ratio (z) = 0.55731 0.09049
#
# Static dielectric constant tensor:
#      x y z
#    x 3.355660 0.000000 0.000970 
#    y 0.000000 3.192270 0.000000 
#    z 0.000970 0.000000 3.777620 
# 
# 
# High freq. dielectric constant tensor:
#      x y z
#    x 1.696720 0.000000 0.002950 
#    y 0.000000 1.692130 0.000000 
#    z 0.002950 0.000000 1.727870 
# 
# From -- ./inp_files/280066.got.cif
#   From: 2010.06.25/outbox.cif.g09.slc.cpg/sg12_141_cif.got.tgz:280066.got - 2010.06.28 00:19:55.
