data_PCOD8091284
_publ_section_title
;
Structure prediction by ZEFSAII (Michael W. Deem and Ramdas Pophale) SiO2 
 PCOD8091284
Probable space group: C 2/M
;
_chemical_formula_sum "Si O2"
_cell_formula_units_Z 64
_cell_length_a 32.525201
_cell_length_b 8.468183
_cell_length_c 15.257479
_cell_angle_alpha 90.000000
_cell_angle_beta 47.410921
_cell_angle_gamma 90.000000
_cell_volume 3093.885301
_symmetry_space_group_name_H-M "C 2/M"
_symmetry_group_IT_number 12
_symmetry_cell_setting 'monoclinic'
loop_
_space_group_symop_operation_xyz
x,y,z
-x,y,-z
-x,-y,-z
x,-y,z
1/2+x,1/2+y,z
1/2-x,1/2+y,-z
1/2-x,1/2-y,-z
1/2+x,1/2-y,z
loop_
_atom_site_type_symbol
_atom_site_label
_atom_site_fract_x
_atom_site_fract_y
_atom_site_fract_z
Si Si1 0.675206 0.315294 0.756410
Si Si2 0.498698 0.686940 0.226580
Si Si3 0.385313 0.183750 0.315989
Si Si4 0.622798 0.312335 0.012336
Si Si5 0.150594 0.814043 0.328074
Si Si6 0.030317 0.187434 0.540653
Si Si7 0.688031 0.311933 0.088460
Si Si8 0.705549 0.684515 0.422216
O O1 0.686840 0.500000 0.745905
O O2 0.628125 0.280115 0.752707
O O3 0.731897 0.231651 0.642149
O O4 0.654353 0.248610 0.880371
O O5 0.489383 0.500000 0.230620
O O6 0.448435 0.773754 0.250380
O O7 0.558167 0.742946 0.101893
O O8 0.499740 0.739663 0.326809
O O9 0.340873 0.224786 0.455257
O O10 0.381371 0.000000 0.300787
O O11 0.623985 0.500000 0.013385
O O12 0.653906 0.245103 0.054014
O O13 0.093148 0.746061 0.450010
O O14 0.161505 0.742269 0.216286
O O15 0.198433 0.770761 0.329577
O O16 0.145972 0.000000 0.323581
O O17 0.000000 0.261975 0.500000
O O18 0.029858 0.000000 0.534404
O O19 0.687658 0.500000 0.087689
O O20 0.750000 0.250000 0.000000
O O21 0.695955 0.500000 0.453496
#
# Coordination Sequence:
#
# PCOD8091284 Si02
#       8
#     8   8   8   8   8   8   8   8
#     4  11  23  40  60  85 116 154 197 244 296 351
#     4  10  19  37  62  87 117 154 196 242 287 345
#     4  12  25  41  60  86 116 152 194 245 304 355
#     4   9  20  37  60  88 119 156 199 242 288 342
#     4   9  17  29  51  84 115 146 183 229 278 332
#     4   9  15  26  51  85 113 141 184 231 275 325
#     4  10  19  34  55  84 120 155 195 236 281 339
#     4  11  21  38  61  89 120 152 193 242 295 353
#
# _framework density 20.685964999999999
#
# number of rings (size 3 to 8) (size 9 to 14) (size 15 to 20)
#    0.000    1.875    1.250    3.750    0.000    3.500 
#    0.000    5.625    0.000    0.375    0.000    0.000 
#    0.000    0.000    0.000    0.000    0.000    0.000 
#
# Total GULP energy -396764.970338 kJ/mol
# GULP energy per Si atom -12398.905323 kJ/mol
# Density = 2.063888 g / cm^3
# Si number density = 20.685965 Si / 1000 Ang^3
#
#
#
# Elastic Constant Matrix: (Units=GPa)
#
#
# Indices 1 2 3 4 5 6 
#
# 1 130.2107 9.9641 43.8600 0.0001 -2.0025 0.0001
# 2 9.9641 27.9207 14.0898 0.0000 0.0607 0.0005
# 3 43.8600 14.0898 119.1151 0.0000 -4.6894 -0.0001
# 4 0.0001 0.0000 0.0000 19.7030 0.0000 -7.6315
# 5 -2.0025 0.0607 -4.6894 0.0000 43.4027 0.0001
# 6 0.0001 0.0005 -0.0001 -7.6315 0.0001 20.0889
#
#
#
# Elastic Compliance Matrix: (Units=1/GPa)
#
#
# Indices 1 2 3 4 5 6 
#
# 1 0.008835 -0.001609 -0.003060 0.000000 0.000079 0.000000
# 2 -0.001609 0.038395 -0.003971 0.000000 -0.000557 -0.000001
# 3 -0.003060 -0.003971 0.010029 0.000000 0.000948 0.000000
# 4 0.000000 0.000000 0.000000 0.059510 0.000000 0.022607
# 5 0.000079 -0.000557 0.000948 0.000000 0.023147 0.000000
# 6 0.000000 -0.000001 0.000000 0.022607 0.000000 0.058367
#
#
# Mechanical properties :
#
#
# Convention : Reuss Voigt Hill
#
# Bulk Modulus (GPa) = 25.01297 45.89715 35.45506
# Shear Modulus (GPa) = 21.84469 30.59442 26.21956
#
# Velocity S-wave (km/s) = 3.25316 3.84994 3.56407
# Velocity P-wave (km/s) = 5.12140 6.48062 5.84069
#
# Compressibility (1/GPa) = 0.03997926
#
# Stress axis : x y z
#
# Youngs Moduli (GPa) = 113.18847 26.04493 99.71171
#
# Poissons Ratio (x) = 0.04191 0.30508
# Poissons Ratio (y) = 0.18213 0.39597
# Poissons Ratio (z) = 0.34632 0.10343
#
# Static dielectric constant tensor:
#      x y z
#    x 3.943470 0.000000 0.085570 
#    y 0.000000 3.278750 0.000000 
#    z 0.085570 0.000000 3.931380 
# 
# 
# High freq. dielectric constant tensor:
#      x y z
#    x 1.826030 0.000000 0.002530 
#    y 0.000000 1.764020 0.000000 
#    z 0.002530 0.000000 1.817630 
# 
# From -- ./inp_files/249834.got.cif
#   From: 2010.06.25/outbox.cif.g09.slc.cpg/sg12_125_cif.got.tgz:249834.got - 2010.06.28 00:19:55.
