data_PCOD8091215
_publ_section_title
;
Structure prediction by ZEFSAII (Michael W. Deem and Ramdas Pophale) SiO2 
 PCOD8091215
Probable space group: C 2/M
;
_chemical_formula_sum "Si O2"
_cell_formula_units_Z 56
_cell_length_a 29.786966
_cell_length_b 8.790448
_cell_length_c 12.443329
_cell_angle_alpha 90.000000
_cell_angle_beta 105.597675
_cell_angle_gamma 90.000000
_cell_volume 3138.183816
_symmetry_space_group_name_H-M "C 2/M"
_symmetry_group_IT_number 12
_symmetry_cell_setting 'monoclinic'
loop_
_space_group_symop_operation_xyz
x,y,z
-x,y,-z
-x,-y,-z
x,-y,z
1/2+x,1/2+y,z
1/2-x,1/2+y,-z
1/2-x,1/2-y,-z
1/2+x,1/2-y,z
loop_
_atom_site_type_symbol
_atom_site_label
_atom_site_fract_x
_atom_site_fract_y
_atom_site_fract_z
Si Si1 0.048087 0.679436 0.913262
Si Si2 0.357306 0.675580 0.692305
Si Si3 0.299530 0.321668 0.866394
Si Si4 0.794638 0.175322 0.253865
Si Si5 0.862323 0.824496 0.104784
Si Si6 0.296377 0.821875 0.482221
Si Si7 0.952937 0.178279 0.857151
O O1 0.041121 0.500000 0.908708
O O2 0.090549 0.726166 0.863576
O O3 0.000867 0.757638 0.838448
O O4 0.058982 0.736716 0.040038
O O5 0.348919 0.500000 0.658380
O O6 0.328215 0.721137 0.778669
O O7 0.340937 0.775850 0.581586
O O8 0.411737 0.710078 0.746341
O O9 0.288482 0.500000 0.864949
O O10 0.251549 0.230360 0.836453
O O11 0.328487 0.266864 0.988250
O O12 0.838190 0.200017 0.203521
O O13 0.804870 0.270893 0.366427
O O14 0.788434 0.000000 0.281429
O O15 0.875256 0.000000 0.092428
O O16 0.250000 0.750000 0.500000
O O17 0.289463 0.000000 0.479548
O O18 0.957239 0.000000 0.885403
#
# Coordination Sequence:
#
# PCOD8091215 Si02
#       7
#     8   8   8   8   8   8   8
#     4  11  21  32  52  83 115 143 180 226 269 322
#     4  10  20  35  58  83 109 142 182 226 271 323
#     4  10  19  34  55  80 112 146 182 222 269 323
#     4  11  23  37  56  80 109 146 189 227 268 325
#     4  10  21  38  56  78 111 151 186 219 269 332
#     4  12  24  38  57  78 108 145 185 230 273 318
#     4  10  19  35  57  79 110 147 180 221 275 329
#
# _framework density 17.844715999999998
#
# number of rings (size 3 to 8) (size 9 to 14) (size 15 to 20)
#    0.000    1.429    2.857    4.714    0.000    2.857 
#    0.000    0.000    0.000    0.857    0.000    6.000 
#    0.000    0.000    0.000    0.000    0.000    0.000 
#
# Total GULP energy -347331.781729 kJ/mol
# GULP energy per Si atom -12404.706490 kJ/mol
# Density = 1.780410 g / cm^3
# Si number density = 17.844716 Si / 1000 Ang^3
#
#
#
# Elastic Constant Matrix: (Units=GPa)
#
#
# Indices 1 2 3 4 5 6 
#
# 1 114.7257 51.7171 43.5394 0.0000 11.1542 0.0000
# 2 51.7171 96.7656 35.8668 0.0000 6.1649 0.0000
# 3 43.5394 35.8668 83.6095 0.0000 6.2225 0.0000
# 4 0.0000 0.0000 0.0000 27.1010 0.0000 3.2895
# 5 11.1542 6.1649 6.2225 0.0000 25.5279 0.0000
# 6 0.0000 0.0000 0.0000 3.2895 0.0000 29.7028
#
#
#
# Elastic Compliance Matrix: (Units=1/GPa)
#
#
# Indices 1 2 3 4 5 6 
#
# 1 0.012996 -0.005131 -0.004315 0.000000 -0.003388 0.000000
# 2 -0.005131 0.014388 -0.003471 0.000000 -0.000387 0.000000
# 3 -0.004315 -0.003471 0.015780 0.000000 -0.001123 0.000000
# 4 0.000000 0.000000 0.000000 0.037402 0.000000 -0.004142
# 5 -0.003388 -0.000387 -0.001123 0.000000 0.041020 0.000000
# 6 0.000000 0.000000 0.000000 -0.004142 0.000000 0.034126
#
#
# Mechanical properties :
#
#
# Convention : Reuss Voigt Hill
#
# Bulk Modulus (GPa) = 57.70276 61.92751 59.81514
# Shear Modulus (GPa) = 26.69203 27.39817 27.04510
#
# Velocity S-wave (km/s) = 3.87175 3.92263 3.89727
# Velocity P-wave (km/s) = 7.23833 7.43605 7.33786
#
# Compressibility (1/GPa) = 0.01733019
#
# Stress axis : x y z
#
# Youngs Moduli (GPa) = 76.94586 69.50332 63.37175
#
# Poissons Ratio (x) = 0.35661 0.27342
# Poissons Ratio (y) = 0.39480 0.21999
# Poissons Ratio (z) = 0.33199 0.24128
#
# Static dielectric constant tensor:
#      x y z
#    x 3.385290 0.000000 0.135380 
#    y 0.000000 3.350470 0.000000 
#    z 0.135380 0.000000 3.236920 
# 
# 
# High freq. dielectric constant tensor:
#      x y z
#    x 1.691150 0.000000 0.009990 
#    y 0.000000 1.697390 0.000000 
#    z 0.009990 0.000000 1.673650 
# 
# From -- ./inp_files/186821.got.cif
#   From: 2010.06.25/outbox.cif.g09.slc.cpg/sg12_94_cif.got.tgz:186821.got - 2010.06.28 00:19:55.
