data_PCOD8091225
_publ_section_title
;
Structure prediction by ZEFSAII (Michael W. Deem and Ramdas Pophale) SiO2 
 PCOD8091225
Probable space group: C 2/M
;
_chemical_formula_sum "Si O2"
_cell_formula_units_Z 60
_cell_length_a 10.452757
_cell_length_b 18.894487
_cell_length_c 15.041671
_cell_angle_alpha 90.000000
_cell_angle_beta 74.669582
_cell_angle_gamma 90.000000
_cell_volume 2865.015587
_symmetry_space_group_name_H-M "C 2/M"
_symmetry_group_IT_number 12
_symmetry_cell_setting 'monoclinic'
loop_
_space_group_symop_operation_xyz
x,y,z
-x,y,-z
-x,-y,-z
x,-y,z
1/2+x,1/2+y,z
1/2-x,1/2+y,-z
1/2-x,1/2-y,-z
1/2+x,1/2-y,z
loop_
_atom_site_type_symbol
_atom_site_label
_atom_site_fract_x
_atom_site_fract_y
_atom_site_fract_z
Si Si1 0.553591 0.195913 0.892590
Si Si2 0.931146 0.919590 0.687508
Si Si3 0.634782 0.294368 0.187015
Si Si4 0.803885 0.422616 0.401936
Si Si5 0.832523 0.678636 0.683499
Si Si6 0.000000 0.286369 0.500000
Si Si7 0.652916 0.333528 0.563503
Si Si8 0.467252 0.080718 0.773366
O O1 0.469006 0.260229 0.864153
O O2 0.711286 0.211285 0.872498
O O3 0.530443 0.123090 0.843496
O O4 0.500000 0.182901 0.000000
O O5 0.915219 0.873869 0.781533
O O6 0.792112 0.916202 0.664245
O O7 0.033702 0.889308 0.595241
O O8 0.970351 0.000000 0.706896
O O9 0.628305 0.254060 0.282297
O O10 0.792242 0.500000 0.448247
O O11 0.775670 0.366932 0.485463
O O12 0.945845 0.412387 0.331151
O O13 0.941790 0.663875 0.587211
O O14 0.691517 0.682507 0.659567
O O15 0.832447 0.618999 0.761919
O O16 0.116390 0.237040 0.517871
O O17 0.440604 0.000000 0.807958
#
# Coordination Sequence:
#
# PCOD8091225 Si02
#       8
#     8   8   8   8   8   4   8   8
#     4  11  24  42  69  96 121 152 195 253 313 376
#     4  11  21  36  59  87 117 158 204 247 289 345
#     4  11  22  42  64  92 125 156 200 245 311 370
#     4  10  19  34  55  80 115 159 201 245 288 338
#     4  11  24  36  58  85 122 163 200 250 302 352
#     4  12  22  34  54  86 120 162 216 250 284 346
#     4  12  21  35  54  86 123 162 210 254 290 341
#     4  10  23  42  62  86 119 157 199 249 307 367
#
# _framework density 20.942295000000001
#
# number of rings (size 3 to 8) (size 9 to 14) (size 15 to 20)
#    0.000    1.067    4.000    2.800    1.867    2.400 
#    0.000    1.667    0.000    0.400    0.000    0.000 
#    0.000    0.000    0.000    0.000    0.000    0.000 
#
# Total GULP energy -371848.207016 kJ/mol
# GULP energy per Si atom -12394.940234 kJ/mol
# Density = 2.089463 g / cm^3
# Si number density = 20.942295 Si / 1000 Ang^3
#
#
#
# Elastic Constant Matrix: (Units=GPa)
#
#
# Indices 1 2 3 4 5 6 
#
# 1 35.3720 3.1076 18.3183 0.0000 9.5238 0.0000
# 2 3.1076 114.1828 35.0781 0.0000 17.9992 0.0000
# 3 18.3183 35.0781 67.1865 0.0000 -4.4463 0.0000
# 4 0.0000 0.0000 0.0000 20.7537 0.0000 -0.0258
# 5 9.5238 17.9992 -4.4463 0.0000 25.9416 0.0000
# 6 0.0000 0.0000 0.0000 -0.0258 0.0000 19.0164
#
#
#
# Elastic Compliance Matrix: (Units=1/GPa)
#
#
# Indices 1 2 3 4 5 6 
#
# 1 0.043334 0.008128 -0.017685 0.000000 -0.024580 0.000000
# 2 0.008128 0.014061 -0.010520 0.000000 -0.014543 0.000000
# 3 -0.017685 -0.010520 0.026411 0.000000 0.018319 0.000000
# 4 0.000000 0.000000 0.000000 0.048184 0.000000 0.000065
# 5 -0.024580 -0.014543 0.018319 0.000000 0.060802 0.000000
# 6 0.000000 0.000000 0.000000 0.000065 0.000000 0.052586
#
#
# Mechanical properties :
#
#
# Convention : Reuss Voigt Hill
#
# Bulk Modulus (GPa) = 22.90871 36.63881 29.77376
# Shear Modulus (GPa) = 16.66208 23.82483 20.24345
#
# Velocity S-wave (km/s) = 2.82373 3.37655 3.11244
# Velocity P-wave (km/s) = 4.64693 5.72142 5.21194
#
# Compressibility (1/GPa) = 0.04365152
#
# Stress axis : x y z
#
# Youngs Moduli (GPa) = 23.07673 71.11864 37.86362
#
# Poissons Ratio (x) = -0.57808 0.66963
# Poissons Ratio (y) = -0.18758 0.39832
# Poissons Ratio (z) = 0.40812 0.74816
#
# Static dielectric constant tensor:
#      x y z
#    x 4.016880 0.000000 0.021940 
#    y 0.000000 3.893420 0.000000 
#    z 0.021940 0.000000 3.461710 
# 
# 
# High freq. dielectric constant tensor:
#      x y z
#    x 1.832390 0.000000 0.002500 
#    y 0.000000 1.821360 0.000000 
#    z 0.002500 0.000000 1.789240 
# 
# From -- ./inp_files/206626.got.cif
#   From: 2010.06.25/outbox.cif.g09.slc.cpg/sg12_104_cif.got.tgz:206626.got - 2010.06.28 00:19:55.
