data_PCOD8091982
_publ_section_title
;
Structure prediction by ZEFSAII (Michael W. Deem and Ramdas Pophale) SiO2 
 PCOD8091982
Probable space group: C 2/M
;
_chemical_formula_sum "Si O2"
_cell_formula_units_Z 56
_cell_length_a 20.006088
_cell_length_b 16.296890
_cell_length_c 14.773526
_cell_angle_alpha 90.000000
_cell_angle_beta 146.816443
_cell_angle_gamma 90.000000
_cell_volume 2636.299930
_symmetry_space_group_name_H-M "C 2/M"
_symmetry_group_IT_number 12
_symmetry_cell_setting 'monoclinic'
loop_
_space_group_symop_operation_xyz
x,y,z
-x,y,-z
-x,-y,-z
x,-y,z
1/2+x,1/2+y,z
1/2-x,1/2+y,-z
1/2-x,1/2-y,-z
1/2+x,1/2-y,z
loop_
_atom_site_type_symbol
_atom_site_label
_atom_site_fract_x
_atom_site_fract_y
_atom_site_fract_z
Si Si1 0.265508 0.830250 0.618992
Si Si2 0.342902 0.401676 0.968423
Si Si3 0.282762 0.902988 0.988199
Si Si4 0.607458 0.332769 0.270333
Si Si5 0.639574 0.597596 0.652023
Si Si6 0.948643 0.596159 0.691659
Si Si7 0.784869 0.408604 0.353047
O O1 0.338579 0.746187 0.722494
O O2 0.147482 0.820516 0.419956
O O3 0.214866 0.866570 0.653894
O O4 0.362517 0.889984 0.680444
O O5 0.370197 0.500000 0.992549
O O6 0.252107 0.369970 0.785701
O O7 0.281394 0.376891 0.992226
O O8 0.463886 0.346546 0.099525
O O9 0.205516 0.869052 0.816757
O O10 0.291457 0.000000 0.990246
O O11 0.418844 0.864303 0.140308
O O12 0.668275 0.410380 0.288726
O O13 0.500000 0.628739 0.500000
O O14 0.642506 0.500000 0.646697
O O15 0.960113 0.500000 0.688396
O O16 0.892784 0.635684 0.534409
O O17 0.827254 0.500000 0.379215
#
# Coordination Sequence:
#
# PCOD8091982 Si02
#       7
#     8   8   8   8   8   8   8
#     4  10  21  36  56  78 114 153 185 229 281 337
#     4  10  19  34  58  86 114 144 187 244 291 327
#     4   9  19  34  54  83 115 145 183 232 281 336
#     4  10  20  35  54  79 114 145 187 234 284 340
#     4  10  20  36  60  88 113 144 190 236 281 333
#     4   9  18  35  56  81 113 149 189 228 280 344
#     4   9  18  33  57  83 108 142 188 241 289 334
#
# _framework density 21.241893000000001
#
# number of rings (size 3 to 8) (size 9 to 14) (size 15 to 20)
#    0.000    2.429    0.000    2.143    0.000    5.143 
#    5.143    5.714    9.429    0.000    0.000    0.000 
#    0.000    0.000    0.000    0.000    0.000    0.000 
#
# Total GULP energy -346921.046253 kJ/mol
# GULP energy per Si atom -12390.037366 kJ/mol
# Density = 2.119355 g / cm^3
# Si number density = 21.241893 Si / 1000 Ang^3
#
#
#
# Elastic Constant Matrix: (Units=GPa)
#
#
# Indices 1 2 3 4 5 6 
#
# 1 151.5050 23.2889 110.2226 0.0000 -12.8952 0.0000
# 2 23.2889 32.7893 29.1745 0.0000 -1.9266 0.0000
# 3 110.2226 29.1745 208.4668 0.0000 -1.2077 0.0000
# 4 0.0000 0.0000 0.0000 19.2920 0.0000 1.2891
# 5 -12.8952 -1.9266 -1.2077 0.0000 39.0361 0.0000
# 6 0.0000 0.0000 0.0000 1.2891 0.0000 25.6874
#
#
#
# Elastic Compliance Matrix: (Units=1/GPa)
#
#
# Indices 1 2 3 4 5 6 
#
# 1 0.011427 -0.002919 -0.005613 0.000000 0.003457 0.000000
# 2 -0.002919 0.035677 -0.003446 0.000000 0.000690 0.000000
# 3 -0.005613 -0.003446 0.008237 0.000000 -0.001770 0.000000
# 4 0.000000 0.000000 0.000000 0.052009 0.000000 -0.002610
# 5 0.003457 0.000690 -0.001770 0.000000 0.026739 0.000000
# 6 0.000000 0.000000 0.000000 -0.002610 0.000000 0.039061
#
#
# Mechanical properties :
#
#
# Convention : Reuss Voigt Hill
#
# Bulk Modulus (GPa) = 31.86172 79.79258 55.82715
# Shear Modulus (GPa) = 24.08856 32.14142 28.11499
#
# Velocity S-wave (km/s) = 3.37116 3.89410 3.64203
# Velocity P-wave (km/s) = 5.49409 7.60684 6.63510
#
# Compressibility (1/GPa) = 0.03138563
#
# Stress axis : x y z
#
# Youngs Moduli (GPa) = 87.51062 28.02914 121.40505
#
# Poissons Ratio (x) = 0.08180 0.68150
# Poissons Ratio (y) = 0.25541 0.41834
# Poissons Ratio (z) = 0.49123 0.09658
#
# Static dielectric constant tensor:
#      x y z
#    x 3.739240 0.000000 -0.060950 
#    y 0.000000 3.527660 0.000000 
#    z -0.060950 0.000000 4.273610 
# 
# 
# High freq. dielectric constant tensor:
#      x y z
#    x 1.828640 0.000000 -0.005520 
#    y 0.000000 1.800710 0.000000 
#    z -0.005520 0.000000 1.846900 
# 
# From -- ./inp_files/234732.got.cif
#   From: 2010.06.25/outbox.cif.g09.slc.cpg/sg12_118_cif.got.tgz:234732.got - 2010.06.28 00:19:55.
