data_PCOD8091306
_publ_section_title
;
Structure prediction by ZEFSAII (Michael W. Deem and Ramdas Pophale) SiO2 
 PCOD8091306
Probable space group: C 2/M
;
_chemical_formula_sum "Si O2"
_cell_formula_units_Z 56
_cell_length_a 5.203014
_cell_length_b 24.876342
_cell_length_c 26.916764
_cell_angle_alpha 90.000000
_cell_angle_beta 89.739602
_cell_angle_gamma 90.000000
_cell_volume 3483.853425
_symmetry_space_group_name_H-M "C 2/M"
_symmetry_group_IT_number 12
_symmetry_cell_setting 'monoclinic'
loop_
_space_group_symop_operation_xyz
x,y,z
-x,y,-z
-x,-y,-z
x,-y,z
1/2+x,1/2+y,z
1/2-x,1/2+y,-z
1/2-x,1/2-y,-z
1/2+x,1/2-y,z
loop_
_atom_site_type_symbol
_atom_site_label
_atom_site_fract_x
_atom_site_fract_y
_atom_site_fract_z
Si Si1 0.001806 0.936100 0.718541
Si Si2 0.568175 0.562321 0.606541
Si Si3 0.501848 0.435903 0.943885
Si Si4 0.501282 0.935842 0.774741
Si Si5 0.291426 0.227106 0.444728
Si Si6 0.930500 0.602987 0.445090
Si Si7 0.003182 0.435920 0.887053
O O1 0.748651 0.912990 0.745520
O O2 0.004783 0.916450 0.661730
O O3 0.249558 0.913532 0.747240
O O4 0.998858 0.000000 0.720627
O O5 0.647221 0.500000 0.606546
O O6 0.313719 0.569323 0.573549
O O7 0.815147 0.595499 0.588059
O O8 0.501724 0.500000 0.944232
O O9 0.752787 0.413802 0.915560
O O10 0.252837 0.413803 0.915353
O O11 0.500000 0.413633 0.000000
O O12 0.504155 0.913791 0.830914
O O13 0.502885 0.000000 0.774713
O O14 0.250000 0.250000 0.500000
O O15 0.523773 0.259197 0.417051
O O16 0.347063 0.164548 0.445552
O O17 0.000000 0.582619 0.500000
O O18 0.002982 0.500000 0.886803
#
# Coordination Sequence:
#
# PCOD8091306 Si02
#       7
#     8   8   8   8   8   8   8
#     4   9  17  30  43  54  73 102 130 160 203 238
#     4  11  24  37  48  67  96 124 148 172 202 258
#     4   9  15  21  27  37  60  88 106 132 186 249
#     4   9  15  24  40  54  64  85 123 169 203 229
#     4  10  19  34  56  76  92 110 137 178 216 246
#     4  12  23  35  55  73  91 118 148 172 207 252
#     4   9  15  21  30  46  60  75 112 155 187 230
#
# _framework density 16.074155000000001
#
# number of rings (size 3 to 8) (size 9 to 14) (size 15 to 20)
#    0.000    2.143    1.429    3.857    2.000    9.143 
#    0.000    0.000    0.000    0.000    0.000    0.000 
#    0.000    0.000    0.000    0.000    0.000    0.000 
#
# Total GULP energy -347112.312669 kJ/mol
# GULP energy per Si atom -12396.868310 kJ/mol
# Density = 1.603757 g / cm^3
# Si number density = 16.074155 Si / 1000 Ang^3
#
#
#
# Elastic Constant Matrix: (Units=GPa)
#
#
# Indices 1 2 3 4 5 6 
#
# 1 161.1749 14.6443 61.8039 0.0000 -7.9280 0.0000
# 2 14.6443 23.0455 22.1200 0.0000 -2.3823 0.0000
# 3 61.8039 22.1200 118.3913 0.0000 -6.2397 0.0000
# 4 0.0000 0.0000 0.0000 0.6208 0.0000 -3.4233
# 5 -7.9280 -2.3823 -6.2397 0.0000 35.7486 0.0000
# 6 0.0000 0.0000 0.0000 -3.4233 0.0000 16.8741
#
#
#
# Elastic Compliance Matrix: (Units=1/GPa)
#
#
# Indices 1 2 3 4 5 6 
#
# 1 0.007822 -0.001217 -0.003804 0.000000 0.000990 0.000000
# 2 -0.001217 0.053181 -0.009213 0.000000 0.001666 0.000000
# 3 -0.003804 -0.009213 0.012189 0.000000 0.000670 0.000000
# 4 0.000000 0.000000 0.000000-13.571225 0.000000 -2.753284
# 5 0.000990 0.001666 0.000670 0.000000 0.028421 0.000000
# 6 0.000000 0.000000 0.000000 -2.753284 0.000000 -0.499314
#
#
# Mechanical properties :
#
#
# Convention : Reuss Voigt Hill
#
# Bulk Modulus (GPa) = 22.35927 55.52753 38.94340
# Shear Modulus (GPa) = -0.35905 24.25160 11.94627
#
# Velocity S-wave (km/s) = -0.47314 3.88845 2.72912
# Velocity P-wave (km/s) = 3.69348 7.40133 5.84900
#
# Compressibility (1/GPa) = 0.04472419
#
# Stress axis : x y z
#
# Youngs Moduli (GPa) = 127.83856 18.80363 82.04133
#
# Poissons Ratio (x) = 0.02289 0.31208
# Poissons Ratio (y) = 0.15561 0.75585
# Poissons Ratio (z) = 0.48629 0.17324
#
# Static dielectric constant tensor:
#      x y z
#    x 3.227300 0.000000 0.052410 
#    y 0.000000 2.419810 0.000000 
#    z 0.052410 0.000000 3.155270 
# 
# 
# High freq. dielectric constant tensor:
#      x y z
#    x 1.650970 0.000000 -0.004290 
#    y 0.000000 1.529230 0.000000 
#    z -0.004290 0.000000 1.615900 
# 
# From -- ./inp_files/331496.got.cif
#   From: 2010.06.25/outbox.cif.g09.slc.cpg/sg12_166_cif.got.tgz:331496.got - 2010.06.28 00:19:55.
