data_PCOD8091963
_publ_section_title
;
Structure prediction by ZEFSAII (Michael W. Deem and Ramdas Pophale) SiO2 
 PCOD8091963
Probable space group: C 2/M
;
_chemical_formula_sum "Si O2"
_cell_formula_units_Z 56
_cell_length_a 27.145604
_cell_length_b 8.887011
_cell_length_c 11.769421
_cell_angle_alpha 90.000000
_cell_angle_beta 76.312011
_cell_angle_gamma 90.000000
_cell_volume 2758.654243
_symmetry_space_group_name_H-M "C 2/M"
_symmetry_group_IT_number 12
_symmetry_cell_setting 'monoclinic'
loop_
_space_group_symop_operation_xyz
x,y,z
-x,y,-z
-x,-y,-z
x,-y,z
1/2+x,1/2+y,z
1/2-x,1/2+y,-z
1/2-x,1/2-y,-z
1/2+x,1/2-y,z
loop_
_atom_site_type_symbol
_atom_site_label
_atom_site_fract_x
_atom_site_fract_y
_atom_site_fract_z
Si Si1 0.869671 0.677778 0.426299
Si Si2 0.645921 0.322910 0.794757
Si Si3 0.242770 0.178265 0.881886
Si Si4 0.837640 0.678340 0.688276
Si Si5 0.057597 0.672113 0.971114
Si Si6 0.433208 0.173031 0.776051
Si Si7 0.977265 0.825691 0.389333
O O1 0.867556 0.500000 0.414863
O O2 0.841672 0.751701 0.334393
O O3 0.840639 0.732653 0.556101
O O4 0.927622 0.727487 0.400566
O O5 0.645752 0.500000 0.780054
O O6 0.689056 0.270357 0.859388
O O7 0.591004 0.270358 0.867516
O O8 0.286471 0.240071 0.773754
O O9 0.246045 0.000000 0.892994
O O10 0.250000 0.250000 0.000000
O O11 0.838648 0.500000 0.694637
O O12 0.886204 0.740411 0.730693
O O13 0.059013 0.500000 0.927174
O O14 0.080747 0.686594 0.084095
O O15 0.000000 0.732329 0.000000
O O16 0.482395 0.273389 0.726175
O O17 0.444711 0.000000 0.736383
O O18 0.000000 0.793158 0.500000
O O19 0.963941 0.000000 0.378042
#
# Coordination Sequence:
#
# PCOD8091963 Si02
#       7
#     8   8   8   8   8   8   8
#     4  11  22  38  61  85 115 158 207 245 283 347
#     4  11  24  40  60  88 124 157 188 241 306 354
#     4  10  22  42  65  90 119 152 193 241 295 353
#     4   9  19  36  59  85 113 152 199 244 287 339
#     4  10  21  37  59  87 116 153 202 244 284 347
#     4  10  19  34  58  85 115 154 201 248 287 340
#     4  11  22  35  54  85 125 160 190 237 298 353
#
# _framework density 20.299752999999999
#
# number of rings (size 3 to 8) (size 9 to 14) (size 15 to 20)
#    0.000    1.714    1.429    3.000    0.000    5.429 
#    0.000    2.143    0.000    0.000    0.000    0.000 
#    0.000    0.000    0.000    0.000    0.000    0.000 
#
# Total GULP energy -347318.685664 kJ/mol
# GULP energy per Si atom -12404.238774 kJ/mol
# Density = 2.025355 g / cm^3
# Si number density = 20.299753 Si / 1000 Ang^3
#
#
#
# Elastic Constant Matrix: (Units=GPa)
#
#
# Indices 1 2 3 4 5 6 
#
# 1 124.7917 37.1736 69.8769 0.0000 0.7432 0.0000
# 2 37.1736 56.3856 41.9882 0.0000 6.1283 0.0000
# 3 69.8769 41.9882 148.3702 0.0000 2.3728 0.0000
# 4 0.0000 0.0000 0.0000 29.1675 0.0000 4.2708
# 5 0.7432 6.1283 2.3728 0.0000 40.6026 0.0000
# 6 0.0000 0.0000 0.0000 4.2708 0.0000 17.5909
#
#
#
# Elastic Compliance Matrix: (Units=1/GPa)
#
#
# Indices 1 2 3 4 5 6 
#
# 1 0.011775 -0.004694 -0.004229 0.000000 0.000740 0.000000
# 2 -0.004694 0.024719 -0.004731 0.000000 -0.003369 0.000000
# 3 -0.004229 -0.004731 0.010067 0.000000 0.000203 0.000000
# 4 0.000000 0.000000 0.000000 0.035548 0.000000 -0.008631
# 5 0.000740 -0.003369 0.000203 0.000000 0.025112 0.000000
# 6 0.000000 0.000000 0.000000 -0.008631 0.000000 0.058943
#
#
# Mechanical properties :
#
#
# Convention : Reuss Voigt Hill
#
# Bulk Modulus (GPa) = 51.93969 69.73610 60.83790
# Shear Modulus (GPa) = 25.01371 29.50613 27.25992
#
# Velocity S-wave (km/s) = 3.51410 3.81664 3.66849
# Velocity P-wave (km/s) = 6.48900 7.33826 6.92666
#
# Compressibility (1/GPa) = 0.01925310
#
# Stress axis : x y z
#
# Youngs Moduli (GPa) = 84.92247 40.45524 99.33311
#
# Poissons Ratio (x) = 0.18991 0.42009
# Poissons Ratio (y) = 0.39866 0.46990
# Poissons Ratio (z) = 0.35915 0.19137
#
# Static dielectric constant tensor:
#      x y z
#    x 3.811700 0.000000 0.087330 
#    y 0.000000 3.457570 0.000000 
#    z 0.087330 0.000000 3.906870 
# 
# 
# High freq. dielectric constant tensor:
#      x y z
#    x 1.795710 0.000000 0.006600 
#    y 0.000000 1.772720 0.000000 
#    z 0.006600 0.000000 1.807320 
# 
# From -- ./inp_files/180788.got.cif
#   From: 2010.06.25/outbox.cif.g09.slc.cpg/sg12_91_cif.got.tgz:180788.got - 2010.06.28 00:19:55.
