data_PCOD8091282
_publ_section_title
;
Structure prediction by ZEFSAII (Michael W. Deem and Ramdas Pophale) SiO2 
 PCOD8091282
Probable space group: C 2/M
;
_chemical_formula_sum "Si O2"
_cell_formula_units_Z 48
_cell_length_a 9.719399
_cell_length_b 22.396691
_cell_length_c 13.208572
_cell_angle_alpha 90.000000
_cell_angle_beta 59.840550
_cell_angle_gamma 90.000000
_cell_volume 2486.049278
_symmetry_space_group_name_H-M "C 2/M"
_symmetry_group_IT_number 12
_symmetry_cell_setting 'monoclinic'
loop_
_space_group_symop_operation_xyz
x,y,z
-x,y,-z
-x,-y,-z
x,-y,z
1/2+x,1/2+y,z
1/2-x,1/2+y,-z
1/2-x,1/2-y,-z
1/2+x,1/2-y,z
loop_
_atom_site_type_symbol
_atom_site_label
_atom_site_fract_x
_atom_site_fract_y
_atom_site_fract_z
Si Si1 0.971736 0.566930 0.392196
Si Si2 0.382316 0.429106 0.459896
Si Si3 0.323595 0.755820 0.080220
Si Si4 0.825446 0.386636 0.039482
Si Si5 0.486488 0.431335 0.202911
Si Si6 0.232109 0.636141 0.175235
O O1 0.997169 0.500000 0.338294
O O2 0.793217 0.590055 0.439982
O O3 0.000000 0.565364 0.500000
O O4 0.089827 0.612669 0.296288
O O5 0.500000 0.401456 0.500000
O O6 0.398091 0.500000 0.449755
O O7 0.425725 0.404670 0.332430
O O8 0.315091 0.825853 0.112194
O O9 0.241686 0.708477 0.187736
O O10 0.500000 0.732196 0.000000
O O11 0.250000 0.750000 0.000000
O O12 0.678618 0.427741 0.128043
O O13 0.807943 0.377095 0.926331
O O14 0.000000 0.415563 0.000000
O O15 0.435365 0.500000 0.208861
O O16 0.399201 0.394290 0.146349
#
# Coordination Sequence:
#
# PCOD8091282 Si02
#       6
#     8   8   8   8   8   8
#     4  10  19  34  55  84 117 150 193 238 287 354
#     4   9  19  35  55  78 112 157 193 226 280 351
#     4   9  18  36  57  79 106 146 197 235 283 341
#     4  10  23  38  55  84 115 153 194 243 298 345
#     4  11  22  37  58  87 122 155 191 239 297 359
#     4  11  20  34  60  84 112 153 196 243 285 344
#
# _framework density 19.307742000000001
#
# number of rings (size 3 to 8) (size 9 to 14) (size 15 to 20)
#    0.000    2.000    1.667    3.000    2.333    2.333 
#    0.000    0.000    0.000    2.000    0.000    0.000 
#    0.000    0.000    0.000    0.000    0.000    0.000 
#
# Total GULP energy -297405.085011 kJ/mol
# GULP energy per Si atom -12391.878542 kJ/mol
# Density = 1.926380 g / cm^3
# Si number density = 19.307742 Si / 1000 Ang^3
#
#
#
# Elastic Constant Matrix: (Units=GPa)
#
#
# Indices 1 2 3 4 5 6 
#
# 1 156.0643 27.2377 34.7720 0.0000 -6.8612 0.0000
# 2 27.2377 64.8758 34.4498 0.0000 -1.8876 0.0000
# 3 34.7720 34.4498 75.3373 0.0000 -10.3214 0.0000
# 4 0.0000 0.0000 0.0000 -25.6156 0.0000 -4.1315
# 5 -6.8612 -1.8876 -10.3214 0.0000 33.9195 0.0000
# 6 0.0000 0.0000 0.0000 -4.1315 0.0000 22.1502
#
#
#
# Elastic Compliance Matrix: (Units=1/GPa)
#
#
# Indices 1 2 3 4 5 6 
#
# 1 0.007291 -0.001718 -0.002494 0.000000 0.000620 0.000000
# 2 -0.001718 0.020865 -0.009012 0.000000 -0.001929 0.000000
# 3 -0.002494 -0.009012 0.019209 0.000000 0.004839 0.000000
# 4 0.000000 0.000000 0.000000 -0.037899 0.000000 -0.007069
# 5 0.000620 -0.001929 0.004839 0.000000 0.030972 0.000000
# 6 0.000000 0.000000 0.000000 -0.007069 0.000000 0.043828
#
#
# Mechanical properties :
#
#
# Convention : Reuss Voigt Hill
#
# Bulk Modulus (GPa) = 47.81296 54.35517 51.08406
# Shear Modulus (GPa) = 42.48569 19.41201 30.94885
#
# Velocity S-wave (km/s) = 4.69598 3.17424 4.00800
# Velocity P-wave (km/s) = 7.36345 6.45349 6.92344
#
# Compressibility (1/GPa) = 0.02091483
#
# Stress axis : x y z
#
# Youngs Moduli (GPa) = 137.16456 47.92729 52.05939
#
# Poissons Ratio (x) = 0.08236 0.12985
# Poissons Ratio (y) = 0.23570 0.46917
# Poissons Ratio (z) = 0.34212 0.43193
#
# Static dielectric constant tensor:
#      x y z
#    x 4.016880 0.000000 -0.084970 
#    y 0.000000 4.406780 0.000000 
#    z -0.084970 0.000000 3.441360 
# 
# 
# High freq. dielectric constant tensor:
#      x y z
#    x 1.779480 0.000000 -0.002470 
#    y 0.000000 1.722220 0.000000 
#    z -0.002470 0.000000 1.729460 
# 
# From -- ./inp_files/122449.got.cif
#   From: 2010.06.25/outbox.cif.g09.slc.cpg/sg12_62_cif.got.tgz:122449.got - 2010.06.28 00:19:55.
