data_PCOD8091671
_publ_section_title
;
Structure prediction by ZEFSAII (Michael W. Deem and Ramdas Pophale) SiO2 
 PCOD8091671
Probable space group: C 2/M
;
_chemical_formula_sum "Si O2"
_cell_formula_units_Z 56
_cell_length_a 21.405725
_cell_length_b 8.974820
_cell_length_c 31.644000
_cell_angle_alpha 90.000000
_cell_angle_beta 151.660124
_cell_angle_gamma 90.000000
_cell_volume 2885.805783
_symmetry_space_group_name_H-M "C 2/M"
_symmetry_group_IT_number 12
_symmetry_cell_setting 'monoclinic'
loop_
_space_group_symop_operation_xyz
x,y,z
-x,y,-z
-x,-y,-z
x,-y,z
1/2+x,1/2+y,z
1/2-x,1/2+y,-z
1/2-x,1/2-y,-z
1/2+x,1/2-y,z
loop_
_atom_site_type_symbol
_atom_site_label
_atom_site_fract_x
_atom_site_fract_y
_atom_site_fract_z
Si Si1 0.375108 0.824825 0.954400
Si Si2 0.757896 0.824566 0.569594
Si Si3 0.735815 0.828933 0.801581
Si Si4 0.362676 0.323852 0.038496
Si Si5 0.156186 0.824829 0.220781
Si Si6 0.435570 0.830852 0.617368
Si Si7 0.649484 0.178000 0.592262
O O1 0.252155 0.772715 0.852761
O O2 0.370787 0.000000 0.960844
O O3 0.500000 0.777558 0.000000
O O4 0.365386 0.740062 0.992840
O O5 0.642043 0.768718 0.469506
O O6 0.896803 0.760518 0.636261
O O7 0.726853 0.763048 0.597425
O O8 0.767213 0.000000 0.576540
O O9 0.822527 0.764468 0.814266
O O10 0.587439 0.814271 0.697492
O O11 0.772487 0.000000 0.834371
O O12 0.336722 0.500000 0.020804
O O13 0.505586 0.288847 0.144758
O O14 0.250000 0.250000 0.000000
O O15 0.265394 0.756465 0.317741
O O16 0.180554 0.000000 0.233916
O O17 0.394985 0.000000 0.601930
O O18 0.500000 0.239824 0.500000
O O19 0.644901 0.000000 0.591686
#
# Coordination Sequence:
#
# PCOD8091671 Si02
#       7
#     8   8   8   8   8   8   8
#     4  11  23  39  60  85 113 144 188 242 293 347
#     4   9  17  30  49  74 107 143 178 221 272 325
#     4  10  19  34  57  82 108 142 188 233 284 341
#     4  11  23  40  61  86 120 158 196 238 292 349
#     4   9  18  32  53  80 109 144 184 229 277 337
#     4   9  18  31  49  75 106 141 181 225 272 332
#     4   9  16  28  50  79 107 136 176 224 271 320
#
# _framework density 19.405325999999999
#
# number of rings (size 3 to 8) (size 9 to 14) (size 15 to 20)
#    0.000    2.286    1.429    1.714    0.000    5.714 
#    0.000    1.429    0.000    2.143    0.000    0.000 
#    0.000    0.000    0.000    0.000    0.000    0.000 
#
# Total GULP energy -347070.646327 kJ/mol
# GULP energy per Si atom -12395.380226 kJ/mol
# Density = 1.936116 g / cm^3
# Si number density = 19.405326 Si / 1000 Ang^3
#
#
#
# Elastic Constant Matrix: (Units=GPa)
#
#
# Indices 1 2 3 4 5 6 
#
# 1 141.0474 41.6650 56.9114 -0.0005 -3.6179 0.0002
# 2 41.6650 47.1334 30.6592 -0.0004 0.6828 0.0005
# 3 56.9114 30.6592 110.4269 -0.0052 -6.5453 0.0009
# 4 -0.0005 -0.0004 -0.0052 19.6301 -0.0003 2.6849
# 5 -3.6179 0.6828 -6.5453 -0.0003 32.0098 0.0001
# 6 0.0002 0.0005 0.0009 2.6849 0.0001 29.5466
#
#
#
# Elastic Compliance Matrix: (Units=1/GPa)
#
#
# Indices 1 2 3 4 5 6 
#
# 1 0.010607 -0.007145 -0.003444 -0.000001 0.000647 0.000000
# 2 -0.007145 0.030839 -0.005028 -0.000001 -0.002493 0.000000
# 3 -0.003444 -0.005028 0.012360 0.000003 0.002245 -0.000001
# 4 -0.000001 -0.000001 0.000003 0.051583 0.000001 -0.004687
# 5 0.000647 -0.002493 0.002245 0.000001 0.031826 0.000000
# 6 0.000000 0.000000 -0.000001 -0.004687 0.000000 0.034271
#
#
# Mechanical properties :
#
#
# Convention : Reuss Voigt Hill
#
# Bulk Modulus (GPa) = 44.30361 61.89765 53.10063
# Shear Modulus (GPa) = 23.78196 27.52879 25.65537
#
# Velocity S-wave (km/s) = 3.50457 3.77054 3.63998
# Velocity P-wave (km/s) = 6.26548 7.13600 6.71486
#
# Compressibility (1/GPa) = 0.02257153
#
# Stress axis : x y z
#
# Youngs Moduli (GPa) = 94.27885 32.42652 80.90707
#
# Poissons Ratio (x) = 0.23169 0.27867
# Poissons Ratio (y) = 0.67363 0.40677
# Poissons Ratio (z) = 0.32473 0.16303
#
# Static dielectric constant tensor:
#      x y z
#    x 3.691780 0.000000 -0.040350 
#    y 0.000000 3.234020 0.000000 
#    z -0.040350 0.000000 3.663640 
# 
# 
# High freq. dielectric constant tensor:
#      x y z
#    x 1.761710 0.000000 0.000440 
#    y 0.000000 1.717570 0.000000 
#    z 0.000440 0.000000 1.760860 
# 
# From -- ./inp_files/329464.got.cif
#   From: 2010.06.25/outbox.cif.g09.slc.cpg/sg12_165_cif.got.tgz:329464.got - 2010.06.28 00:19:55.
