data_PCOD8091823
_publ_section_title
;
Structure prediction by ZEFSAII (Michael W. Deem and Ramdas Pophale) SiO2 
 PCOD8091823
Probable space group: C 2/M
;
_chemical_formula_sum "Si O2"
_cell_formula_units_Z 52
_cell_length_a 27.158287
_cell_length_b 11.616796
_cell_length_c 9.481113
_cell_angle_alpha 90.000000
_cell_angle_beta 115.181736
_cell_angle_gamma 90.000000
_cell_volume 2706.940769
_symmetry_space_group_name_H-M "C 2/M"
_symmetry_group_IT_number 12
_symmetry_cell_setting 'monoclinic'
loop_
_space_group_symop_operation_xyz
x,y,z
-x,y,-z
-x,-y,-z
x,-y,z
1/2+x,1/2+y,z
1/2-x,1/2+y,-z
1/2-x,1/2-y,-z
1/2+x,1/2-y,z
loop_
_atom_site_type_symbol
_atom_site_label
_atom_site_fract_x
_atom_site_fract_y
_atom_site_fract_z
Si Si1 0.557990 0.000000 0.149878
Si Si2 0.600191 0.754642 0.630601
Si Si3 0.370163 0.000000 0.031163
Si Si4 0.872195 0.129379 0.895789
Si Si5 0.423858 0.246135 0.706795
Si Si6 0.437940 0.000000 0.375134
Si Si7 0.030892 0.869775 0.766357
Si Si8 0.812272 0.263755 0.038840
O O1 0.564127 0.110625 0.258703
O O2 0.500000 0.000000 0.000000
O O3 0.608520 0.000000 0.102298
O O4 0.603988 0.714062 0.474039
O O5 0.548117 0.698979 0.646300
O O6 0.654680 0.722920 0.781962
O O7 0.592237 0.889996 0.601244
O O8 0.426360 0.000000 0.191693
O O9 0.332207 0.109548 0.017871
O O10 0.883137 0.209786 0.776171
O O11 0.860119 0.000000 0.830156
O O12 0.922258 0.135081 0.062228
O O13 0.820643 0.178089 0.917622
O O14 0.481103 0.310700 0.784801
O O15 0.500000 0.000000 0.500000
O O16 0.016655 0.000000 0.705539
O O17 0.750000 0.250000 0.000000
#
# Coordination Sequence:
#
# PCOD8091823 Si02
#       8
#     4   8   4   8   8   4   8   8
#     4  12  25  34  58  90 131 168 186 229 304 368
#     4  10  23  36  57  88 116 152 198 241 292 349
#     4  10  22  40  62  93 116 156 209 239 293 372
#     4  10  21  37  58  84 115 151 196 234 282 350
#     4  12  22  35  56  85 125 154 189 234 291 353
#     4  10  19  34  57  86 124 153 187 240 290 354
#     4  10  21  37  55  81 118 162 197 229 274 347
#     4  10  22  43  66  82 109 148 202 256 296 341
#
# _framework density 19.209876999999999
#
# number of rings (size 3 to 8) (size 9 to 14) (size 15 to 20)
#    0.000    1.538    1.538    3.692    7.538    3.077 
#    0.000    0.769    0.000    0.000    0.000    0.000 
#    0.000    0.000    0.000    0.000    0.000    0.000 
#
# Total GULP energy -322346.218503 kJ/mol
# GULP energy per Si atom -12397.931481 kJ/mol
# Density = 1.916615 g / cm^3
# Si number density = 19.209877 Si / 1000 Ang^3
#
#
#
# Elastic Constant Matrix: (Units=GPa)
#
#
# Indices 1 2 3 4 5 6 
#
# 1 114.2905 17.7230 28.4471 0.0000 -12.1424 0.0000
# 2 17.7230 90.3116 9.9445 0.0000 -15.1517 0.0000
# 3 28.4471 9.9445 74.3270 0.0000 -23.4878 0.0000
# 4 0.0000 0.0000 0.0000 15.5084 0.0000 -1.7310
# 5 -12.1424 -15.1517 -23.4878 0.0000 24.2744 0.0000
# 6 0.0000 0.0000 0.0000 -1.7310 0.0000 21.4405
#
#
#
# Elastic Compliance Matrix: (Units=1/GPa)
#
#
# Indices 1 2 3 4 5 6 
#
# 1 0.009889 -0.001435 -0.003331 0.000000 0.000828 0.000000
# 2 -0.001435 0.012642 0.001620 0.000000 0.008741 0.000000
# 3 -0.003331 0.001620 0.020606 0.000000 0.019283 0.000000
# 4 0.000000 0.000000 0.000000 0.065068 0.000000 0.005253
# 5 0.000828 0.008741 0.019283 0.000000 0.065724 0.000000
# 6 0.000000 0.000000 0.000000 0.005253 0.000000 0.047065
#
#
# Mechanical properties :
#
#
# Convention : Reuss Voigt Hill
#
# Bulk Modulus (GPa) = 27.14104 43.46204 35.30154
# Shear Modulus (GPa) = 20.87090 27.09895 23.98493
#
# Velocity S-wave (km/s) = 3.29974 3.75997 3.53735
# Velocity P-wave (km/s) = 5.35509 6.44390 5.92456
#
# Compressibility (1/GPa) = 0.03684457
#
# Stress axis : x y z
#
# Youngs Moduli (GPa) = 101.11963 79.09832 48.52996
#
# Poissons Ratio (x) = 0.11351 0.16167
# Poissons Ratio (y) = 0.14511 -0.07861
# Poissons Ratio (z) = 0.33687 -0.12813
#
# Static dielectric constant tensor:
#      x y z
#    x 3.223460 0.000000 -0.148080 
#    y 0.000000 3.876670 0.000000 
#    z -0.148080 0.000000 3.618630 
# 
# 
# High freq. dielectric constant tensor:
#      x y z
#    x 1.717630 0.000000 -0.018860 
#    y 0.000000 1.762680 0.000000 
#    z -0.018860 0.000000 1.749160 
# 
# From -- ./inp_files/102718.got.cif
#   From: 2010.06.25/outbox.cif.g09.slc.cpg/sg12_52_cif.got.tgz:102718.got - 2010.06.28 00:19:55.
