data_PCOD8091838
_publ_section_title
;
Structure prediction by ZEFSAII (Michael W. Deem and Ramdas Pophale) SiO2 
 PCOD8091838
Probable space group: C 2/M
;
_chemical_formula_sum "Si O2"
_cell_formula_units_Z 56
_cell_length_a 20.263004
_cell_length_b 8.806268
_cell_length_c 22.071995
_cell_angle_alpha 90.000000
_cell_angle_beta 48.030311
_cell_angle_gamma 90.000000
_cell_volume 2928.313276
_symmetry_space_group_name_H-M "C 2/M"
_symmetry_group_IT_number 12
_symmetry_cell_setting 'monoclinic'
loop_
_space_group_symop_operation_xyz
x,y,z
-x,y,-z
-x,-y,-z
x,-y,z
1/2+x,1/2+y,z
1/2-x,1/2+y,-z
1/2-x,1/2-y,-z
1/2+x,1/2-y,z
loop_
_atom_site_type_symbol
_atom_site_label
_atom_site_fract_x
_atom_site_fract_y
_atom_site_fract_z
Si Si1 0.020411 0.826669 0.667673
Si Si2 0.673915 0.321518 0.255269
Si Si3 0.747288 0.820783 0.329206
Si Si4 0.811572 0.825592 0.511997
Si Si5 0.430707 0.822719 0.239178
Si Si6 0.245029 0.177016 0.906877
Si Si7 0.618585 0.823475 0.072784
O O1 0.086054 0.810774 0.570407
O O2 0.054841 0.720338 0.700032
O O3 0.923966 0.772619 0.705771
O O4 0.018206 0.000000 0.692792
O O5 0.682213 0.500000 0.261391
O O6 0.692118 0.234662 0.305847
O O7 0.744464 0.270206 0.161388
O O8 0.699530 0.756936 0.417700
O O9 0.848555 0.766314 0.261275
O O10 0.746191 0.000000 0.333369
O O11 0.750000 0.750000 0.500000
O O12 0.782674 0.000000 0.536884
O O13 0.516610 0.780446 0.146585
O O14 0.410185 0.000000 0.248703
O O15 0.326648 0.220024 0.900671
O O16 0.242422 0.000000 0.893049
O O17 0.152917 0.225972 0.994916
O O18 0.631811 0.000000 0.049576
#
# Coordination Sequence:
#
# PCOD8091838 Si02
#       7
#     8   8   8   8   8   8   8
#     4  10  22  38  62  90 119 154 198 247 296 354
#     4  11  23  41  62  87 121 161 199 245 303 357
#     4  12  26  42  60  86 122 161 201 247 300 358
#     4  11  22  39  62  91 121 155 198 248 300 351
#     4  11  21  37  62  90 120 155 200 248 295 352
#     4  10  19  34  57  88 122 157 195 243 295 350
#     4   9  19  34  56  89 121 154 196 243 293 350
#
# _framework density 19.123638
#
# number of rings (size 3 to 8) (size 9 to 14) (size 15 to 20)
#    0.000    1.429    2.857    3.000    0.000    3.429 
#    0.000    3.571    0.000    4.286    0.000    0.000 
#    0.000    0.000    0.000    0.000    0.000    0.000 
#
# Total GULP energy -347363.629604 kJ/mol
# GULP energy per Si atom -12405.843914 kJ/mol
# Density = 1.908011 g / cm^3
# Si number density = 19.123638 Si / 1000 Ang^3
#
#
#
# Elastic Constant Matrix: (Units=GPa)
#
#
# Indices 1 2 3 4 5 6 
#
# 1 60.4294 23.9419 25.1937 0.0000 1.5494 0.0004
# 2 23.9419 99.1787 36.0861 -0.0003 -0.1300 0.0015
# 3 25.1937 36.0861 101.3565 0.0001 -0.9304 -0.0001
# 4 0.0000 -0.0003 0.0001 35.2481 0.0000 3.7764
# 5 1.5494 -0.1300 -0.9304 0.0000 28.6171 -0.0001
# 6 0.0004 0.0015 -0.0001 3.7764 -0.0001 31.2684
#
#
#
# Elastic Compliance Matrix: (Units=1/GPa)
#
#
# Indices 1 2 3 4 5 6 
#
# 1 0.019431 -0.003367 -0.003642 0.000000 -0.001186 0.000000
# 2 -0.003367 0.012167 -0.003494 0.000000 0.000124 -0.000001
# 3 -0.003642 -0.003494 0.012021 0.000000 0.000572 0.000000
# 4 0.000000 0.000000 0.000000 0.028742 0.000000 -0.003471
# 5 -0.001186 0.000124 0.000572 0.000000 0.035028 0.000000
# 6 0.000000 -0.000001 0.000000 -0.003471 0.000000 0.032400
#
#
# Mechanical properties :
#
#
# Convention : Reuss Voigt Hill
#
# Bulk Modulus (GPa) = 44.22243 47.93421 46.07832
# Shear Modulus (GPa) = 29.70319 30.74291 30.22305
#
# Velocity S-wave (km/s) = 3.94536 4.01382 3.97974
# Velocity P-wave (km/s) = 6.62791 6.82648 6.72793
#
# Compressibility (1/GPa) = 0.02261296
#
# Stress axis : x y z
#
# Youngs Moduli (GPa) = 51.46403 82.18957 83.19076
#
# Poissons Ratio (x) = 0.27674 0.30298
# Poissons Ratio (y) = 0.17328 0.29065
# Poissons Ratio (z) = 0.18743 0.28715
#
# Static dielectric constant tensor:
#      x y z
#    x 3.396230 0.000000 -0.137210 
#    y 0.000000 3.518380 0.000000 
#    z -0.137210 0.000000 3.652930 
# 
# 
# High freq. dielectric constant tensor:
#      x y z
#    x 1.726520 0.000000 -0.008500 
#    y 0.000000 1.754570 0.000000 
#    z -0.008500 0.000000 1.757020 
# 
# From -- ./inp_files/319713.got.cif
#   From: 2010.06.25/outbox.cif.g09.slc.cpg/sg12_160_cif.got.tgz:319713.got - 2010.06.28 00:19:55.
