data_PCOD8091846
_publ_section_title
;
Structure prediction by ZEFSAII (Michael W. Deem and Ramdas Pophale) SiO2 
 PCOD8091846
Probable space group: C 2/M
;
_chemical_formula_sum "Si O2"
_cell_formula_units_Z 40
_cell_length_a 16.589729
_cell_length_b 9.469652
_cell_length_c 30.812875
_cell_angle_alpha 90.000000
_cell_angle_beta 151.775049
_cell_angle_gamma 90.000000
_cell_volume 2289.320180
_symmetry_space_group_name_H-M "C 2/M"
_symmetry_group_IT_number 12
_symmetry_cell_setting 'monoclinic'
loop_
_space_group_symop_operation_xyz
x,y,z
-x,y,-z
-x,-y,-z
x,-y,z
1/2+x,1/2+y,z
1/2-x,1/2+y,-z
1/2-x,1/2-y,-z
1/2+x,1/2-y,z
loop_
_atom_site_type_symbol
_atom_site_label
_atom_site_fract_x
_atom_site_fract_y
_atom_site_fract_z
Si Si1 0.291028 0.500000 0.674657
Si Si2 0.733609 0.500000 0.020236
Si Si3 0.475357 0.765746 0.438764
Si Si4 0.157213 0.000000 0.884667
Si Si5 0.912168 0.729580 0.002055
Si Si6 0.425997 0.000000 0.861037
Si Si7 0.252579 0.000000 0.444298
Si Si8 0.935906 0.000000 0.358272
O O1 0.191428 0.361353 0.641818
O O2 0.463684 0.500000 0.781636
O O3 0.329868 0.500000 0.642206
O O4 0.664832 0.500000 0.939539
O O5 0.660841 0.362820 0.008099
O O6 0.940909 0.500000 0.116462
O O7 0.500000 0.712870 0.500000
O O8 0.634477 0.858401 0.497113
O O9 0.442616 0.636162 0.391707
O O10 0.251870 0.136574 0.910604
O O11 0.040416 0.639359 0.093555
O O12 0.000000 0.783567 0.000000
O O13 0.234206 0.000000 0.751825
O O14 0.102265 0.000000 0.407444
#
# Coordination Sequence:
#
# PCOD8091846 Si02
#       8
#     4   4   8   4   8   4   4   4
#     4   9  20  35  60  79 106 147 186 219 258 339
#     4  10  21  37  57  76 115 143 178 224 271 324
#     4   9  20  39  56  80 111 148 181 215 278 327
#     4  10  19  34  58  78 109 148 180 216 273 312
#     4  10  21  37  57  76 115 143 178 224 271 324
#     4  10  22  36  51  88 106 144 190 211 271 316
#     4   9  20  39  56  80 111 148 181 215 278 327
#     4  12  22  31  63  84 115 130 186 242 254 321
#
# _framework density 17.472436999999999
#
# number of rings (size 3 to 8) (size 9 to 14) (size 15 to 20)
#    0.000    2.400    0.000    6.000    8.400    0.000 
#    0.000    0.000    0.000    0.000    0.000    0.000 
#    0.000    0.000    0.000    0.000    0.000    0.000 
#
# Total GULP energy -247917.648373 kJ/mol
# GULP energy per Si atom -12395.882419 kJ/mol
# Density = 1.743267 g / cm^3
# Si number density = 17.472437 Si / 1000 Ang^3
#
#
#
# Elastic Constant Matrix: (Units=GPa)
#
#
# Indices 1 2 3 4 5 6 
#
# 1 112.7906 33.7793 36.1998 0.0000 13.0591 0.0000
# 2 33.7793 81.7163 20.3829 -0.0001 2.0024 0.0000
# 3 36.1998 20.3829 115.9901 -0.0002 14.9394 0.0000
# 4 0.0000 -0.0001 -0.0002 9.4271 -0.0001 3.8419
# 5 13.0591 2.0024 14.9394 -0.0001 10.9447 0.0000
# 6 0.0000 0.0000 0.0000 3.8419 0.0000 26.2926
#
#
#
# Elastic Compliance Matrix: (Units=1/GPa)
#
#
# Indices 1 2 3 4 5 6 
#
# 1 0.011956 -0.004287 -0.001507 0.000000 -0.011425 0.000000
# 2 -0.004287 0.014342 -0.001824 0.000000 0.004980 0.000000
# 3 -0.001507 -0.001824 0.011087 0.000000 -0.013002 0.000000
# 4 0.000000 0.000000 0.000000 0.112794 0.000001 -0.016482
# 5 -0.011425 0.004980 -0.013002 0.000001 0.121837 0.000000
# 6 0.000000 0.000000 0.000000 -0.016482 0.000000 0.040442
#
#
# Mechanical properties :
#
#
# Convention : Reuss Voigt Hill
#
# Bulk Modulus (GPa) = 45.14506 54.58012 49.86259
# Shear Modulus (GPa) = 14.92197 24.00856 19.46526
#
# Velocity S-wave (km/s) = 2.92555 3.71088 3.34137
# Velocity P-wave (km/s) = 6.10784 7.04745 6.59440
#
# Compressibility (1/GPa) = 0.02215082
#
# Stress axis : x y z
#
# Youngs Moduli (GPa) = 83.63918 69.72362 90.19734
#
# Poissons Ratio (x) = 0.29888 0.13589
# Poissons Ratio (y) = 0.35853 0.16452
# Poissons Ratio (z) = 0.12601 0.12718
#
# Static dielectric constant tensor:
#      x y z
#    x 3.401960 0.000000 0.149220 
#    y 0.000000 3.294230 0.000000 
#    z 0.149220 0.000000 3.229680 
# 
# 
# High freq. dielectric constant tensor:
#      x y z
#    x 1.685990 0.000000 0.006620 
#    y 0.000000 1.681000 0.000000 
#    z 0.006620 0.000000 1.666970 
# 
# From -- ./inp_files/211325.got.cif
#   From: 2010.06.25/outbox.cif.g09.slc.cpg/sg12_106_cif.got.tgz:211325.got - 2010.06.28 00:19:55.
