data_PCOD8091744
_publ_section_title
;
Structure prediction by ZEFSAII (Michael W. Deem and Ramdas Pophale) SiO2 
 PCOD8091744
Probable space group: C 2/M
;
_chemical_formula_sum "Si O2"
_cell_formula_units_Z 64
_cell_length_a 15.529961
_cell_length_b 8.871360
_cell_length_c 33.246201
_cell_angle_alpha 90.000000
_cell_angle_beta 134.392213
_cell_angle_gamma 90.000000
_cell_volume 3273.000069
_symmetry_space_group_name_H-M "C 2/M"
_symmetry_group_IT_number 12
_symmetry_cell_setting 'monoclinic'
loop_
_space_group_symop_operation_xyz
x,y,z
-x,y,-z
-x,-y,-z
x,-y,z
1/2+x,1/2+y,z
1/2-x,1/2+y,-z
1/2-x,1/2-y,-z
1/2+x,1/2-y,z
loop_
_atom_site_type_symbol
_atom_site_label
_atom_site_fract_x
_atom_site_fract_y
_atom_site_fract_z
Si Si1 0.642056 0.674236 0.370448
Si Si2 0.963205 0.322117 0.365579
Si Si3 0.642587 0.179275 0.864124
Si Si4 0.549336 0.174462 0.135021
Si Si5 0.268166 0.175589 0.737699
Si Si6 0.407779 0.820898 0.436806
Si Si7 0.963848 0.173814 0.748805
Si Si8 0.604406 0.177320 0.065310
O O1 0.650531 0.500000 0.386081
O O2 0.593760 0.771787 0.392114
O O3 0.773753 0.738310 0.402424
O O4 0.549666 0.694627 0.303247
O O5 0.946406 0.500000 0.356783
O O6 0.866182 0.239414 0.305478
O O7 0.949070 0.263639 0.406546
O O8 0.563393 0.240927 0.876222
O O9 0.580466 0.236033 0.802626
O O10 0.776370 0.241924 0.911828
O O11 0.643987 0.000000 0.863612
O O12 0.673503 0.202528 0.199454
O O13 0.563928 0.246027 0.095387
O O14 0.522385 0.000000 0.120258
O O15 0.341334 0.265707 0.728088
O O16 0.270006 0.000000 0.727121
O O17 0.500000 0.755174 0.500000
O O18 0.408816 0.000000 0.437670
O O19 0.980092 0.000000 0.765870
O O20 0.631045 0.000000 0.077033
O O21 0.500000 0.215345 0.000000
#
# Coordination Sequence:
#
# PCOD8091744 Si02
#       8
#     8   8   8   8   8   8   8   8
#     4  10  21  37  57  84 115 152 189 231 291 347
#     4  11  22  36  56  87 117 149 194 238 280 339
#     4  10  21  37  56  82 114 150 187 233 291 343
#     4   8  18  36  55  78 111 148 182 224 285 340
#     4  10  19  34  57  83 116 153 187 231 291 345
#     4   9  19  39  62  81 112 157 196 235 287 341
#     4  10  19  35  58  84 116 151 190 233 286 347
#     4  10  21  38  59  82 110 150 197 237 278 341
#
# _framework density 19.553926000000001
#
# number of rings (size 3 to 8) (size 9 to 14) (size 15 to 20)
#    0.000    2.250    1.250    2.250    1.750    2.250 
#    0.000    3.125    0.000    2.625    0.000    0.000 
#    0.000    0.000    0.000    0.000    0.000    0.000 
#
# Total GULP energy -396805.586270 kJ/mol
# GULP energy per Si atom -12400.174571 kJ/mol
# Density = 1.950942 g / cm^3
# Si number density = 19.553926 Si / 1000 Ang^3
#
#
#
# Elastic Constant Matrix: (Units=GPa)
#
#
# Indices 1 2 3 4 5 6 
#
# 1 140.2100 35.9475 74.5036 0.0000 -6.7529 0.0000
# 2 35.9475 50.6380 42.3525 0.0000 -0.9566 0.0000
# 3 74.5036 42.3525 120.5144 0.0000 -0.4946 0.0000
# 4 0.0000 0.0000 0.0000 19.0992 0.0000 4.0348
# 5 -6.7529 -0.9566 -0.4946 0.0000 26.6801 0.0000
# 6 0.0000 0.0000 0.0000 4.0348 0.0000 32.7732
#
#
#
# Elastic Compliance Matrix: (Units=1/GPa)
#
#
# Indices 1 2 3 4 5 6 
#
# 1 0.011108 -0.002977 -0.005810 0.000000 0.002597 0.000000
# 2 -0.002977 0.028785 -0.008275 0.000000 0.000125 0.000000
# 3 -0.005810 -0.008275 0.014792 0.000000 -0.001493 0.000000
# 4 0.000000 0.000000 0.000000 0.053756 0.000000 -0.006618
# 5 0.002597 0.000125 -0.001493 0.000000 0.038115 0.000000
# 6 0.000000 0.000000 0.000000 -0.006618 0.000000 0.031328
#
#
# Mechanical properties :
#
#
# Convention : Reuss Voigt Hill
#
# Bulk Modulus (GPa) = 48.63781 68.55216 58.59498
# Shear Modulus (GPa) = 22.84560 26.28109 24.56334
#
# Velocity S-wave (km/s) = 3.42180 3.67008 3.54811
# Velocity P-wave (km/s) = 6.36705 7.28652 6.84225
#
# Compressibility (1/GPa) = 0.02056014
#
# Stress axis : x y z
#
# Youngs Moduli (GPa) = 90.02669 34.74079 67.60552
#
# Poissons Ratio (x) = 0.10341 0.39280
# Poissons Ratio (y) = 0.26799 0.55944
# Poissons Ratio (z) = 0.52308 0.28748
#
# Static dielectric constant tensor:
#      x y z
#    x 3.705990 0.000000 -0.072270 
#    y 0.000000 3.312180 0.000000 
#    z -0.072270 0.000000 3.601570 
# 
# 
# High freq. dielectric constant tensor:
#      x y z
#    x 1.769310 0.000000 0.000130 
#    y 0.000000 1.738300 0.000000 
#    z 0.000130 0.000000 1.757580 
# 
# From -- ./inp_files/359934.got.cif
#   From: 2010.06.25/outbox.cif.g09.slc.cpg/sg12_180_cif.got.tgz:359934.got - 2010.06.28 00:19:55.
