data_PCOD8091198
_publ_section_title
;
Structure prediction by ZEFSAII (Michael W. Deem and Ramdas Pophale) SiO2 
 PCOD8091198
Probable space group: C 2/M
;
_chemical_formula_sum "Si O2"
_cell_formula_units_Z 56
_cell_length_a 19.458682
_cell_length_b 9.536228
_cell_length_c 29.151807
_cell_angle_alpha 90.000000
_cell_angle_beta 146.605346
_cell_angle_gamma 90.000000
_cell_volume 2977.393216
_symmetry_space_group_name_H-M "C 2/M"
_symmetry_group_IT_number 12
_symmetry_cell_setting 'monoclinic'
loop_
_space_group_symop_operation_xyz
x,y,z
-x,y,-z
-x,-y,-z
x,-y,z
1/2+x,1/2+y,z
1/2-x,1/2+y,-z
1/2-x,1/2-y,-z
1/2+x,1/2-y,z
loop_
_atom_site_type_symbol
_atom_site_label
_atom_site_fract_x
_atom_site_fract_y
_atom_site_fract_z
Si Si1 0.539665 0.660902 0.320607
Si Si2 0.411343 0.664361 0.992792
Si Si3 0.028083 0.161932 0.615933
Si Si4 0.501056 0.661732 0.142964
Si Si5 0.334891 0.661832 0.133495
Si Si6 0.275212 0.338032 0.432081
Si Si7 0.264926 0.837975 0.696297
O O1 0.581254 0.500000 0.337824
O O2 0.464738 0.684265 0.325806
O O3 0.450801 0.708204 0.229718
O O4 0.661910 0.754564 0.391147
O O5 0.381261 0.500000 0.974334
O O6 0.476645 0.706134 0.076975
O O7 0.500000 0.709333 0.000000
O O8 0.281827 0.745396 0.916935
O O9 0.153843 0.228433 0.665046
O O10 0.902556 0.227077 0.523971
O O11 0.028277 0.000000 0.601536
O O12 0.541627 0.500000 0.169036
O O13 0.375983 0.687345 0.103588
O O14 0.610287 0.754019 0.224421
O O15 0.299577 0.500000 0.122514
O O16 0.258992 0.500000 0.437243
O O17 0.277874 0.317900 0.379426
O O18 0.291756 0.000000 0.723054
#
# Coordination Sequence:
#
# PCOD8091198 Si02
#       7
#     8   8   8   8   8   8   8
#     4  10  20  35  55  79 111 146 180 221 268 319
#     4  10  23  40  59  84 112 140 172 219 274 322
#     4   9  19  34  53  78 111 146 182 226 269 312
#     4  10  21  39  58  79 111 144 177 220 269 320
#     4  10  21  37  58  82 109 145 182 217 262 318
#     4  10  19  34  55  80 108 142 185 228 268 313
#     4  10  20  34  56  82 107 142 186 226 266 315
#
# _framework density 18.808398
#
# number of rings (size 3 to 8) (size 9 to 14) (size 15 to 20)
#    0.000    2.143    1.429    1.286    2.000    3.714 
#    0.000    1.429    0.000    1.714    0.000    0.000 
#    0.000    0.000    0.000    0.000    0.000    0.000 
#
# Total GULP energy -347257.473770 kJ/mol
# GULP energy per Si atom -12402.052635 kJ/mol
# Density = 1.876559 g / cm^3
# Si number density = 18.808398 Si / 1000 Ang^3
#
#
#
# Elastic Constant Matrix: (Units=GPa)
#
#
# Indices 1 2 3 4 5 6 
#
# 1 110.9799 32.4424 41.4227 0.0000 6.0103 0.0000
# 2 32.4424 46.7845 35.5393 -0.0001 9.7055 0.0000
# 3 41.4227 35.5393 81.0442 0.0000 1.4158 0.0000
# 4 0.0000 -0.0001 0.0000 20.9369 0.0000 4.9111
# 5 6.0103 9.7055 1.4158 0.0000 33.3164 0.0000
# 6 0.0000 0.0000 0.0000 4.9111 0.0000 24.8824
#
#
#
# Elastic Compliance Matrix: (Units=1/GPa)
#
#
# Indices 1 2 3 4 5 6 
#
# 1 0.012015 -0.005369 -0.003779 0.000000 -0.000443 0.000000
# 2 -0.005369 0.037217 -0.013414 0.000000 -0.009303 0.000000
# 3 -0.003779 -0.013414 0.020087 0.000000 0.003736 0.000000
# 4 0.000000 0.000000 0.000000 0.050081 0.000000 -0.009885
# 5 -0.000443 -0.009303 0.003736 0.000000 0.032647 0.000000
# 6 0.000000 0.000000 0.000000 -0.009885 0.000000 0.042140
#
#
# Mechanical properties :
#
#
# Convention : Reuss Voigt Hill
#
# Bulk Modulus (GPa) = 41.32900 50.84639 46.08770
# Shear Modulus (GPa) = 20.21224 24.45407 22.33316
#
# Velocity S-wave (km/s) = 3.28172 3.60970 3.44961
# Velocity P-wave (km/s) = 6.03167 6.66827 6.35794
#
# Compressibility (1/GPa) = 0.02419608
#
# Stress axis : x y z
#
# Youngs Moduli (GPa) = 83.23276 26.86919 49.78321
#
# Poissons Ratio (x) = 0.14427 0.18811
# Poissons Ratio (y) = 0.44689 0.66778
# Poissons Ratio (z) = 0.31450 0.36041
#
# Static dielectric constant tensor:
#      x y z
#    x 3.612130 0.000000 -0.075410 
#    y 0.000000 3.274000 0.000000 
#    z -0.075410 0.000000 3.465000 
# 
# 
# High freq. dielectric constant tensor:
#      x y z
#    x 1.745650 0.000000 -0.005810 
#    y 0.000000 1.707090 0.000000 
#    z -0.005810 0.000000 1.735060 
# 
# From -- ./inp_files/275034.got.cif
#   From: 2010.06.25/outbox.cif.g09.slc.cpg/sg12_138_cif.got.tgz:275034.got - 2010.06.28 00:19:55.
