data_PCOD8091646
_publ_section_title
;
Structure prediction by ZEFSAII (Michael W. Deem and Ramdas Pophale) SiO2 
 PCOD8091646
Probable space group: C 2/M
;
_chemical_formula_sum "Si O2"
_cell_formula_units_Z 64
_cell_length_a 25.003570
_cell_length_b 8.947813
_cell_length_c 19.170751
_cell_angle_alpha 90.000000
_cell_angle_beta 50.107742
_cell_angle_gamma 90.000000
_cell_volume 3290.758215
_symmetry_space_group_name_H-M "C 2/M"
_symmetry_group_IT_number 12
_symmetry_cell_setting 'monoclinic'
loop_
_space_group_symop_operation_xyz
x,y,z
-x,y,-z
-x,-y,-z
x,-y,z
1/2+x,1/2+y,z
1/2-x,1/2+y,-z
1/2-x,1/2-y,-z
1/2+x,1/2-y,z
loop_
_atom_site_type_symbol
_atom_site_label
_atom_site_fract_x
_atom_site_fract_y
_atom_site_fract_z
Si Si1 0.899726 0.325193 0.818579
Si Si2 0.625573 0.833891 0.789299
Si Si3 0.282934 0.667128 0.658250
Si Si4 0.708539 0.174677 0.202936
Si Si5 0.682287 0.677169 0.521499
Si Si6 0.944184 0.324232 0.294480
Si Si7 0.666698 0.824730 0.985794
Si Si8 0.577491 0.328539 0.956647
O O1 0.907911 0.500000 0.825101
O O2 0.864902 0.287570 0.773353
O O3 0.978107 0.258918 0.755630
O O4 0.847163 0.266847 0.923595
O O5 0.703996 0.829816 0.695760
O O6 0.572454 0.791605 0.772415
O O7 0.624576 0.711004 0.850763
O O8 0.608009 0.000000 0.833288
O O9 0.304003 0.500000 0.663752
O O10 0.296399 0.770013 0.713824
O O11 0.325066 0.719617 0.554615
O O12 0.769477 0.245037 0.105665
O O13 0.723284 0.000000 0.191844
O O14 0.688959 0.500000 0.525938
O O15 0.750000 0.750000 0.500000
O O16 0.610445 0.734797 0.613530
O O17 0.937522 0.500000 0.317073
O O18 0.596156 0.779878 0.004590
O O19 0.680628 0.000000 0.970103
O O20 0.589426 0.500000 0.967887
O O21 0.500000 0.291078 0.000000
#
# Coordination Sequence:
#
# PCOD8091646 Si02
#       8
#     8   8   8   8   8   8   8   8
#     4   9  21  39  60  85 115 152 196 238 285 341
#     4  10  19  34  57  81 111 151 188 225 278 343
#     4  10  21  38  58  85 115 148 188 229 278 345
#     4  11  22  38  60  87 116 151 195 244 286 328
#     4  11  22  38  61  89 119 149 188 234 286 347
#     4  10  20  39  62  86 116 150 190 239 287 341
#     4  11  21  37  60  83 111 154 198 236 282 339
#     4  11  23  35  49  78 118 152 186 235 286 334
#
# _framework density 19.448404
#
# number of rings (size 3 to 8) (size 9 to 14) (size 15 to 20)
#    0.000    1.625    2.500    2.625    0.000    3.500 
#    0.000    5.000    0.000    3.750    0.000    0.000 
#    0.000    0.000    0.000    0.000    0.000    0.000 
#
# Total GULP energy -396707.494859 kJ/mol
# GULP energy per Si atom -12397.109214 kJ/mol
# Density = 1.940414 g / cm^3
# Si number density = 19.448404 Si / 1000 Ang^3
#
#
#
# Elastic Constant Matrix: (Units=GPa)
#
#
# Indices 1 2 3 4 5 6 
#
# 1 120.0663 42.3311 43.3251 0.0050 9.6998 -0.0044
# 2 42.3311 72.4335 36.8176 0.0066 9.8189 -0.0149
# 3 43.3251 36.8176 96.1838 -0.0029 12.8377 0.0059
# 4 0.0050 0.0066 -0.0029 28.1564 -0.0018 -1.8900
# 5 9.6998 9.8189 12.8377 -0.0018 24.1744 0.0050
# 6 -0.0044 -0.0149 0.0059 -1.8900 0.0050 19.9508
#
#
#
# Elastic Compliance Matrix: (Units=1/GPa)
#
#
# Indices 1 2 3 4 5 6 
#
# 1 0.011230 -0.004881 -0.003071 -0.000001 -0.000893 0.000000
# 2 -0.004881 0.019583 -0.004840 -0.000003 -0.003425 0.000016
# 3 -0.003071 -0.004840 0.014213 0.000002 -0.004350 -0.000007
# 4 -0.000001 -0.000003 0.000002 0.035743 0.000003 0.003386
# 5 -0.000893 -0.003425 -0.004350 0.000003 0.045425 -0.000013
# 6 0.000000 0.000016 -0.000007 0.003386 -0.000013 0.050444
#
#
# Mechanical properties :
#
#
# Convention : Reuss Voigt Hill
#
# Bulk Modulus (GPa) = 51.43546 59.29234 55.36390
# Shear Modulus (GPa) = 23.95744 25.53697 24.74720
#
# Velocity S-wave (km/s) = 3.51357 3.62755 3.57102
# Velocity P-wave (km/s) = 6.55476 6.93532 6.74772
#
# Compressibility (1/GPa) = 0.01944184
#
# Stress axis : x y z
#
# Youngs Moduli (GPa) = 89.04892 51.06512 70.35629
#
# Poissons Ratio (x) = 0.24924 0.21606
# Poissons Ratio (y) = 0.43464 0.34054
# Poissons Ratio (z) = 0.27346 0.24717
#
# Static dielectric constant tensor:
#      x y z
#    x 3.709800 -0.000020 -0.023330 
#    y -0.000020 3.434610 -0.000010 
#    z -0.023330 -0.000010 3.672130 
# 
# 
# High freq. dielectric constant tensor:
#      x y z
#    x 1.760410 0.000000 0.004070 
#    y 0.000000 1.747370 0.000000 
#    z 0.004070 0.000000 1.754790 
# 
# From -- ./inp_files/324103.got.cif
#   From: 2010.06.25/outbox.cif.g09.slc.cpg/sg12_163_cif.got.tgz:324103.got - 2010.06.28 00:19:55.
