data_PCOD8091897
_publ_section_title
;
Structure prediction by ZEFSAII (Michael W. Deem and Ramdas Pophale) SiO2 
 PCOD8091897
Probable space group: C 2/M
;
_chemical_formula_sum "Si O2"
_cell_formula_units_Z 64
_cell_length_a 29.883826
_cell_length_b 9.318770
_cell_length_c 18.428465
_cell_angle_alpha 90.000000
_cell_angle_beta 140.638193
_cell_angle_gamma 90.000000
_cell_volume 3254.772594
_symmetry_space_group_name_H-M "C 2/M"
_symmetry_group_IT_number 12
_symmetry_cell_setting 'monoclinic'
loop_
_space_group_symop_operation_xyz
x,y,z
-x,y,-z
-x,-y,-z
x,-y,z
1/2+x,1/2+y,z
1/2-x,1/2+y,-z
1/2-x,1/2-y,-z
1/2+x,1/2-y,z
loop_
_atom_site_type_symbol
_atom_site_label
_atom_site_fract_x
_atom_site_fract_y
_atom_site_fract_z
Si Si1 0.707287 0.337410 0.087599
Si Si2 0.576769 0.336570 0.826013
Si Si3 0.561005 0.669964 0.133296
Si Si4 0.071000 0.165325 0.551383
Si Si5 0.706351 0.670072 0.248080
Si Si6 0.141717 0.665571 0.514098
Si Si7 0.953367 0.666070 0.735243
Si Si8 0.169221 0.836198 0.808250
O O1 0.734985 0.500000 0.124946
O O2 0.708032 0.267900 0.168606
O O3 0.758666 0.252470 0.098025
O O4 0.628184 0.329350 0.959355
O O5 0.548718 0.500000 0.780915
O O6 0.514271 0.225987 0.759902
O O7 0.615516 0.281839 0.802119
O O8 0.560840 0.500000 0.145907
O O9 0.636526 0.729014 0.200282
O O10 0.547327 0.744334 0.192411
O O11 0.500000 0.713543 0.000000
O O12 0.088922 0.249262 0.500550
O O13 0.135631 0.184331 0.687222
O O14 0.000000 0.226375 0.500000
O O15 0.058578 0.000000 0.514381
O O16 0.699792 0.500000 0.236787
O O17 0.777361 0.720945 0.378371
O O18 0.137529 0.500000 0.532797
O O19 0.118685 0.685362 0.401410
O O20 0.967355 0.500000 0.771009
O O21 0.188669 0.000000 0.849590
#
# Coordination Sequence:
#
# PCOD8091897 Si02
#       8
#     8   8   8   8   8   8   8   8
#     4  10  19  34  58  83 110 149 193 233 281 342
#     4  10  21  37  57  81 112 154 197 235 282 347
#     4  10  21  40  66  90 113 147 190 231 281 350
#     4  10  20  34  53  78 112 155 198 239 283 332
#     4   9  18  35  59  84 111 147 190 236 279 335
#     4  10  21  38  57  80 114 152 192 236 284 340
#     4  11  24  39  57  85 117 148 186 238 294 338
#     4  10  20  33  51  81 117 149 189 240 290 337
#
# _framework density 19.663433000000001
#
# number of rings (size 3 to 8) (size 9 to 14) (size 15 to 20)
#    0.000    2.000    1.250    2.250    0.000    6.000 
#    0.000    1.250    0.000    0.000    0.000    0.000 
#    0.000    0.000    0.000    0.000    0.000    0.000 
#
# Total GULP energy -396856.757539 kJ/mol
# GULP energy per Si atom -12401.773673 kJ/mol
# Density = 1.961868 g / cm^3
# Si number density = 19.663433 Si / 1000 Ang^3
#
#
#
# Elastic Constant Matrix: (Units=GPa)
#
#
# Indices 1 2 3 4 5 6 
#
# 1 118.2792 40.0169 44.6752 0.0000 2.9859 0.0000
# 2 40.0169 50.9587 32.5815 0.0000 0.5575 0.0000
# 3 44.6752 32.5815 100.3662 0.0000 -3.2942 0.0000
# 4 0.0000 0.0000 0.0000 22.0358 0.0000 -1.0141
# 5 2.9859 0.5575 -3.2942 0.0000 36.8590 0.0000
# 6 0.0000 0.0000 0.0000 -1.0141 0.0000 32.8773
#
#
#
# Elastic Compliance Matrix: (Units=1/GPa)
#
#
# Indices 1 2 3 4 5 6 
#
# 1 0.012202 -0.007664 -0.002981 0.000000 -0.001139 0.000000
# 2 -0.007664 0.029621 -0.006217 0.000000 -0.000383 0.000000
# 3 -0.002981 -0.006217 0.013359 0.000000 0.001529 0.000000
# 4 0.000000 0.000000 0.000000 0.045445 0.000000 0.001402
# 5 -0.001139 -0.000383 0.001529 0.000000 0.027365 0.000000
# 6 0.000000 0.000000 0.000000 0.001402 0.000000 0.030459
#
#
# Mechanical properties :
#
#
# Convention : Reuss Voigt Hill
#
# Bulk Modulus (GPa) = 46.60144 56.01682 51.30913
# Shear Modulus (GPa) = 25.08427 28.50978 26.79703
#
# Velocity S-wave (km/s) = 3.57554 3.81187 3.69560
# Velocity P-wave (km/s) = 6.38725 6.92268 6.66035
#
# Compressibility (1/GPa) = 0.02145857
#
# Stress axis : x y z
#
# Youngs Moduli (GPa) = 81.95329 33.75972 74.85681
#
# Poissons Ratio (x) = 0.25872 0.22315
# Poissons Ratio (y) = 0.62806 0.46539
# Poissons Ratio (z) = 0.24430 0.20989
#
# Static dielectric constant tensor:
#      x y z
#    x 3.582620 0.000000 0.048530 
#    y 0.000000 3.347610 0.000000 
#    z 0.048530 0.000000 3.710900 
# 
# 
# High freq. dielectric constant tensor:
#      x y z
#    x 1.766070 0.000000 -0.001400 
#    y 0.000000 1.740580 0.000000 
#    z -0.001400 0.000000 1.780710 
# 
# From -- ./inp_files/295825.got.cif
#   From: 2010.06.25/outbox.cif.g09.slc.cpg/sg12_148_cif.got.tgz:295825.got - 2010.06.28 00:19:55.
