data_PCOD8091032
_publ_section_title
;
Structure prediction by ZEFSAII (Michael W. Deem and Ramdas Pophale) SiO2 
 PCOD8091032
Probable space group: C 2/M
;
_chemical_formula_sum "Si O2"
_cell_formula_units_Z 48
_cell_length_a 12.495461
_cell_length_b 20.535843
_cell_length_c 15.623071
_cell_angle_alpha 90.000000
_cell_angle_beta 136.973591
_cell_angle_gamma 90.000000
_cell_volume 2735.452134
_symmetry_space_group_name_H-M "C 2/M"
_symmetry_group_IT_number 12
_symmetry_cell_setting 'monoclinic'
loop_
_space_group_symop_operation_xyz
x,y,z
-x,y,-z
-x,-y,-z
x,-y,z
1/2+x,1/2+y,z
1/2-x,1/2+y,-z
1/2-x,1/2-y,-z
1/2+x,1/2-y,z
loop_
_atom_site_type_symbol
_atom_site_label
_atom_site_fract_x
_atom_site_fract_y
_atom_site_fract_z
Si Si1 0.684936 0.500000 0.113414
Si Si2 0.101452 0.324208 0.975630
Si Si3 0.486120 0.829002 0.352741
Si Si4 0.313176 0.000000 0.379652
Si Si5 0.440925 0.280703 0.193985
Si Si6 0.063103 0.572278 0.817799
Si Si7 0.256614 0.857873 0.368340
O O1 0.755903 0.500000 0.249060
O O2 0.754135 0.563802 0.104985
O O3 0.500000 0.500000 0.000000
O O4 0.059762 0.265471 0.888436
O O5 0.058830 0.392996 0.907070
O O6 0.284107 0.323522 0.106898
O O7 0.000000 0.315236 0.000000
O O8 0.452395 0.760394 0.287909
O O9 0.523745 0.884383 0.304299
O O10 0.336038 0.849096 0.321763
O O11 0.640104 0.820533 0.500693
O O12 0.500000 0.000000 0.500000
O O13 0.247667 0.934761 0.386043
O O14 0.583276 0.330198 0.267597
O O15 0.983688 0.500000 0.777618
#
# Coordination Sequence:
#
# PCOD8091032 Si02
#       7
#     4   8   8   4   8   8   8
#     4  10  20  32  51  84 119 139 182 233 291 332
#     4  10  21  38  55  74 108 147 187 231 281 332
#     4  10  19  34  54  80 111 146 179 223 278 336
#     4  12  20  36  56  86 118 152 176 230 292 340
#     4  10  22  36  53  80 109 144 186 229 278 329
#     4   9  19  33  53  76 105 143 185 219 280 340
#     4  11  20  32  59  83 114 142 185 225 279 343
#
# _framework density 17.547374000000001
#
# number of rings (size 3 to 8) (size 9 to 14) (size 15 to 20)
#    0.500    1.333    3.333    1.500    3.500    0.333 
#    0.000    0.000    0.000    0.000    0.000    1.167 
#    0.000    0.000    0.000    0.000    0.000    0.000 
#
# Total GULP energy -297505.051445 kJ/mol
# GULP energy per Si atom -12396.043810 kJ/mol
# Density = 1.750744 g / cm^3
# Si number density = 17.547374 Si / 1000 Ang^3
#
#
#
# Elastic Constant Matrix: (Units=GPa)
#
#
# Indices 1 2 3 4 5 6 
#
# 1 76.5926 23.4686 48.2448 0.0000 0.1582 0.0000
# 2 23.4686 88.2717 38.8548 0.0000 2.4667 0.0000
# 3 48.2448 38.8548 105.2353 -0.0001 5.4075 -0.0002
# 4 0.0000 0.0000 -0.0001 14.3876 0.0000 10.7127
# 5 0.1582 2.4667 5.4075 0.0000 32.1960 -0.0001
# 6 0.0000 0.0000 -0.0002 10.7127 -0.0001 19.1265
#
#
#
# Elastic Compliance Matrix: (Units=1/GPa)
#
#
# Indices 1 2 3 4 5 6 
#
# 1 0.018564 -0.001429 -0.008053 0.000000 0.001371 0.000000
# 2 -0.001429 0.013638 -0.004365 0.000000 -0.000305 0.000000
# 3 -0.008053 -0.004365 0.014916 0.000000 -0.002131 0.000000
# 4 0.000000 0.000000 0.000000 0.119225 0.000000 -0.066777
# 5 0.001371 -0.000305 -0.002131 0.000000 0.031434 0.000000
# 6 0.000000 0.000000 0.000000 -0.066777 0.000000 0.089685
#
#
# Mechanical properties :
#
#
# Convention : Reuss Voigt Hill
#
# Bulk Modulus (GPa) = 51.48375 54.58177 53.03276
# Shear Modulus (GPa) = 15.54579 23.77746 19.66162
#
# Velocity S-wave (km/s) = 2.97969 3.68509 3.35100
# Velocity P-wave (km/s) = 6.42196 7.01993 6.72759
#
# Compressibility (1/GPa) = 0.01942360
#
# Stress axis : x y z
#
# Youngs Moduli (GPa) = 53.86826 73.32270 67.04386
#
# Poissons Ratio (x) = 0.10477 0.53993
# Poissons Ratio (y) = 0.07698 0.29263
# Poissons Ratio (z) = 0.43382 0.32004
#
# Static dielectric constant tensor:
#      x y z
#    x 3.024620 0.000000 -0.140740 
#    y 0.000000 3.370070 0.000000 
#    z -0.140740 0.000000 3.245570 
# 
# 
# High freq. dielectric constant tensor:
#      x y z
#    x 1.653070 0.000000 -0.012720 
#    y 0.000000 1.680120 0.000000 
#    z -0.012720 0.000000 1.684310 
# 
# From -- ./inp_files/208038.got.cif
#   From: 2010.06.25/outbox.cif.g09.slc.cpg/sg12_105_cif.got.tgz:208038.got - 2010.06.28 00:19:55.
