data_PCOD8091644
_publ_section_title
;
Structure prediction by ZEFSAII (Michael W. Deem and Ramdas Pophale) SiO2 
 PCOD8091644
Probable space group: C 2/M
;
_chemical_formula_sum "Si O2"
_cell_formula_units_Z 56
_cell_length_a 8.898267
_cell_length_b 21.472126
_cell_length_c 17.571133
_cell_angle_alpha 90.000000
_cell_angle_beta 59.641660
_cell_angle_gamma 90.000000
_cell_volume 2896.885592
_symmetry_space_group_name_H-M "C 2/M"
_symmetry_group_IT_number 12
_symmetry_cell_setting 'monoclinic'
loop_
_space_group_symop_operation_xyz
x,y,z
-x,y,-z
-x,-y,-z
x,-y,z
1/2+x,1/2+y,z
1/2-x,1/2+y,-z
1/2-x,1/2-y,-z
1/2+x,1/2-y,z
loop_
_atom_site_type_symbol
_atom_site_label
_atom_site_fract_x
_atom_site_fract_y
_atom_site_fract_z
Si Si1 0.195580 0.185262 0.978729
Si Si2 0.577172 0.176602 0.224126
Si Si3 0.068307 0.068627 0.068779
Si Si4 0.742870 0.068913 0.257343
Si Si5 0.220602 0.239019 0.313765
Si Si6 0.155501 0.197020 0.572424
Si Si7 0.705459 0.069041 0.442258
O O1 0.329387 0.166879 0.879286
O O2 0.250000 0.250000 0.000000
O O3 0.203513 0.126967 0.037088
O O4 0.000000 0.193379 0.000000
O O5 0.587500 0.114022 0.271291
O O6 0.374156 0.189520 0.262889
O O7 0.675710 0.231358 0.244053
O O8 0.919137 0.085844 0.167400
O O9 0.149030 0.000000 0.067775
O O10 0.000000 0.066536 0.000000
O O11 0.775812 0.073753 0.338482
O O12 0.680904 0.000000 0.250663
O O13 0.284254 0.292603 0.355644
O O14 0.050653 0.203315 0.388384
O O15 0.250000 0.250000 0.500000
O O16 0.208256 0.126704 0.533612
O O17 0.500000 0.078012 0.500000
O O18 0.755267 0.000000 0.462496
#
# Coordination Sequence:
#
# PCOD8091644 Si02
#       7
#     8   8   8   8   8   8   8
#     4  11  21  33  53  82 116 148 183 235 288 333
#     4  11  20  36  52  82 114 147 189 232 284 338
#     4   9  17  31  52  79 105 142 190 232 268 326
#     4  10  19  34  57  81 110 148 188 234 285 335
#     4  10  23  34  55  80 112 150 188 234 287 342
#     4  11  21  38  58  83 111 148 193 241 284 342
#     4  10  21  36  58  86 113 146 188 235 287 346
#
# _framework density 19.331105000000001
#
# number of rings (size 3 to 8) (size 9 to 14) (size 15 to 20)
#    0.000    1.714    4.286    2.143    2.000    0.000 
#    0.000    0.714    0.000    2.143    0.000    1.000 
#    0.000    0.000    0.000    0.000    0.000    0.000 
#
# Total GULP energy -347020.614533 kJ/mol
# GULP energy per Si atom -12393.593376 kJ/mol
# Density = 1.928711 g / cm^3
# Si number density = 19.331105 Si / 1000 Ang^3
#
#
#
# Elastic Constant Matrix: (Units=GPa)
#
#
# Indices 1 2 3 4 5 6 
#
# 1 77.5792 45.8735 19.7751 0.0000 -25.6781 0.0000
# 2 45.8735 184.5045 28.8876 0.0000 -23.3355 0.0000
# 3 19.7751 28.8876 92.7153 0.0000 -19.4566 0.0000
# 4 0.0000 0.0000 0.0000 30.2066 0.0000 -1.9861
# 5 -25.6781 -23.3355 -19.4566 0.0000 26.4395 0.0000
# 6 0.0000 0.0000 0.0000 -1.9861 0.0000 26.2029
#
#
#
# Elastic Compliance Matrix: (Units=1/GPa)
#
#
# Indices 1 2 3 4 5 6 
#
# 1 0.020265 -0.002884 0.000204 0.000000 0.017286 0.000000
# 2 -0.002884 0.006577 -0.000951 0.000000 0.002305 0.000000
# 3 0.000204 -0.000951 0.012895 0.000000 0.008849 0.000000
# 4 0.000000 0.000000 0.000000 0.033271 0.000000 0.002522
# 5 0.017286 0.002305 0.008849 0.000000 0.063156 0.000000
# 6 0.000000 0.000000 0.000000 0.002522 0.000000 0.038355
#
#
# Mechanical properties :
#
#
# Convention : Reuss Voigt Hill
#
# Bulk Modulus (GPa) = 30.79212 60.43016 45.61114
# Shear Modulus (GPa) = 25.95967 33.92065 29.94016
#
# Velocity S-wave (km/s) = 3.66853 4.19348 3.93976
# Velocity P-wave (km/s) = 5.82302 7.40105 6.65894
#
# Compressibility (1/GPa) = 0.03247584
#
# Stress axis : x y z
#
# Youngs Moduli (GPa) = 49.34615 152.03790 77.54769
#
# Poissons Ratio (x) = 0.43850 -0.01581
# Poissons Ratio (y) = 0.14232 0.07371
# Poissons Ratio (z) = -0.01006 0.14452
#
# Static dielectric constant tensor:
#      x y z
#    x 3.142480 0.000000 -0.101670 
#    y 0.000000 4.045550 0.000000 
#    z -0.101670 0.000000 3.697610 
# 
# 
# High freq. dielectric constant tensor:
#      x y z
#    x 1.699030 0.000000 -0.011550 
#    y 0.000000 1.772100 0.000000 
#    z -0.011550 0.000000 1.767910 
# 
# From -- ./inp_files/258000.got.cif
#   From: 2010.06.25/outbox.cif.g09.slc.cpg/sg12_129_cif.got.tgz:258000.got - 2010.06.28 00:19:55.
