data_PCOD8091832
_publ_section_title
;
Structure prediction by ZEFSAII (Michael W. Deem and Ramdas Pophale) SiO2 
 PCOD8091832
Probable space group: C 2/M
;
_chemical_formula_sum "Si O2"
_cell_formula_units_Z 64
_cell_length_a 18.613435
_cell_length_b 18.812210
_cell_length_c 9.935450
_cell_angle_alpha 90.000000
_cell_angle_beta 80.115642
_cell_angle_gamma 90.000000
_cell_volume 3427.354240
_symmetry_space_group_name_H-M "C 2/M"
_symmetry_group_IT_number 12
_symmetry_cell_setting 'monoclinic'
loop_
_space_group_symop_operation_xyz
x,y,z
-x,y,-z
-x,-y,-z
x,-y,z
1/2+x,1/2+y,z
1/2-x,1/2+y,-z
1/2-x,1/2-y,-z
1/2+x,1/2-y,z
loop_
_atom_site_type_symbol
_atom_site_label
_atom_site_fract_x
_atom_site_fract_y
_atom_site_fract_z
Si Si1 0.064736 0.842367 0.374406
Si Si2 0.284918 0.577275 0.019060
Si Si3 0.771604 0.419573 0.674353
Si Si4 0.939604 0.122866 0.923236
Si Si5 0.722519 0.820949 0.825210
Si Si6 0.707642 0.418372 0.409515
Si Si7 0.151516 0.288856 0.255711
Si Si8 0.581391 0.217744 0.001051
O O1 0.033431 0.865980 0.238854
O O2 0.124755 0.898651 0.403091
O O3 0.100198 0.764078 0.356807
O O4 0.000000 0.841322 0.500000
O O5 0.251126 0.500000 0.993882
O O6 0.279918 0.590748 0.179831
O O7 0.368606 0.574189 0.945739
O O8 0.242783 0.638920 0.956131
O O9 0.804438 0.500000 0.657338
O O10 0.721644 0.404061 0.561717
O O11 0.835818 0.360692 0.661991
O O12 0.918597 0.197564 0.996419
O O13 0.000000 0.086418 0.000000
O O14 0.735461 0.871216 0.693213
O O15 0.771638 0.750156 0.800670
O O16 0.636542 0.803151 0.862059
O O17 0.720637 0.500000 0.365962
O O18 0.111000 0.312632 0.132448
O O19 0.500000 0.187335 0.000000
#
# Coordination Sequence:
#
# PCOD8091832 Si02
#       8
#     8   8   8   8   8   8   8   8
#     4  10  22  37  55  87 115 156 192 234 283 340
#     4  11  20  34  58  84 111 153 195 237 283 338
#     4  10  22  37  58  83 111 146 189 242 291 339
#     4  10  21  36  53  82 120 152 187 236 287 345
#     4  11  19  35  63  86 111 151 196 240 281 337
#     4  10  22  40  57  83 119 152 192 237 287 339
#     4  10  19  39  59  84 116 149 194 240 284 340
#     4  10  19  34  57  88 116 145 181 237 300 334
#
# _framework density 18.673297000000002
#
# number of rings (size 3 to 8) (size 9 to 14) (size 15 to 20)
#    0.000    1.750    5.000    1.500    1.750    2.500 
#    9.000    0.000    0.000    3.750    0.000    0.000 
#    0.000    0.000    0.000    0.000    0.000    0.000 
#
# Total GULP energy -396737.405953 kJ/mol
# GULP energy per Si atom -12398.043936 kJ/mol
# Density = 1.863080 g / cm^3
# Si number density = 18.673297 Si / 1000 Ang^3
#
#
#
# Elastic Constant Matrix: (Units=GPa)
#
#
# Indices 1 2 3 4 5 6 
#
# 1 96.2084 29.6435 44.0784 0.0000 -9.2619 0.0000
# 2 29.6435 87.0495 44.8008 0.0000 7.6485 0.0000
# 3 44.0784 44.8008 118.1009 0.0000 -5.9942 0.0000
# 4 0.0000 0.0000 0.0000 21.8621 0.0000 1.8655
# 5 -9.2619 7.6485 -5.9942 0.0000 36.0304 0.0000
# 6 0.0000 0.0000 0.0000 1.8655 0.0000 16.8281
#
#
#
# Elastic Compliance Matrix: (Units=1/GPa)
#
#
# Indices 1 2 3 4 5 6 
#
# 1 0.013318 -0.002943 -0.003680 0.000000 0.003436 0.000000
# 2 -0.002943 0.015510 -0.005033 0.000000 -0.004886 0.000000
# 3 -0.003680 -0.005033 0.011856 0.000000 0.002095 0.000000
# 4 0.000000 0.000000 0.000000 0.046178 0.000000 -0.005119
# 5 0.003436 -0.004886 0.002095 0.000000 0.030023 0.000000
# 6 0.000000 0.000000 0.000000 -0.005119 0.000000 0.059992
#
#
# Mechanical properties :
#
#
# Convention : Reuss Voigt Hill
#
# Bulk Modulus (GPa) = 57.56473 59.82270 58.69371
# Shear Modulus (GPa) = 24.27434 27.13320 25.70377
#
# Velocity S-wave (km/s) = 3.60939 3.81602 3.71414
# Velocity P-wave (km/s) = 6.94727 7.17789 7.06352
#
# Compressibility (1/GPa) = 0.01737175
#
# Stress axis : x y z
#
# Youngs Moduli (GPa) = 75.08875 64.47623 84.34408
#
# Poissons Ratio (x) = 0.18977 0.31035
# Poissons Ratio (y) = 0.22101 0.42450
# Poissons Ratio (z) = 0.27629 0.32451
#
# Static dielectric constant tensor:
#      x y z
#    x 3.494370 0.000000 0.131500 
#    y 0.000000 3.463740 0.000000 
#    z 0.131500 0.000000 3.478770 
# 
# 
# High freq. dielectric constant tensor:
#      x y z
#    x 1.701100 0.000000 0.003900 
#    y 0.000000 1.724410 0.000000 
#    z 0.003900 0.000000 1.729940 
# 
# From -- ./inp_files/77504.got.cif
#   From: 2010.06.25/outbox.cif.g09.slc.cpg/sg12_39_cif.got.tgz:77504.got - 2010.06.28 00:19:55.
