data_PCOD8091593
_publ_section_title
;
Structure prediction by ZEFSAII (Michael W. Deem and Ramdas Pophale) SiO2 
 PCOD8091593
Probable space group: C 2/M
;
_chemical_formula_sum "Si O2"
_cell_formula_units_Z 64
_cell_length_a 19.530453
_cell_length_b 9.522607
_cell_length_c 23.930303
_cell_angle_alpha 90.000000
_cell_angle_beta 129.093064
_cell_angle_gamma 90.000000
_cell_volume 3454.194501
_symmetry_space_group_name_H-M "C 2/M"
_symmetry_group_IT_number 12
_symmetry_cell_setting 'monoclinic'
loop_
_space_group_symop_operation_xyz
x,y,z
-x,y,-z
-x,-y,-z
x,-y,z
1/2+x,1/2+y,z
1/2-x,1/2+y,-z
1/2-x,1/2-y,-z
1/2+x,1/2-y,z
loop_
_atom_site_type_symbol
_atom_site_label
_atom_site_fract_x
_atom_site_fract_y
_atom_site_fract_z
Si Si1 0.170165 0.658334 0.227225
Si Si2 0.967278 0.663491 0.118367
Si Si3 0.587727 0.833592 0.382008
Si Si4 0.085909 0.665946 0.508457
Si Si5 0.756645 0.661682 0.614661
Si Si6 0.433431 0.166915 0.224845
Si Si7 0.587357 0.663880 0.011117
Si Si8 0.745904 0.335033 0.172686
O O1 0.194994 0.500000 0.223013
O O2 0.183250 0.680406 0.299766
O O3 0.232321 0.762821 0.225319
O O4 0.069802 0.690952 0.159622
O O5 0.942826 0.500000 0.100382
O O6 0.944740 0.723258 0.167952
O O7 0.909253 0.749488 0.044398
O O8 0.575071 0.781852 0.439007
O O9 0.682846 0.786348 0.406274
O O10 0.508775 0.768933 0.304056
O O11 0.581833 0.000000 0.376018
O O12 0.102390 0.500000 0.520391
O O13 0.170424 0.743378 0.577369
O O14 0.000000 0.709076 0.500000
O O15 0.727499 0.500000 0.591695
O O16 0.339137 0.217980 0.197969
O O17 0.441078 0.000000 0.228319
O O18 0.589902 0.500000 0.997534
O O19 0.500000 0.703981 0.000000
O O20 0.671438 0.710476 0.090409
O O21 0.744069 0.500000 0.182455
#
# Coordination Sequence:
#
# PCOD8091593 Si02
#       8
#     8   8   8   8   8   8   8   8
#     4  10  20  34  54  80 106 134 179 228 265 310
#     4  10  19  34  57  80 101 135 185 227 260 313
#     4   9  17  34  57  78 106 141 177 221 265 310
#     4  10  22  36  54  85 115 139 176 222 262 308
#     4  10  20  36  58  79 105 145 180 215 268 319
#     4   9  18  34  56  80 104 137 182 223 264 317
#     4  10  20  34  50  76 113 144 174 218 273 326
#     4  10  21  35  55  79 106 144 181 216 269 327
#
# _framework density 18.528198
#
# number of rings (size 3 to 8) (size 9 to 14) (size 15 to 20)
#    0.000    2.250    2.500    0.375    1.750    2.000 
#    0.000    0.625    0.000    1.500    0.000    0.000 
#    0.000    0.000    0.000    0.000    0.000    0.000 
#
# Total GULP energy -396847.698649 kJ/mol
# GULP energy per Si atom -12401.490583 kJ/mol
# Density = 1.848603 g / cm^3
# Si number density = 18.528198 Si / 1000 Ang^3
#
#
#
# Elastic Constant Matrix: (Units=GPa)
#
#
# Indices 1 2 3 4 5 6 
#
# 1 120.0833 36.6999 45.6729 0.0000 -3.1119 0.0000
# 2 36.6999 35.4144 29.3698 0.0000 -2.2307 0.0000
# 3 45.6729 29.3698 83.6036 0.0000 -1.9103 0.0000
# 4 0.0000 0.0000 0.0000 25.2705 0.0000 -2.5171
# 5 -3.1119 -2.2307 -1.9103 0.0000 35.2360 0.0000
# 6 0.0000 0.0000 0.0000 -2.5171 0.0000 18.1180
#
#
#
# Elastic Compliance Matrix: (Units=1/GPa)
#
#
# Indices 1 2 3 4 5 6 
#
# 1 0.012802 -0.010518 -0.003292 0.000000 0.000286 0.000000
# 2 -0.010518 0.048598 -0.011291 0.000000 0.001536 0.000000
# 3 -0.003292 -0.011291 0.017725 0.000000 -0.000045 0.000000
# 4 0.000000 0.000000 0.000000 0.040127 0.000000 0.005575
# 5 0.000286 0.001536 -0.000045 0.000000 0.028500 0.000000
# 6 0.000000 0.000000 0.000000 0.005575 0.000000 0.055968
#
#
# Mechanical properties :
#
#
# Convention : Reuss Voigt Hill
#
# Bulk Modulus (GPa) = 34.57585 51.39850 42.98718
# Shear Modulus (GPa) = 18.97081 24.21549 21.59315
#
# Velocity S-wave (km/s) = 3.20330 3.61910 3.41753
# Velocity P-wave (km/s) = 5.69062 6.72791 6.23089
#
# Compressibility (1/GPa) = 0.02892192
#
# Stress axis : x y z
#
# Youngs Moduli (GPa) = 78.11501 20.57716 56.41706
#
# Poissons Ratio (x) = 0.21643 0.18573
# Poissons Ratio (y) = 0.82163 0.63701
# Poissons Ratio (z) = 0.25716 0.23234
#
# Static dielectric constant tensor:
#      x y z
#    x 3.487540 0.000000 -0.026580 
#    y 0.000000 3.071290 0.000000 
#    z -0.026580 0.000000 3.478890 
# 
# 
# High freq. dielectric constant tensor:
#      x y z
#    x 1.725530 0.000000 -0.003740 
#    y 0.000000 1.683400 0.000000 
#    z -0.003740 0.000000 1.728020 
# 
# From -- ./inp_files/346121.got.cif
#   From: 2010.06.25/outbox.cif.g09.slc.cpg/sg12_174_cif.got.tgz:346121.got - 2010.06.28 00:19:55.
