data_PCOD8091345
_publ_section_title
;
Structure prediction by ZEFSAII (Michael W. Deem and Ramdas Pophale) SiO2 
 PCOD8091345
Probable space group: C 2/M
;
_chemical_formula_sum "Si O2"
_cell_formula_units_Z 64
_cell_length_a 14.282788
_cell_length_b 9.027150
_cell_length_c 27.188641
_cell_angle_alpha 90.000000
_cell_angle_beta 104.921653
_cell_angle_gamma 90.000000
_cell_volume 3387.299645
_symmetry_space_group_name_H-M "C 2/M"
_symmetry_group_IT_number 12
_symmetry_cell_setting 'monoclinic'
loop_
_space_group_symop_operation_xyz
x,y,z
-x,y,-z
-x,-y,-z
x,-y,z
1/2+x,1/2+y,z
1/2-x,1/2+y,-z
1/2-x,1/2-y,-z
1/2+x,1/2-y,z
loop_
_atom_site_type_symbol
_atom_site_label
_atom_site_fract_x
_atom_site_fract_y
_atom_site_fract_z
Si Si1 0.781888 0.826571 0.865152
Si Si2 0.987117 0.671221 0.610934
Si Si3 0.171593 0.826396 0.595465
Si Si4 0.571414 0.822782 0.864486
Si Si5 0.142986 0.328950 0.318043
Si Si6 0.398931 0.324801 0.787498
Si Si7 0.024507 0.174583 0.058527
Si Si8 0.109673 0.336428 0.496263
O O1 0.677836 0.758364 0.865043
O O2 0.816143 0.777480 0.815380
O O3 0.864448 0.778565 0.915436
O O4 0.768250 0.000000 0.864945
O O5 0.013993 0.500000 0.604030
O O6 0.953229 0.694039 0.662264
O O7 0.898053 0.715699 0.561878
O O8 0.081128 0.768710 0.614521
O O9 0.266361 0.775998 0.637469
O O10 0.175075 0.767966 0.539575
O O11 0.164243 0.000000 0.590480
O O12 0.498301 0.758418 0.814012
O O13 0.547074 0.763211 0.915397
O O14 0.565794 0.000000 0.863198
O O15 0.153237 0.500000 0.303044
O O16 0.137404 0.223740 0.270517
O O17 0.417756 0.500000 0.791678
O O18 0.009310 0.000000 0.065740
O O19 0.000000 0.221540 0.000000
O O20 0.155153 0.500000 0.505916
O O21 0.000000 0.334058 0.500000
#
# Coordination Sequence:
#
# PCOD8091345 Si02
#       8
#     8   8   8   8   8   8   8   8
#     4   8  17  34  54  76 104 140 176 210 257 310
#     4   9  19  36  54  71  99 138 171 201 249 315
#     4  10  20  33  51  77 105 129 162 212 258 299
#     4  10  19  34  56  79 105 139 179 219 259 305
#     4  10  22  38  53  74 104 134 166 209 263 312
#     4  10  21  38  56  75 101 133 173 217 261 311
#     4   9  18  34  54  79 115 151 180 215 256 299
#     4   8  15  30  51  72  97 133 170 200 243 309
#
# _framework density 18.894106000000001
#
# number of rings (size 3 to 8) (size 9 to 14) (size 15 to 20)
#    0.000    2.750    0.000    2.625    0.000    6.000 
#    0.000   10.000    0.000    0.000    0.000    0.000 
#    0.000    0.000    0.000    0.000    0.000    0.000 
#
# Total GULP energy -396700.326846 kJ/mol
# GULP energy per Si atom -12396.885214 kJ/mol
# Density = 1.885110 g / cm^3
# Si number density = 18.894106 Si / 1000 Ang^3
#
#
#
# Elastic Constant Matrix: (Units=GPa)
#
#
# Indices 1 2 3 4 5 6 
#
# 1 97.4480 30.0657 43.7829 0.0000 4.5208 0.0000
# 2 30.0657 59.6165 44.1404 0.0000 2.7118 0.0000
# 3 43.7829 44.1404 120.6864 0.0000 -4.5216 0.0000
# 4 0.0000 0.0000 0.0000 34.8733 0.0000 0.2001
# 5 4.5208 2.7118 -4.5216 0.0000 16.8523 0.0000
# 6 0.0000 0.0000 0.0000 0.2001 0.0000 20.5950
#
#
#
# Elastic Compliance Matrix: (Units=1/GPa)
#
#
# Indices 1 2 3 4 5 6 
#
# 1 0.013222 -0.003886 -0.003520 0.000000 -0.003866 0.000000
# 2 -0.003886 0.024766 -0.007837 0.000000 -0.005046 0.000000
# 3 -0.003520 -0.007837 0.012639 0.000000 0.005597 0.000000
# 4 0.000000 0.000000 0.000000 0.028677 0.000000 -0.000279
# 5 -0.003866 -0.005046 0.005597 0.000000 0.062690 0.000000
# 6 0.000000 0.000000 0.000000 -0.000279 0.000000 0.048558
#
#
# Mechanical properties :
#
#
# Convention : Reuss Voigt Hill
#
# Bulk Modulus (GPa) = 49.65211 57.08098 53.36654
# Shear Modulus (GPa) = 21.95375 25.11492 23.53433
#
# Velocity S-wave (km/s) = 3.41242 3.64984 3.53312
# Velocity P-wave (km/s) = 6.47011 6.93097 6.70450
#
# Compressibility (1/GPa) = 0.02014013
#
# Stress axis : x y z
#
# Youngs Moduli (GPa) = 75.63305 40.37824 79.11899
#
# Poissons Ratio (x) = 0.15690 0.27852
# Poissons Ratio (y) = 0.29388 0.62008
# Poissons Ratio (z) = 0.26625 0.31646
#
# Static dielectric constant tensor:
#      x y z
#    x 3.543460 0.000000 -0.031580 
#    y 0.000000 3.294540 0.000000 
#    z -0.031580 0.000000 3.650120 
# 
# 
# High freq. dielectric constant tensor:
#      x y z
#    x 1.732910 0.000000 -0.002180 
#    y 0.000000 1.720540 0.000000 
#    z -0.002180 0.000000 1.737310 
# 
# From -- ./inp_files/359973.got.cif
#   From: 2010.06.25/outbox.cif.g09.slc.cpg/sg12_180_cif.got.tgz:359973.got - 2010.06.28 00:19:55.
