data_PCOD8091473
_publ_section_title
;
Structure prediction by ZEFSAII (Michael W. Deem and Ramdas Pophale) SiO2 
 PCOD8091473
Probable space group: C 2/M
;
_chemical_formula_sum "Si O2"
_cell_formula_units_Z 64
_cell_length_a 9.342947
_cell_length_b 18.237421
_cell_length_c 23.218468
_cell_angle_alpha 90.000000
_cell_angle_beta 59.686044
_cell_angle_gamma 90.000000
_cell_volume 3415.299881
_symmetry_space_group_name_H-M "C 2/M"
_symmetry_group_IT_number 12
_symmetry_cell_setting 'monoclinic'
loop_
_space_group_symop_operation_xyz
x,y,z
-x,y,-z
-x,-y,-z
x,-y,z
1/2+x,1/2+y,z
1/2-x,1/2+y,-z
1/2-x,1/2-y,-z
1/2+x,1/2-y,z
loop_
_atom_site_type_symbol
_atom_site_label
_atom_site_fract_x
_atom_site_fract_y
_atom_site_fract_z
Si Si1 0.843027 0.832337 0.278281
Si Si2 0.021720 0.583581 0.361776
Si Si3 0.836254 0.080854 0.994932
Si Si4 0.923583 0.712815 0.454506
Si Si5 0.358303 0.916131 0.272246
Si Si6 0.103884 0.793173 0.319857
Si Si7 0.651570 0.912760 0.136788
Si Si8 0.961439 0.087586 0.149001
O O1 0.714574 0.893163 0.328410
O O2 0.738543 0.766193 0.270402
O O3 0.949551 0.797747 0.308172
O O4 0.970629 0.869692 0.207538
O O5 0.001417 0.500000 0.386802
O O6 0.905742 0.635661 0.424270
O O7 0.967323 0.593486 0.307061
O O8 0.696049 0.120723 0.063674
O O9 0.770766 0.000000 0.992996
O O10 0.887298 0.116942 0.923069
O O11 0.000000 0.074489 0.000000
O O12 0.750000 0.750000 0.500000
O O13 0.000000 0.693912 0.500000
O O14 0.040417 0.768264 0.395401
O O15 0.188142 0.872055 0.309248
O O16 0.471005 0.887784 0.195580
O O17 0.306313 0.000000 0.273791
O O18 0.787324 0.889045 0.156134
O O19 0.660147 0.000000 0.129749
O O20 0.973043 0.000000 0.156197
#
# Coordination Sequence:
#
# PCOD8091473 Si02
#       8
#     8   8   8   8   8   8   8   8
#     4  11  21  35  55  78 110 145 182 228 273 319
#     4  10  20  36  59  87 114 141 176 218 267 323
#     4   7  11  20  39  74 110 136 177 222 259 313
#     4  11  22  40  61  79 106 142 180 220 266 325
#     4  10  19  34  56  82 113 143 177 222 270 320
#     4  11  24  39  56  82 106 140 184 224 272 327
#     4   8  13  24  47  78 109 143 177 217 267 315
#     4   9  15  26  49  81 110 140 179 225 273 314
#
# _framework density 18.739204000000001
#
# number of rings (size 3 to 8) (size 9 to 14) (size 15 to 20)
#    0.000    2.375    1.250    5.625    0.000    1.250 
#    0.000    0.625    0.000    3.750    0.000    3.500 
#    0.000    0.000    0.000    0.000    0.000    0.000 
#
# Total GULP energy -396518.562953 kJ/mol
# GULP energy per Si atom -12391.205092 kJ/mol
# Density = 1.869655 g / cm^3
# Si number density = 18.739204 Si / 1000 Ang^3
#
#
#
# Elastic Constant Matrix: (Units=GPa)
#
#
# Indices 1 2 3 4 5 6 
#
# 1 57.5673 33.7959 21.1867 0.0000 -8.0787 0.0000
# 2 33.7959 91.7835 58.0648 0.0000 -11.6373 0.0000
# 3 21.1867 58.0648 134.5795 0.0000 -8.6517 -0.0001
# 4 0.0000 0.0000 0.0000 23.8432 0.0000 -0.3362
# 5 -8.0787 -11.6373 -8.6517 0.0000 18.4105 0.0000
# 6 0.0000 0.0000 -0.0001 -0.3362 0.0000 23.9482
#
#
#
# Elastic Compliance Matrix: (Units=1/GPa)
#
#
# Indices 1 2 3 4 5 6 
#
# 1 0.022588 -0.007745 0.000111 0.000000 0.005069 0.000000
# 2 -0.007745 0.018471 -0.006411 0.000000 0.005264 0.000000
# 3 0.000111 -0.006411 0.010231 0.000000 0.000804 0.000000
# 4 0.000000 0.000000 0.000000 0.041949 0.000000 0.000589
# 5 0.005069 0.005264 0.000804 0.000000 0.060246 0.000000
# 6 0.000000 0.000000 0.000000 0.000589 0.000000 0.041765
#
#
# Mechanical properties :
#
#
# Convention : Reuss Voigt Hill
#
# Bulk Modulus (GPa) = 43.10462 56.66946 49.88704
# Shear Modulus (GPa) = 21.63817 24.63255 23.13536
#
# Velocity S-wave (km/s) = 3.40177 3.62953 3.51749
# Velocity P-wave (km/s) = 6.20337 6.91892 6.57089
#
# Compressibility (1/GPa) = 0.02319937
#
# Stress axis : x y z
#
# Youngs Moduli (GPa) = 44.27092 54.14028 97.74255
#
# Poissons Ratio (x) = 0.41932 -0.01090
# Poissons Ratio (y) = 0.34288 0.62668
# Poissons Ratio (z) = -0.00494 0.34712
#
# Static dielectric constant tensor:
#      x y z
#    x 3.107190 0.000000 -0.094830 
#    y 0.000000 3.267120 0.000000 
#    z -0.094830 0.000000 3.825680 
# 
# 
# High freq. dielectric constant tensor:
#      x y z
#    x 1.694230 0.000000 -0.005460 
#    y 0.000000 1.700880 0.000000 
#    z -0.005460 0.000000 1.743300 
# 
# From -- ./inp_files/301704.got.cif
#   From: 2010.06.25/outbox.cif.g09.slc.cpg/sg12_151_cif.got.tgz:301704.got - 2010.06.28 00:19:55.
