data_PCOD8091826
_publ_section_title
;
Structure prediction by ZEFSAII (Michael W. Deem and Ramdas Pophale) SiO2 
 PCOD8091826
Probable space group: C 2/M
;
_chemical_formula_sum "Si O2"
_cell_formula_units_Z 56
_cell_length_a 24.458507
_cell_length_b 8.884648
_cell_length_c 13.706540
_cell_angle_alpha 90.000000
_cell_angle_beta 110.719798
_cell_angle_gamma 90.000000
_cell_volume 2785.858670
_symmetry_space_group_name_H-M "C 2/M"
_symmetry_group_IT_number 12
_symmetry_cell_setting 'monoclinic'
loop_
_space_group_symop_operation_xyz
x,y,z
-x,y,-z
-x,-y,-z
x,-y,z
1/2+x,1/2+y,z
1/2-x,1/2+y,-z
1/2-x,1/2-y,-z
1/2+x,1/2-y,z
loop_
_atom_site_type_symbol
_atom_site_label
_atom_site_fract_x
_atom_site_fract_y
_atom_site_fract_z
Si Si1 0.842894 0.676107 0.809194
Si Si2 0.283997 0.664366 0.604609
Si Si3 0.058673 0.825732 0.591277
Si Si4 0.921602 0.179540 0.181142
Si Si5 0.462617 0.823967 0.786303
Si Si6 0.811644 0.321335 0.009558
Si Si7 0.094217 0.835047 0.416861
O O1 0.839164 0.500000 0.787849
O O2 0.791136 0.747563 0.710687
O O3 0.909033 0.729844 0.822745
O O4 0.828240 0.722319 0.909575
O O5 0.255387 0.500000 0.605448
O O6 0.250000 0.750000 0.500000
O O7 0.347734 0.643043 0.604238
O O8 0.071341 0.752183 0.704228
O O9 0.107166 0.786639 0.538031
O O10 0.000000 0.769262 0.500000
O O11 0.057042 0.000000 0.614873
O O12 0.861540 0.251106 0.107701
O O13 0.976868 0.237032 0.150751
O O14 0.917404 0.000000 0.170927
O O15 0.446839 0.784511 0.664100
O O16 0.474247 0.000000 0.805542
O O17 0.808712 0.500000 0.021760
O O18 0.750000 0.250000 0.000000
O O19 0.061556 0.000000 0.398289
#
# Coordination Sequence:
#
# PCOD8091826 Si02
#       7
#     8   8   8   8   8   8   8
#     4   9  21  41  63  83 114 158 197 242 303 362
#     4  10  20  33  55  85 117 150 194 245 294 351
#     4   9  16  30  54  81 113 152 189 225 278 346
#     4  11  22  37  60  89 121 160 202 244 293 354
#     4  10  19  34  57  87 118 149 189 239 294 350
#     4  11  25  46  66  86 115 153 201 253 303 360
#     4   9  17  32  52  77 110 151 190 232 283 343
#
# _framework density 20.101521999999999
#
# number of rings (size 3 to 8) (size 9 to 14) (size 15 to 20)
#    0.000    2.143    1.429    1.714    0.000    4.000 
#    0.000    7.857    0.000    0.000    0.000    0.000 
#    0.000    0.000    0.000    0.000    0.000    0.000 
#
# Total GULP energy -346888.403535 kJ/mol
# GULP energy per Si atom -12388.871555 kJ/mol
# Density = 2.005577 g / cm^3
# Si number density = 20.101522 Si / 1000 Ang^3
#
#
#
# Elastic Constant Matrix: (Units=GPa)
#
#
# Indices 1 2 3 4 5 6 
#
# 1 100.6469 44.7108 68.5598 0.0000 0.6357 0.0000
# 2 44.7108 79.1331 52.2543 0.0000 4.2087 0.0000
# 3 68.5598 52.2543 148.3847 0.0000 1.6529 0.0000
# 4 0.0000 0.0000 0.0000 32.6145 0.0000 5.1756
# 5 0.6357 4.2087 1.6529 0.0000 35.6323 0.0000
# 6 0.0000 0.0000 0.0000 5.1756 0.0000 27.4049
#
#
#
# Elastic Compliance Matrix: (Units=1/GPa)
#
#
# Indices 1 2 3 4 5 6 
#
# 1 0.016141 -0.005503 -0.005527 0.000000 0.000618 0.000000
# 2 -0.005503 0.018443 -0.003931 0.000000 -0.001898 0.000000
# 3 -0.005527 -0.003931 0.010676 0.000000 0.000068 0.000000
# 4 0.000000 0.000000 0.000000 0.031608 0.000000 -0.005969
# 5 0.000618 -0.001898 0.000068 0.000000 0.028274 0.000000
# 6 0.000000 0.000000 0.000000 -0.005969 0.000000 0.037617
#
#
# Mechanical properties :
#
#
# Convention : Reuss Voigt Hill
#
# Bulk Modulus (GPa) = 65.19468 73.24606 69.22037
# Shear Modulus (GPa) = 28.12213 29.97301 29.04757
#
# Velocity S-wave (km/s) = 3.74439 3.86564 3.80550
# Velocity P-wave (km/s) = 7.15521 7.51275 7.33616
#
# Compressibility (1/GPa) = 0.01533867
#
# Stress axis : x y z
#
# Youngs Moduli (GPa) = 61.95235 54.22114 93.66457
#
# Poissons Ratio (x) = 0.29840 0.51767
# Poissons Ratio (y) = 0.34094 0.36818
# Poissons Ratio (z) = 0.34240 0.21314
#
# Static dielectric constant tensor:
#      x y z
#    x 3.437950 0.000000 -0.558910 
#    y 0.000000 3.786480 0.000000 
#    z -0.558910 0.000000 3.479680 
# 
# 
# High freq. dielectric constant tensor:
#      x y z
#    x 1.786260 0.000000 -0.009570 
#    y 0.000000 1.771760 0.000000 
#    z -0.009570 0.000000 1.781850 
# 
# From -- ./inp_files/237791.got.cif
#   From: 2010.06.25/outbox.cif.g09.slc.cpg/sg12_119_cif.got.tgz:237791.got - 2010.06.28 00:19:55.
