data_PCOD8091329
_publ_section_title
;
Structure prediction by ZEFSAII (Michael W. Deem and Ramdas Pophale) SiO2 
 PCOD8091329
Probable space group: C 2/M
;
_chemical_formula_sum "Si O2"
_cell_formula_units_Z 56
_cell_length_a 28.764466
_cell_length_b 15.524697
_cell_length_c 8.999141
_cell_angle_alpha 90.000000
_cell_angle_beta 141.043932
_cell_angle_gamma 90.000000
_cell_volume 2526.624873
_symmetry_space_group_name_H-M "C 2/M"
_symmetry_group_IT_number 12
_symmetry_cell_setting 'monoclinic'
loop_
_space_group_symop_operation_xyz
x,y,z
-x,y,-z
-x,-y,-z
x,-y,z
1/2+x,1/2+y,z
1/2-x,1/2+y,-z
1/2-x,1/2-y,-z
1/2+x,1/2-y,z
loop_
_atom_site_type_symbol
_atom_site_label
_atom_site_fract_x
_atom_site_fract_y
_atom_site_fract_z
Si Si1 0.504335 0.102951 0.844228
Si Si2 0.922238 0.898937 0.730438
Si Si3 0.285606 0.599103 0.884937
Si Si4 0.572038 0.602552 0.596450
Si Si5 0.358818 0.103077 0.318095
Si Si6 0.280973 0.343614 0.543603
Si Si7 0.644646 0.900924 0.021335
O O1 0.434201 0.137756 0.578302
O O2 0.505762 0.000000 0.851807
O O3 0.500000 0.139999 0.000000
O O4 0.578636 0.141174 0.953749
O O5 0.927026 0.868360 0.572175
O O6 0.859229 0.842756 0.654254
O O7 0.902181 0.000000 0.694054
O O8 0.000000 0.878541 0.000000
O O9 0.284745 0.500000 0.928011
O O10 0.209880 0.641174 0.758126
O O11 0.291515 0.606761 0.723504
O O12 0.356230 0.641877 0.141563
O O13 0.500000 0.640527 0.500000
O O14 0.571033 0.500000 0.605443
O O15 0.358115 0.000000 0.319084
O O16 0.352622 0.140767 0.135816
O O17 0.250000 0.250000 0.500000
O O18 0.222757 0.392731 0.295855
O O19 0.624768 0.000000 0.950817
#
# Coordination Sequence:
#
# PCOD8091329 Si02
#       7
#     8   8   8   8   8   8   8
#     4   9  16  27  48  80 111 136 170 219 268 315
#     4  10  20  38  66  94 119 151 196 249 300 351
#     4  10  19  34  57  81 108 144 186 232 283 345
#     4   9  17  31  57  93 120 140 182 248 309 353
#     4   9  17  30  52  83 110 135 178 232 278 326
#     4  12  25  39  54  81 119 155 191 235 291 353
#     4  10  19  34  56  78 105 144 189 235 282 338
#
# _framework density 22.163955999999999
#
# number of rings (size 3 to 8) (size 9 to 14) (size 15 to 20)
#    0.000    2.143    0.000    4.286    0.000    8.571 
#    0.000    5.000    0.000    3.429    0.000    0.000 
#    0.000    0.000    0.000    0.000    0.000    0.143 
#
# Total GULP energy -347222.564891 kJ/mol
# GULP energy per Si atom -12400.805889 kJ/mol
# Density = 2.211351 g / cm^3
# Si number density = 22.163956 Si / 1000 Ang^3
#
#
#
# Elastic Constant Matrix: (Units=GPa)
#
#
# Indices 1 2 3 4 5 6 
#
# 1 218.4958 12.2103 104.6354 0.0000 3.8496 0.0000
# 2 12.2103 21.1574 0.2534 0.0000 7.4644 0.0000
# 3 104.6354 0.2534 210.6973 0.0000 -5.9365 0.0000
# 4 0.0000 0.0000 0.0000 -0.5030 0.0000 7.1092
# 5 3.8496 7.4644 -5.9365 0.0000 54.7363 0.0000
# 6 0.0000 0.0000 0.0000 7.1092 0.0000 14.4501
#
#
#
# Elastic Compliance Matrix: (Units=1/GPa)
#
#
# Indices 1 2 3 4 5 6 
#
# 1 0.006269 -0.003473 -0.003118 0.000000 -0.000305 0.000000
# 2 -0.003473 0.051591 0.001476 0.000000 -0.006631 0.000000
# 3 -0.003118 0.001476 0.006313 0.000000 0.000703 0.000000
# 4 0.000000 0.000000 0.000000 -0.249961 0.000000 0.122977
# 5 -0.000305 -0.006631 0.000703 0.000000 0.019271 0.000000
# 6 0.000000 0.000000 0.000000 0.122977 0.000000 0.008701
#
#
# Mechanical properties :
#
#
# Convention : Reuss Voigt Hill
#
# Bulk Modulus (GPa) = 18.53815 76.06095 47.29955
# Shear Modulus (GPa) = -38.57884 35.95343 -1.31271
#
# Velocity S-wave (km/s) = -4.17659 4.03197 -0.77043
# Velocity P-wave (km/s) = 3.85698 7.48783 4.53825
#
# Compressibility (1/GPa) = 0.05394281
#
# Stress axis : x y z
#
# Youngs Moduli (GPa) = 159.50671 19.38323 158.41461
#
# Poissons Ratio (x) = 0.06732 0.49392
# Poissons Ratio (y) = 0.55397 -0.23380
# Poissons Ratio (z) = 0.49732 -0.02861
#
# Static dielectric constant tensor:
#      x y z
#    x 4.292570 0.000000 -0.009670 
#    y 0.000000 1.284340 0.000000 
#    z -0.009670 0.000000 4.338780 
# 
# 
# High freq. dielectric constant tensor:
#      x y z
#    x 1.891120 0.000000 0.000700 
#    y 0.000000 1.813020 0.000000 
#    z 0.000700 0.000000 1.890000 
# 
# From -- ./inp_files/105938.got.cif
#   From: 2010.06.25/outbox.cif.g09.slc.cpg/sg12_53_cif.got.tgz:105938.got - 2010.06.28 00:19:55.
