data_PCOD8091049
_publ_section_title
;
Structure prediction by ZEFSAII (Michael W. Deem and Ramdas Pophale) SiO2 
 PCOD8091049
Probable space group: C 2/M
;
_chemical_formula_sum "Si O2"
_cell_formula_units_Z 48
_cell_length_a 14.973359
_cell_length_b 17.548467
_cell_length_c 19.386668
_cell_angle_alpha 90.000000
_cell_angle_beta 30.165546
_cell_angle_gamma 90.000000
_cell_volume 2559.751332
_symmetry_space_group_name_H-M "C 2/M"
_symmetry_group_IT_number 12
_symmetry_cell_setting 'monoclinic'
loop_
_space_group_symop_operation_xyz
x,y,z
-x,y,-z
-x,-y,-z
x,-y,z
1/2+x,1/2+y,z
1/2-x,1/2+y,-z
1/2-x,1/2-y,-z
1/2+x,1/2-y,z
loop_
_atom_site_type_symbol
_atom_site_label
_atom_site_fract_x
_atom_site_fract_y
_atom_site_fract_z
Si Si1 0.239619 0.247765 0.164917
Si Si2 0.518117 0.184628 0.766204
Si Si3 0.461142 0.298335 0.131641
Si Si4 0.856607 0.083460 0.769687
Si Si5 0.133712 0.914661 0.470423
Si Si6 0.304623 0.585807 0.964430
O O1 0.288251 0.301047 0.197987
O O2 0.241786 0.159804 0.190789
O O3 0.055513 0.280545 0.256827
O O4 0.386982 0.249525 0.007515
O O5 0.579623 0.256767 0.769695
O O6 0.690766 0.134734 0.637878
O O7 0.370471 0.135686 0.905404
O O8 0.532671 0.383482 0.097502
O O9 0.045134 0.084413 0.605143
O O10 0.763929 0.000000 0.814835
O O11 0.874224 0.091546 0.839880
O O12 0.000000 0.882688 0.500000
O O13 0.190147 0.000000 0.410481
O O14 0.262546 0.500000 0.014923
#
# Coordination Sequence:
#
# PCOD8091049 Si02
#       6
#     8   8   8   8   8   8
#     4  10  19  34  55  82 110 143 180 221 269 321
#     4  11  19  36  56  79 108 144 183 222 265 317
#     4  10  19  34  54  82 114 140 174 229 272 310
#     4  10  19  35  55  78 108 141 177 221 274 319
#     4  10  22  37  52  77 112 145 176 222 277 322
#     4  10  19  35  58  82 106 143 183 219 268 320
#
# _framework density 18.751821
#
# number of rings (size 3 to 8) (size 9 to 14) (size 15 to 20)
#    0.000    1.833    3.333    2.500    0.000    0.667 
#    0.000   10.000    0.000    0.000    0.000    3.500 
#    0.000    0.000    0.000    0.000    0.000    0.000 
#
# Total GULP energy -297358.793148 kJ/mol
# GULP energy per Si atom -12389.949715 kJ/mol
# Density = 1.870914 g / cm^3
# Si number density = 18.751821 Si / 1000 Ang^3
#
#
#
# Elastic Constant Matrix: (Units=GPa)
#
#
# Indices 1 2 3 4 5 6 
#
# 1 99.1910 30.1731 32.2254 0.0097 -13.5871 -0.0157
# 2 30.1731 81.9531 24.4248 -0.0165 -2.4359 -0.0008
# 3 32.2254 24.4248 64.3513 0.0010 3.3659 0.0093
# 4 0.0097 -0.0165 0.0010 29.9571 -0.0001 -3.1109
# 5 -13.5871 -2.4359 3.3659 -0.0001 18.1133 -0.0055
# 6 -0.0157 -0.0008 0.0093 -3.1109 -0.0055 18.4438
#
#
#
# Elastic Compliance Matrix: (Units=1/GPa)
#
#
# Indices 1 2 3 4 5 6 
#
# 1 0.014923 -0.003067 -0.006940 -0.000004 0.012071 0.000019
# 2 -0.003067 0.014536 -0.004002 0.000009 0.000398 0.000002
# 3 -0.006940 -0.004002 0.021039 -0.000003 -0.009654 -0.000020
# 4 -0.000004 0.000009 -0.000003 0.033976 0.000001 0.005731
# 5 0.012071 0.000398 -0.009654 0.000001 0.066110 0.000035
# 6 0.000019 0.000002 -0.000020 0.005731 0.000035 0.055185
#
#
# Mechanical properties :
#
#
# Convention : Reuss Voigt Hill
#
# Bulk Modulus (GPa) = 44.48560 46.57134 45.52847
# Shear Modulus (GPa) = 20.72273 23.88099 22.30186
#
# Velocity S-wave (km/s) = 3.32792 3.57253 3.45239
# Velocity P-wave (km/s) = 6.20819 6.47355 6.34225
#
# Compressibility (1/GPa) = 0.02247918
#
# Stress axis : x y z
#
# Youngs Moduli (GPa) = 67.01184 68.79528 47.53050
#
# Poissons Ratio (x) = 0.21099 0.32987
# Poissons Ratio (y) = 0.20552 0.19022
# Poissons Ratio (z) = 0.46508 0.27533
#
# Static dielectric constant tensor:
#      x y z
#    x 3.564460 0.000000 0.117070 
#    y 0.000000 3.702930 0.000040 
#    z 0.117070 0.000040 3.245320 
# 
# 
# High freq. dielectric constant tensor:
#      x y z
#    x 1.719520 0.000000 0.015770 
#    y 0.000000 1.733480 0.000000 
#    z 0.015770 0.000000 1.705360 
# 
# From -- ./inp_files/216230.got.cif
#   From: 2010.06.25/outbox.cif.g09.slc.cpg/sg12_109_cif.got.tgz:216230.got - 2010.06.28 00:19:55.
