data_PCOD8091748
_publ_section_title
;
Structure prediction by ZEFSAII (Michael W. Deem and Ramdas Pophale) SiO2 
 PCOD8091748
Probable space group: C 2/M
;
_chemical_formula_sum "Si O2"
_cell_formula_units_Z 56
_cell_length_a 29.524835
_cell_length_b 9.398977
_cell_length_c 18.346278
_cell_angle_alpha 90.000000
_cell_angle_beta 145.794554
_cell_angle_gamma 90.000000
_cell_volume 2862.051959
_symmetry_space_group_name_H-M "C 2/M"
_symmetry_group_IT_number 12
_symmetry_cell_setting 'monoclinic'
loop_
_space_group_symop_operation_xyz
x,y,z
-x,y,-z
-x,-y,-z
x,-y,z
1/2+x,1/2+y,z
1/2-x,1/2+y,-z
1/2-x,1/2-y,-z
1/2+x,1/2-y,z
loop_
_atom_site_type_symbol
_atom_site_label
_atom_site_fract_x
_atom_site_fract_y
_atom_site_fract_z
Si Si1 0.817847 0.668128 0.223863
Si Si2 0.358657 0.840498 0.692695
Si Si3 0.275106 0.159744 0.426202
Si Si4 0.597606 0.169242 0.520577
Si Si5 0.495781 0.663376 0.078094
Si Si6 0.635940 0.334815 0.983295
Si Si7 0.573968 0.168763 0.764739
O O1 0.816668 0.500000 0.230812
O O2 0.874924 0.729574 0.364125
O O3 0.854128 0.712789 0.194313
O O4 0.726733 0.726366 0.110165
O O5 0.316541 0.842576 0.559234
O O6 0.303781 0.758201 0.678624
O O7 0.442826 0.760029 0.794765
O O8 0.373355 0.000000 0.740944
O O9 0.337651 0.224581 0.451843
O O10 0.248389 0.000000 0.368195
O O11 0.509161 0.225024 0.381584
O O12 0.595041 0.000000 0.517209
O O13 0.523351 0.500000 0.121550
O O14 0.407443 0.685127 0.996012
O O15 0.500000 0.713651 0.000000
O O16 0.636443 0.500000 0.960567
O O17 0.587094 0.247076 0.858222
O O18 0.571563 0.000000 0.775399
#
# Coordination Sequence:
#
# PCOD8091748 Si02
#       7
#     8   8   8   8   8   8   8
#     4   9  18  32  54  83 111 139 180 229 267 311
#     4  10  20  34  52  78 109 138 175 222 274 320
#     4   9  18  32  53  77 104 142 181 218 261 319
#     4   9  17  30  54  82 107 138 181 227 266 309
#     4  10  22  37  55  77 103 141 186 224 264 318
#     4  10  21  36  55  80 108 144 184 221 267 322
#     4  10  19  34  57  84 111 141 178 222 273 321
#
# _framework density 19.566381
#
# number of rings (size 3 to 8) (size 9 to 14) (size 15 to 20)
#    0.000    2.429    0.000    2.143    2.000    4.286 
#    0.000    0.714    0.000    3.429    0.000    0.000 
#    0.000    0.000    0.000    0.000    0.000    0.000 
#
# Total GULP energy -347193.472935 kJ/mol
# GULP energy per Si atom -12399.766891 kJ/mol
# Density = 1.952185 g / cm^3
# Si number density = 19.566381 Si / 1000 Ang^3
#
#
#
# Elastic Constant Matrix: (Units=GPa)
#
#
# Indices 1 2 3 4 5 6 
#
# 1 122.1116 26.3223 39.1269 0.0000 8.8187 0.0000
# 2 26.3223 52.2442 25.1256 0.0000 3.0888 0.0000
# 3 39.1269 25.1256 100.7252 0.0000 5.2164 0.0000
# 4 0.0000 0.0000 0.0000 22.3568 0.0000 -0.0317
# 5 8.8187 3.0888 5.2164 0.0000 29.8309 0.0000
# 6 0.0000 0.0000 0.0000 -0.0317 0.0000 16.8396
#
#
#
# Elastic Compliance Matrix: (Units=1/GPa)
#
#
# Indices 1 2 3 4 5 6 
#
# 1 0.010034 -0.003533 -0.002908 0.000000 -0.002092 0.000000
# 2 -0.003533 0.023045 -0.004346 0.000000 -0.000582 0.000000
# 3 -0.002908 -0.004346 0.012184 0.000000 -0.000821 0.000000
# 4 0.000000 0.000000 0.000000 0.044729 0.000000 0.000084
# 5 -0.002092 -0.000582 -0.000821 0.000000 0.034344 0.000000
# 6 0.000000 0.000000 0.000000 0.000084 0.000000 0.059384
#
#
# Mechanical properties :
#
#
# Convention : Reuss Voigt Hill
#
# Bulk Modulus (GPa) = 42.21334 50.69226 46.45280
# Shear Modulus (GPa) = 23.45306 26.10586 24.77946
#
# Velocity S-wave (km/s) = 3.46589 3.65666 3.56255
# Velocity P-wave (km/s) = 6.13497 6.61758 6.38084
#
# Compressibility (1/GPa) = 0.02368919
#
# Stress axis : x y z
#
# Youngs Moduli (GPa) = 99.66461 43.39242 82.07335
#
# Poissons Ratio (x) = 0.15331 0.23866
# Poissons Ratio (y) = 0.35212 0.35670
# Poissons Ratio (z) = 0.28982 0.18859
#
# Static dielectric constant tensor:
#      x y z
#    x 3.700150 0.000000 0.159220 
#    y 0.000000 3.313560 0.000000 
#    z 0.159220 0.000000 3.630140 
# 
# 
# High freq. dielectric constant tensor:
#      x y z
#    x 1.772780 0.000000 0.010180 
#    y 0.000000 1.720220 0.000000 
#    z 0.010180 0.000000 1.765870 
# 
# From -- ./inp_files/329725.got.cif
#   From: 2010.06.25/outbox.cif.g09.slc.cpg/sg12_165_cif.got.tgz:329725.got - 2010.06.28 00:19:55.
