data_PCOD8091264
_publ_section_title
;
Structure prediction by ZEFSAII (Michael W. Deem and Ramdas Pophale) SiO2 
 PCOD8091264
Probable space group: C 2/M
;
_chemical_formula_sum "Si O2"
_cell_formula_units_Z 64
_cell_length_a 29.617381
_cell_length_b 9.087891
_cell_length_c 23.467450
_cell_angle_alpha 90.000000
_cell_angle_beta 149.996439
_cell_angle_gamma 90.000000
_cell_volume 3158.583885
_symmetry_space_group_name_H-M "C 2/M"
_symmetry_group_IT_number 12
_symmetry_cell_setting 'monoclinic'
loop_
_space_group_symop_operation_xyz
x,y,z
-x,y,-z
-x,-y,-z
x,-y,z
1/2+x,1/2+y,z
1/2-x,1/2+y,-z
1/2-x,1/2-y,-z
1/2+x,1/2-y,z
loop_
_atom_site_type_symbol
_atom_site_label
_atom_site_fract_x
_atom_site_fract_y
_atom_site_fract_z
Si Si1 0.041553 0.669697 0.671371
Si Si2 0.116485 0.674581 0.995646
Si Si3 0.472931 0.174319 0.216017
Si Si4 0.202796 0.671028 0.764712
Si Si5 0.304237 0.840115 0.707577
Si Si6 0.375968 0.672094 0.432204
Si Si7 0.031725 0.160276 0.097453
Si Si8 0.335866 0.838864 0.610884
O O1 0.010233 0.500000 0.636576
O O2 0.052759 0.728442 0.748611
O O3 0.138748 0.689548 0.749246
O O4 0.969072 0.761914 0.556677
O O5 0.129338 0.500000 0.016145
O O6 0.202320 0.755851 0.115813
O O7 0.101329 0.722233 0.912613
O O8 0.027283 0.722291 0.932408
O O9 0.571626 0.240427 0.308050
O O10 0.480462 0.000000 0.220989
O O11 0.218540 0.500000 0.767023
O O12 0.155613 0.749935 0.660083
O O13 0.199302 0.798020 0.601457
O O14 0.366783 0.716684 0.803037
O O15 0.334685 0.851950 0.676553
O O16 0.320096 0.000000 0.754497
O O17 0.391029 0.500000 0.436365
O O18 0.031950 0.000000 0.128883
O O19 0.000000 0.136339 0.000000
O O20 0.250000 0.750000 0.500000
O O21 0.329036 0.000000 0.574999
#
# Coordination Sequence:
#
# PCOD8091264 Si02
#       8
#     8   8   8   8   8   8   8   8
#     4  10  22  41  64  88 119 160 202 251 311 365
#     4  11  22  40  64  88 120 161 203 250 303 362
#     4   9  19  38  62  86 118 160 201 243 299 363
#     4  11  24  41  61  88 121 158 204 256 309 364
#     4  10  21  37  56  83 117 153 191 233 288 347
#     4  11  23  39  62  92 124 157 202 255 304 362
#     4  11  23  37  56  85 119 155 197 241 288 349
#     4  10  19  34  55  82 115 150 189 233 282 344
#
# _framework density 20.262245
#
# number of rings (size 3 to 8) (size 9 to 14) (size 15 to 20)
#    0.000    1.625    1.250    3.375    0.000    7.500 
#    0.000    1.250    0.000    0.000    0.000    0.000 
#    0.000    0.000    0.000    0.000    0.000    0.000 
#
# Total GULP energy -396681.766460 kJ/mol
# GULP energy per Si atom -12396.305202 kJ/mol
# Density = 2.021613 g / cm^3
# Si number density = 20.262245 Si / 1000 Ang^3
#
#
#
# Elastic Constant Matrix: (Units=GPa)
#
#
# Indices 1 2 3 4 5 6 
#
# 1 83.3080 21.2938 8.8597 0.0000 -2.0526 0.0000
# 2 21.2938 99.0260 43.3904 0.0000 -0.2278 0.0000
# 3 8.8597 43.3904 92.9410 0.0000 -5.6036 0.0000
# 4 0.0000 0.0000 0.0000 67.2896 0.0000 18.7153
# 5 -2.0526 -0.2278 -5.6036 0.0000 34.2332 0.0000
# 6 0.0000 0.0000 0.0000 18.7153 0.0000 32.7403
#
#
#
# Elastic Compliance Matrix: (Units=1/GPa)
#
#
# Indices 1 2 3 4 5 6 
#
# 1 0.012722 -0.002794 0.000138 0.000000 0.000767 0.000000
# 2 -0.002794 0.013336 -0.006024 0.000000 -0.001065 0.000000
# 3 0.000138 -0.006024 0.013692 0.000000 0.002209 0.000000
# 4 0.000000 0.000000 0.000000 0.017671 0.000000 -0.010101
# 5 0.000767 -0.001065 0.002209 0.000000 0.029612 0.000000
# 6 0.000000 0.000000 0.000000 -0.010101 0.000000 0.036317
#
#
# Mechanical properties :
#
#
# Convention : Reuss Voigt Hill
#
# Bulk Modulus (GPa) = 44.66340 46.92920 45.79630
# Shear Modulus (GPa) = 33.74405 40.30136 37.02270
#
# Velocity S-wave (km/s) = 4.08532 4.46465 4.27919
# Velocity P-wave (km/s) = 6.65910 7.05610 6.86047
#
# Compressibility (1/GPa) = 0.02238970
#
# Stress axis : x y z
#
# Youngs Moduli (GPa) = 78.60324 74.98298 73.03573
#
# Poissons Ratio (x) = 0.20953 -0.01008
# Poissons Ratio (y) = 0.21965 0.43997
# Poissons Ratio (z) = -0.01085 0.45170
#
# Static dielectric constant tensor:
#      x y z
#    x 4.110740 0.000000 -0.004280 
#    y 0.000000 4.059590 0.000000 
#    z -0.004280 0.000000 3.637370 
# 
# 
# High freq. dielectric constant tensor:
#      x y z
#    x 1.797560 0.000000 0.001630 
#    y 0.000000 1.785890 0.000000 
#    z 0.001630 0.000000 1.795220 
# 
# From -- ./inp_files/353486.got.cif
#   From: 2010.06.25/outbox.cif.g09.slc.cpg/sg12_177_cif.got.tgz:353486.got - 2010.06.28 00:19:55.
