data_PCOD8091358
_publ_section_title
;
Structure prediction by ZEFSAII (Michael W. Deem and Ramdas Pophale) SiO2 
 PCOD8091358
Probable space group: C 2/M
;
_chemical_formula_sum "Si O2"
_cell_formula_units_Z 56
_cell_length_a 14.471638
_cell_length_b 8.866250
_cell_length_c 26.123204
_cell_angle_alpha 90.000000
_cell_angle_beta 64.731761
_cell_angle_gamma 90.000000
_cell_volume 3031.139398
_symmetry_space_group_name_H-M "C 2/M"
_symmetry_group_IT_number 12
_symmetry_cell_setting 'monoclinic'
loop_
_space_group_symop_operation_xyz
x,y,z
-x,y,-z
-x,-y,-z
x,-y,z
1/2+x,1/2+y,z
1/2-x,1/2+y,-z
1/2-x,1/2-y,-z
1/2+x,1/2-y,z
loop_
_atom_site_type_symbol
_atom_site_label
_atom_site_fract_x
_atom_site_fract_y
_atom_site_fract_z
Si Si1 0.684943 0.677658 0.765157
Si Si2 0.553997 0.321872 0.935291
Si Si3 0.993761 0.828522 0.559785
Si Si4 0.535006 0.677151 0.149797
Si Si5 0.243313 0.179798 0.149985
Si Si6 0.679467 0.176446 0.559081
Si Si7 0.236951 0.827843 0.353481
O O1 0.694150 0.500000 0.772504
O O2 0.566097 0.729368 0.795235
O O3 0.749860 0.760330 0.793735
O O4 0.730578 0.719938 0.699886
O O5 0.574984 0.500000 0.929123
O O6 0.480115 0.273327 0.905827
O O7 0.662631 0.239261 0.906087
O O8 0.500000 0.269405 0.000000
O O9 0.882928 0.814992 0.609664
O O10 0.000000 0.770943 0.500000
O O11 0.062707 0.720416 0.577880
O O12 0.034812 0.000000 0.552398
O O13 0.546301 0.500000 0.150575
O O14 0.638379 0.745847 0.149751
O O15 0.244904 0.000000 0.150353
O O16 0.750000 0.250000 0.500000
O O17 0.708458 0.233922 0.608580
O O18 0.697450 0.000000 0.551439
O O19 0.268597 0.000000 0.333675
#
# Coordination Sequence:
#
# PCOD8091358 Si02
#       7
#     8   8   8   8   8   8   8
#     4  10  21  38  57  78 106 139 182 226 271 328
#     4   9  18  34  54  79 114 151 185 222 267 319
#     4  10  20  38  58  78 108 145 178 216 273 329
#     4   8  17  34  54  76 106 145 181 219 270 322
#     4  10  19  34  56  79 107 143 184 227 274 321
#     4  11  22  37  57  82 110 141 179 220 267 327
#     4  10  22  39  57  79 111 143 176 222 277 330
#
# _framework density 18.474900000000002
#
# number of rings (size 3 to 8) (size 9 to 14) (size 15 to 20)
#    0.000    2.286    1.429    2.143    0.000    4.000 
#    0.000   11.429    0.000    0.000    0.000    0.000 
#    0.000    0.000    0.000    0.000    0.000    0.000 
#
# Total GULP energy -347203.977487 kJ/mol
# GULP energy per Si atom -12400.142053 kJ/mol
# Density = 1.843285 g / cm^3
# Si number density = 18.474900 Si / 1000 Ang^3
#
#
#
# Elastic Constant Matrix: (Units=GPa)
#
#
# Indices 1 2 3 4 5 6 
#
# 1 154.8297 34.4621 62.5598 0.0000 4.6954 0.0000
# 2 34.4621 48.1277 35.9024 0.0000 2.4992 0.0000
# 3 62.5598 35.9024 140.2560 0.0000 8.2390 0.0000
# 4 0.0000 0.0000 0.0000 30.1357 0.0000 -3.3014
# 5 4.6954 2.4992 8.2390 0.0000 19.0475 0.0000
# 6 0.0000 0.0000 0.0000 -3.3014 0.0000 27.2719
#
#
#
# Elastic Compliance Matrix: (Units=1/GPa)
#
#
# Indices 1 2 3 4 5 6 
#
# 1 0.008464 -0.004006 -0.002727 0.000000 -0.000381 0.000000
# 2 -0.004006 0.027584 -0.005253 0.000000 -0.000360 0.000000
# 3 -0.002727 -0.005253 0.009862 0.000000 -0.002904 0.000000
# 4 0.000000 0.000000 0.000000 0.033629 0.000000 0.004071
# 5 -0.000381 -0.000360 -0.002904 0.000000 0.053898 0.000000
# 6 0.000000 0.000000 0.000000 0.004071 0.000000 0.037161
#
#
# Mechanical properties :
#
#
# Convention : Reuss Voigt Hill
#
# Bulk Modulus (GPa) = 45.58610 67.67354 56.62982
# Shear Modulus (GPa) = 24.76695 29.31030 27.03863
#
# Velocity S-wave (km/s) = 3.66536 3.98740 3.82977
# Velocity P-wave (km/s) = 6.53003 7.60977 7.09049
#
# Compressibility (1/GPa) = 0.02193651
#
# Stress axis : x y z
#
# Youngs Moduli (GPa) = 118.14735 36.25301 101.40434
#
# Poissons Ratio (x) = 0.14524 0.27657
# Poissons Ratio (y) = 0.47334 0.53265
# Poissons Ratio (z) = 0.32223 0.19043
#
# Static dielectric constant tensor:
#      x y z
#    x 3.723450 0.000000 0.060120 
#    y 0.000000 3.325060 0.000000 
#    z 0.060120 0.000000 3.377500 
# 
# 
# High freq. dielectric constant tensor:
#      x y z
#    x 1.725900 0.000000 0.001310 
#    y 0.000000 1.704040 0.000000 
#    z 0.001310 0.000000 1.718010 
# 
# From -- ./inp_files/359652.got.cif
#   From: 2010.06.25/outbox.cif.g09.slc.cpg/sg12_180_cif.got.tgz:359652.got - 2010.06.28 00:19:55.
