data_PCOD8091724
_publ_section_title
;
Structure prediction by ZEFSAII (Michael W. Deem and Ramdas Pophale) SiO2 
 PCOD8091724
Probable space group: C 2/M
;
_chemical_formula_sum "Si O2"
_cell_formula_units_Z 56
_cell_length_a 19.645250
_cell_length_b 8.897676
_cell_length_c 21.086713
_cell_angle_alpha 90.000000
_cell_angle_beta 125.607868
_cell_angle_gamma 90.000000
_cell_volume 2996.709874
_symmetry_space_group_name_H-M "C 2/M"
_symmetry_group_IT_number 12
_symmetry_cell_setting 'monoclinic'
loop_
_space_group_symop_operation_xyz
x,y,z
-x,y,-z
-x,-y,-z
x,-y,z
1/2+x,1/2+y,z
1/2-x,1/2+y,-z
1/2-x,1/2-y,-z
1/2+x,1/2-y,z
loop_
_atom_site_type_symbol
_atom_site_label
_atom_site_fract_x
_atom_site_fract_y
_atom_site_fract_z
Si Si1 0.168188 0.677110 0.642669
Si Si2 0.993296 0.324495 0.371255
Si Si3 0.593605 0.327952 0.051879
Si Si4 0.661769 0.671356 0.949473
Si Si5 0.760241 0.322525 0.802902
Si Si6 0.883571 0.323520 0.195267
Si Si7 0.676000 0.822900 0.500290
O O1 0.175393 0.500000 0.660461
O O2 0.238751 0.762742 0.721126
O O3 0.185908 0.716832 0.579582
O O4 0.075561 0.734088 0.614884
O O5 0.003186 0.500000 0.388386
O O6 0.085646 0.253664 0.430441
O O7 0.962256 0.286935 0.283324
O O8 0.598756 0.500000 0.078597
O O9 0.645686 0.224588 0.128404
O O10 0.500000 0.266113 0.000000
O O11 0.622215 0.312445 0.995903
O O12 0.673560 0.500000 0.934808
O O13 0.600947 0.752165 0.865281
O O14 0.750000 0.750000 0.000000
O O15 0.749838 0.500000 0.799209
O O16 0.700563 0.246731 0.822225
O O17 0.868531 0.500000 0.180996
O O18 0.750000 0.750000 0.500000
O O19 0.679976 0.000000 0.490676
#
# Coordination Sequence:
#
# PCOD8091724 Si02
#       7
#     8   8   8   8   8   8   8
#     4   9  18  35  60  82 104 142 188 227 268 322
#     4   8  16  33  58  82 104 139 187 228 262 314
#     4  10  22  40  58  77 109 152 189 225 272 330
#     4  11  21  34  57  84 111 145 185 230 275 325
#     4  11  21  34  56  84 113 142 180 233 280 325
#     4  10  19  34  57  83 111 144 183 230 276 325
#     4  10  20  36  57  82 113 146 179 220 271 328
#
# _framework density 18.687162000000001
#
# number of rings (size 3 to 8) (size 9 to 14) (size 15 to 20)
#    0.000    2.143    1.429    3.429    0.000    3.143 
#    2.571    3.571    0.000    4.286    0.000    0.000 
#    0.000    0.000    0.000    0.000    0.000    0.000 
#
# Total GULP energy -347164.067104 kJ/mol
# GULP energy per Si atom -12398.716682 kJ/mol
# Density = 1.864463 g / cm^3
# Si number density = 18.687162 Si / 1000 Ang^3
#
#
#
# Elastic Constant Matrix: (Units=GPa)
#
#
# Indices 1 2 3 4 5 6 
#
# 1 98.1269 39.9574 67.1964 0.0000 13.0879 0.0000
# 2 39.9574 86.9767 63.2435 0.0000 1.3959 0.0000
# 3 67.1964 63.2435 146.6326 0.0000 7.2987 0.0000
# 4 0.0000 0.0000 0.0000 29.6797 0.0000 -4.4282
# 5 13.0879 1.3959 7.2987 0.0000 25.7008 0.0000
# 6 0.0000 0.0000 0.0000 -4.4282 0.0000 23.7922
#
#
#
# Elastic Compliance Matrix: (Units=1/GPa)
#
#
# Indices 1 2 3 4 5 6 
#
# 1 0.016311 -0.003189 -0.005776 0.000000 -0.006493 0.000000
# 2 -0.003189 0.017408 -0.006168 0.000000 0.002430 0.000000
# 3 -0.005776 -0.006168 0.012135 0.000000 -0.000170 0.000000
# 4 0.000000 0.000000 0.000000 0.034655 0.000000 0.006450
# 5 -0.006493 0.002430 -0.000170 0.000000 0.042132 0.000000
# 6 0.000000 0.000000 0.000000 0.006450 0.000000 0.043231
#
#
# Mechanical properties :
#
#
# Convention : Reuss Voigt Hill
#
# Bulk Modulus (GPa) = 64.14944 74.72562 69.43753
# Shear Modulus (GPa) = 24.83427 26.59046 25.71237
#
# Velocity S-wave (km/s) = 3.64943 3.77626 3.71339
# Velocity P-wave (km/s) = 7.22221 7.68687 7.45816
#
# Compressibility (1/GPa) = 0.01558860
#
# Stress axis : x y z
#
# Youngs Moduli (GPa) = 61.30902 57.44422 82.40397
#
# Poissons Ratio (x) = 0.18320 0.47596
# Poissons Ratio (y) = 0.19552 0.50825
# Poissons Ratio (z) = 0.35412 0.35430
#
# Static dielectric constant tensor:
#      x y z
#    x 3.250060 0.000000 0.044680 
#    y 0.000000 3.369760 0.000000 
#    z 0.044680 0.000000 3.733950 
# 
# 
# High freq. dielectric constant tensor:
#      x y z
#    x 1.707730 0.000000 -0.000830 
#    y 0.000000 1.710230 0.000000 
#    z -0.000830 0.000000 1.742640 
# 
# From -- ./inp_files/314406.got.cif
#   From: 2010.06.25/outbox.cif.g09.slc.cpg/sg12_158_cif.got.tgz:314406.got - 2010.06.28 00:19:55.
