data_PCOD8091076
_publ_section_title
;
Structure prediction by ZEFSAII (Michael W. Deem and Ramdas Pophale) SiO2 
 PCOD8091076
Probable space group: C 2/M
;
_chemical_formula_sum "Si O2"
_cell_formula_units_Z 64
_cell_length_a 28.506835
_cell_length_b 8.912187
_cell_length_c 13.914360
_cell_angle_alpha 90.000000
_cell_angle_beta 103.625598
_cell_angle_gamma 90.000000
_cell_volume 3435.566671
_symmetry_space_group_name_H-M "C 2/M"
_symmetry_group_IT_number 12
_symmetry_cell_setting 'monoclinic'
loop_
_space_group_symop_operation_xyz
x,y,z
-x,y,-z
-x,-y,-z
x,-y,z
1/2+x,1/2+y,z
1/2-x,1/2+y,-z
1/2-x,1/2-y,-z
1/2+x,1/2-y,z
loop_
_atom_site_type_symbol
_atom_site_label
_atom_site_fract_x
_atom_site_fract_y
_atom_site_fract_z
Si Si1 0.555093 0.676375 0.828493
Si Si2 0.826507 0.175231 0.410842
Si Si3 0.271068 0.678343 0.105772
Si Si4 0.646693 0.672970 0.368139
Si Si5 0.276334 0.171519 0.719840
Si Si6 0.054855 0.827328 0.210495
Si Si7 0.862307 0.677747 0.240760
Si Si8 0.557155 0.832579 0.022267
O O1 0.563890 0.500000 0.820666
O O2 0.499062 0.721533 0.785814
O O3 0.584525 0.767927 0.763261
O O4 0.573586 0.727420 0.942519
O O5 0.841558 0.242123 0.521837
O O6 0.769491 0.199471 0.370877
O O7 0.855220 0.271497 0.346729
O O8 0.840140 0.000000 0.404265
O O9 0.275758 0.500000 0.097473
O O10 0.236112 0.722172 0.177525
O O11 0.323888 0.744772 0.151199
O O12 0.250000 0.750000 0.000000
O O13 0.659854 0.500000 0.379877
O O14 0.678694 0.737345 0.297843
O O15 0.590297 0.700521 0.317572
O O16 0.291974 0.000000 0.726552
O O17 0.076349 0.734105 0.131504
O O18 0.054238 0.000000 0.177641
O O19 0.857614 0.500000 0.229866
O O20 0.578364 0.000000 0.017898
O O21 0.500000 0.836264 0.000000
#
# Coordination Sequence:
#
# PCOD8091076 Si02
#       8
#     8   8   8   8   8   8   8   8
#     4  10  19  34  55  75 102 141 180 219 262 314
#     4   9  19  37  56  76 104 136 173 217 264 317
#     4  10  21  38  57  81 114 147 178 215 259 309
#     4  10  20  34  55  80 105 135 173 218 265 314
#     4   9  19  34  53  78 107 138 172 210 256 312
#     4   9  19  34  51  76 107 139 177 217 262 316
#     4  11  22  36  56  80 104 136 180 223 265 316
#     4   9  17  30  49  73 101 133 169 211 257 305
#
# _framework density 18.628658000000001
#
# number of rings (size 3 to 8) (size 9 to 14) (size 15 to 20)
#    0.000    2.375    0.000    3.375    0.000    6.500 
#    0.000    3.125    0.000    3.750    0.000    0.000 
#    0.000    0.000    0.000    0.000    0.000    0.000 
#
# Total GULP energy -396822.972071 kJ/mol
# GULP energy per Si atom -12400.717877 kJ/mol
# Density = 1.858626 g / cm^3
# Si number density = 18.628658 Si / 1000 Ang^3
#
#
#
# Elastic Constant Matrix: (Units=GPa)
#
#
# Indices 1 2 3 4 5 6 
#
# 1 95.7045 42.8966 54.5787 0.0000 -7.8170 0.0000
# 2 42.8966 85.2532 43.2852 0.0000 -3.4429 0.0000
# 3 54.5787 43.2852 127.8042 0.0000 5.2361 0.0000
# 4 0.0000 0.0000 0.0000 27.3877 0.0000 -5.0609
# 5 -7.8170 -3.4429 5.2361 0.0000 21.6121 0.0000
# 6 0.0000 0.0000 0.0000 -5.0609 0.0000 29.2780
#
#
#
# Elastic Compliance Matrix: (Units=1/GPa)
#
#
# Indices 1 2 3 4 5 6 
#
# 1 0.016470 -0.005218 -0.005531 0.000000 0.006466 0.000000
# 2 -0.005218 0.016078 -0.003277 0.000000 0.001468 0.000000
# 3 -0.005531 -0.003277 0.011514 0.000000 -0.005312 0.000000
# 4 0.000000 0.000000 0.000000 0.037718 0.000000 0.006520
# 5 0.006466 0.001468 -0.005312 0.000000 0.050130 0.000000
# 6 0.000000 0.000000 0.000000 0.006520 0.000000 0.035282
#
#
# Mechanical properties :
#
#
# Convention : Reuss Voigt Hill
#
# Bulk Modulus (GPa) = 62.46124 65.58697 64.02411
# Shear Modulus (GPa) = 24.92743 26.85565 25.89154
#
# Velocity S-wave (km/s) = 3.66200 3.80100 3.73215
# Velocity P-wave (km/s) = 7.17515 7.38563 7.28115
#
# Compressibility (1/GPa) = 0.01600993
#
# Stress axis : x y z
#
# Youngs Moduli (GPa) = 60.71633 62.19500 86.84867
#
# Poissons Ratio (x) = 0.32451 0.48039
# Poissons Ratio (y) = 0.31680 0.28464
# Poissons Ratio (z) = 0.33584 0.20384
#
# Static dielectric constant tensor:
#      x y z
#    x 3.321510 0.000000 -0.010240 
#    y 0.000000 3.446820 0.000000 
#    z -0.010240 0.000000 3.509900 
# 
# 
# High freq. dielectric constant tensor:
#      x y z
#    x 1.712970 0.000000 -0.002710 
#    y 0.000000 1.724540 0.000000 
#    z -0.002710 0.000000 1.720450 
# 
# From -- ./inp_files/244018.got.cif
#   From: 2010.06.25/outbox.cif.g09.slc.cpg/sg12_123_cif.got.tgz:244018.got - 2010.06.28 00:19:55.
