data_PCOD8091059
_publ_section_title
;
Structure prediction by ZEFSAII (Michael W. Deem and Ramdas Pophale) SiO2 
 PCOD8091059
Probable space group: C 2/M
;
_chemical_formula_sum "Si O2"
_cell_formula_units_Z 64
_cell_length_a 12.181701
_cell_length_b 23.806041
_cell_length_c 12.385609
_cell_angle_alpha 90.000000
_cell_angle_beta 113.538977
_cell_angle_gamma 90.000000
_cell_volume 3292.923822
_symmetry_space_group_name_H-M "C 2/M"
_symmetry_group_IT_number 12
_symmetry_cell_setting 'monoclinic'
loop_
_space_group_symop_operation_xyz
x,y,z
-x,y,-z
-x,-y,-z
x,-y,z
1/2+x,1/2+y,z
1/2-x,1/2+y,-z
1/2-x,1/2-y,-z
1/2+x,1/2-y,z
loop_
_atom_site_type_symbol
_atom_site_label
_atom_site_fract_x
_atom_site_fract_y
_atom_site_fract_z
Si Si1 0.612242 0.936118 0.118083
Si Si2 0.838324 0.657693 0.684026
Si Si3 0.399549 0.647550 0.540272
Si Si4 0.228744 0.226171 0.371501
Si Si5 0.237826 0.564017 0.792969
Si Si6 0.561242 0.851702 0.630271
Si Si7 0.664043 0.436402 0.948585
Si Si8 0.045042 0.936347 0.273409
O O1 0.627357 0.889513 0.216359
O O2 0.727175 0.932742 0.089709
O O3 0.597445 0.000000 0.159235
O O4 0.500000 0.919861 0.000000
O O5 0.725786 0.635417 0.569373
O O6 0.804235 0.720082 0.717633
O O7 0.953767 0.673155 0.658200
O O8 0.500000 0.675060 0.500000
O O9 0.378519 0.682431 0.644677
O O10 0.456533 0.590153 0.607830
O O11 0.250000 0.250000 0.500000
O O12 0.343327 0.196738 0.362317
O O13 0.199235 0.500000 0.803229
O O14 0.118729 0.598074 0.720664
O O15 0.322673 0.567842 0.723087
O O16 0.301567 0.591808 0.923279
O O17 0.500000 0.877737 0.500000
O O18 0.627604 0.500000 0.963031
O O19 0.549837 0.407118 0.846424
O O20 0.003080 0.000000 0.274556
#
# Coordination Sequence:
#
# PCOD8091059 Si02
#       8
#     8   8   8   8   8   8   8   8
#     4  10  21  40  63  90 120 154 196 238 297 365
#     4  11  24  37  63  89 117 156 194 247 292 346
#     4  11  22  36  58  88 116 157 203 245 295 350
#     4  10  22  38  58  81 112 152 201 237 285 343
#     4  10  20  35  58  88 120 155 195 239 296 358
#     4  12  21  39  60  86 119 151 198 245 295 349
#     4   9  18  34  57  82 114 158 196 235 281 350
#     4  10  19  34  54  84 123 156 194 245 296 350
#
# _framework density 19.435617000000001
#
# number of rings (size 3 to 8) (size 9 to 14) (size 15 to 20)
#    0.000    1.625    3.750    1.875    3.500    4.000 
#    0.000    0.000    2.750    1.500    0.000    0.000 
#    0.000    0.000    0.000    0.000    0.000    0.000 
#
# Total GULP energy -396487.558566 kJ/mol
# GULP energy per Si atom -12390.236205 kJ/mol
# Density = 1.939138 g / cm^3
# Si number density = 19.435617 Si / 1000 Ang^3
#
#
#
# Elastic Constant Matrix: (Units=GPa)
#
#
# Indices 1 2 3 4 5 6 
#
# 1 107.4442 36.1756 35.0633 0.0000 10.5403 0.0000
# 2 36.1756 94.9111 63.3309 0.0000 8.3733 0.0000
# 3 35.0633 63.3309 106.5068 0.0000 16.7323 0.0000
# 4 0.0000 0.0000 0.0000 24.1018 0.0000 -2.9722
# 5 10.5403 8.3733 16.7323 0.0000 32.2317 0.0000
# 6 0.0000 0.0000 0.0000 -2.9722 0.0000 25.0176
#
#
#
# Elastic Compliance Matrix: (Units=1/GPa)
#
#
# Indices 1 2 3 4 5 6 
#
# 1 0.011014 -0.003004 -0.001520 0.000000 -0.002032 0.000000
# 2 -0.003004 0.018311 -0.010133 0.000000 0.001486 0.000000
# 3 -0.001520 -0.010133 0.016792 0.000000 -0.005588 0.000000
# 4 0.000000 0.000000 0.000000 0.042108 0.000000 0.005003
# 5 -0.002032 0.001486 -0.005588 0.000000 0.034205 0.000000
# 6 0.000000 0.000000 0.000000 0.005003 0.000000 0.040566
#
#
# Mechanical properties :
#
#
# Convention : Reuss Voigt Hill
#
# Bulk Modulus (GPa) = 59.51138 64.22243 61.86691
# Shear Modulus (GPa) = 25.26371 27.88970 26.57670
#
# Velocity S-wave (km/s) = 3.60928 3.79222 3.70188
# Velocity P-wave (km/s) = 6.93220 7.23118 7.08327
#
# Compressibility (1/GPa) = 0.01680351
#
# Stress axis : x y z
#
# Youngs Moduli (GPa) = 90.79199 54.61095 59.55052
#
# Poissons Ratio (x) = 0.16407 0.09053
# Poissons Ratio (y) = 0.27277 0.60340
# Poissons Ratio (z) = 0.13803 0.55335
#
# Static dielectric constant tensor:
#      x y z
#    x 3.644880 0.000000 0.072240 
#    y 0.000000 3.987450 0.000000 
#    z 0.072240 0.000000 3.509110 
# 
# 
# High freq. dielectric constant tensor:
#      x y z
#    x 1.774320 0.000000 0.005940 
#    y 0.000000 1.737300 0.000000 
#    z 0.005940 0.000000 1.741410 
# 
# From -- ./inp_files/135954.got.cif
#   From: 2010.06.25/outbox.cif.g09.slc.cpg/sg12_68_cif.got.tgz:135954.got - 2010.06.28 00:19:55.
