data_PCOD8091791
_publ_section_title
;
Structure prediction by ZEFSAII (Michael W. Deem and Ramdas Pophale) SiO2 
 PCOD8091791
Probable space group: C 2/M
;
_chemical_formula_sum "Si O2"
_cell_formula_units_Z 64
_cell_length_a 11.850256
_cell_length_b 19.885317
_cell_length_c 18.070114
_cell_angle_alpha 90.000000
_cell_angle_beta 126.529530
_cell_angle_gamma 90.000000
_cell_volume 3421.638696
_symmetry_space_group_name_H-M "C 2/M"
_symmetry_group_IT_number 12
_symmetry_cell_setting 'monoclinic'
loop_
_space_group_symop_operation_xyz
x,y,z
-x,y,-z
-x,-y,-z
x,-y,z
1/2+x,1/2+y,z
1/2-x,1/2+y,-z
1/2-x,1/2-y,-z
1/2+x,1/2-y,z
loop_
_atom_site_type_symbol
_atom_site_label
_atom_site_fract_x
_atom_site_fract_y
_atom_site_fract_z
Si Si1 0.299297 0.425629 0.060147
Si Si2 0.151565 0.579314 0.860778
Si Si3 0.431890 0.626503 0.900345
Si Si4 0.436984 0.793663 0.398241
Si Si5 0.075193 0.079266 0.744415
Si Si6 0.114627 0.812253 0.265909
Si Si7 0.391281 0.641926 0.396138
Si Si8 0.573833 0.167795 0.305592
O O1 0.240940 0.500000 0.044702
O O2 0.456955 0.428108 0.087352
O O3 0.307888 0.396338 0.147891
O O4 0.193182 0.391056 0.959284
O O5 0.120621 0.500000 0.850692
O O6 0.281477 0.592264 0.856016
O O7 0.011761 0.616476 0.779286
O O8 0.418439 0.684739 0.834281
O O9 0.500000 0.659984 0.000000
O O10 0.500000 0.816410 0.500000
O O11 0.278522 0.815644 0.339957
O O12 0.451033 0.713403 0.391344
O O13 0.518687 0.835039 0.367598
O O14 0.124987 0.092444 0.680271
O O15 0.938566 0.123869 0.707800
O O16 0.042427 0.000000 0.741920
O O17 0.046632 0.742939 0.266099
O O18 0.500000 0.612442 0.500000
O O19 0.237558 0.648876 0.371724
#
# Coordination Sequence:
#
# PCOD8091791 Si02
#       8
#     8   8   8   8   8   8   8   8
#     4   8  16  31  54  82 111 152 192 224 269 336
#     4  10  19  34  57  85 116 145 185 235 287 335
#     4   9  16  30  53  83 114 148 184 229 283 332
#     4  10  21  37  62  85 107 144 190 239 288 336
#     4  10  20  37  59  83 117 154 193 229 270 333
#     4  10  20  36  58  84 114 145 192 237 278 337
#     4  10  23  38  60  83 111 152 193 234 277 338
#     4  11  22  38  59  86 115 146 187 235 288 339
#
# _framework density 18.704488000000001
#
# number of rings (size 3 to 8) (size 9 to 14) (size 15 to 20)
#    0.000    2.250    2.500    0.375    1.750    4.250 
#    0.000    8.750    0.000    3.000    0.000    0.000 
#    0.000    0.000    0.000    0.000    0.000    0.000 
#
# Total GULP energy -396514.085128 kJ/mol
# GULP energy per Si atom -12391.065160 kJ/mol
# Density = 1.866192 g / cm^3
# Si number density = 18.704488 Si / 1000 Ang^3
#
#
#
# Elastic Constant Matrix: (Units=GPa)
#
#
# Indices 1 2 3 4 5 6 
#
# 1 61.6344 34.0416 54.7711 0.0000 -4.6172 0.0000
# 2 34.0416 73.9141 46.3220 0.0000 -4.2352 0.0000
# 3 54.7711 46.3220 148.1957 0.0000 -11.4010 0.0000
# 4 0.0000 0.0000 0.0000 25.9427 0.0000 -3.0570
# 5 -4.6172 -4.2352 -11.4010 0.0000 31.2522 0.0000
# 6 0.0000 0.0000 0.0000 -3.0570 0.0000 17.0891
#
#
#
# Elastic Compliance Matrix: (Units=1/GPa)
#
#
# Indices 1 2 3 4 5 6 
#
# 1 0.027343 -0.007783 -0.007658 0.000000 0.000191 0.000000
# 2 -0.007783 0.019044 -0.003052 0.000000 0.000318 0.000000
# 3 -0.007658 -0.003052 0.010714 0.000000 0.002364 0.000000
# 4 0.000000 0.000000 0.000000 0.039377 0.000000 0.007044
# 5 0.000191 0.000318 0.002364 0.000000 0.032931 0.000000
# 6 0.000000 0.000000 0.000000 0.007044 0.000000 0.059777
#
#
# Mechanical properties :
#
#
# Convention : Reuss Voigt Hill
#
# Bulk Modulus (GPa) = 49.71236 61.55707 55.63472
# Shear Modulus (GPa) = 21.47055 24.76409 23.11732
#
# Velocity S-wave (km/s) = 3.39172 3.64258 3.51938
# Velocity P-wave (km/s) = 6.47872 7.11849 6.80613
#
# Compressibility (1/GPa) = 0.02011572
#
# Stress axis : x y z
#
# Youngs Moduli (GPa) = 36.57255 52.50876 93.33568
#
# Poissons Ratio (x) = 0.40865 0.71479
# Poissons Ratio (y) = 0.28463 0.28486
# Poissons Ratio (z) = 0.28008 0.16026
#
# Static dielectric constant tensor:
#      x y z
#    x 3.309520 0.000000 -0.175370 
#    y 0.000000 3.230500 0.000000 
#    z -0.175370 0.000000 3.675900 
# 
# 
# High freq. dielectric constant tensor:
#      x y z
#    x 1.717320 0.000000 -0.011170 
#    y 0.000000 1.695610 0.000000 
#    z -0.011170 0.000000 1.742470 
# 
# From -- ./inp_files/265108.got.cif
#   From: 2010.06.25/outbox.cif.g09.slc.cpg/sg12_133_cif.got.tgz:265108.got - 2010.06.28 00:19:55.
