data_PCOD8091571
_publ_section_title
;
Structure prediction by ZEFSAII (Michael W. Deem and Ramdas Pophale) SiO2 
 PCOD8091571
Probable space group: C 2/M
;
_chemical_formula_sum "Si O2"
_cell_formula_units_Z 40
_cell_length_a 31.699536
_cell_length_b 8.601154
_cell_length_c 12.842032
_cell_angle_alpha 90.000000
_cell_angle_beta 144.493161
_cell_angle_gamma 90.000000
_cell_volume 2033.621287
_symmetry_space_group_name_H-M "C 2/M"
_symmetry_group_IT_number 12
_symmetry_cell_setting 'monoclinic'
loop_
_space_group_symop_operation_xyz
x,y,z
-x,y,-z
-x,-y,-z
x,-y,z
1/2+x,1/2+y,z
1/2-x,1/2+y,-z
1/2-x,1/2-y,-z
1/2+x,1/2-y,z
loop_
_atom_site_type_symbol
_atom_site_label
_atom_site_fract_x
_atom_site_fract_y
_atom_site_fract_z
Si Si1 0.168965 0.314956 0.647048
Si Si2 0.579102 0.183214 0.269420
Si Si3 0.666966 0.318698 0.029438
Si Si4 0.581424 0.816252 0.668527
Si Si5 0.575729 0.680413 0.045295
O O1 0.167867 0.500000 0.645281
O O2 0.128605 0.253535 0.462868
O O3 0.251340 0.252968 0.813336
O O4 0.128143 0.247144 0.666531
O O5 0.605738 0.268047 0.218052
O O6 0.587465 0.000000 0.270931
O O7 0.495642 0.221905 0.127458
O O8 0.664082 0.500000 0.996113
O O9 0.638213 0.284980 0.087430
O O10 0.617032 0.228219 0.848662
O O11 0.500000 0.746914 0.500000
O O12 0.578492 0.000000 0.652861
O O13 0.554258 0.500000 0.004616
#
# Coordination Sequence:
#
# PCOD8091571 Si02
#       5
#     8   8   8   8   8
#     4   9  19  35  53  76 106 136 169 213 260 302
#     4  10  19  34  57  78 100 135 176 213 252 303
#     4  10  21  36  53  75 106 140 170 207 258 309
#     4  10  20  35  56  79 103 133 172 216 256 299
#     4  10  20  34  52  76 107 137 169 213 258 300
#
# _framework density 19.669345
#
# number of rings (size 3 to 8) (size 9 to 14) (size 15 to 20)
#    0.000    2.200    0.000    4.200    0.000    4.400 
#    0.000    4.000    0.000    0.000    0.000    0.000 
#    0.000    0.000    0.000    0.000    0.000    0.000 
#
# Total GULP energy -248048.494887 kJ/mol
# GULP energy per Si atom -12402.424744 kJ/mol
# Density = 1.962458 g / cm^3
# Si number density = 19.669345 Si / 1000 Ang^3
#
#
#
# Elastic Constant Matrix: (Units=GPa)
#
#
# Indices 1 2 3 4 5 6 
#
# 1 167.2604 20.6824 67.2695 0.0000 7.3734 0.0000
# 2 20.6824 21.6624 15.5335 0.0000 -3.0264 0.0000
# 3 67.2695 15.5335 113.0462 0.0000 1.7022 0.0000
# 4 0.0000 0.0000 0.0000 15.5082 0.0000 -5.9658
# 5 7.3734 -3.0264 1.7022 0.0000 32.9119 0.0000
# 6 0.0000 0.0000 0.0000 -5.9658 0.0000 20.3985
#
#
#
# Elastic Compliance Matrix: (Units=1/GPa)
#
#
# Indices 1 2 3 4 5 6 
#
# 1 0.008445 -0.005307 -0.004263 0.000000 -0.002159 0.000000
# 2 -0.005307 0.055406 -0.004553 0.000000 0.006519 0.000000
# 3 -0.004263 -0.004553 0.012010 0.000000 -0.000085 0.000000
# 4 0.000000 0.000000 0.000000 0.072656 0.000000 0.021249
# 5 -0.002159 0.006519 -0.000085 0.000000 0.031472 0.000000
# 6 0.000000 0.000000 0.000000 0.021249 0.000000 0.055238
#
#
# Mechanical properties :
#
#
# Convention : Reuss Voigt Hill
#
# Bulk Modulus (GPa) = 21.00282 56.54886 38.77584
# Shear Modulus (GPa) = 17.89900 26.99597 22.44749
#
# Velocity S-wave (km/s) = 3.01988 3.70873 3.38189
# Velocity P-wave (km/s) = 4.78129 6.86671 5.91661
#
# Compressibility (1/GPa) = 0.04761265
#
# Stress axis : x y z
#
# Youngs Moduli (GPa) = 118.41544 18.04864 83.26489
#
# Poissons Ratio (x) = 0.09579 0.35499
# Poissons Ratio (y) = 0.62847 0.37912
# Poissons Ratio (z) = 0.50485 0.08218
#
# Static dielectric constant tensor:
#      x y z
#    x 3.841960 0.000000 0.008100 
#    y 0.000000 3.320660 0.000000 
#    z 0.008100 0.000000 3.656280 
# 
# 
# High freq. dielectric constant tensor:
#      x y z
#    x 1.780650 0.000000 -0.005140 
#    y 0.000000 1.742730 0.000000 
#    z -0.005140 0.000000 1.770960 
# 
# From -- ./inp_files/186186.got.cif
#   From: 2010.06.25/outbox.cif.g09.slc.cpg/sg12_94_cif.got.tgz:186186.got - 2010.06.28 00:19:55.
