data_PCOD8091163
_publ_section_title
;
Structure prediction by ZEFSAII (Michael W. Deem and Ramdas Pophale) SiO2 
 PCOD8091163
Probable space group: C 2/M
;
_chemical_formula_sum "Si O2"
_cell_formula_units_Z 64
_cell_length_a 19.780720
_cell_length_b 9.301376
_cell_length_c 35.142250
_cell_angle_alpha 90.000000
_cell_angle_beta 147.725274
_cell_angle_gamma 90.000000
_cell_volume 3452.577181
_symmetry_space_group_name_H-M "C 2/M"
_symmetry_group_IT_number 12
_symmetry_cell_setting 'monoclinic'
loop_
_space_group_symop_operation_xyz
x,y,z
-x,y,-z
-x,-y,-z
x,-y,z
1/2+x,1/2+y,z
1/2-x,1/2+y,-z
1/2-x,1/2-y,-z
1/2+x,1/2-y,z
loop_
_atom_site_type_symbol
_atom_site_label
_atom_site_fract_x
_atom_site_fract_y
_atom_site_fract_z
Si Si1 0.447023 0.668917 0.293880
Si Si2 0.945184 0.330059 0.795874
Si Si3 0.608643 0.668761 0.525257
Si Si4 0.379939 0.171493 0.681543
Si Si5 0.780380 0.665719 0.052195
Si Si6 0.521679 0.334042 0.967706
Si Si7 0.337877 0.829995 0.824114
Si Si8 0.377298 0.333298 0.553321
O O1 0.460156 0.500000 0.291818
O O2 0.505308 0.757106 0.286838
O O3 0.301850 0.716167 0.229547
O O4 0.516435 0.711976 0.366061
O O5 0.943592 0.500000 0.793941
O O6 0.886761 0.273976 0.728443
O O7 0.862545 0.275992 0.792550
O O8 0.089473 0.274117 0.868041
O O9 0.500000 0.739314 0.500000
O O10 0.613606 0.500000 0.535500
O O11 0.747346 0.730239 0.601566
O O12 0.571696 0.705100 0.464375
O O13 0.393539 0.000000 0.684356
O O14 0.795661 0.500000 0.047942
O O15 0.750000 0.750000 0.000000
O O16 0.669918 0.688468 0.030200
O O17 0.481228 0.500000 0.944081
O O18 0.439478 0.241630 0.899803
O O19 0.500000 0.278031 0.000000
O O20 0.356545 0.000000 0.835591
O O21 0.343488 0.500000 0.540199
O O22 0.250000 0.250000 0.500000
#
# Coordination Sequence:
#
# PCOD8091163 Si02
#       8
#     8   8   8   8   8   8   8   8
#     4  10  22  36  53  78 112 145 174 219 273 321
#     4   9  19  34  55  79 104 135 177 224 263 311
#     4   9  18  31  52  82 108 133 177 227 263 304
#     4  10  20  35  57  81 105 140 183 221 262 317
#     4  10  19  35  56  78 103 137 176 219 270 314
#     4  10  22  37  56  82 111 140 177 225 273 316
#     4  10  21  38  56  78 108 144 182 218 268 322
#     4  10  19  34  55  79 107 140 178 222 268 314
#
# _framework density 18.536878000000002
#
# number of rings (size 3 to 8) (size 9 to 14) (size 15 to 20)
#    0.000    2.250    2.500    0.000    3.500    0.750 
#    0.000    1.250    0.000    1.500    0.000    0.000 
#    0.000    0.000    0.000    0.000    0.000    0.000 
#
# Total GULP energy -396801.682170 kJ/mol
# GULP energy per Si atom -12400.052568 kJ/mol
# Density = 1.849469 g / cm^3
# Si number density = 18.536878 Si / 1000 Ang^3
#
#
#
# Elastic Constant Matrix: (Units=GPa)
#
#
# Indices 1 2 3 4 5 6 
#
# 1 150.7099 29.4664 48.3237 0.0002 -0.9941 -0.0004
# 2 29.4664 25.3320 18.9398 0.0006 0.3358 -0.0011
# 3 48.3237 18.9398 88.5518 0.0001 -0.7513 0.0000
# 4 0.0002 0.0006 0.0001 24.7661 -0.0001 0.5124
# 5 -0.9941 0.3358 -0.7513 -0.0001 40.9093 0.0002
# 6 -0.0004 -0.0011 0.0000 0.5124 0.0002 25.7618
#
#
#
# Elastic Compliance Matrix: (Units=1/GPa)
#
#
# Indices 1 2 3 4 5 6 
#
# 1 0.009336 -0.008398 -0.003296 0.000000 0.000235 0.000000
# 2 -0.008398 0.054558 -0.007093 -0.000001 -0.000782 0.000002
# 3 -0.003296 -0.007093 0.014611 0.000000 0.000246 0.000000
# 4 0.000000 -0.000001 0.000000 0.040394 0.000000 -0.000803
# 5 0.000235 -0.000782 0.000246 0.000000 0.024461 0.000000
# 6 0.000000 0.000002 0.000000 -0.000803 0.000000 0.038833
#
#
# Mechanical properties :
#
#
# Convention : Reuss Voigt Hill
#
# Bulk Modulus (GPa) = 24.43201 50.89485 37.66343
# Shear Modulus (GPa) = 21.42150 29.47836 25.44993
#
# Velocity S-wave (km/s) = 3.40312 3.99213 3.70933
# Velocity P-wave (km/s) = 5.35261 6.98320 6.22156
#
# Compressibility (1/GPa) = 0.04092991
#
# Stress axis : x y z
#
# Youngs Moduli (GPa) = 107.11545 18.32924 68.44225
#
# Poissons Ratio (x) = 0.15393 0.22562
# Poissons Ratio (y) = 0.89954 0.48545
# Poissons Ratio (z) = 0.35310 0.13001
#
# Static dielectric constant tensor:
#      x y z
#    x 3.900630 0.000000 0.213320 
#    y 0.000000 3.098870 0.000000 
#    z 0.213320 0.000000 3.659850 
# 
# 
# High freq. dielectric constant tensor:
#      x y z
#    x 1.735140 0.000000 0.000270 
#    y 0.000000 1.681780 0.000000 
#    z 0.000270 0.000000 1.728370 
# 
# From -- ./inp_files/376117.got.cif
#   From: 2010.06.25/outbox.cif.g09.slc.cpg/sg12_189_cif.got.tgz:376117.got - 2010.06.28 00:19:55.
