data_PCOD8091564
_publ_section_title
;
Structure prediction by ZEFSAII (Michael W. Deem and Ramdas Pophale) SiO2 
 PCOD8091564
Probable space group: C 2/M
;
_chemical_formula_sum "Si O2"
_cell_formula_units_Z 56
_cell_length_a 14.589462
_cell_length_b 20.586571
_cell_length_c 14.333962
_cell_angle_alpha 90.000000
_cell_angle_beta 140.316903
_cell_angle_gamma 90.000000
_cell_volume 2749.021884
_symmetry_space_group_name_H-M "C 2/M"
_symmetry_group_IT_number 12
_symmetry_cell_setting 'monoclinic'
loop_
_space_group_symop_operation_xyz
x,y,z
-x,y,-z
-x,-y,-z
x,-y,z
1/2+x,1/2+y,z
1/2-x,1/2+y,-z
1/2-x,1/2-y,-z
1/2+x,1/2-y,z
loop_
_atom_site_type_symbol
_atom_site_label
_atom_site_fract_x
_atom_site_fract_y
_atom_site_fract_z
Si Si1 0.589218 0.928444 0.162348
Si Si2 0.616519 0.120044 0.657128
Si Si3 0.163587 0.570512 0.900183
Si Si4 0.407927 0.322293 0.838577
Si Si5 0.304521 0.801295 0.677373
Si Si6 0.841270 0.187888 0.104354
Si Si7 0.971141 0.741513 0.626121
O O1 0.491987 0.933623 0.177550
O O2 0.701573 0.872151 0.278567
O O3 0.662033 0.000000 0.203311
O O4 0.500000 0.908941 0.000000
O O5 0.500000 0.081369 0.500000
O O6 0.651049 0.084952 0.780812
O O7 0.768298 0.130763 0.722421
O O8 0.538259 0.188134 0.612570
O O9 0.240523 0.500000 0.970262
O O10 0.245371 0.624023 0.025818
O O11 0.355287 0.247807 0.798416
O O12 0.513782 0.331849 0.835865
O O13 0.500000 0.339970 0.000000
O O14 0.147482 0.782655 0.520169
O O15 0.413615 0.794548 0.674929
O O16 0.900008 0.207438 0.251804
O O17 0.750000 0.250000 0.000000
#
# Coordination Sequence:
#
# PCOD8091564 Si02
#       7
#     8   8   8   8   8   8   8
#     4  10  21  38  62  89 118 161 213 257 308 376
#     4  12  22  39  60  93 129 162 205 249 310 383
#     4  11  23  41  62  86 127 170 205 257 316 369
#     4  11  20  32  58  90 118 158 206 255 306 360
#     4  10  19  34  56  88 120 154 203 258 313 353
#     4  11  20  37  61  85 119 162 210 260 306 359
#     4  10  20  34  56  86 122 159 197 258 309 365
#
# _framework density 20.370882000000002
#
# number of rings (size 3 to 8) (size 9 to 14) (size 15 to 20)
#    0.000    1.286    5.714    1.286    0.000    1.429 
#    0.000    2.143    0.000    0.000    0.000    5.000 
#    0.000    0.000    0.000    0.000    0.000    0.000 
#
# Total GULP energy -346872.090361 kJ/mol
# GULP energy per Si atom -12388.288941 kJ/mol
# Density = 2.032452 g / cm^3
# Si number density = 20.370882 Si / 1000 Ang^3
#
#
#
# Elastic Constant Matrix: (Units=GPa)
#
#
# Indices 1 2 3 4 5 6 
#
# 1 50.8770 -5.5283 -4.6500 0.0000 10.5431 0.0000
# 2 -5.5283 114.6975 34.4608 0.0000 2.3058 0.0000
# 3 -4.6500 34.4608 96.0697 0.0000 9.1027 0.0000
# 4 0.0000 0.0000 0.0000 26.2453 0.0000 -4.0710
# 5 10.5431 2.3058 9.1027 0.0000 27.8903 0.0000
# 6 0.0000 0.0000 0.0000 -4.0710 0.0000 24.9626
#
#
#
# Elastic Compliance Matrix: (Units=1/GPa)
#
#
# Indices 1 2 3 4 5 6 
#
# 1 0.021706 0.000736 0.001620 0.000000 -0.008795 0.000000
# 2 0.000736 0.009800 -0.003484 0.000000 0.000049 0.000000
# 3 0.001620 -0.003484 0.012144 0.000000 -0.004288 0.000000
# 4 0.000000 0.000000 0.000000 0.039091 0.000000 0.006375
# 5 -0.008795 0.000049 -0.004288 0.000000 0.040575 0.000000
# 6 0.000000 0.000000 0.000000 0.006375 0.000000 0.041100
#
#
# Mechanical properties :
#
#
# Convention : Reuss Voigt Hill
#
# Bulk Modulus (GPa) = 24.15861 34.46769 29.31315
# Shear Modulus (GPa) = 27.70567 31.64377 29.67472
#
# Velocity S-wave (km/s) = 3.69190 3.94557 3.82084
# Velocity P-wave (km/s) = 5.48258 6.14114 5.82118
#
# Compressibility (1/GPa) = 0.04139311
#
# Stress axis : x y z
#
# Youngs Moduli (GPa) = 46.07055 102.04140 82.34795
#
# Poissons Ratio (x) = -0.07514 -0.13339
# Poissons Ratio (y) = -0.03392 0.28692
# Poissons Ratio (z) = -0.07462 0.35554
#
# Static dielectric constant tensor:
#      x y z
#    x 3.382520 0.000000 0.389500 
#    y 0.000000 3.825430 0.000000 
#    z 0.389500 0.000000 3.463960 
# 
# 
# High freq. dielectric constant tensor:
#      x y z
#    x 1.793690 0.000000 -0.007680 
#    y 0.000000 1.774310 0.000000 
#    z -0.007680 0.000000 1.798870 
# 
# From -- ./inp_files/217729.got.cif
#   From: 2010.06.25/outbox.cif.g09.slc.cpg/sg12_109_cif.got.tgz:217729.got - 2010.06.28 00:19:55.
