data_PCOD8091398
_publ_section_title
;
Structure prediction by ZEFSAII (Michael W. Deem and Ramdas Pophale) SiO2 
 PCOD8091398
Probable space group: C 2/M
;
_chemical_formula_sum "Si O2"
_cell_formula_units_Z 40
_cell_length_a 24.206133
_cell_length_b 12.919301
_cell_length_c 19.666499
_cell_angle_alpha 90.000000
_cell_angle_beta 19.608685
_cell_angle_gamma 90.000000
_cell_volume 2063.983142
_symmetry_space_group_name_H-M "C 2/M"
_symmetry_group_IT_number 12
_symmetry_cell_setting 'monoclinic'
loop_
_space_group_symop_operation_xyz
x,y,z
-x,y,-z
-x,-y,-z
x,-y,z
1/2+x,1/2+y,z
1/2-x,1/2+y,-z
1/2-x,1/2-y,-z
1/2+x,1/2-y,z
loop_
_atom_site_type_symbol
_atom_site_label
_atom_site_fract_x
_atom_site_fract_y
_atom_site_fract_z
Si Si1 0.000222 0.617820 0.901891
Si Si2 0.410415 0.257137 0.734844
Si Si3 0.892795 0.619389 0.877462
Si Si4 0.689927 0.113874 0.263821
Si Si5 0.758525 0.712573 0.277373
O O1 0.056469 0.500000 0.849555
O O2 0.132489 0.696660 0.781360
O O3 0.991530 0.641112 0.832273
O O4 0.822506 0.634207 0.144370
O O5 0.298933 0.350351 0.891900
O O6 0.295524 0.185267 0.820009
O O7 0.566050 0.307463 0.515724
O O8 0.475885 0.187079 0.721596
O O9 0.901933 0.500000 0.845829
O O10 0.500000 0.099495 0.500000
O O11 0.779108 0.170577 0.224063
O O12 0.770248 0.000000 0.159336
#
# Coordination Sequence:
#
# PCOD8091398 Si02
#       5
#     8   8   8   8   8
#     4  10  21  37  56  81 114 145 178 223 276 324
#     4  10  20  35  56  81 110 140 185 230 264 325
#     4  10  21  36  56  80 109 146 181 223 277 324
#     4   9  17  31  53  79 106 138 177 222 269 316
#     4  10  19  34  56  80 110 145 182 219 272 319
#
# _framework density 19.380002999999999
#
# number of rings (size 3 to 8) (size 9 to 14) (size 15 to 20)
#    0.000    2.200    2.000    1.800    0.000    3.200 
#    0.000    4.000    0.000    0.000    0.000    0.000 
#    0.000    0.000    0.000    0.000    0.000    0.000 
#
# Total GULP energy -247897.702717 kJ/mol
# GULP energy per Si atom -12394.885136 kJ/mol
# Density = 1.933589 g / cm^3
# Si number density = 19.380003 Si / 1000 Ang^3
#
#
#
# Elastic Constant Matrix: (Units=GPa)
#
#
# Indices 1 2 3 4 5 6 
#
# 1 114.4294 55.3515 12.9254 -0.0007 -1.2749 0.0006
# 2 55.3515 84.4298 12.9770 -0.0004 -13.7587 -0.0002
# 3 12.9254 12.9770 49.7952 -0.0001 -2.3184 0.0000
# 4 -0.0007 -0.0004 -0.0001 19.0987 -0.0005 3.6989
# 5 -1.2749 -13.7587 -2.3184 -0.0005 20.4338 -0.0003
# 6 0.0006 -0.0002 0.0000 3.6989 -0.0003 34.1478
#
#
#
# Elastic Compliance Matrix: (Units=1/GPa)
#
#
# Indices 1 2 3 4 5 6 
#
# 1 0.013437 -0.009549 -0.001266 0.000000 -0.005735 0.000000
# 2 -0.009549 0.020573 -0.002278 0.000000 0.012998 0.000000
# 3 -0.001266 -0.002278 0.021041 0.000000 0.000775 0.000000
# 4 0.000000 0.000000 0.000000 0.053482 0.000002 -0.005793
# 5 -0.005735 0.012998 0.000775 0.000002 0.057421 0.000000
# 6 0.000000 0.000000 0.000000 -0.005793 0.000000 0.029912
#
#
# Mechanical properties :
#
#
# Convention : Reuss Voigt Hill
#
# Bulk Modulus (GPa) = 34.64484 45.68468 40.16476
# Shear Modulus (GPa) = 21.58213 25.89609 23.73911
#
# Velocity S-wave (km/s) = 3.34073 3.65941 3.50369
# Velocity P-wave (km/s) = 5.72678 6.44044 6.09407
#
# Compressibility (1/GPa) = 0.02886432
#
# Stress axis : x y z
#
# Youngs Moduli (GPa) = 74.41929 48.60753 47.52727
#
# Poissons Ratio (x) = 0.46417 0.06018
# Poissons Ratio (y) = 0.71066 0.10824
# Poissons Ratio (z) = 0.09424 0.11071
#
# Static dielectric constant tensor:
#      x y z
#    x 3.623410 0.000000 0.178920 
#    y 0.000000 3.709760 0.000000 
#    z 0.178920 0.000000 3.248490 
# 
# 
# High freq. dielectric constant tensor:
#      x y z
#    x 1.760640 0.000000 0.017200 
#    y 0.000000 1.750960 0.000000 
#    z 0.017200 0.000000 1.721920 
# 
# From -- ./inp_files/102342.got.cif
#   From: 2010.06.25/outbox.cif.g09.slc.cpg/sg12_52_cif.got.tgz:102342.got - 2010.06.28 00:19:55.
