data_PCOD8091108
_publ_section_title
;
Structure prediction by ZEFSAII (Michael W. Deem and Ramdas Pophale) SiO2 
 PCOD8091108
Probable space group: C 2/M
;
_chemical_formula_sum "Si O2"
_cell_formula_units_Z 64
_cell_length_a 20.253889
_cell_length_b 9.319429
_cell_length_c 18.907713
_cell_angle_alpha 90.000000
_cell_angle_beta 90.692879
_cell_angle_gamma 90.000000
_cell_volume 3568.658368
_symmetry_space_group_name_H-M "C 2/M"
_symmetry_group_IT_number 12
_symmetry_cell_setting 'monoclinic'
loop_
_space_group_symop_operation_xyz
x,y,z
-x,y,-z
-x,-y,-z
x,-y,z
1/2+x,1/2+y,z
1/2-x,1/2+y,-z
1/2-x,1/2-y,-z
1/2+x,1/2-y,z
loop_
_atom_site_type_symbol
_atom_site_label
_atom_site_fract_x
_atom_site_fract_y
_atom_site_fract_z
Si Si1 0.951295 0.333829 0.713702
Si Si2 0.051861 0.328958 0.443913
Si Si3 0.372037 0.666546 0.088045
Si Si4 0.738358 0.170165 0.834748
Si Si5 0.800256 0.666355 0.549149
Si Si6 0.297702 0.836609 0.711848
Si Si7 0.987052 0.834222 0.845043
Si Si8 0.137751 0.169759 0.071050
O O1 0.969235 0.500000 0.721978
O O2 0.969212 0.278489 0.634985
O O3 0.874355 0.305771 0.727205
O O4 0.994537 0.246477 0.770491
O O5 0.053034 0.500000 0.444608
O O6 0.125519 0.274319 0.463372
O O7 0.000000 0.265963 0.500000
O O8 0.351260 0.500000 0.094136
O O9 0.329648 0.760601 0.141188
O O10 0.448302 0.688521 0.107452
O O11 0.360685 0.727833 0.008977
O O12 0.754103 0.227750 0.756892
O O13 0.795900 0.219934 0.889062
O O14 0.731051 0.000000 0.831514
O O15 0.796437 0.500000 0.529100
O O16 0.750000 0.750000 0.500000
O O17 0.780263 0.691209 0.630101
O O18 0.280531 0.000000 0.732694
O O19 0.925752 0.768171 0.888385
O O20 0.974729 0.000000 0.827286
O O21 0.131013 0.000000 0.068652
#
# Coordination Sequence:
#
# PCOD8091108 Si02
#       8
#     8   8   8   8   8   8   8   8
#     4   9  17  31  54  79 102 134 174 215 252 298
#     4   8  15  31  54  77 102 134 172 206 245 304
#     4  10  21  36  53  74 106 143 170 206 264 322
#     4  11  21  34  54  79 105 131 172 227 263 298
#     4   9  18  33  54  79 106 136 172 211 252 302
#     4   9  18  34  54  75 103 142 179 209 252 313
#     4  10  19  34  55  77 103 136 174 214 254 306
#     4   9  18  34  56  78  98 132 180 216 252 308
#
# _framework density 17.933910000000001
#
# number of rings (size 3 to 8) (size 9 to 14) (size 15 to 20)
#    0.000    2.625    1.250    2.625    0.000    2.500 
#    2.250    3.125    0.000    2.250    0.000    0.000 
#    0.000    0.000    0.000    0.000    0.000    0.000 
#
# Total GULP energy -396806.258330 kJ/mol
# GULP energy per Si atom -12400.195573 kJ/mol
# Density = 1.789309 g / cm^3
# Si number density = 17.933910 Si / 1000 Ang^3
#
#
#
# Elastic Constant Matrix: (Units=GPa)
#
#
# Indices 1 2 3 4 5 6 
#
# 1 67.6676 31.1715 37.5522 0.0000 -9.7406 0.0000
# 2 31.1715 53.4319 39.3326 0.0000 -2.1247 0.0000
# 3 37.5522 39.3326 107.1399 0.0000 -7.8045 0.0000
# 4 0.0000 0.0000 0.0000 29.2702 0.0000 4.1287
# 5 -9.7406 -2.1247 -7.8045 0.0000 33.2544 0.0000
# 6 0.0000 0.0000 0.0000 4.1287 0.0000 24.0330
#
#
#
# Elastic Compliance Matrix: (Units=1/GPa)
#
#
# Indices 1 2 3 4 5 6 
#
# 1 0.022169 -0.009979 -0.003744 0.000000 0.004977 0.000000
# 2 -0.009979 0.030149 -0.007776 0.000000 -0.002822 0.000000
# 3 -0.003744 -0.007776 0.013617 0.000000 0.001602 0.000000
# 4 0.000000 0.000000 0.000000 0.035013 0.000000 -0.006015
# 5 0.004977 -0.002822 0.001602 0.000000 0.031725 0.000000
# 6 0.000000 0.000000 0.000000 -0.006015 0.000000 0.042643
#
#
# Mechanical properties :
#
#
# Convention : Reuss Voigt Hill
#
# Bulk Modulus (GPa) = 43.59783 49.37246 46.48515
# Shear Modulus (GPa) = 22.12770 25.32373 23.72572
#
# Velocity S-wave (km/s) = 3.51643 3.76181 3.64119
# Velocity P-wave (km/s) = 6.39141 6.81603 6.60713
#
# Compressibility (1/GPa) = 0.02293692
#
# Stress axis : x y z
#
# Youngs Moduli (GPa) = 45.10709 33.16849 73.43576
#
# Poissons Ratio (x) = 0.33100 0.27496
# Poissons Ratio (y) = 0.45013 0.57104
# Poissons Ratio (z) = 0.16889 0.25792
#
# Static dielectric constant tensor:
#      x y z
#    x 3.256440 0.000000 -0.102140 
#    y 0.000000 3.015040 0.000000 
#    z -0.102140 0.000000 3.456240 
# 
# 
# High freq. dielectric constant tensor:
#      x y z
#    x 1.687650 0.000000 -0.001820 
#    y 0.000000 1.665530 0.000000 
#    z -0.001820 0.000000 1.704060 
# 
# From -- ./inp_files/281240.got.cif
#   From: 2010.06.25/outbox.cif.g09.slc.cpg/sg12_141_cif.got.tgz:281240.got - 2010.06.28 00:19:55.
