data_PCOD8091636
_publ_section_title
;
Structure prediction by ZEFSAII (Michael W. Deem and Ramdas Pophale) SiO2 
 PCOD8091636
Probable space group: C 2/M
;
_chemical_formula_sum "Si O2"
_cell_formula_units_Z 40
_cell_length_a 10.024393
_cell_length_b 17.952315
_cell_length_c 15.555676
_cell_angle_alpha 90.000000
_cell_angle_beta 50.254607
_cell_angle_gamma 90.000000
_cell_volume 2152.452018
_symmetry_space_group_name_H-M "C 2/M"
_symmetry_group_IT_number 12
_symmetry_cell_setting 'monoclinic'
loop_
_space_group_symop_operation_xyz
x,y,z
-x,y,-z
-x,-y,-z
x,-y,z
1/2+x,1/2+y,z
1/2-x,1/2+y,-z
1/2-x,1/2-y,-z
1/2+x,1/2-y,z
loop_
_atom_site_type_symbol
_atom_site_label
_atom_site_fract_x
_atom_site_fract_y
_atom_site_fract_z
Si Si1 0.405482 0.911532 0.803341
Si Si2 0.621566 0.912745 0.872477
Si Si3 0.375749 0.086811 0.623046
Si Si4 0.015116 0.913728 0.204561
Si Si5 0.134861 0.186211 0.007587
O O1 0.563305 0.885384 0.801239
O O2 0.425478 0.881124 0.697339
O O3 0.380209 0.000000 0.813474
O O4 0.235825 0.876010 0.913309
O O5 0.824980 0.891917 0.798331
O O6 0.594407 0.000000 0.887128
O O7 0.500000 0.879068 0.000000
O O8 0.500000 0.124701 0.500000
O O9 0.175483 0.100282 0.676588
O O10 0.416806 0.000000 0.609933
O O11 0.023293 0.858528 0.122157
O O12 0.033066 0.000000 0.168139
O O13 0.250000 0.250000 0.000000
O O14 0.000000 0.227319 0.000000
#
# Coordination Sequence:
#
# PCOD8091636 Si02
#       5
#     8   8   8   8   8
#     4  10  19  34  57  81 109 146 184 222 275 332
#     4   9  16  26  47  79 109 136 168 213 263 326
#     4   9  18  33  55  83 109 137 187 244 274 304
#     4  10  19  34  57  81 109 146 184 222 275 332
#     4  12  25  35  50  82 116 147 174 227 283 335
#
# _framework density 18.583458
#
# number of rings (size 3 to 8) (size 9 to 14) (size 15 to 20)
#    0.000    2.000    4.000    0.600    2.800    0.800 
#    0.000    1.000    0.000    7.200    0.000    0.000 
#    0.000    0.000    0.000    0.000    0.000    0.000 
#
# Total GULP energy -247766.639986 kJ/mol
# GULP energy per Si atom -12388.331999 kJ/mol
# Density = 1.854116 g / cm^3
# Si number density = 18.583458 Si / 1000 Ang^3
#
#
#
# Elastic Constant Matrix: (Units=GPa)
#
#
# Indices 1 2 3 4 5 6 
#
# 1 175.7705 17.2051 55.9787 0.0000 -10.8440 -0.0002
# 2 17.2051 35.6898 17.8267 0.0000 -4.5325 0.0000
# 3 55.9787 17.8267 116.8072 0.0000 -6.1846 -0.0001
# 4 0.0000 0.0000 0.0000 1.1985 0.0001 1.0472
# 5 -10.8440 -4.5325 -6.1846 0.0001 26.3855 0.0000
# 6 -0.0002 0.0000 -0.0001 1.0472 0.0000 14.8843
#
#
#
# Elastic Compliance Matrix: (Units=1/GPa)
#
#
# Indices 1 2 3 4 5 6 
#
# 1 0.006906 -0.001611 -0.002965 0.000000 0.001867 0.000000
# 2 -0.001611 0.031169 -0.003783 0.000000 0.003805 0.000000
# 3 -0.002965 -0.003783 0.010592 0.000000 0.000614 0.000000
# 4 0.000000 0.000000 0.000000 0.889038 -0.000003 -0.062550
# 5 0.001867 0.003805 0.000614 -0.000003 0.039464 0.000000
# 6 0.000000 0.000000 0.000000 -0.062550 0.000000 0.071586
#
#
# Mechanical properties :
#
#
# Convention : Reuss Voigt Hill
#
# Bulk Modulus (GPa) = 31.30073 56.69873 43.99973
# Shear Modulus (GPa) = 4.64630 24.31080 14.47855
#
# Velocity S-wave (km/s) = 1.58293 3.62082 2.79428
# Velocity P-wave (km/s) = 4.49675 6.93232 5.84285
#
# Compressibility (1/GPa) = 0.03194813
#
# Stress axis : x y z
#
# Youngs Moduli (GPa) = 144.79268 32.08323 94.41082
#
# Poissons Ratio (x) = 0.05170 0.27994
# Poissons Ratio (y) = 0.23331 0.35718
# Poissons Ratio (z) = 0.42932 0.12138
#
# Static dielectric constant tensor:
#      x y z
#    x 4.242700 0.000000 0.238540 
#    y 0.000000 3.023720 0.000000 
#    z 0.238540 0.000000 3.507970 
# 
# 
# High freq. dielectric constant tensor:
#      x y z
#    x 1.745350 0.000000 -0.005550 
#    y 0.000000 1.684930 0.000000 
#    z -0.005550 0.000000 1.689050 
# 
# From -- ./inp_files/120242.got.cif
#   From: 2010.06.25/outbox.cif.g09.slc.cpg/sg12_61_cif.got.tgz:120242.got - 2010.06.28 00:19:55.
