data_PCOD8091252
_publ_section_title
;
Structure prediction by ZEFSAII (Michael W. Deem and Ramdas Pophale) SiO2 
 PCOD8091252
Probable space group: C 2/M
;
_chemical_formula_sum "Si O2"
_cell_formula_units_Z 56
_cell_length_a 26.629030
_cell_length_b 8.540718
_cell_length_c 14.481862
_cell_angle_alpha 90.000000
_cell_angle_beta 57.273231
_cell_angle_gamma 90.000000
_cell_volume 2770.789217
_symmetry_space_group_name_H-M "C 2/M"
_symmetry_group_IT_number 12
_symmetry_cell_setting 'monoclinic'
loop_
_space_group_symop_operation_xyz
x,y,z
-x,y,-z
-x,-y,-z
x,-y,z
1/2+x,1/2+y,z
1/2-x,1/2+y,-z
1/2-x,1/2-y,-z
1/2+x,1/2-y,z
loop_
_atom_site_type_symbol
_atom_site_label
_atom_site_fract_x
_atom_site_fract_y
_atom_site_fract_z
Si Si1 0.846565 0.684273 0.751428
Si Si2 0.787128 0.183322 0.128110
Si Si3 0.118816 0.181815 0.667754
Si Si4 0.147312 0.683219 0.456966
Si Si5 0.275699 0.818825 0.329637
Si Si6 0.000116 0.816799 0.106794
Si Si7 0.112389 0.316796 0.095934
O O1 0.845446 0.500000 0.742834
O O2 0.778600 0.740283 0.838146
O O3 0.869846 0.747991 0.628895
O O4 0.888625 0.736097 0.794866
O O5 0.805822 0.275852 0.201840
O O6 0.789098 0.000000 0.148595
O O7 0.834149 0.221658 0.002672
O O8 0.107223 0.224017 0.571717
O O9 0.175998 0.282274 0.640110
O O10 0.062483 0.230192 0.785642
O O11 0.132962 0.000000 0.665930
O O12 0.134065 0.500000 0.480397
O O13 0.217371 0.714136 0.404194
O O14 0.257655 0.000000 0.352128
O O15 0.049922 0.720990 0.111460
O O16 0.014044 0.000000 0.103248
O O17 0.000000 0.766172 0.000000
O O18 0.126207 0.500000 0.073619
#
# Coordination Sequence:
#
# PCOD8091252 Si02
#       7
#     8   8   8   8   8   8   8
#     4   8  18  35  55  81 112 146 182 224 271 324
#     4  10  19  34  55  81 116 152 183 218 272 333
#     4  11  22  37  57  81 110 145 187 231 277 328
#     4  10  20  37  58  81 113 149 184 222 272 329
#     4  11  21  34  55  85 116 145 183 228 276 326
#     4  10  23  42  60  78 106 145 184 224 275 331
#     4  11  21  35  57  84 111 141 185 233 276 323
#
# _framework density 20.210849
#
# number of rings (size 3 to 8) (size 9 to 14) (size 15 to 20)
#    0.000    1.857    0.000    5.571    0.000    2.571 
#    0.000    8.571    0.000    4.286    0.000    0.000 
#    0.000    0.000    0.000    0.000    0.000    0.000 
#
# Total GULP energy -347209.807359 kJ/mol
# GULP energy per Si atom -12400.350263 kJ/mol
# Density = 2.016485 g / cm^3
# Si number density = 20.210849 Si / 1000 Ang^3
#
#
#
# Elastic Constant Matrix: (Units=GPa)
#
#
# Indices 1 2 3 4 5 6 
#
# 1 90.8731 17.0097 47.8966 0.0000 22.2280 0.0001
# 2 17.0097 52.1927 18.0167 -0.0001 2.4711 -0.0007
# 3 47.8966 18.0167 147.1625 0.0000 17.5317 0.0001
# 4 0.0000 -0.0001 0.0000 30.0376 0.0000 2.7881
# 5 22.2280 2.4711 17.5317 0.0000 26.7566 0.0000
# 6 0.0001 -0.0007 0.0001 2.7881 0.0000 22.7578
#
#
#
# Elastic Compliance Matrix: (Units=1/GPa)
#
#
# Indices 1 2 3 4 5 6 
#
# 1 0.016174 -0.003536 -0.003546 0.000000 -0.010786 0.000000
# 2 -0.003536 0.020780 -0.001643 0.000000 0.002095 0.000001
# 3 -0.003546 -0.001643 0.008440 0.000000 -0.002433 0.000000
# 4 0.000000 0.000000 0.000000 0.033675 0.000000 -0.004125
# 5 -0.010786 0.002095 -0.002433 0.000000 0.047735 0.000000
# 6 0.000000 0.000001 0.000000 -0.004125 0.000000 0.044446
#
#
# Mechanical properties :
#
#
# Convention : Reuss Voigt Hill
#
# Bulk Modulus (GPa) = 35.78590 50.67491 43.23040
# Shear Modulus (GPa) = 25.25065 29.73076 27.49071
#
# Velocity S-wave (km/s) = 3.53846 3.83956 3.69208
# Velocity P-wave (km/s) = 5.86848 6.69207 6.29376
#
# Compressibility (1/GPa) = 0.02794397
#
# Stress axis : x y z
#
# Youngs Moduli (GPa) = 61.82888 48.12294 118.47969
#
# Poissons Ratio (x) = 0.17017 0.42014
# Poissons Ratio (y) = 0.21864 0.19463
# Poissons Ratio (z) = 0.21925 0.07905
#
# Static dielectric constant tensor:
#      x y z
#    x 3.609350 0.000000 0.335680 
#    y 0.000000 3.495620 0.000000 
#    z 0.335680 0.000000 3.945360 
# 
# 
# High freq. dielectric constant tensor:
#      x y z
#    x 1.770790 0.000000 0.020730 
#    y 0.000000 1.779600 0.000000 
#    z 0.020730 0.000000 1.800270 
# 
# From -- ./inp_files/243672.got.cif
#   From: 2010.06.25/outbox.cif.g09.slc.cpg/sg12_122_cif.got.tgz:243672.got - 2010.06.28 00:19:55.
