data_PCOD8091786
_publ_section_title
;
Structure prediction by ZEFSAII (Michael W. Deem and Ramdas Pophale) SiO2 
 PCOD8091786
Probable space group: C 2/M
;
_chemical_formula_sum "Si O2"
_cell_formula_units_Z 48
_cell_length_a 24.035565
_cell_length_b 14.320985
_cell_length_c 14.944810
_cell_angle_alpha 90.000000
_cell_angle_beta 27.732605
_cell_angle_gamma 90.000000
_cell_volume 2393.830728
_symmetry_space_group_name_H-M "C 2/M"
_symmetry_group_IT_number 12
_symmetry_cell_setting 'monoclinic'
loop_
_space_group_symop_operation_xyz
x,y,z
-x,y,-z
-x,-y,-z
x,-y,z
1/2+x,1/2+y,z
1/2-x,1/2+y,-z
1/2-x,1/2-y,-z
1/2+x,1/2-y,z
loop_
_atom_site_type_symbol
_atom_site_label
_atom_site_fract_x
_atom_site_fract_y
_atom_site_fract_z
Si Si1 0.123590 0.265588 0.221315
Si Si2 0.687323 0.891548 0.580549
Si Si3 0.753521 0.210535 0.784134
Si Si4 0.964819 0.099459 0.447961
Si Si5 0.553945 0.893916 0.179559
Si Si6 0.136467 0.773728 0.781169
O O1 0.145242 0.263945 0.298140
O O2 0.064730 0.361263 0.268208
O O3 0.045189 0.180880 0.292080
O O4 0.250000 0.250000 0.000000
O O5 0.581911 0.882715 0.658162
O O6 0.809764 0.851074 0.363137
O O7 0.649675 0.830342 0.720488
O O8 0.706311 0.000000 0.581514
O O9 0.824523 0.124376 0.638296
O O10 0.709674 0.279968 0.769567
O O11 0.639283 0.172017 0.999435
O O12 0.000000 0.086993 0.500000
O O13 0.986241 0.000000 0.367567
O O14 0.598336 0.000000 0.108830
O O15 0.000000 0.797013 0.000000
#
# Coordination Sequence:
#
# PCOD8091786 Si02
#       6
#     8   8   8   8   8   8
#     4   9  19  32  51  79 114 151 188 236 293 354
#     4  10  23  40  61  91 123 156 201 252 304 360
#     4  10  19  34  57  85 114 153 194 242 297 351
#     4   9  17  30  50  76 104 136 181 232 287 344
#     4  10  19  35  57  84 119 155 192 242 298 352
#     4  11  22  40  64  87 121 160 206 250 301 355
#
# _framework density 20.051542999999999
#
# number of rings (size 3 to 8) (size 9 to 14) (size 15 to 20)
#    0.000    2.167    1.667    1.500    0.000    6.000 
#    0.000    0.833    0.000    7.500    0.000    0.000 
#    0.000    0.000    0.000    0.000    0.000    0.000 
#
# Total GULP energy -297402.060864 kJ/mol
# GULP energy per Si atom -12391.752536 kJ/mol
# Density = 2.000591 g / cm^3
# Si number density = 20.051543 Si / 1000 Ang^3
#
#
#
# Elastic Constant Matrix: (Units=GPa)
#
#
# Indices 1 2 3 4 5 6 
#
# 1 81.5541 20.3113 7.5486 0.0000 -6.8717 0.0000
# 2 20.3113 72.7522 30.0861 0.0000 1.1679 0.0000
# 3 7.5486 30.0861 100.9347 0.0000 -12.4808 0.0000
# 4 0.0000 0.0000 0.0000 30.5264 0.0000 10.5022
# 5 -6.8717 1.1679 -12.4808 0.0000 23.9568 0.0000
# 6 0.0000 0.0000 0.0000 10.5022 0.0000 43.6762
#
#
#
# Elastic Compliance Matrix: (Units=1/GPa)
#
#
# Indices 1 2 3 4 5 6 
#
# 1 0.013616 -0.004202 0.000794 0.000000 0.004524 0.000000
# 2 -0.004202 0.017241 -0.005428 0.000000 -0.004873 0.000000
# 3 0.000794 -0.005428 0.012320 0.000000 0.006911 0.000000
# 4 0.000000 0.000000 0.000000 0.035713 0.000000 -0.008587
# 5 0.004524 -0.004873 0.006911 0.000000 0.046877 0.000000
# 6 0.000000 0.000000 0.000000 -0.008587 0.000000 0.024961
#
#
# Mechanical properties :
#
#
# Convention : Reuss Voigt Hill
#
# Bulk Modulus (GPa) = 39.20719 41.23701 40.22210
# Shear Modulus (GPa) = 28.26414 32.78489 30.52451
#
# Velocity S-wave (km/s) = 3.75850 4.04794 3.90590
# Velocity P-wave (km/s) = 6.19926 6.51597 6.35959
#
# Compressibility (1/GPa) = 0.02550552
#
# Stress axis : x y z
#
# Youngs Moduli (GPa) = 73.44251 58.00044 81.16625
#
# Poissons Ratio (x) = 0.24373 -0.06442
# Poissons Ratio (y) = 0.30862 0.44053
# Poissons Ratio (z) = -0.05829 0.31480
#
# Static dielectric constant tensor:
#      x y z
#    x 18.153690 0.000000 1.742170 
#    y 0.000000 3.870860 0.000000 
#    z 1.742170 0.000000 3.882670 
# 
# 
# High freq. dielectric constant tensor:
#      x y z
#    x 1.776870 0.000000 -0.018810 
#    y 0.000000 1.763450 0.000000 
#    z -0.018810 0.000000 1.785310 
# 
# From -- ./inp_files/142705.got.cif
#   From: 2010.06.25/outbox.cif.g09.slc.cpg/sg12_72_cif.got.tgz:142705.got - 2010.06.28 00:19:55.
