data_PCOD8091541
_publ_section_title
;
Structure prediction by ZEFSAII (Michael W. Deem and Ramdas Pophale) SiO2 
 PCOD8091541
Probable space group: C 2/M
;
_chemical_formula_sum "Si O2"
_cell_formula_units_Z 56
_cell_length_a 18.376774
_cell_length_b 13.878734
_cell_length_c 23.378727
_cell_angle_alpha 90.000000
_cell_angle_beta 150.233082
_cell_angle_gamma 90.000000
_cell_volume 2960.298332
_symmetry_space_group_name_H-M "C 2/M"
_symmetry_group_IT_number 12
_symmetry_cell_setting 'monoclinic'
loop_
_space_group_symop_operation_xyz
x,y,z
-x,y,-z
-x,-y,-z
x,-y,z
1/2+x,1/2+y,z
1/2-x,1/2+y,-z
1/2-x,1/2-y,-z
1/2+x,1/2-y,z
loop_
_atom_site_type_symbol
_atom_site_label
_atom_site_fract_x
_atom_site_fract_y
_atom_site_fract_z
Si Si1 0.786809 0.388498 0.997409
Si Si2 0.240731 0.262497 0.560860
Si Si3 0.775177 0.746211 0.759427
Si Si4 0.515574 0.107364 0.577719
Si Si5 0.662014 0.605953 0.588521
Si Si6 0.995208 0.775916 0.171482
Si Si7 0.168722 0.394987 0.103808
O O1 0.817059 0.500000 0.031967
O O2 0.909024 0.326175 0.114270
O O3 0.622381 0.361742 0.904378
O O4 0.800326 0.365175 0.939739
O O5 0.250000 0.250000 0.500000
O O6 0.164569 0.164288 0.531042
O O7 0.395049 0.280095 0.698859
O O8 0.135256 0.352929 0.499717
O O9 0.653003 0.826147 0.685943
O O10 0.751953 0.664988 0.695969
O O11 0.777181 0.693127 0.821135
O O12 0.923569 0.793703 0.834792
O O13 0.500000 0.104829 0.500000
O O14 0.542287 0.000000 0.620608
O O15 0.500000 0.595587 0.500000
O O16 0.731997 0.500000 0.627609
O O17 0.243919 0.500000 0.168786
O O18 0.000000 0.408706 0.000000
#
# Coordination Sequence:
#
# PCOD8091541 Si02
#       7
#     8   8   8   8   8   8   8
#     4  10  22  40  59  88 121 153 198 245 296 353
#     4  11  23  40  59  85 123 156 197 245 300 353
#     4  11  19  37  60  87 118 153 196 243 296 354
#     4  11  22  40  62  84 114 157 205 243 288 351
#     4  10  19  34  56  85 115 147 187 233 293 354
#     4  10  22  37  60  86 112 161 196 238 297 348
#     4  10  20  34  60  91 116 148 190 245 302 352
#
# _framework density 18.917012
#
# number of rings (size 3 to 8) (size 9 to 14) (size 15 to 20)
#    0.000    1.571    5.714    0.429    2.000    4.000 
#    0.000    0.000    0.000    0.429    0.000    0.000 
#    0.000    0.000    0.000    0.000    0.000    0.000 
#
# Total GULP energy -347042.243342 kJ/mol
# GULP energy per Si atom -12394.365834 kJ/mol
# Density = 1.887396 g / cm^3
# Si number density = 18.917012 Si / 1000 Ang^3
#
#
#
# Elastic Constant Matrix: (Units=GPa)
#
#
# Indices 1 2 3 4 5 6 
#
# 1 96.7381 45.6820 42.9888 -0.0003 3.0330 0.0004
# 2 45.6820 134.7522 53.4262 0.0009 0.2840 0.0004
# 3 42.9888 53.4262 88.4737 0.0013 11.2654 -0.0003
# 4 -0.0003 0.0009 0.0013 18.8771 -0.0006 -14.3611
# 5 3.0330 0.2840 11.2654 -0.0006 30.5975 -0.0004
# 6 0.0004 0.0004 -0.0003 -14.3611 -0.0004 23.4369
#
#
#
# Elastic Compliance Matrix: (Units=1/GPa)
#
#
# Indices 1 2 3 4 5 6 
#
# 1 0.013888 -0.002636 -0.005229 0.000001 0.000573 0.000000
# 2 -0.002636 0.010398 -0.005266 0.000000 0.002104 0.000000
# 3 -0.005229 -0.005266 0.017785 -0.000002 -0.005981 -0.000001
# 4 0.000001 0.000000 -0.000002 0.099233 0.000003 0.060806
# 5 0.000573 0.002104 -0.005981 0.000003 0.034808 0.000003
# 6 0.000000 0.000000 -0.000001 0.060806 0.000003 0.079927
#
#
# Mechanical properties :
#
#
# Convention : Reuss Voigt Hill
#
# Bulk Modulus (GPa) = 63.25705 67.12868 65.19286
# Shear Modulus (GPa) = 17.38699 26.44010 21.91354
#
# Velocity S-wave (km/s) = 3.03499 3.74262 3.40723
# Velocity P-wave (km/s) = 6.76708 7.36473 7.07222
#
# Compressibility (1/GPa) = 0.01580852
#
# Stress axis : x y z
#
# Youngs Moduli (GPa) = 72.00584 96.17128 56.22662
#
# Poissons Ratio (x) = 0.25351 0.29402
# Poissons Ratio (y) = 0.18981 0.29609
# Poissons Ratio (z) = 0.37653 0.50645
#
# Static dielectric constant tensor:
#      x y z
#    x 3.536450 0.000010 0.065640 
#    y 0.000010 4.455350 -0.000010 
#    z 0.065640 -0.000010 3.384380 
# 
# 
# High freq. dielectric constant tensor:
#      x y z
#    x 1.737570 0.000000 0.013820 
#    y 0.000000 1.739030 0.000000 
#    z 0.013820 0.000000 1.722390 
# 
# From -- ./inp_files/316763.got.cif
#   From: 2010.06.25/outbox.cif.g09.slc.cpg/sg12_159_cif.got.tgz:316763.got - 2010.06.28 00:19:55.
