data_PCOD8091000
_publ_section_title
;
Structure prediction by ZEFSAII (Michael W. Deem and Ramdas Pophale) SiO2 
 PCOD8091000
Probable space group: C 2/M
;
_chemical_formula_sum "Si O2"
_cell_formula_units_Z 44
_cell_length_a 9.845189
_cell_length_b 23.192190
_cell_length_c 11.897596
_cell_angle_alpha 90.000000
_cell_angle_beta 119.963306
_cell_angle_gamma 90.000000
_cell_volume 2353.510447
_symmetry_space_group_name_H-M "C 2/M"
_symmetry_group_IT_number 12
_symmetry_cell_setting 'monoclinic'
loop_
_space_group_symop_operation_xyz
x,y,z
-x,y,-z
-x,-y,-z
x,-y,z
1/2+x,1/2+y,z
1/2-x,1/2+y,-z
1/2-x,1/2-y,-z
1/2+x,1/2-y,z
loop_
_atom_site_type_symbol
_atom_site_label
_atom_site_fract_x
_atom_site_fract_y
_atom_site_fract_z
Si Si1 0.648548 0.668036 0.897494
Si Si2 0.795761 0.377722 0.736702
Si Si3 0.047221 0.288791 0.888754
Si Si4 0.860156 0.000000 0.588348
Si Si5 0.594767 0.000000 0.298278
Si Si6 0.000000 0.088974 0.000000
Si Si7 0.000000 0.906115 0.500000
Si Si8 0.272755 0.500000 0.813056
O O1 0.727005 0.632771 0.830443
O O2 0.559429 0.727711 0.827970
O O3 0.781939 0.682226 0.044913
O O4 0.520739 0.626914 0.898226
O O5 0.864721 0.442684 0.756966
O O6 0.653615 0.367825 0.589600
O O7 0.929137 0.329758 0.770418
O O8 0.000000 0.279243 0.000000
O O9 0.694996 0.000000 0.454081
O O10 0.830297 0.000000 0.708109
O O11 0.964003 0.055218 0.595335
O O12 0.413882 0.000000 0.257863
O O13 0.157700 0.053831 0.090592
#
# Coordination Sequence:
#
# PCOD8091000 Si02
#       8
#     8   8   8   4   4   4   4   4
#     4  10  19  34  54  78 106 144 182 222 263 323
#     4  10  20  35  57  80 106 146 178 230 270 315
#     4   9  18  34  55  78 104 140 190 218 261 320
#     4   9  18  35  58  76 107 150 179 216 262 325
#     4  10  21  37  56  80 109 138 188 225 266 327
#     4  11  22  32  50  82 118 139 172 222 278 329
#     4   9  18  34  56  82 108 138 186 217 262 328
#     4  11  22  34  50  83 116 141 171 223 280 324
#
# _framework density 18.695477
#
# number of rings (size 3 to 8) (size 9 to 14) (size 15 to 20)
#    0.000    2.182    0.909    3.000    0.000    1.455 
#    0.000    5.909    0.000    0.000    0.000    0.000 
#    0.000    0.000    0.000    0.000    0.000    0.000 
#
# Total GULP energy -272676.568835 kJ/mol
# GULP energy per Si atom -12394.389492 kJ/mol
# Density = 1.865293 g / cm^3
# Si number density = 18.695477 Si / 1000 Ang^3
#
#
#
# Elastic Constant Matrix: (Units=GPa)
#
#
# Indices 1 2 3 4 5 6 
#
# 1 84.0596 50.8342 23.0106 0.0000 11.6340 0.0000
# 2 50.8342 118.5358 47.5498 0.0000 8.7432 0.0000
# 3 23.0106 47.5498 67.2082 0.0000 14.6296 0.0000
# 4 0.0000 0.0000 0.0000 5.6845 0.0000 -24.6218
# 5 11.6340 8.7432 14.6296 0.0000 39.1548 0.0000
# 6 0.0000 0.0000 0.0000 -24.6218 0.0000 -24.3226
#
#
#
# Elastic Compliance Matrix: (Units=1/GPa)
#
#
# Indices 1 2 3 4 5 6 
#
# 1 0.016490 -0.006775 -0.000125 0.000000 -0.003340 0.000000
# 2 -0.006775 0.014573 -0.008404 0.000000 0.001899 0.000000
# 3 -0.000125 -0.008404 0.022262 0.000000 -0.006404 0.000000
# 4 0.000000 0.000000 0.000000 0.032670 0.000000 -0.033072
# 5 -0.003340 0.001899 -0.006404 0.000000 0.028501 0.000000
# 6 0.000000 0.000000 0.000000 -0.033072 0.000000 -0.007635
#
#
# Mechanical properties :
#
#
# Convention : Reuss Voigt Hill
#
# Bulk Modulus (GPa) = 44.02233 56.95476 50.48855
# Shear Modulus (GPa) = 34.47290 13.99727 24.23509
#
# Velocity S-wave (km/s) = 4.29874 2.73920 3.60433
# Velocity P-wave (km/s) = 6.94529 6.36670 6.66228
#
# Compressibility (1/GPa) = 0.02271574
#
# Stress axis : x y z
#
# Youngs Moduli (GPa) = 60.64244 68.62020 44.91970
#
# Poissons Ratio (x) = 0.46491 0.00563
# Poissons Ratio (y) = 0.41086 0.37751
# Poissons Ratio (z) = 0.00761 0.57669
#
# Static dielectric constant tensor:
#      x y z
#    x 3.547720 0.000000 0.273820 
#    y 0.000000 3.601770 0.000000 
#    z 0.273820 0.000000 3.234900 
# 
# 
# High freq. dielectric constant tensor:
#      x y z
#    x 1.736740 0.000000 0.019540 
#    y 0.000000 1.728670 0.000000 
#    z 0.019540 0.000000 1.696460 
# 
# From -- ./inp_files/121814.got.cif
#   From: 2010.06.25/outbox.cif.g09.slc.cpg/sg12_61_cif.got.tgz:121814.got - 2010.06.28 00:19:55.
