data_PCOD8091875
_publ_section_title
;
Structure prediction by ZEFSAII (Michael W. Deem and Ramdas Pophale) SiO2 
 PCOD8091875
Probable space group: C 2/M
;
_chemical_formula_sum "Si O2"
_cell_formula_units_Z 48
_cell_length_a 12.364075
_cell_length_b 13.185725
_cell_length_c 20.123709
_cell_angle_alpha 90.000000
_cell_angle_beta 39.664576
_cell_angle_gamma 90.000000
_cell_volume 2094.079070
_symmetry_space_group_name_H-M "C 2/M"
_symmetry_group_IT_number 12
_symmetry_cell_setting 'monoclinic'
loop_
_space_group_symop_operation_xyz
x,y,z
-x,y,-z
-x,-y,-z
x,-y,z
1/2+x,1/2+y,z
1/2-x,1/2+y,-z
1/2-x,1/2-y,-z
1/2+x,1/2-y,z
loop_
_atom_site_type_symbol
_atom_site_label
_atom_site_fract_x
_atom_site_fract_y
_atom_site_fract_z
Si Si1 0.596302 0.231351 0.121870
Si Si2 0.286318 0.113118 0.250804
Si Si3 0.679134 0.612070 0.736322
Si Si4 0.679181 0.612503 0.892744
Si Si5 0.241608 0.382636 0.577911
Si Si6 0.482427 0.762239 0.611537
O O1 0.464846 0.160334 0.143208
O O2 0.497505 0.331078 0.195462
O O3 0.664528 0.177382 0.155169
O O4 0.750000 0.250000 0.000000
O O5 0.290842 0.118258 0.328769
O O6 0.134688 0.181472 0.292464
O O7 0.265834 0.000000 0.233094
O O8 0.672216 0.500000 0.707318
O O9 0.698552 0.606192 0.805672
O O10 0.847749 0.671444 0.630285
O O11 0.691172 0.500000 0.918866
O O12 0.500000 0.661456 0.000000
O O13 0.276649 0.500000 0.538479
O O14 0.399107 0.308334 0.489867
O O15 0.082026 0.337945 0.612995
#
# Coordination Sequence:
#
# PCOD8091875 Si02
#       6
#     8   8   8   8   8   8
#     4  11  21  33  55  86 114 143 183 235 282 322
#     4  10  21  37  59  85 111 143 187 234 276 324
#     4  10  21  37  57  82 114 148 187 229 272 328
#     4  10  19  34  58  83 105 139 188 234 272 318
#     4  10  20  37  61  86 112 142 184 232 277 328
#     4  10  20  33  58  88 114 142 180 229 282 327
#
# _framework density 22.921772000000001
#
# number of rings (size 3 to 8) (size 9 to 14) (size 15 to 20)
#    0.000    1.833    1.667    3.000    0.000    4.667 
#    0.000    0.000    0.000   70.500    0.000    0.000 
#    0.000    0.000    0.000    0.000    0.000    0.000 
#
# Total GULP energy -297423.143687 kJ/mol
# GULP energy per Si atom -12392.630987 kJ/mol
# Density = 2.286960 g / cm^3
# Si number density = 22.921772 Si / 1000 Ang^3
#
#
#
# Elastic Constant Matrix: (Units=GPa)
#
#
# Indices 1 2 3 4 5 6 
#
# 1 48.1743 29.3910 21.8123 0.0001 -19.5815 0.0000
# 2 29.3910 194.2167 52.9294 0.0001 -30.9485 -0.0001
# 3 21.8123 52.9294 123.3725 0.0003 -37.3107 -0.0003
# 4 0.0001 0.0001 0.0003 25.2890 -0.0001 -2.0864
# 5 -19.5815 -30.9485 -37.3107 -0.0001 37.4208 0.0001
# 6 0.0000 -0.0001 -0.0003 -2.0864 0.0001 20.5291
#
#
#
# Elastic Compliance Matrix: (Units=1/GPa)
#
#
# Indices 1 2 3 4 5 6 
#
# 1 0.027107 -0.002097 -0.000183 0.000000 0.012268 0.000000
# 2 -0.002097 0.006298 -0.001558 0.000000 0.002559 0.000000
# 3 -0.000183 -0.001558 0.012009 0.000000 0.010589 0.000000
# 4 0.000000 0.000000 0.000000 0.039877 0.000000 0.004053
# 5 0.012268 0.002559 0.010589 0.000000 0.045817 0.000000
# 6 0.000000 0.000000 0.000000 0.004053 0.000000 0.049123
#
#
# Mechanical properties :
#
#
# Convention : Reuss Voigt Hill
#
# Bulk Modulus (GPa) = 26.49814 63.78098 45.13956
# Shear Modulus (GPa) = 24.93942 34.08985 29.51463
#
# Velocity S-wave (km/s) = 3.30210 3.86064 3.59224
# Velocity P-wave (km/s) = 5.11115 6.91076 6.07793
#
# Compressibility (1/GPa) = 0.03773849
#
# Stress axis : x y z
#
# Youngs Moduli (GPa) = 36.89114 158.76824 83.27388
#
# Poissons Ratio (x) = 0.33301 0.01521
# Poissons Ratio (y) = 0.07738 0.12971
# Poissons Ratio (z) = 0.00674 0.24730
#
# Static dielectric constant tensor:
#      x y z
#    x 3.860130 0.000000 -0.518780 
#    y 0.000000 4.856630 0.000000 
#    z -0.518780 0.000000 4.345120 
# 
# 
# High freq. dielectric constant tensor:
#      x y z
#    x 1.872530 0.000000 -0.032830 
#    y 0.000000 1.921060 0.000000 
#    z -0.032830 0.000000 1.911530 
# 
# From -- ./inp_files/360971.got.cif
#   From: 2010.06.25/outbox.cif.g09.slc.cpg/sg12_181_cif.got.tgz:360971.got - 2010.06.28 00:19:55.
