data_PCOD8091313
_publ_section_title
;
Structure prediction by ZEFSAII (Michael W. Deem and Ramdas Pophale) SiO2 
 PCOD8091313
Probable space group: C 2/M
;
_chemical_formula_sum "Si O2"
_cell_formula_units_Z 48
_cell_length_a 22.259534
_cell_length_b 19.010743
_cell_length_c 8.259675
_cell_angle_alpha 90.000000
_cell_angle_beta 41.954974
_cell_angle_gamma 90.000000
_cell_volume 2336.736118
_symmetry_space_group_name_H-M "C 2/M"
_symmetry_group_IT_number 12
_symmetry_cell_setting 'monoclinic'
loop_
_space_group_symop_operation_xyz
x,y,z
-x,y,-z
-x,-y,-z
x,-y,z
1/2+x,1/2+y,z
1/2-x,1/2+y,-z
1/2-x,1/2-y,-z
1/2+x,1/2-y,z
loop_
_atom_site_type_symbol
_atom_site_label
_atom_site_fract_x
_atom_site_fract_y
_atom_site_fract_z
Si Si1 0.368974 0.277403 0.597235
Si Si2 0.244796 0.076206 0.894882
Si Si3 0.817014 0.783621 0.075363
Si Si4 0.090669 0.421590 0.221389
Si Si5 0.470673 0.801506 0.879704
Si Si6 0.918454 0.075482 0.543985
O O1 0.271500 0.263263 0.714854
O O2 0.442304 0.219562 0.399539
O O3 0.404288 0.354428 0.463483
O O4 0.358184 0.275137 0.812776
O O5 0.211149 0.134994 0.834807
O O6 0.333030 0.106457 0.808321
O O7 0.263895 0.000000 0.771485
O O8 0.171477 0.064666 0.177124
O O9 0.896393 0.761006 0.037850
O O10 0.116829 0.500000 0.105278
O O11 0.080025 0.368799 0.093299
O O12 0.000000 0.426052 0.500000
O O13 0.500000 0.821778 0.000000
O O14 0.000000 0.091538 0.500000
O O15 0.935709 0.000000 0.415873
#
# Coordination Sequence:
#
# PCOD8091313 Si02
#       6
#     8   8   8   8   8   8
#     4  10  19  34  56  77 101 135 182 231 270 310
#     4   9  17  30  53  82 104 126 168 226 276 310
#     4  10  19  34  57  79 103 137 180 229 270 307
#     4  10  20  36  58  81 104 134 178 227 267 308
#     4  12  24  35  51  78 114 150 177 209 263 330
#     4   9  16  26  45  74 102 127 161 213 270 312
#
# _framework density 20.541471000000001
#
# number of rings (size 3 to 8) (size 9 to 14) (size 15 to 20)
#    0.000    2.000    0.000    7.500    0.000    1.000 
#    0.000    0.000    0.000    2.000    0.000    0.000 
#    0.000    0.000    0.000    0.000    0.000    0.000 
#
# Total GULP energy -297376.537007 kJ/mol
# GULP energy per Si atom -12390.689042 kJ/mol
# Density = 2.049472 g / cm^3
# Si number density = 20.541471 Si / 1000 Ang^3
#
#
#
# Elastic Constant Matrix: (Units=GPa)
#
#
# Indices 1 2 3 4 5 6 
#
# 1 78.6190 37.1884 23.0109 0.0000 -22.3487 0.0000
# 2 37.1884 137.2732 18.9477 0.0000 2.2163 0.0000
# 3 23.0109 18.9477 46.2471 0.0000 -27.6227 0.0000
# 4 0.0000 0.0000 0.0000 20.0377 0.0000 -12.6068
# 5 -22.3487 2.2163 -27.6227 0.0000 28.3250 0.0000
# 6 0.0000 0.0000 0.0000 -12.6068 0.0000 27.4311
#
#
#
# Elastic Compliance Matrix: (Units=1/GPa)
#
#
# Indices 1 2 3 4 5 6 
#
# 1 0.020616 -0.006800 0.006135 0.000000 0.022781 0.000000
# 2 -0.006800 0.011013 -0.011611 0.000000 -0.017550 0.000000
# 3 0.006135 -0.011611 0.064095 0.000000 0.068255 0.000000
# 4 0.000000 0.000000 0.000000 0.070206 0.000000 0.032265
# 5 0.022781 -0.017550 0.068255 0.000000 0.121215 0.000000
# 6 0.000000 0.000000 0.000000 0.032265 0.000000 0.051283
#
#
# Mechanical properties :
#
#
# Convention : Reuss Voigt Hill
#
# Bulk Modulus (GPa) = 14.05033 46.71480 30.38256
# Shear Modulus (GPa) = 12.92979 27.35827 20.14403
#
# Velocity S-wave (km/s) = 2.51160 3.65342 3.13493
# Velocity P-wave (km/s) = 3.90713 6.37085 5.28457
#
# Compressibility (1/GPa) = 0.07117270
#
# Stress axis : x y z
#
# Youngs Moduli (GPa) = 48.50532 90.80317 15.60180
#
# Poissons Ratio (x) = 0.61744 -0.09571
# Poissons Ratio (y) = 0.32982 0.18115
# Poissons Ratio (z) = -0.29757 1.05431
#
# Static dielectric constant tensor:
#      x y z
#    x 3.416920 0.000000 -0.532890 
#    y 0.000000 4.842200 0.000000 
#    z -0.532890 0.000000 3.380700 
# 
# 
# High freq. dielectric constant tensor:
#      x y z
#    x 1.768410 0.000000 -0.067470 
#    y 0.000000 1.832950 0.000000 
#    z -0.067470 0.000000 1.768690 
# 
# From -- ./inp_files/98771.got.cif
#   From: 2010.06.25/outbox.cif.g09.slc.cpg/sg12_50_cif.got.tgz:98771.got - 2010.06.28 00:19:55.
