data_PCOD8091519
_publ_section_title
;
Structure prediction by ZEFSAII (Michael W. Deem and Ramdas Pophale) SiO2 
 PCOD8091519
Probable space group: C 2/M
;
_chemical_formula_sum "Si O2"
_cell_formula_units_Z 40
_cell_length_a 10.850393
_cell_length_b 16.009548
_cell_length_c 9.559720
_cell_angle_alpha 90.000000
_cell_angle_beta 88.185489
_cell_angle_gamma 90.000000
_cell_volume 1659.785208
_symmetry_space_group_name_H-M "C 2/M"
_symmetry_group_IT_number 12
_symmetry_cell_setting 'monoclinic'
loop_
_space_group_symop_operation_xyz
x,y,z
-x,y,-z
-x,-y,-z
x,-y,z
1/2+x,1/2+y,z
1/2-x,1/2+y,-z
1/2-x,1/2-y,-z
1/2+x,1/2-y,z
loop_
_atom_site_type_symbol
_atom_site_label
_atom_site_fract_x
_atom_site_fract_y
_atom_site_fract_z
Si Si1 0.715856 0.328670 0.596064
Si Si2 0.801711 0.500000 0.493160
Si Si3 0.896961 0.339421 0.850987
Si Si4 0.691051 0.596907 0.032073
Si Si5 0.500438 0.000000 0.730582
Si Si6 0.488149 0.329718 0.189014
O O1 0.750000 0.250000 0.500000
O O2 0.722266 0.415589 0.511202
O O3 0.809888 0.325282 0.721076
O O4 0.573771 0.323619 0.655617
O O5 0.903965 0.500000 0.608693
O O6 0.861777 0.500000 0.336918
O O7 0.815691 0.351557 0.995016
O O8 0.983652 0.419291 0.827000
O O9 0.989651 0.263068 0.870693
O O10 0.724529 0.500000 0.033956
O O11 0.598561 0.615558 0.907416
O O12 0.624319 0.625607 0.179678
#
# Coordination Sequence:
#
# PCOD8091519 Si02
#       6
#     8   4   8   8   4   8
#     4  10  21  34  53  80 112 149 189 229 273 335
#     4   9  18  30  51  72 103 139 194 221 259 314
#     4  10  19  34  56  84 108 141 186 235 273 328
#     4  10  20  36  58  85 109 142 191 231 273 338
#     4   9  16  30  51  76  99 139 180 228 259 314
#     4  10  20  31  56  82 112 139 180 235 283 313
#
# _framework density 24.099502999999999
#
# number of rings (size 3 to 8) (size 9 to 14) (size 15 to 20)
#    0.000    2.200    1.000    3.000    5.600    2.400 
#    0.000    0.000    4.400    3.600    5.200    0.000 
#    0.000    0.000    0.000    0.000    0.000    0.000 
#
# Total GULP energy -247872.663801 kJ/mol
# GULP energy per Si atom -12393.633190 kJ/mol
# Density = 2.404465 g / cm^3
# Si number density = 24.099503 Si / 1000 Ang^3
#
#
#
# Elastic Constant Matrix: (Units=GPa)
#
#
# Indices 1 2 3 4 5 6 
#
# 1 53.9143 42.8764 63.8855 0.0000 -44.9839 0.0000
# 2 42.8764 182.2771 50.9467 0.0000 -42.0249 0.0000
# 3 63.8855 50.9467 124.8080 0.0000 -67.5198 0.0000
# 4 0.0000 0.0000 0.0000 37.9543 0.0000 -15.5619
# 5 -44.9839 -42.0249 -67.5198 0.0000 67.3603 0.0000
# 6 0.0000 0.0000 0.0000 -15.5619 0.0000 33.7175
#
#
#
# Elastic Compliance Matrix: (Units=1/GPa)
#
#
# Indices 1 2 3 4 5 6 
#
# 1 0.059619 -0.004590 -0.018906 0.000000 0.018000 0.000000
# 2 -0.004590 0.006818 0.000457 0.000000 0.001647 0.000000
# 3 -0.018906 0.000457 0.023654 0.000000 0.011370 0.000000
# 4 0.000000 0.000000 0.000000 0.032497 0.000000 0.014999
# 5 0.018000 0.001647 0.011370 0.000000 0.039290 0.000000
# 6 0.000000 0.000000 0.000000 0.014999 0.000000 0.036581
#
#
# Mechanical properties :
#
#
# Convention : Reuss Voigt Hill
#
# Bulk Modulus (GPa) = 22.72011 75.15739 48.93875
# Shear Modulus (GPa) = 19.28970 41.35914 30.32442
#
# Velocity S-wave (km/s) = 2.83224 4.14718 3.55110
# Velocity P-wave (km/s) = 4.48815 7.36112 6.09629
#
# Compressibility (1/GPa) = 0.04401387
#
# Stress axis : x y z
#
# Youngs Moduli (GPa) = 16.77324 146.67863 42.27657
#
# Poissons Ratio (x) = 0.67321 0.79926
# Poissons Ratio (y) = 0.07698 -0.01933
# Poissons Ratio (z) = 0.31711 -0.06706
#
# Static dielectric constant tensor:
#      x y z
#    x 4.367790 0.000000 -0.805860 
#    y 0.000000 4.397450 0.000000 
#    z -0.805860 0.000000 4.629680 
# 
# 
# High freq. dielectric constant tensor:
#      x y z
#    x 1.940950 0.000000 -0.037140 
#    y 0.000000 1.968700 0.000000 
#    z -0.037140 0.000000 1.950800 
# 
# From -- ./inp_files/129609.got.cif
#   From: 2010.06.25/outbox.cif.g09.slc.cpg/sg12_65_cif.got.tgz:129609.got - 2010.06.28 00:19:55.
