data_PCOD8091222
_publ_section_title
;
Structure prediction by ZEFSAII (Michael W. Deem and Ramdas Pophale) SiO2 
 PCOD8091222
Probable space group: C 2/M
;
_chemical_formula_sum "Si O2"
_cell_formula_units_Z 56
_cell_length_a 9.364546
_cell_length_b 27.110622
_cell_length_c 18.861608
_cell_angle_alpha 90.000000
_cell_angle_beta 143.342798
_cell_angle_gamma 90.000000
_cell_volume 2858.895147
_symmetry_space_group_name_H-M "C 2/M"
_symmetry_group_IT_number 12
_symmetry_cell_setting 'monoclinic'
loop_
_space_group_symop_operation_xyz
x,y,z
-x,y,-z
-x,-y,-z
x,-y,z
1/2+x,1/2+y,z
1/2-x,1/2+y,-z
1/2-x,1/2-y,-z
1/2+x,1/2-y,z
loop_
_atom_site_type_symbol
_atom_site_label
_atom_site_fract_x
_atom_site_fract_y
_atom_site_fract_z
Si Si1 0.087013 0.441293 0.898770
Si Si2 0.826724 0.391777 0.208333
Si Si3 0.715325 0.302431 0.881597
Si Si4 0.131380 0.213424 0.127171
Si Si5 0.737911 0.444637 0.549679
Si Si6 0.919781 0.090246 0.150310
Si Si7 0.553494 0.444582 0.691666
O O1 0.110742 0.500000 0.897292
O O2 0.221859 0.411391 0.890643
O O3 0.815618 0.421242 0.785241
O O4 0.178431 0.426064 0.013475
O O5 0.806089 0.332885 0.207174
O O6 0.622222 0.416511 0.173079
O O7 0.080666 0.407744 0.340462
O O8 0.695042 0.262159 0.809304
O O9 0.575083 0.281607 0.895231
O O10 0.600953 0.355746 0.821356
O O11 0.000000 0.309739 0.000000
O O12 0.000000 0.207188 0.000000
O O13 0.500000 0.446452 0.500000
O O14 0.850089 0.500000 0.588932
O O15 0.660017 0.421623 0.441452
O O16 0.001337 0.055127 0.246605
O O17 0.570012 0.500000 0.669685
#
# Coordination Sequence:
#
# PCOD8091222 Si02
#       7
#     8   8   8   8   8   8   8
#     4  11  21  35  55  80 118 154 184 225 275 340
#     4  11  22  36  56  82 112 147 189 234 277 331
#     4  10  19  34  55  80 115 150 182 227 275 338
#     4  10  20  34  54  84 114 144 186 229 282 337
#     4  10  20  39  60  80 107 147 200 238 268 322
#     4  11  23  35  53  88 120 147 179 226 294 339
#     4  10  21  36  56  81 110 150 192 232 273 327
#
# _framework density 19.587986000000001
#
# number of rings (size 3 to 8) (size 9 to 14) (size 15 to 20)
#    0.000    1.571    1.429    6.000    0.000    5.714 
#    0.000    1.429    0.000    0.857    0.000    0.000 
#    0.000    0.000    0.000    0.000    0.000    0.000 
#
# Total GULP energy -346869.640504 kJ/mol
# GULP energy per Si atom -12388.201447 kJ/mol
# Density = 1.954340 g / cm^3
# Si number density = 19.587986 Si / 1000 Ang^3
#
#
#
# Elastic Constant Matrix: (Units=GPa)
#
#
# Indices 1 2 3 4 5 6 
#
# 1 96.7584 25.9159 11.2150 0.0000 -11.6010 0.0000
# 2 25.9159 68.1042 22.9757 -0.0003 5.7762 -0.0003
# 3 11.2150 22.9757 94.6821 0.0018 -17.4510 0.0021
# 4 0.0000 -0.0003 0.0018 14.2499 0.0002 -0.1224
# 5 -11.6010 5.7762 -17.4510 0.0002 27.7376 0.0004
# 6 0.0000 -0.0003 0.0021 -0.1224 0.0004 31.7645
#
#
#
# Elastic Compliance Matrix: (Units=1/GPa)
#
#
# Indices 1 2 3 4 5 6 
#
# 1 0.012631 -0.005854 0.001270 0.000000 0.007301 0.000000
# 2 -0.005854 0.019824 -0.006028 0.000001 -0.010370 0.000001
# 3 0.001270 -0.006028 0.013804 -0.000002 0.010471 -0.000001
# 4 0.000000 0.000001 -0.000002 0.070178 -0.000002 0.000270
# 5 0.007301 -0.010370 0.010471 -0.000002 0.047853 -0.000001
# 6 0.000000 0.000001 -0.000001 0.000270 -0.000001 0.031483
#
#
# Mechanical properties :
#
#
# Convention : Reuss Voigt Hill
#
# Bulk Modulus (GPa) = 39.94490 42.19532 41.07011
# Shear Modulus (GPa) = 22.18829 28.04627 25.11728
#
# Velocity S-wave (km/s) = 3.36929 3.78803 3.58478
# Velocity P-wave (km/s) = 5.96431 6.38126 6.17630
#
# Compressibility (1/GPa) = 0.02503449
#
# Stress axis : x y z
#
# Youngs Moduli (GPa) = 79.16889 50.44295 72.44249
#
# Poissons Ratio (x) = 0.29531 -0.09201
# Poissons Ratio (y) = 0.46348 0.43671
# Poissons Ratio (z) = -0.10056 0.30409
#
# Static dielectric constant tensor:
#      x y z
#    x 3.792410 0.000000 -0.194750 
#    y 0.000000 3.939030 0.000000 
#    z -0.194750 0.000000 3.769860 
# 
# 
# High freq. dielectric constant tensor:
#      x y z
#    x 1.779850 0.000000 -0.004190 
#    y 0.000000 1.753300 0.000000 
#    z -0.004190 0.000000 1.735060 
# 
# From -- ./inp_files/260148.got.cif
#   From: 2010.06.25/outbox.cif.g09.slc.cpg/sg12_131_cif.got.tgz:260148.got - 2010.06.28 00:19:55.
