data_PCOD8091591
_publ_section_title
;
Structure prediction by ZEFSAII (Michael W. Deem and Ramdas Pophale) SiO2 
 PCOD8091591
Probable space group: C 2/M
;
_chemical_formula_sum "Si O2"
_cell_formula_units_Z 64
_cell_length_a 20.470328
_cell_length_b 8.823878
_cell_length_c 20.495750
_cell_angle_alpha 90.000000
_cell_angle_beta 73.245981
_cell_angle_gamma 90.000000
_cell_volume 3544.949807
_symmetry_space_group_name_H-M "C 2/M"
_symmetry_group_IT_number 12
_symmetry_cell_setting 'monoclinic'
loop_
_space_group_symop_operation_xyz
x,y,z
-x,y,-z
-x,-y,-z
x,-y,z
1/2+x,1/2+y,z
1/2-x,1/2+y,-z
1/2-x,1/2-y,-z
1/2+x,1/2-y,z
loop_
_atom_site_type_symbol
_atom_site_label
_atom_site_fract_x
_atom_site_fract_y
_atom_site_fract_z
Si Si1 0.306859 0.676469 0.295718
Si Si2 0.575841 0.820970 0.495362
Si Si3 0.420346 0.667143 0.007065
Si Si4 0.336131 0.321283 0.642087
Si Si5 0.395088 0.680960 0.151632
Si Si6 0.934387 0.820192 0.725931
Si Si7 0.545199 0.681562 0.138225
Si Si8 0.421744 0.676731 0.369244
O O1 0.286705 0.500000 0.300079
O O2 0.242282 0.776437 0.332106
O O3 0.334537 0.732130 0.217116
O O4 0.364420 0.708391 0.332388
O O5 0.500000 0.760989 0.500000
O O6 0.630142 0.753966 0.430017
O O7 0.597987 0.767278 0.560368
O O8 0.579355 0.000000 0.490220
O O9 0.388413 0.500000 0.009990
O O10 0.384027 0.747184 0.080501
O O11 0.500000 0.655214 0.000000
O O12 0.413539 0.747695 0.937447
O O13 0.343464 0.500000 0.632967
O O14 0.373836 0.262248 0.696830
O O15 0.398034 0.500000 0.147392
O O16 0.467031 0.739435 0.159661
O O17 0.921546 0.759838 0.803587
O O18 0.006411 0.759355 0.678077
O O19 0.937934 0.000000 0.726999
O O20 0.546184 0.500000 0.133607
O O21 0.427103 0.500000 0.384917
#
# Coordination Sequence:
#
# PCOD8091591 Si02
#       8
#     8   8   8   8   8   8   8   8
#     4  10  20  34  53  76 105 136 169 209 252 297
#     4  11  23  38  57  80 104 128 159 205 256 302
#     4   7  10  15  30  61  99 129 154 194 249 295
#     4  11  23  37  54  74 101 135 170 207 249 303
#     4   8  12  21  39  66  99 132 159 196 252 297
#     4   9  16  28  48  72  96 128 169 207 246 292
#     4   8  11  19  38  67  98 125 161 207 247 288
#     4  10  19  34  57  79  99 131 170 207 249 297
#
# _framework density 18.053851000000002
#
# number of rings (size 3 to 8) (size 9 to 14) (size 15 to 20)
#    0.000    2.750    2.500    2.250    0.000    1.500 
#    0.000    0.000    0.000    0.750    0.000    0.000 
#    0.000    6.500    0.000    0.000    0.000    0.125 
#
# Total GULP energy -396487.885651 kJ/mol
# GULP energy per Si atom -12390.246427 kJ/mol
# Density = 1.801276 g / cm^3
# Si number density = 18.053851 Si / 1000 Ang^3
#
#
#
# Elastic Constant Matrix: (Units=GPa)
#
#
# Indices 1 2 3 4 5 6 
#
# 1 63.8478 20.6259 41.4395 0.0000 0.1214 0.0000
# 2 20.6259 26.9522 28.8771 0.0000 1.2934 0.0000
# 3 41.4395 28.8771 166.3203 0.0000 14.1689 0.0000
# 4 0.0000 0.0000 0.0000 4.3747 0.0000 -0.8673
# 5 0.1214 1.2934 14.1689 0.0000 27.8635 0.0000
# 6 0.0000 0.0000 0.0000 -0.8673 0.0000 15.1810
#
#
#
# Elastic Compliance Matrix: (Units=1/GPa)
#
#
# Indices 1 2 3 4 5 6 
#
# 1 0.022209 -0.013477 -0.003385 0.000000 0.002250 0.000000
# 2 -0.013477 0.053866 -0.006049 0.000000 0.000634 0.000000
# 3 -0.003385 -0.006049 0.008238 0.000000 -0.003894 0.000000
# 4 0.000000 0.000000 0.000000 0.231208 0.000000 0.013210
# 5 0.002250 0.000634 -0.003894 0.000000 0.037830 0.000000
# 6 0.000000 0.000000 0.000000 0.013210 0.000000 0.066627
#
#
# Mechanical properties :
#
#
# Convention : Reuss Voigt Hill
#
# Bulk Modulus (GPa) = 25.97974 48.77839 37.37907
# Shear Modulus (GPa) = 10.44649 20.56234 15.50442
#
# Velocity S-wave (km/s) = 2.40808 3.37849 2.93369
# Velocity P-wave (km/s) = 4.70672 6.50352 5.67666
#
# Compressibility (1/GPa) = 0.03849153
#
# Stress axis : x y z
#
# Youngs Moduli (GPa) = 45.02727 18.56443 121.39124
#
# Poissons Ratio (x) = 0.25019 0.41094
# Poissons Ratio (y) = 0.60683 0.73426
# Poissons Ratio (z) = 0.15243 0.11229
#
# Static dielectric constant tensor:
#      x y z
#    x 3.164210 0.000000 0.238330 
#    y 0.000000 2.808060 0.000000 
#    z 0.238330 0.000000 3.894110 
# 
# 
# High freq. dielectric constant tensor:
#      x y z
#    x 1.669200 0.000000 0.015910 
#    y 0.000000 1.643640 0.000000 
#    z 0.015910 0.000000 1.725900 
# 
# From -- ./inp_files/319864.got.cif
#   From: 2010.06.25/outbox.cif.g09.slc.cpg/sg12_160_cif.got.tgz:319864.got - 2010.06.28 00:19:55.
