data_PCOD8091884
_publ_section_title
;
Structure prediction by ZEFSAII (Michael W. Deem and Ramdas Pophale) SiO2 
 PCOD8091884
Probable space group: C 2/M
;
_chemical_formula_sum "Si O2"
_cell_formula_units_Z 56
_cell_length_a 15.847301
_cell_length_b 9.290489
_cell_length_c 22.619571
_cell_angle_alpha 90.000000
_cell_angle_beta 120.558204
_cell_angle_gamma 90.000000
_cell_volume 2867.731302
_symmetry_space_group_name_H-M "C 2/M"
_symmetry_group_IT_number 12
_symmetry_cell_setting 'monoclinic'
loop_
_space_group_symop_operation_xyz
x,y,z
-x,y,-z
-x,-y,-z
x,-y,z
1/2+x,1/2+y,z
1/2-x,1/2+y,-z
1/2-x,1/2-y,-z
1/2+x,1/2-y,z
loop_
_atom_site_type_symbol
_atom_site_label
_atom_site_fract_x
_atom_site_fract_y
_atom_site_fract_z
Si Si1 0.978691 0.664064 0.429496
Si Si2 0.185062 0.335399 0.712513
Si Si3 0.218898 0.167600 0.839325
Si Si4 0.177595 0.664613 0.431974
Si Si5 0.966472 0.833463 0.156182
Si Si6 0.057264 0.329943 0.078431
Si Si7 0.633717 0.337574 0.301420
O O1 0.949394 0.500000 0.433576
O O2 0.070392 0.676293 0.419927
O O3 0.000000 0.742809 0.500000
O O4 0.886558 0.734282 0.362774
O O5 0.153914 0.500000 0.713963
O O6 0.171820 0.248735 0.767560
O O7 0.295942 0.324033 0.730106
O O8 0.330036 0.221232 0.890040
O O9 0.148433 0.198822 0.870780
O O10 0.218244 0.000000 0.823746
O O11 0.213304 0.500000 0.440152
O O12 0.250000 0.750000 0.500000
O O13 0.172624 0.730785 0.365118
O O14 0.004040 0.738665 0.115606
O O15 0.026974 0.796889 0.237820
O O16 0.982547 0.000000 0.144955
O O17 0.051440 0.500000 0.084900
O O18 0.000000 0.278533 0.000000
O O19 0.635445 0.500000 0.327833
#
# Coordination Sequence:
#
# PCOD8091884 Si02
#       7
#     8   8   8   8   8   8   8
#     4   9  18  33  52  74 102 138 182 229 279 333
#     4  10  19  34  58  83 108 145 191 234 281 345
#     4  10  21  37  58  85 119 152 189 242 296 341
#     4  11  22  35  53  77 106 143 186 233 287 342
#     4  10  21  38  60  88 118 152 193 241 296 346
#     4  10  22  40  60  85 120 159 196 238 290 350
#     4  10  20  35  56  81 111 144 182 232 286 344
#
# _framework density 19.527629999999998
#
# number of rings (size 3 to 8) (size 9 to 14) (size 15 to 20)
#    0.000    2.000    1.429    2.143    0.000    4.857 
#    0.000    0.714    0.000    3.000    0.000    0.000 
#    0.000    0.000    0.000    0.000    0.000    0.000 
#
# Total GULP energy -347175.268613 kJ/mol
# GULP energy per Si atom -12399.116736 kJ/mol
# Density = 1.948318 g / cm^3
# Si number density = 19.527630 Si / 1000 Ang^3
#
#
#
# Elastic Constant Matrix: (Units=GPa)
#
#
# Indices 1 2 3 4 5 6 
#
# 1 107.6126 36.5928 54.0804 0.0000 6.0704 0.0000
# 2 36.5928 62.9859 44.3907 0.0000 -5.7753 0.0000
# 3 54.0804 44.3907 126.8740 0.0000 4.8700 0.0000
# 4 0.0000 0.0000 0.0000 30.8036 0.0000 -7.0321
# 5 6.0704 -5.7753 4.8700 0.0000 28.7825 0.0000
# 6 0.0000 0.0000 0.0000 -7.0321 0.0000 27.1910
#
#
#
# Elastic Compliance Matrix: (Units=1/GPa)
#
#
# Indices 1 2 3 4 5 6 
#
# 1 0.013106 -0.005391 -0.003576 0.000000 -0.003241 0.000000
# 2 -0.005391 0.024196 -0.006440 0.000000 0.007082 0.000000
# 3 -0.003576 -0.006440 0.011756 0.000000 -0.002527 0.000000
# 4 0.000000 0.000000 0.000000 0.034501 0.000000 0.008922
# 5 -0.003241 0.007082 -0.002527 0.000000 0.037275 0.000000
# 6 0.000000 0.000000 0.000000 0.008922 0.000000 0.039084
#
#
# Mechanical properties :
#
#
# Convention : Reuss Voigt Hill
#
# Bulk Modulus (GPa) = 54.80881 63.06669 58.93775
# Shear Modulus (GPa) = 25.40482 28.18267 26.79375
#
# Velocity S-wave (km/s) = 3.61081 3.80310 3.70820
# Velocity P-wave (km/s) = 6.74627 7.18686 6.97005
#
# Compressibility (1/GPa) = 0.01824524
#
# Stress axis : x y z
#
# Youngs Moduli (GPa) = 76.30373 41.32835 85.06214
#
# Poissons Ratio (x) = 0.22280 0.30415
# Poissons Ratio (y) = 0.41136 0.54778
# Poissons Ratio (z) = 0.27284 0.26614
#
# Static dielectric constant tensor:
#      x y z
#    x 3.701620 0.000000 0.211930 
#    y 0.000000 2.545740 0.000000 
#    z 0.211930 0.000000 3.616510 
# 
# 
# High freq. dielectric constant tensor:
#      x y z
#    x 1.770770 0.000000 0.009360 
#    y 0.000000 1.737480 0.000000 
#    z 0.009360 0.000000 1.763660 
# 
# From -- ./inp_files/338206.got.cif
#   From: 2010.06.25/outbox.cif.g09.slc.cpg/sg12_170_cif.got.tgz:338206.got - 2010.06.28 00:19:55.
