data_PCOD8091819
_publ_section_title
;
Structure prediction by ZEFSAII (Michael W. Deem and Ramdas Pophale) SiO2 
 PCOD8091819
Probable space group: C 2/M
;
_chemical_formula_sum "Si O2"
_cell_formula_units_Z 64
_cell_length_a 30.321956
_cell_length_b 8.966484
_cell_length_c 15.051503
_cell_angle_alpha 90.000000
_cell_angle_beta 128.218049
_cell_angle_gamma 90.000000
_cell_volume 3215.104065
_symmetry_space_group_name_H-M "C 2/M"
_symmetry_group_IT_number 12
_symmetry_cell_setting 'monoclinic'
loop_
_space_group_symop_operation_xyz
x,y,z
-x,y,-z
-x,-y,-z
x,-y,z
1/2+x,1/2+y,z
1/2-x,1/2+y,-z
1/2-x,1/2-y,-z
1/2+x,1/2-y,z
loop_
_atom_site_type_symbol
_atom_site_label
_atom_site_fract_x
_atom_site_fract_y
_atom_site_fract_z
Si Si1 0.393087 0.337268 0.698491
Si Si2 0.442329 0.665539 0.951130
Si Si3 0.290727 0.827359 0.617225
Si Si4 0.742323 0.675714 0.244333
Si Si5 0.139238 0.176539 0.003658
Si Si6 0.958381 0.172303 0.609142
Si Si7 0.870004 0.323028 0.368572
Si Si8 0.912866 0.822720 0.245244
O O1 0.367076 0.500000 0.638592
O O2 0.409801 0.349894 0.820196
O O3 0.349899 0.201104 0.642231
O O4 0.444118 0.302113 0.695094
O O5 0.458198 0.500000 0.007633
O O6 0.404065 0.746976 0.977686
O O7 0.500000 0.754661 0.000000
O O8 0.250000 0.750000 0.500000
O O9 0.286146 0.755249 0.707996
O O10 0.278227 0.000000 0.610012
O O11 0.740080 0.500000 0.258996
O O12 0.703622 0.719401 0.110157
O O13 0.806558 0.729074 0.312688
O O14 0.133122 0.000000 0.000108
O O15 0.121139 0.234488 0.884047
O O16 0.914500 0.264295 0.495572
O O17 0.022057 0.228576 0.675825
O O18 0.953563 0.000000 0.574445
O O19 0.874265 0.500000 0.369863
O O20 0.883250 0.256208 0.289749
O O21 0.908668 0.000000 0.249729
#
# Coordination Sequence:
#
# PCOD8091819 Si02
#       8
#     8   8   8   8   8   8   8   8
#     4  10  19  34  57  86 118 150 186 229 281 337
#     4   9  15  26  52  87 116 145 185 228 272 331
#     4  12  24  37  56  83 116 153 194 235 285 343
#     4  10  21  40  61  84 116 154 195 240 289 348
#     4   9  17  33  58  85 116 151 189 235 288 339
#     4  10  21  37  59  88 118 148 193 246 292 343
#     4  11  24  39  58  83 113 153 198 242 298 357
#     4  10  21  38  61  88 115 148 194 247 296 344
#
# _framework density 19.906043
#
# number of rings (size 3 to 8) (size 9 to 14) (size 15 to 20)
#    0.000    1.875    1.250    3.375    0.000    9.000 
#    0.000    0.625    0.000    0.375    0.000    0.000 
#    0.000    0.000    0.000    0.000    0.000    0.000 
#
# Total GULP energy -396563.922089 kJ/mol
# GULP energy per Si atom -12392.622565 kJ/mol
# Density = 1.986074 g / cm^3
# Si number density = 19.906043 Si / 1000 Ang^3
#
#
#
# Elastic Constant Matrix: (Units=GPa)
#
#
# Indices 1 2 3 4 5 6 
#
# 1 101.1333 31.5742 32.0648 0.0000 1.3739 0.0000
# 2 31.5742 48.8673 29.0652 0.0000 3.4613 0.0000
# 3 32.0648 29.0652 103.5784 0.0000 5.6200 0.0000
# 4 0.0000 0.0000 0.0000 19.0833 0.0000 -0.9286
# 5 1.3739 3.4613 5.6200 0.0000 41.4809 0.0000
# 6 0.0000 0.0000 0.0000 -0.9286 0.0000 26.9101
#
#
#
# Elastic Compliance Matrix: (Units=1/GPa)
#
#
# Indices 1 2 3 4 5 6 
#
# 1 0.012716 -0.007072 -0.001976 0.000000 0.000437 0.000000
# 2 -0.007072 0.028548 -0.005747 0.000000 -0.001369 0.000000
# 3 -0.001976 -0.005747 0.011937 0.000000 -0.001072 0.000000
# 4 0.000000 0.000000 0.000000 0.052490 0.000000 0.001811
# 5 0.000437 -0.001369 -0.001072 0.000000 0.024353 0.000000
# 6 0.000000 0.000000 0.000000 0.001811 0.000000 0.037223
#
#
# Mechanical properties :
#
#
# Convention : Reuss Voigt Hill
#
# Bulk Modulus (GPa) = 42.35245 48.77636 45.56440
# Shear Modulus (GPa) = 24.42256 28.21986 26.32121
#
# Velocity S-wave (km/s) = 3.50650 3.76926 3.64025
# Velocity P-wave (km/s) = 6.14137 6.59542 6.37244
#
# Compressibility (1/GPa) = 0.02361139
#
# Stress axis : x y z
#
# Youngs Moduli (GPa) = 78.63881 35.02825 83.77233
#
# Poissons Ratio (x) = 0.24772 0.16552
# Poissons Ratio (y) = 0.55614 0.48147
# Poissons Ratio (z) = 0.15537 0.20132
#
# Static dielectric constant tensor:
#      x y z
#    x 3.754320 0.000000 0.060440 
#    y 0.000000 5.934280 0.000000 
#    z 0.060440 0.000000 3.800140 
# 
# 
# High freq. dielectric constant tensor:
#      x y z
#    x 1.788750 0.000000 0.002730 
#    y 0.000000 1.734510 0.000000 
#    z 0.002730 0.000000 1.788220 
# 
# From -- ./inp_files/250027.got.cif
#   From: 2010.06.25/outbox.cif.g09.slc.cpg/sg12_126_cif.got.tgz:250027.got - 2010.06.28 00:19:55.
