data_PCOD8091165
_publ_section_title
;
Structure prediction by ZEFSAII (Michael W. Deem and Ramdas Pophale) SiO2 
 PCOD8091165
Probable space group: C 2/M
;
_chemical_formula_sum "Si O2"
_cell_formula_units_Z 56
_cell_length_a 18.603731
_cell_length_b 9.099919
_cell_length_c 27.102967
_cell_angle_alpha 90.000000
_cell_angle_beta 141.056565
_cell_angle_gamma 90.000000
_cell_volume 2884.006365
_symmetry_space_group_name_H-M "C 2/M"
_symmetry_group_IT_number 12
_symmetry_cell_setting 'monoclinic'
loop_
_space_group_symop_operation_xyz
x,y,z
-x,y,-z
-x,-y,-z
x,-y,z
1/2+x,1/2+y,z
1/2-x,1/2+y,-z
1/2-x,1/2-y,-z
1/2+x,1/2-y,z
loop_
_atom_site_type_symbol
_atom_site_label
_atom_site_fract_x
_atom_site_fract_y
_atom_site_fract_z
Si Si1 0.481329 0.173586 0.271066
Si Si2 0.602775 0.673530 0.163413
Si Si3 0.672803 0.173651 0.297612
Si Si4 0.841420 0.173133 0.013522
Si Si5 0.882924 0.333278 0.458021
Si Si6 0.726554 0.325365 0.130513
Si Si7 0.134551 0.335551 0.439050
O O1 0.554916 0.217024 0.262223
O O2 0.354645 0.242275 0.200851
O O3 0.542719 0.237222 0.352875
O O4 0.468981 0.000000 0.268569
O O5 0.621154 0.500000 0.178275
O O6 0.673522 0.752706 0.244315
O O7 0.469661 0.715900 0.097797
O O8 0.651719 0.730815 0.136988
O O9 0.777309 0.231992 0.386353
O O10 0.685849 0.000000 0.298773
O O11 0.819796 0.000000 0.005652
O O12 0.750000 0.250000 0.000000
O O13 0.828138 0.228365 0.950070
O O14 0.859323 0.500000 0.426848
O O15 0.911822 0.332634 0.530938
O O16 0.000000 0.266647 0.500000
O O17 0.729116 0.500000 0.133137
O O18 0.160110 0.500000 0.433867
O O19 0.250000 0.250000 0.500000
#
# Coordination Sequence:
#
# PCOD8091165 Si02
#       7
#     8   8   8   8   8   8   8
#     4   9  18  32  53  79 106 142 184 223 270 327
#     4  10  21  36  58  84 113 145 186 232 271 321
#     4  11  22  37  56  80 113 148 184 226 280 338
#     4  10  20  36  59  88 115 147 185 224 274 328
#     4  10  22  37  57  82 109 144 189 235 276 325
#     4   9  18  34  58  83 110 144 184 229 271 322
#     4  10  19  34  55  79 107 142 184 227 274 326
#
# _framework density 19.417432000000002
#
# number of rings (size 3 to 8) (size 9 to 14) (size 15 to 20)
#    0.000    2.143    1.429    1.714    2.000    3.714 
#    0.000    0.714    0.000    3.429    0.000    0.000 
#    0.000    0.000    0.000    0.000    0.000    0.000 
#
# Total GULP energy -347149.051005 kJ/mol
# GULP energy per Si atom -12398.180393 kJ/mol
# Density = 1.937324 g / cm^3
# Si number density = 19.417432 Si / 1000 Ang^3
#
#
#
# Elastic Constant Matrix: (Units=GPa)
#
#
# Indices 1 2 3 4 5 6 
#
# 1 119.3646 28.6841 30.9316 0.0000 -2.2123 0.0000
# 2 28.6841 39.9961 23.8566 0.0000 -0.7312 0.0001
# 3 30.9316 23.8566 95.8773 0.0000 -10.7975 0.0000
# 4 0.0000 0.0000 0.0000 24.5829 0.0000 1.4661
# 5 -2.2123 -0.7312 -10.7975 0.0000 41.1838 0.0000
# 6 0.0000 0.0001 0.0000 1.4661 0.0000 24.3732
#
#
#
# Elastic Compliance Matrix: (Units=1/GPa)
#
#
# Indices 1 2 3 4 5 6 
#
# 1 0.010368 -0.006388 -0.001757 0.000000 -0.000017 0.000000
# 2 -0.006388 0.033378 -0.006406 0.000000 -0.001430 0.000000
# 3 -0.001757 -0.006406 0.012950 0.000000 0.003187 0.000000
# 4 0.000000 0.000000 0.000000 0.040825 0.000000 -0.002456
# 5 -0.000017 -0.001430 0.003187 0.000000 0.025091 0.000000
# 6 0.000000 0.000000 0.000000 -0.002456 0.000000 0.041176
#
#
# Mechanical properties :
#
#
# Convention : Reuss Voigt Hill
#
# Bulk Modulus (GPa) = 36.23907 46.90919 41.57413
# Shear Modulus (GPa) = 24.74185 29.47903 27.11044
#
# Velocity S-wave (km/s) = 3.57348 3.90060 3.74062
# Velocity P-wave (km/s) = 5.97746 6.67061 6.33352
#
# Compressibility (1/GPa) = 0.02759453
#
# Stress axis : x y z
#
# Youngs Moduli (GPa) = 96.45302 29.95981 77.22165
#
# Poissons Ratio (x) = 0.19137 0.13571
# Poissons Ratio (y) = 0.61610 0.49465
# Poissons Ratio (z) = 0.16950 0.19191
#
# Static dielectric constant tensor:
#      x y z
#    x 3.554360 0.000000 0.406150 
#    y 0.000000 3.428470 0.000000 
#    z 0.406150 0.000000 2.875200 
# 
# 
# High freq. dielectric constant tensor:
#      x y z
#    x 1.768830 0.000000 -0.004180 
#    y 0.000000 1.714110 0.000000 
#    z -0.004180 0.000000 1.770490 
# 
# From -- ./inp_files/363166.got.cif
#   From: 2010.06.25/outbox.cif.g09.slc.cpg/sg12_182_cif.got.tgz:363166.got - 2010.06.28 00:19:55.
