data_PCOD8091899
_publ_section_title
;
Structure prediction by ZEFSAII (Michael W. Deem and Ramdas Pophale) SiO2 
 PCOD8091899
Probable space group: C 2/M
;
_chemical_formula_sum "Si O2"
_cell_formula_units_Z 64
_cell_length_a 24.397138
_cell_length_b 23.516256
_cell_length_c 20.463983
_cell_angle_alpha 90.000000
_cell_angle_beta 163.058532
_cell_angle_gamma 90.000000
_cell_volume 3421.202250
_symmetry_space_group_name_H-M "C 2/M"
_symmetry_group_IT_number 12
_symmetry_cell_setting 'monoclinic'
loop_
_space_group_symop_operation_xyz
x,y,z
-x,y,-z
-x,-y,-z
x,-y,z
1/2+x,1/2+y,z
1/2-x,1/2+y,-z
1/2-x,1/2-y,-z
1/2+x,1/2-y,z
loop_
_atom_site_type_symbol
_atom_site_label
_atom_site_fract_x
_atom_site_fract_y
_atom_site_fract_z
Si Si1 0.083653 0.868820 0.167280
Si Si2 0.385533 0.660531 0.466391
Si Si3 0.083540 0.258960 0.167055
Si Si4 0.358258 0.566007 0.018024
Si Si5 0.978896 0.435145 0.163457
Si Si6 0.538634 0.066007 0.378853
Si Si7 0.109741 0.064855 0.425179
Si Si8 0.276220 0.839469 0.857069
O O1 0.114284 0.804649 0.228528
O O2 0.284502 0.899036 0.394079
O O3 0.934699 0.899027 0.044274
O O4 0.000000 0.870168 0.000000
O O5 0.282631 0.707947 0.393308
O O6 0.413989 0.602347 0.537721
O O7 0.259051 0.645856 0.259055
O O8 0.587893 0.685197 0.675761
O O9 0.000000 0.255361 0.000000
O O10 0.938791 0.292056 0.049466
O O11 0.402529 0.500000 0.055501
O O12 0.461514 0.585628 0.201904
O O13 0.135576 0.577145 0.771128
O O14 0.908556 0.500000 0.078531
O O15 0.980709 0.414372 0.240307
O O16 0.184497 0.427664 0.368981
O O17 0.833500 0.397655 0.957219
O O18 0.596476 0.000000 0.443486
O O19 0.068571 0.000000 0.398594
#
# Coordination Sequence:
#
# PCOD8091899 Si02
#       8
#     8   8   8   8   8   8   8   8
#     4  11  23  39  61  84 108 139 181 230 276 330
#     4  10  20  35  56  81 112 149 188 229 269 312
#     4   9  20  38  55  76 108 145 184 227 276 323
#     4  10  21  38  59  84 115 146 176 216 273 336
#     4  10  19  34  58  83 112 150 185 221 270 326
#     4  10  21  38  59  84 115 146 176 216 273 336
#     4  10  19  34  58  83 112 150 185 221 270 326
#     4  10  20  35  56  81 112 149 188 229 269 312
#
# _framework density 18.706873999999999
#
# number of rings (size 3 to 8) (size 9 to 14) (size 15 to 20)
#    0.000    2.000    2.500    1.125    0.000    4.500 
#    0.000    8.750    0.000    3.000    0.000    0.000 
#    0.000    0.000    0.000    0.000    0.000    0.000 
#
# Total GULP energy -396875.543417 kJ/mol
# GULP energy per Si atom -12402.360732 kJ/mol
# Density = 1.866430 g / cm^3
# Si number density = 18.706874 Si / 1000 Ang^3
#
#
#
# Elastic Constant Matrix: (Units=GPa)
#
#
# Indices 1 2 3 4 5 6 
#
# 1 97.3258 59.6265 48.6408 -0.0038 11.6265 0.0025
# 2 59.6265 104.4373 58.7154 0.0030 -1.9574 -0.0024
# 3 48.6408 58.7154 108.0964 -0.0154 12.4280 0.0097
# 4 -0.0038 0.0030 -0.0154 11.7394 -0.0071 9.1012
# 5 11.6265 -1.9574 12.4280 -0.0071 28.7789 0.0031
# 6 0.0025 -0.0024 0.0097 9.1012 0.0031 7.6608
#
#
#
# Elastic Compliance Matrix: (Units=1/GPa)
#
#
# Indices 1 2 3 4 5 6 
#
# 1 0.017724 -0.008923 -0.002352 0.000039 -0.006751 -0.000049
# 2 -0.008923 0.018825 -0.007126 -0.000299 0.007962 0.000370
# 3 -0.002352 -0.007126 0.014864 0.000391 -0.005953 -0.000482
# 4 0.000039 -0.000299 0.000391 1.078642 0.000197 -1.281444
# 5 -0.006751 0.007962 -0.005953 0.000197 0.040588 -0.000238
# 6 -0.000049 0.000370 -0.000482 -1.281444 -0.000238 1.652910
#
#
# Mechanical properties :
#
#
# Convention : Reuss Voigt Hill
#
# Bulk Modulus (GPa) = 68.44038 71.53609 69.98824
# Shear Modulus (GPa) = 1.74506 19.16095 10.45300
#
# Velocity S-wave (km/s) = 0.96689 3.20390 2.36641
# Velocity P-wave (km/s) = 6.15724 7.21181 6.70529
#
# Compressibility (1/GPa) = 0.01461126
#
# Stress axis : x y z
#
# Youngs Moduli (GPa) = 56.42222 53.12131 67.27480
#
# Poissons Ratio (x) = 0.47400 0.15824
# Poissons Ratio (y) = 0.50346 0.47937
# Poissons Ratio (z) = 0.13272 0.37852
#
# Static dielectric constant tensor:
#      x y z
#    x 3.422080 -0.000010 0.181940 
#    y -0.000010 3.570910 -0.000030 
#    z 0.181940 -0.000030 3.504000 
# 
# 
# High freq. dielectric constant tensor:
#      x y z
#    x 1.724880 0.000000 0.016860 
#    y 0.000000 1.715840 0.000000 
#    z 0.016860 0.000000 1.732470 
# 
# From -- ./inp_files/286421.got.cif
#   From: 2010.06.25/outbox.cif.g09.slc.cpg/sg12_144_cif.got.tgz:286421.got - 2010.06.28 00:19:55.
