data_PCOD8091520
_publ_section_title
;
Structure prediction by ZEFSAII (Michael W. Deem and Ramdas Pophale) SiO2 
 PCOD8091520
Probable space group: C 2/M
;
_chemical_formula_sum "Si O2"
_cell_formula_units_Z 56
_cell_length_a 27.661437
_cell_length_b 11.737996
_cell_length_c 11.804414
_cell_angle_alpha 90.000000
_cell_angle_beta 49.622046
_cell_angle_gamma 90.000000
_cell_volume 2919.759261
_symmetry_space_group_name_H-M "C 2/M"
_symmetry_group_IT_number 12
_symmetry_cell_setting 'monoclinic'
loop_
_space_group_symop_operation_xyz
x,y,z
-x,y,-z
-x,-y,-z
x,-y,z
1/2+x,1/2+y,z
1/2-x,1/2+y,-z
1/2-x,1/2-y,-z
1/2+x,1/2-y,z
loop_
_atom_site_type_symbol
_atom_site_label
_atom_site_fract_x
_atom_site_fract_y
_atom_site_fract_z
Si Si1 0.477671 0.126799 0.914953
Si Si2 0.268418 0.630542 0.153803
Si Si3 0.864393 0.374689 0.725223
Si Si4 0.727737 0.136065 0.464355
Si Si5 0.089860 0.674550 0.580550
Si Si6 0.014330 0.127704 0.604495
Si Si7 0.898535 0.230205 0.879541
O O1 0.533561 0.120027 0.738175
O O2 0.418569 0.198913 0.959436
O O3 0.452408 0.000000 0.977557
O O4 0.500000 0.182408 0.000000
O O5 0.271255 0.500000 0.114741
O O6 0.203699 0.683875 0.200525
O O7 0.269103 0.644001 0.287866
O O8 0.327932 0.689510 0.006409
O O9 0.854027 0.500000 0.791721
O O10 0.904303 0.387963 0.548819
O O11 0.902172 0.304879 0.760811
O O12 0.750000 0.250000 0.500000
O O13 0.653779 0.159543 0.554904
O O14 0.735161 0.000000 0.499189
O O15 0.071384 0.805047 0.579703
O O16 0.000000 0.174598 0.500000
O O17 0.950256 0.131620 0.778326
O O18 0.039554 0.000000 0.558868
#
# Coordination Sequence:
#
# PCOD8091520 Si02
#       7
#     8   8   8   8   8   8   8
#     4  10  22  36  53  79 112 148 186 232 285 336
#     4   9  20  37  56  81 114 149 186 235 292 349
#     4  10  19  34  56  84 111 142 187 235 288 350
#     4  10  22  40  64  88 116 154 200 246 293 348
#     4  10  20  38  60  81 113 151 189 238 295 345
#     4  10  20  35  55  83 116 150 189 236 287 347
#     4  11  20  34  57  81 111 150 185 233 285 345
#
# _framework density 19.179663999999999
#
# number of rings (size 3 to 8) (size 9 to 14) (size 15 to 20)
#    0.000    2.000    1.429    3.429    2.000    0.571 
#    0.000    2.857    0.000    3.000    0.000    0.000 
#    0.000    0.000    0.000    0.000    0.000    0.000 
#
# Total GULP energy -346868.561544 kJ/mol
# GULP energy per Si atom -12388.162912 kJ/mol
# Density = 1.913601 g / cm^3
# Si number density = 19.179664 Si / 1000 Ang^3
#
#
#
# Elastic Constant Matrix: (Units=GPa)
#
#
# Indices 1 2 3 4 5 6 
#
# 1 77.5307 40.0165 18.1087 0.0000 14.1323 0.0000
# 2 40.0165 96.3188 14.5324 0.0000 5.5057 0.0000
# 3 18.1087 14.5324 73.4249 0.0000 -4.4438 0.0000
# 4 0.0000 0.0000 0.0000 13.3976 0.0000 4.3112
# 5 14.1323 5.5057 -4.4438 0.0000 29.0806 0.0000
# 6 0.0000 0.0000 0.0000 4.3112 0.0000 25.5081
#
#
#
# Elastic Compliance Matrix: (Units=1/GPa)
#
#
# Indices 1 2 3 4 5 6 
#
# 1 0.018818 -0.006760 -0.003814 0.000000 -0.008448 0.000000
# 2 -0.006760 0.013294 -0.000926 0.000000 0.000626 0.000000
# 3 -0.003814 -0.000926 0.015005 0.000000 0.004322 0.000000
# 4 0.000000 0.000000 0.000000 0.078933 0.000000 -0.013341
# 5 -0.008448 0.000626 0.004322 0.000000 0.039035 0.000000
# 6 0.000000 0.000000 0.000000 -0.013341 0.000000 0.041458
#
#
# Mechanical properties :
#
#
# Convention : Reuss Voigt Hill
#
# Bulk Modulus (GPa) = 41.46499 43.62106 42.54303
# Shear Modulus (GPa) = 21.04529 25.23835 23.14182
#
# Velocity S-wave (km/s) = 3.31610 3.63146 3.47736
# Velocity P-wave (km/s) = 6.02729 6.35422 6.19291
#
# Compressibility (1/GPa) = 0.02411673
#
# Stress axis : x y z
#
# Youngs Moduli (GPa) = 53.14099 75.21912 66.64440
#
# Poissons Ratio (x) = 0.50845 0.25421
# Poissons Ratio (y) = 0.35921 0.06173
# Poissons Ratio (z) = 0.20270 0.06967
#
# Static dielectric constant tensor:
#      x y z
#    x 3.544670 0.000000 0.026250 
#    y 0.000000 3.557870 0.000000 
#    z 0.026250 0.000000 3.436540 
# 
# 
# High freq. dielectric constant tensor:
#      x y z
#    x 1.739330 0.000000 -0.002600 
#    y 0.000000 1.740730 0.000000 
#    z -0.002600 0.000000 1.746740 
# 
# From -- ./inp_files/182470.got.cif
#   From: 2010.06.25/outbox.cif.g09.slc.cpg/sg12_92_cif.got.tgz:182470.got - 2010.06.28 00:19:55.
