data_PCOD8091211
_publ_section_title
;
Structure prediction by ZEFSAII (Michael W. Deem and Ramdas Pophale) SiO2 
 PCOD8091211
Probable space group: C 2/M
;
_chemical_formula_sum "Si O2"
_cell_formula_units_Z 64
_cell_length_a 20.762229
_cell_length_b 9.014136
_cell_length_c 23.346060
_cell_angle_alpha 90.000000
_cell_angle_beta 52.430137
_cell_angle_gamma 90.000000
_cell_volume 3463.151429
_symmetry_space_group_name_H-M "C 2/M"
_symmetry_group_IT_number 12
_symmetry_cell_setting 'monoclinic'
loop_
_space_group_symop_operation_xyz
x,y,z
-x,y,-z
-x,-y,-z
x,-y,z
1/2+x,1/2+y,z
1/2-x,1/2+y,-z
1/2-x,1/2-y,-z
1/2+x,1/2-y,z
loop_
_atom_site_type_symbol
_atom_site_label
_atom_site_fract_x
_atom_site_fract_y
_atom_site_fract_z
Si Si1 0.863502 0.834679 0.453421
Si Si2 0.968877 0.825684 0.079873
Si Si3 0.264750 0.825278 0.679716
Si Si4 0.231591 0.328494 0.098092
Si Si5 0.624042 0.670322 0.068868
Si Si6 0.087345 0.659244 0.475345
Si Si7 0.303716 0.167507 0.386443
Si Si8 0.704554 0.823178 0.823593
O O1 0.926732 0.772135 0.465009
O O2 0.778370 0.824340 0.532602
O O3 0.870872 0.737846 0.391865
O O4 0.886583 0.000000 0.423390
O O5 0.886818 0.735945 0.135160
O O6 0.036630 0.779534 0.090581
O O7 0.949497 0.000000 0.094421
O O8 0.000000 0.784241 0.000000
O O9 0.353535 0.783343 0.606934
O O10 0.199112 0.766503 0.669148
O O11 0.257068 0.734044 0.741969
O O12 0.251738 0.000000 0.697778
O O13 0.216605 0.500000 0.121771
O O14 0.151007 0.267673 0.109167
O O15 0.249509 0.236686 0.145415
O O16 0.310550 0.308141 0.016415
O O17 0.620505 0.500000 0.090592
O O18 0.123798 0.500000 0.477558
O O19 0.000000 0.628508 0.500000
O O20 0.326982 0.000000 0.357082
O O21 0.702845 0.000000 0.826642
#
# Coordination Sequence:
#
# PCOD8091211 Si02
#       8
#     8   8   8   8   8   8   8   8
#     4   9  16  26  45  74 103 131 164 203 251 304
#     4  10  19  36  58  82 112 145 183 229 280 328
#     4  10  20  35  55  77 105 140 175 214 268 327
#     4  10  19  34  55  80 110 146 186 226 276 330
#     4   9  18  33  55  82 111 141 179 229 279 327
#     4   9  18  33  54  79 104 133 172 219 267 315
#     4   9  16  28  47  72 101 130 164 208 252 300
#     4  12  24  36  54  81 113 147 188 230 274 328
#
# _framework density 18.480277000000001
#
# number of rings (size 3 to 8) (size 9 to 14) (size 15 to 20)
#    0.000    2.250    1.250    2.625    0.000    5.000 
#    0.000    0.000    2.750    0.000    0.000    0.000 
#    0.000    0.000    0.000    0.000    0.000    0.000 
#
# Total GULP energy -396644.594120 kJ/mol
# GULP energy per Si atom -12395.143566 kJ/mol
# Density = 1.843822 g / cm^3
# Si number density = 18.480277 Si / 1000 Ang^3
#
#
#
# Elastic Constant Matrix: (Units=GPa)
#
#
# Indices 1 2 3 4 5 6 
#
# 1 120.7432 59.6301 48.1791 0.0002 21.4614 0.0009
# 2 59.6301 116.6898 41.6804 0.0006 17.3501 0.0010
# 3 48.1791 41.6804 66.2380 0.0001 14.5263 0.0003
# 4 0.0002 0.0006 0.0001 27.6825 0.0000 9.0091
# 5 21.4614 17.3501 14.5263 0.0000 20.8921 0.0004
# 6 0.0009 0.0010 0.0003 9.0091 0.0004 29.6485
#
#
#
# Elastic Compliance Matrix: (Units=1/GPa)
#
#
# Indices 1 2 3 4 5 6 
#
# 1 0.013850 -0.003878 -0.006159 0.000000 -0.006725 0.000000
# 2 -0.003878 0.012626 -0.004364 0.000000 -0.003468 0.000000
# 3 -0.006159 -0.004364 0.023764 0.000000 -0.006572 0.000000
# 4 0.000000 0.000000 0.000000 0.040088 0.000000 -0.012181
# 5 -0.006725 -0.003468 -0.006572 0.000000 0.062222 -0.000001
# 6 0.000000 0.000000 0.000000 -0.012181 -0.000001 0.037430
#
#
# Mechanical properties :
#
#
# Convention : Reuss Voigt Hill
#
# Bulk Modulus (GPa) = 46.64473 66.96113 56.80293
# Shear Modulus (GPa) = 22.13098 25.92339 24.02718
#
# Velocity S-wave (km/s) = 3.46431 3.74941 3.60967
# Velocity P-wave (km/s) = 6.42628 7.42001 6.94095
#
# Compressibility (1/GPa) = 0.02143865
#
# Stress axis : x y z
#
# Youngs Moduli (GPa) = 72.20234 79.20470 42.08003
#
# Poissons Ratio (x) = 0.30713 0.25918
# Poissons Ratio (y) = 0.27998 0.18362
# Poissons Ratio (z) = 0.44471 0.34562
#
# Static dielectric constant tensor:
#      x y z
#    x 3.429080 0.000000 0.229070 
#    y 0.000000 3.568710 0.000000 
#    z 0.229070 0.000000 3.166640 
# 
# 
# High freq. dielectric constant tensor:
#      x y z
#    x 1.712020 0.000000 0.025190 
#    y 0.000000 1.726400 0.000000 
#    z 0.025190 0.000000 1.687110 
# 
# From -- ./inp_files/319906.got.cif
#   From: 2010.06.25/outbox.cif.g09.slc.cpg/sg12_160_cif.got.tgz:319906.got - 2010.06.28 00:19:55.
