data_PCOD8091255
_publ_section_title
;
Structure prediction by ZEFSAII (Michael W. Deem and Ramdas Pophale) SiO2 
 PCOD8091255
Probable space group: C 2/M
;
_chemical_formula_sum "Si O2"
_cell_formula_units_Z 64
_cell_length_a 14.604303
_cell_length_b 8.590151
_cell_length_c 26.929113
_cell_angle_alpha 90.000000
_cell_angle_beta 75.973396
_cell_angle_gamma 90.000000
_cell_volume 3277.611481
_symmetry_space_group_name_H-M "C 2/M"
_symmetry_group_IT_number 12
_symmetry_cell_setting 'monoclinic'
loop_
_space_group_symop_operation_xyz
x,y,z
-x,y,-z
-x,-y,-z
x,-y,z
1/2+x,1/2+y,z
1/2-x,1/2+y,-z
1/2-x,1/2-y,-z
1/2+x,1/2-y,z
loop_
_atom_site_type_symbol
_atom_site_label
_atom_site_fract_x
_atom_site_fract_y
_atom_site_fract_z
Si Si1 0.381223 0.320263 0.387644
Si Si2 0.459138 0.683519 0.865354
Si Si3 0.082193 0.183039 0.326228
Si Si4 0.341831 0.685610 0.787635
Si Si5 0.666816 0.314945 0.865097
Si Si6 0.898215 0.325154 0.489663
Si Si7 0.191719 0.180320 0.405723
Si Si8 0.727530 0.315700 0.056413
O O1 0.353438 0.500000 0.384689
O O2 0.471896 0.277322 0.342686
O O3 0.400199 0.289708 0.443050
O O4 0.300200 0.208683 0.377080
O O5 0.468814 0.500000 0.863995
O O6 0.422206 0.740104 0.816215
O O7 0.562283 0.752721 0.865310
O O8 0.379371 0.735590 0.915582
O O9 0.127196 0.251987 0.270095
O O10 0.130389 0.254613 0.369188
O O11 0.100355 0.000000 0.324565
O O12 0.332284 0.500000 0.789915
O O13 0.240170 0.757245 0.813820
O O14 0.666270 0.500000 0.866500
O O15 0.696644 0.252189 0.914966
O O16 0.870049 0.500000 0.476603
O O17 0.823645 0.268297 0.540347
O O18 0.000000 0.321017 0.500000
O O19 0.167980 0.000000 0.416210
O O20 0.737414 0.500000 0.055959
O O21 0.750000 0.250000 0.000000
#
# Coordination Sequence:
#
# PCOD8091255 Si02
#       8
#     8   8   8   8   8   8   8   8
#     4  11  22  38  58  82 108 142 181 220 267 330
#     4   8  17  33  55  77 106 145 183 217 265 322
#     4   9  20  37  58  79 107 143 179 218 272 330
#     4   9  18  37  58  78 105 143 183 223 270 324
#     4  10  19  34  55  82 109 143 185 228 270 319
#     4  11  22  37  58  82 107 140 178 222 270 324
#     4  11  22  38  57  81 110 143 179 222 272 328
#     4  10  20  36  55  80 113 151 185 226 270 321
#
# _framework density 19.526415
#
# number of rings (size 3 to 8) (size 9 to 14) (size 15 to 20)
#    0.000    2.125    1.250    3.000    0.000    2.000 
#    0.000   12.500    0.000    0.000    0.000    0.000 
#    0.000    0.000    0.000    0.000    0.000    0.000 
#
# Total GULP energy -396770.345344 kJ/mol
# GULP energy per Si atom -12399.073292 kJ/mol
# Density = 1.948197 g / cm^3
# Si number density = 19.526415 Si / 1000 Ang^3
#
#
#
# Elastic Constant Matrix: (Units=GPa)
#
#
# Indices 1 2 3 4 5 6 
#
# 1 121.0344 23.5917 43.9753 0.0000 -13.2321 0.0000
# 2 23.5917 47.8380 19.2519 0.0000 -3.8280 0.0000
# 3 43.9753 19.2519 133.6790 0.0000 -11.9430 0.0000
# 4 0.0000 0.0000 0.0000 19.6239 0.0000 -7.8845
# 5 -13.2321 -3.8280 -11.9430 0.0000 20.8704 0.0000
# 6 0.0000 0.0000 0.0000 -7.8845 0.0000 23.6037
#
#
#
# Elastic Compliance Matrix: (Units=1/GPa)
#
#
# Indices 1 2 3 4 5 6 
#
# 1 0.010385 -0.003768 -0.002474 0.000000 0.004477 0.000000
# 2 -0.003768 0.023668 -0.002102 0.000000 0.000749 0.000000
# 3 -0.002474 -0.002102 0.008876 0.000000 0.003126 0.000000
# 4 0.000000 0.000000 0.000000 0.058857 0.000000 0.019661
# 5 0.004477 0.000749 0.003126 0.000000 0.052680 0.000000
# 6 0.000000 0.000000 0.000000 0.019661 0.000000 0.048934
#
#
# Mechanical properties :
#
#
# Convention : Reuss Voigt Hill
#
# Bulk Modulus (GPa) = 38.10654 52.90990 45.50822
# Shear Modulus (GPa) = 21.84994 27.20177 24.52585
#
# Velocity S-wave (km/s) = 3.34877 3.73644 3.54790
# Velocity P-wave (km/s) = 5.87453 6.76536 6.33562
#
# Compressibility (1/GPa) = 0.02624222
#
# Stress axis : x y z
#
# Youngs Moduli (GPa) = 96.29558 42.25139 112.65950
#
# Poissons Ratio (x) = 0.15918 0.27867
# Poissons Ratio (y) = 0.36280 0.23683
# Poissons Ratio (z) = 0.23819 0.08882
#
# Static dielectric constant tensor:
#      x y z
#    x 3.819340 0.000000 -0.036310 
#    y 0.000000 3.368400 0.000000 
#    z -0.036310 0.000000 3.643170 
# 
# 
# High freq. dielectric constant tensor:
#      x y z
#    x 1.771540 0.000000 -0.004530 
#    y 0.000000 1.741240 0.000000 
#    z -0.004530 0.000000 1.758420 
# 
# From -- ./inp_files/359715.got.cif
#   From: 2010.06.25/outbox.cif.g09.slc.cpg/sg12_180_cif.got.tgz:359715.got - 2010.06.28 00:19:55.
