data_PCOD8091421
_publ_section_title
;
Structure prediction by ZEFSAII (Michael W. Deem and Ramdas Pophale) SiO2 
 PCOD8091421
Probable space group: C 2/M
;
_chemical_formula_sum "Si O2"
_cell_formula_units_Z 40
_cell_length_a 25.393412
_cell_length_b 9.681819
_cell_length_c 21.486687
_cell_angle_alpha 90.000000
_cell_angle_beta 157.554544
_cell_angle_gamma 90.000000
_cell_volume 2016.915330
_symmetry_space_group_name_H-M "C 2/M"
_symmetry_group_IT_number 12
_symmetry_cell_setting 'monoclinic'
loop_
_space_group_symop_operation_xyz
x,y,z
-x,y,-z
-x,-y,-z
x,-y,z
1/2+x,1/2+y,z
1/2-x,1/2+y,-z
1/2-x,1/2-y,-z
1/2+x,1/2-y,z
loop_
_atom_site_type_symbol
_atom_site_label
_atom_site_fract_x
_atom_site_fract_y
_atom_site_fract_z
Si Si1 0.445104 0.500000 0.343474
Si Si2 0.283777 0.500000 0.803650
Si Si3 0.009052 0.000000 0.274378
Si Si4 0.487466 0.267467 0.816955
Si Si5 0.403855 0.500000 0.808618
Si Si6 0.755407 0.288609 0.817288
Si Si7 0.171433 0.500000 0.346689
Si Si8 0.735422 0.000000 0.275875
O O1 0.427796 0.500000 0.250376
O O2 0.374516 0.363778 0.294097
O O3 0.601704 0.500000 0.535534
O O4 0.283451 0.500000 0.728321
O O5 0.207234 0.634303 0.746810
O O6 0.442215 0.500000 0.996763
O O7 0.965031 0.139334 0.189784
O O8 0.171602 0.000000 0.462110
O O9 0.386822 0.361835 0.749350
O O10 0.399970 0.134225 0.701075
O O11 0.621271 0.212890 0.998852
O O12 0.806514 0.365333 0.810150
O O13 0.153971 0.500000 0.252214
#
# Coordination Sequence:
#
# PCOD8091421 Si02
#       8
#     4   4   4   8   4   8   4   4
#     4  10  22  40  55  72 108 152 183 215 262 317
#     4   9  16  28  50  79 107 136 165 210 270 317
#     4  10  23  40  53  72 111 153 179 213 271 316
#     4  10  20  34  55  82 106 137 180 224 265 312
#     4   8  16  30  47  75 115 137 155 207 278 325
#     4  10  19  34  56  81 109 138 178 224 263 314
#     4  11  20  34  58  83 108 139 178 220 263 326
#     4  10  21  36  56  81 111 143 170 213 280 329
#
# _framework density 19.832265
#
# number of rings (size 3 to 8) (size 9 to 14) (size 15 to 20)
#    0.000    2.200    0.000    4.800    0.000    4.000 
#    0.000    3.000    0.000    4.800    0.000    0.000 
#    0.000    0.000    0.000    0.000    0.000    0.000 
#
# Total GULP energy -248005.482552 kJ/mol
# GULP energy per Si atom -12400.274128 kJ/mol
# Density = 1.978713 g / cm^3
# Si number density = 19.832265 Si / 1000 Ang^3
#
#
#
# Elastic Constant Matrix: (Units=GPa)
#
#
# Indices 1 2 3 4 5 6 
#
# 1 100.4640 43.9532 9.9071 0.0001 -10.1379 0.0001
# 2 43.9532 161.0446 18.1736 0.0001 1.2237 0.0002
# 3 9.9071 18.1736 46.3483 0.0001 -9.7717 0.0002
# 4 0.0001 0.0001 0.0001 12.7129 0.0001 1.5535
# 5 -10.1379 1.2237 -9.7717 0.0001 27.7785 0.0001
# 6 0.0001 0.0002 0.0002 1.5535 0.0001 13.7727
#
#
#
# Elastic Compliance Matrix: (Units=1/GPa)
#
#
# Indices 1 2 3 4 5 6 
#
# 1 0.011837 -0.003224 -0.000351 0.000000 0.004338 0.000000
# 2 -0.003224 0.007417 -0.002739 0.000000 -0.002467 0.000000
# 3 -0.000351 -0.002739 0.024544 0.000000 0.008626 0.000000
# 4 0.000000 0.000000 0.000000 0.079759 0.000000 -0.008996
# 5 0.004338 -0.002467 0.008626 0.000000 0.040725 0.000000
# 6 0.000000 0.000000 0.000000 -0.008996 0.000000 0.073622
#
#
# Mechanical properties :
#
#
# Convention : Reuss Voigt Hill
#
# Bulk Modulus (GPa) = 32.08378 50.21385 41.14881
# Shear Modulus (GPa) = 19.16271 26.57435 22.86853
#
# Velocity S-wave (km/s) = 3.11181 3.66451 3.39941
# Velocity P-wave (km/s) = 5.39665 6.57868 6.01677
#
# Compressibility (1/GPa) = 0.03116840
#
# Stress axis : x y z
#
# Youngs Moduli (GPa) = 84.48306 134.82164 40.74367
#
# Poissons Ratio (x) = 0.43464 0.01432
# Poissons Ratio (y) = 0.27236 0.11161
# Poissons Ratio (z) = 0.02969 0.36932
#
# Static dielectric constant tensor:
#      x y z
#    x 3.695030 0.000000 -0.332510 
#    y 0.000000 3.800390 0.000000 
#    z -0.332510 0.000000 3.366640 
# 
# 
# High freq. dielectric constant tensor:
#      x y z
#    x 1.760760 0.000000 -0.020790 
#    y 0.000000 1.788460 0.000000 
#    z -0.020790 0.000000 1.755300 
# 
# From -- ./inp_files/353166.got.cif
#   From: 2010.06.25/outbox.cif.g09.slc.cpg/sg12_177_cif.got.tgz:353166.got - 2010.06.28 00:19:55.
