data_PCOD8091482
_publ_section_title
;
Structure prediction by ZEFSAII (Michael W. Deem and Ramdas Pophale) SiO2 
 PCOD8091482
Probable space group: C 2/M
;
_chemical_formula_sum "Si O2"
_cell_formula_units_Z 56
_cell_length_a 30.434788
_cell_length_b 8.538466
_cell_length_c 18.859237
_cell_angle_alpha 90.000000
_cell_angle_beta 37.775193
_cell_angle_gamma 90.000000
_cell_volume 3002.108277
_symmetry_space_group_name_H-M "C 2/M"
_symmetry_group_IT_number 12
_symmetry_cell_setting 'monoclinic'
loop_
_space_group_symop_operation_xyz
x,y,z
-x,y,-z
-x,-y,-z
x,-y,z
1/2+x,1/2+y,z
1/2-x,1/2+y,-z
1/2-x,1/2-y,-z
1/2+x,1/2-y,z
loop_
_atom_site_type_symbol
_atom_site_label
_atom_site_fract_x
_atom_site_fract_y
_atom_site_fract_z
Si Si1 0.161425 0.682749 0.349929
Si Si2 0.202022 0.318629 0.761581
Si Si3 0.042435 0.316061 0.767915
Si Si4 0.945732 0.182817 0.006919
Si Si5 0.934709 0.824306 0.637274
Si Si6 0.309611 0.683188 0.372737
Si Si7 0.464299 0.184305 0.385520
O O1 0.177793 0.500000 0.335275
O O2 0.234658 0.779002 0.264479
O O3 0.129638 0.720147 0.312560
O O4 0.105854 0.740131 0.481668
O O5 0.204483 0.500000 0.737096
O O6 0.126647 0.281018 0.894277
O O7 0.214991 0.211521 0.676136
O O8 0.027937 0.500000 0.792841
O O9 0.117380 0.276094 0.708543
O O10 0.044018 0.259738 0.684598
O O11 0.979844 0.222529 0.887492
O O12 0.927567 0.000000 0.035437
O O13 0.000000 0.233725 0.000000
O O14 0.000000 0.817222 0.500000
O O15 0.962552 0.757816 0.676676
O O16 0.906435 0.000000 0.684377
O O17 0.321275 0.500000 0.371611
O O18 0.250000 0.750000 0.500000
O O19 0.471866 0.000000 0.382417
#
# Coordination Sequence:
#
# PCOD8091482 Si02
#       7
#     8   8   8   8   8   8   8
#     4  10  19  34  56  82 116 151 184 225 276 334
#     4  12  24  38  58  82 110 145 187 234 280 331
#     4  11  22  37  58  83 111 145 187 234 279 330
#     4  11  23  40  60  80 106 145 192 236 278 332
#     4   9  17  30  51  80 113 147 185 226 269 324
#     4  12  24  38  55  80 113 148 183 224 278 334
#     4   9  19  34  54  82 114 148 183 222 275 333
#
# _framework density 18.653556999999999
#
# number of rings (size 3 to 8) (size 9 to 14) (size 15 to 20)
#    0.000    1.429    1.429    5.143    0.000    5.143 
#    0.000    0.000    0.000    0.857    0.000    0.000 
#    0.000    0.000    0.000    0.000    0.000    0.000 
#
# Total GULP energy -347339.693113 kJ/mol
# GULP energy per Si atom -12404.989040 kJ/mol
# Density = 1.861110 g / cm^3
# Si number density = 18.653557 Si / 1000 Ang^3
#
#
#
# Elastic Constant Matrix: (Units=GPa)
#
#
# Indices 1 2 3 4 5 6 
#
# 1 100.9211 33.4730 27.1457 0.0044 -19.5737 0.0036
# 2 33.4730 62.4505 23.6625 -0.0248 -1.0540 0.0210
# 3 27.1457 23.6625 83.3004 -0.0318 -14.9308 0.0128
# 4 0.0044 -0.0248 -0.0318 27.9248 0.0283 -1.7382
# 5 -19.5737 -1.0540 -14.9308 0.0283 17.0780 -0.0139
# 6 0.0036 0.0210 0.0128 -1.7382 -0.0139 31.6207
#
#
#
# Elastic Compliance Matrix: (Units=1/GPa)
#
#
# Indices 1 2 3 4 5 6 
#
# 1 0.016194 -0.008540 0.000452 -0.000028 0.018428 0.000010
# 2 -0.008540 0.022678 -0.006122 0.000027 -0.013740 -0.000016
# 3 0.000452 -0.006122 0.016153 -0.000001 0.014262 0.000004
# 4 -0.000028 0.000027 -0.000001 0.035934 -0.000089 0.001975
# 5 0.018428 -0.013740 0.014262 -0.000089 0.091297 0.000037
# 6 0.000010 -0.000016 0.000004 0.001975 0.000037 0.031733
#
#
# Mechanical properties :
#
#
# Convention : Reuss Voigt Hill
#
# Bulk Modulus (GPa) = 37.58766 46.13717 41.86241
# Shear Modulus (GPa) = 19.89840 26.15075 23.02457
#
# Velocity S-wave (km/s) = 3.26963 3.74828 3.51711
# Velocity P-wave (km/s) = 5.86926 6.59699 6.24373
#
# Compressibility (1/GPa) = 0.02660448
#
# Stress axis : x y z
#
# Youngs Moduli (GPa) = 61.75172 44.09621 61.90882
#
# Poissons Ratio (x) = 0.37658 -0.02797
# Poissons Ratio (y) = 0.52736 0.37899
# Poissons Ratio (z) = -0.02790 0.26994
#
# Static dielectric constant tensor:
#      x y z
#    x 3.546430 -0.000020 -0.005460 
#    y -0.000020 3.423750 0.000040 
#    z -0.005460 0.000040 3.245590 
# 
# 
# High freq. dielectric constant tensor:
#      x y z
#    x 1.728010 0.000000 -0.005970 
#    y 0.000000 1.735330 0.000000 
#    z -0.005970 0.000000 1.698820 
# 
# From -- ./inp_files/281605.got.cif
#   From: 2010.06.25/outbox.cif.g09.slc.cpg/sg12_141_cif.got.tgz:281605.got - 2010.06.28 00:19:55.
