data_PCOD8091574
_publ_section_title
;
Structure prediction by ZEFSAII (Michael W. Deem and Ramdas Pophale) SiO2 
 PCOD8091574
Probable space group: C 2/M
;
_chemical_formula_sum "Si O2"
_cell_formula_units_Z 64
_cell_length_a 21.014753
_cell_length_b 8.831006
_cell_length_c 17.160974
_cell_angle_alpha 90.000000
_cell_angle_beta 90.036427
_cell_angle_gamma 90.000000
_cell_volume 3184.757105
_symmetry_space_group_name_H-M "C 2/M"
_symmetry_group_IT_number 12
_symmetry_cell_setting 'monoclinic'
loop_
_space_group_symop_operation_xyz
x,y,z
-x,y,-z
-x,-y,-z
x,-y,z
1/2+x,1/2+y,z
1/2-x,1/2+y,-z
1/2-x,1/2-y,-z
1/2+x,1/2-y,z
loop_
_atom_site_type_symbol
_atom_site_label
_atom_site_fract_x
_atom_site_fract_y
_atom_site_fract_z
Si Si1 0.187133 0.824910 0.904729
Si Si2 0.925075 0.320047 0.192989
Si Si3 0.885577 0.823004 0.658654
Si Si4 0.929206 0.335503 0.514882
Si Si5 0.743874 0.675393 0.415668
Si Si6 0.623191 0.176567 0.643128
Si Si7 0.181949 0.825088 0.087977
Si Si8 0.929384 0.321565 0.816536
O O1 0.125898 0.748346 0.866161
O O2 0.254106 0.751664 0.876959
O O3 0.188920 0.000000 0.881611
O O4 0.179038 0.799748 0.996226
O O5 0.917191 0.500000 0.191618
O O6 0.909505 0.254446 0.279597
O O7 0.996907 0.271924 0.169127
O O8 0.929309 0.783137 0.585377
O O9 0.816020 0.765205 0.633078
O O10 0.908696 0.725681 0.730849
O O11 0.888636 0.000000 0.679535
O O12 0.894368 0.500000 0.531977
O O13 0.901357 0.252002 0.438035
O O14 0.000000 0.380162 0.500000
O O15 0.736042 0.500000 0.433821
O O16 0.750000 0.750000 0.500000
O O17 0.801615 0.708454 0.356528
O O18 0.606299 0.000000 0.640510
O O19 0.117045 0.755466 0.121316
O O20 0.184891 0.000000 0.111744
O O21 0.922850 0.500000 0.825573
#
# Coordination Sequence:
#
# PCOD8091574 Si02
#       8
#     8   8   8   8   8   8   8   8
#     4  10  22  41  66  97 127 159 201 247 298 362
#     4  10  22  40  63  90 122 162 205 254 306 362
#     4  11  23  36  54  84 118 152 194 247 310 367
#     4  10  19  34  57  78 103 149 201 244 292 353
#     4  10  20  35  55  80 109 146 195 246 301 363
#     4   9  18  34  55  79 110 151 195 240 296 357
#     4  10  22  42  67  93 126 164 201 245 301 360
#     4  11  24  41  62  91 124 160 209 256 302 363
#
# _framework density 20.095724000000001
#
# number of rings (size 3 to 8) (size 9 to 14) (size 15 to 20)
#    0.000    1.875    1.250    2.250    1.750    5.750 
#    0.000    3.750    0.000    0.000    0.000    0.000 
#    0.000    0.000    0.000    0.000    0.000    0.000 
#
# Total GULP energy -396656.496895 kJ/mol
# GULP energy per Si atom -12395.515528 kJ/mol
# Density = 2.004998 g / cm^3
# Si number density = 20.095724 Si / 1000 Ang^3
#
#
#
# Elastic Constant Matrix: (Units=GPa)
#
#
# Indices 1 2 3 4 5 6 
#
# 1 125.9376 47.6640 39.1653 0.0000 -10.9823 0.0000
# 2 47.6640 62.7006 34.0646 0.0000 -4.4126 0.0000
# 3 39.1653 34.0646 61.7580 0.0000 -5.7882 0.0000
# 4 0.0000 0.0000 0.0000 35.3259 0.0000 -3.1490
# 5 -10.9823 -4.4126 -5.7882 0.0000 36.0276 0.0000
# 6 0.0000 0.0000 0.0000 -3.1490 0.0000 34.0511
#
#
#
# Elastic Compliance Matrix: (Units=1/GPa)
#
#
# Indices 1 2 3 4 5 6 
#
# 1 0.011847 -0.006970 -0.003462 0.000000 0.002201 0.000000
# 2 -0.006970 0.026896 -0.010463 0.000000 -0.000511 0.000000
# 3 -0.003462 -0.010463 0.024306 0.000000 0.001568 0.000000
# 4 0.000000 0.000000 0.000000 0.028543 0.000000 0.002640
# 5 0.002201 -0.000511 0.001568 0.000000 0.028617 0.000000
# 6 0.000000 0.000000 0.000000 0.002640 0.000000 0.029612
#
#
# Mechanical properties :
#
#
# Convention : Reuss Voigt Hill
#
# Bulk Modulus (GPa) = 47.04014 54.68711 50.86362
# Shear Modulus (GPa) = 25.16392 29.71441 27.43916
#
# Velocity S-wave (km/s) = 3.54249 3.84948 3.69917
# Velocity P-wave (km/s) = 6.33965 6.85787 6.60385
#
# Compressibility (1/GPa) = 0.02125844
#
# Stress axis : x y z
#
# Youngs Moduli (GPa) = 84.40877 37.18066 41.14205
#
# Poissons Ratio (x) = 0.25915 0.14244
# Poissons Ratio (y) = 0.58833 0.43047
# Poissons Ratio (z) = 0.29224 0.38902
#
# Static dielectric constant tensor:
#      x y z
#    x 3.932760 0.000000 -0.017210 
#    y 0.000000 3.445560 0.000000 
#    z -0.017210 0.000000 3.640390 
# 
# 
# High freq. dielectric constant tensor:
#      x y z
#    x 1.799940 0.000000 0.001110 
#    y 0.000000 1.770090 0.000000 
#    z 0.001110 0.000000 1.782630 
# 
# From -- ./inp_files/281400.got.cif
#   From: 2010.06.25/outbox.cif.g09.slc.cpg/sg12_141_cif.got.tgz:281400.got - 2010.06.28 00:19:55.
