data_PCOD8091092
_publ_section_title
;
Structure prediction by ZEFSAII (Michael W. Deem and Ramdas Pophale) SiO2 
 PCOD8091092
Probable space group: C 2/M
;
_chemical_formula_sum "Si O2"
_cell_formula_units_Z 64
_cell_length_a 25.030880
_cell_length_b 9.556458
_cell_length_c 14.144795
_cell_angle_alpha 90.000000
_cell_angle_beta 84.487001
_cell_angle_gamma 90.000000
_cell_volume 3367.876909
_symmetry_space_group_name_H-M "C 2/M"
_symmetry_group_IT_number 12
_symmetry_cell_setting 'monoclinic'
loop_
_space_group_symop_operation_xyz
x,y,z
-x,y,-z
-x,-y,-z
x,-y,z
1/2+x,1/2+y,z
1/2-x,1/2+y,-z
1/2-x,1/2-y,-z
1/2+x,1/2-y,z
loop_
_atom_site_type_symbol
_atom_site_label
_atom_site_fract_x
_atom_site_fract_y
_atom_site_fract_z
Si Si1 0.673942 0.337417 0.058600
Si Si2 0.844416 0.838668 0.268122
Si Si3 0.891264 0.843644 0.592422
Si Si4 0.581208 0.338095 0.206840
Si Si5 0.200359 0.846739 0.523027
Si Si6 0.048888 0.348756 0.557292
Si Si7 0.211436 0.663129 0.877645
Si Si8 0.535437 0.339703 0.733099
O O1 0.668235 0.500000 0.028165
O O2 0.620433 0.277443 0.119560
O O3 0.724690 0.319475 0.119769
O O4 0.679830 0.240980 0.966380
O O5 0.837298 0.802248 0.380787
O O6 0.805520 0.736284 0.217010
O O7 0.906996 0.809321 0.227796
O O8 0.830020 0.000000 0.247914
O O9 0.902520 0.775134 0.693025
O O10 0.828944 0.851967 0.574117
O O11 0.910121 0.745457 0.505527
O O12 0.917346 0.000000 0.582652
O O13 0.596135 0.500000 0.210743
O O14 0.517833 0.314739 0.192143
O O15 0.250000 0.750000 0.500000
O O16 0.222747 0.000000 0.543654
O O17 0.074405 0.500000 0.583063
O O18 0.026037 0.264906 0.649521
O O19 0.000000 0.383766 0.500000
O O20 0.195088 0.500000 0.879121
O O21 0.535105 0.500000 0.696249
#
# Coordination Sequence:
#
# PCOD8091092 Si02
#       8
#     8   8   8   8   8   8   8   8
#     4   9  19  38  61  86 111 133 174 230 275 327
#     4  10  21  37  56  81 111 146 186 226 266 321
#     4  10  19  34  55  76 104 145 191 229 263 316
#     4   9  18  32  58  86 105 136 182 232 277 313
#     4  10  22  36  52  78 113 150 188 228 272 318
#     4  11  21  31  46  73 109 144 181 223 271 317
#     4  10  21  37  61  86 108 142 178 218 278 333
#     4  10  19  35  57  78 105 144 188 227 269 321
#
# _framework density 19.003070000000001
#
# number of rings (size 3 to 8) (size 9 to 14) (size 15 to 20)
#    0.000    2.125    2.500    0.750    1.750    2.500 
#    0.000    1.875    0.000    3.750    0.000    0.000 
#    0.000    0.000    0.000    0.000    0.000    0.000 
#
# Total GULP energy -396471.946461 kJ/mol
# GULP energy per Si atom -12389.748327 kJ/mol
# Density = 1.895982 g / cm^3
# Si number density = 19.003070 Si / 1000 Ang^3
#
#
#
# Elastic Constant Matrix: (Units=GPa)
#
#
# Indices 1 2 3 4 5 6 
#
# 1 89.3871 28.3295 26.9792 0.0000 -15.5657 0.0000
# 2 28.3295 79.6913 23.6341 0.0000 -6.1822 0.0000
# 3 26.9792 23.6341 53.9718 0.0000 -8.2381 0.0000
# 4 0.0000 0.0000 0.0000 26.4182 0.0000 4.4865
# 5 -15.5657 -6.1822 -8.2381 0.0000 35.1864 0.0000
# 6 0.0000 0.0000 0.0000 4.4865 0.0000 22.1145
#
#
#
# Elastic Compliance Matrix: (Units=1/GPa)
#
#
# Indices 1 2 3 4 5 6 
#
# 1 0.014599 -0.003303 -0.005138 0.000000 0.004675 0.000000
# 2 -0.003303 0.015210 -0.005003 0.000000 0.000040 0.000000
# 3 -0.005138 -0.005003 0.023651 0.000000 0.002386 0.000000
# 4 0.000000 0.000000 0.000000 0.039203 0.000000 -0.007953
# 5 0.004675 0.000040 0.002386 0.000000 0.031054 0.000000
# 6 0.000000 0.000000 0.000000 -0.007953 0.000000 0.046833
#
#
# Mechanical properties :
#
#
# Convention : Reuss Voigt Hill
#
# Bulk Modulus (GPa) = 37.63353 42.32620 39.97987
# Shear Modulus (GPa) = 24.23719 26.35100 25.29410
#
# Velocity S-wave (km/s) = 3.57520 3.72784 3.65232
# Velocity P-wave (km/s) = 6.07368 6.39146 6.23460
#
# Compressibility (1/GPa) = 0.02657205
#
# Stress axis : x y z
#
# Youngs Moduli (GPa) = 68.49789 65.74821 42.28113
#
# Poissons Ratio (x) = 0.21720 0.21722
# Poissons Ratio (y) = 0.22628 0.21153
# Poissons Ratio (z) = 0.35191 0.32893
#
# Static dielectric constant tensor:
#      x y z
#    x 3.616360 0.000000 -0.014900 
#    y 0.000000 3.493630 0.000000 
#    z -0.014900 0.000000 3.395990 
# 
# 
# High freq. dielectric constant tensor:
#      x y z
#    x 1.740370 0.000000 -0.002620 
#    y 0.000000 1.728420 0.000000 
#    z -0.002620 0.000000 1.714410 
# 
# From -- ./inp_files/243914.got.cif
#   From: 2010.06.25/outbox.cif.g09.slc.cpg/sg12_122_cif.got.tgz:243914.got - 2010.06.28 00:19:55.
