data_PCOD8091232
_publ_section_title
;
Structure prediction by ZEFSAII (Michael W. Deem and Ramdas Pophale) SiO2 
 PCOD8091232
Probable space group: C 2/M
;
_chemical_formula_sum "Si O2"
_cell_formula_units_Z 56
_cell_length_a 19.057154
_cell_length_b 8.857456
_cell_length_c 17.775982
_cell_angle_alpha 90.000000
_cell_angle_beta 92.140603
_cell_angle_gamma 90.000000
_cell_volume 2998.454629
_symmetry_space_group_name_H-M "C 2/M"
_symmetry_group_IT_number 12
_symmetry_cell_setting 'monoclinic'
loop_
_space_group_symop_operation_xyz
x,y,z
-x,y,-z
-x,-y,-z
x,-y,z
1/2+x,1/2+y,z
1/2-x,1/2+y,-z
1/2-x,1/2-y,-z
1/2+x,1/2-y,z
loop_
_atom_site_type_symbol
_atom_site_label
_atom_site_fract_x
_atom_site_fract_y
_atom_site_fract_z
Si Si1 0.752078 0.671339 0.579461
Si Si2 0.956318 0.678834 0.072412
Si Si3 0.805463 0.825395 0.055611
Si Si4 0.501212 0.675548 0.767237
Si Si5 0.259363 0.832664 0.191799
Si Si6 0.856236 0.171424 0.697842
Si Si7 0.854836 0.829531 0.302137
O O1 0.772133 0.500000 0.565756
O O2 0.750000 0.750000 0.500000
O O3 0.814730 0.734392 0.633966
O O4 0.674048 0.686028 0.613610
O O5 0.953958 0.500000 0.080340
O O6 0.879042 0.741153 0.054955
O O7 0.986972 0.743184 0.152018
O O8 0.000000 0.727768 0.000000
O O9 0.770339 0.803915 0.135060
O O10 0.816635 0.000000 0.036953
O O11 0.750000 0.750000 0.000000
O O12 0.491294 0.500000 0.786692
O O13 0.433026 0.738727 0.720329
O O14 0.562944 0.699849 0.708303
O O15 0.182303 0.822230 0.223260
O O16 0.316348 0.805537 0.258210
O O17 0.271874 0.000000 0.157090
O O18 0.861397 0.000000 0.668076
O O19 0.836193 0.000000 0.272475
#
# Coordination Sequence:
#
# PCOD8091232 Si02
#       7
#     8   8   8   8   8   8   8
#     4  10  20  36  59  86 116 150 189 233 286 340
#     4  11  25  42  58  84 118 154 196 245 299 348
#     4  12  25  40  58  80 110 149 195 244 294 347
#     4  10  20  37  60  85 114 152 194 237 288 346
#     4  10  19  34  55  81 110 144 185 234 285 337
#     4   9  20  36  57  86 116 148 189 230 280 344
#     4   9  18  34  57  83 109 146 189 231 279 339
#
# _framework density 18.676288
#
# number of rings (size 3 to 8) (size 9 to 14) (size 15 to 20)
#    0.000    1.857    1.429    2.571    2.000    2.857 
#    0.000    0.714    0.000    4.286    0.000    0.000 
#    0.000    0.000    0.000    0.000    0.000    0.000 
#
# Total GULP energy -346963.567824 kJ/mol
# GULP energy per Si atom -12391.555994 kJ/mol
# Density = 1.863378 g / cm^3
# Si number density = 18.676288 Si / 1000 Ang^3
#
#
#
# Elastic Constant Matrix: (Units=GPa)
#
#
# Indices 1 2 3 4 5 6 
#
# 1 148.1797 51.3761 74.5840 0.0000 6.8455 0.0000
# 2 51.3761 86.0529 52.4384 0.0000 -0.6512 0.0000
# 3 74.5840 52.4384 122.7691 0.0000 -5.3380 0.0000
# 4 0.0000 0.0000 0.0000 35.7905 0.0000 1.7233
# 5 6.8455 -0.6512 -5.3380 0.0000 23.6686 0.0000
# 6 0.0000 0.0000 0.0000 1.7233 0.0000 19.8005
#
#
#
# Elastic Compliance Matrix: (Units=1/GPa)
#
#
# Indices 1 2 3 4 5 6 
#
# 1 0.010758 -0.003186 -0.005367 0.000000 -0.004409 0.000000
# 2 -0.003186 0.016681 -0.005180 0.000000 0.000212 0.000000
# 3 -0.005367 -0.005180 0.013815 0.000000 0.004525 0.000000
# 4 0.000000 0.000000 0.000000 0.028058 0.000000 -0.002442
# 5 -0.004409 0.000212 0.004525 0.000000 0.044552 0.000000
# 6 0.000000 0.000000 0.000000 -0.002442 0.000000 0.050716
#
#
# Mechanical properties :
#
#
# Convention : Reuss Voigt Hill
#
# Bulk Modulus (GPa) = 72.52346 79.31094 75.91720
# Shear Modulus (GPa) = 25.42687 27.75881 26.59284
#
# Velocity S-wave (km/s) = 3.69379 3.85946 3.77753
# Velocity P-wave (km/s) = 7.55700 7.90056 7.73069
#
# Compressibility (1/GPa) = 0.01378864
#
# Stress axis : x y z
#
# Youngs Moduli (GPa) = 92.95333 59.94758 72.38477
#
# Poissons Ratio (x) = 0.19099 0.38846
# Poissons Ratio (y) = 0.29615 0.37497
# Poissons Ratio (z) = 0.49884 0.31055
#
# Static dielectric constant tensor:
#      x y z
#    x 3.628570 0.000000 -0.138030 
#    y 0.000000 3.556150 0.000000 
#    z -0.138030 0.000000 3.333000 
# 
# 
# High freq. dielectric constant tensor:
#      x y z
#    x 1.731270 0.000000 -0.009370 
#    y 0.000000 1.732230 0.000000 
#    z -0.009370 0.000000 1.712020 
# 
# From -- ./inp_files/280450.got.cif
#   From: 2010.06.25/outbox.cif.g09.slc.cpg/sg12_141_cif.got.tgz:280450.got - 2010.06.28 00:19:55.
