data_PCOD8091316
_publ_section_title
;
Structure prediction by ZEFSAII (Michael W. Deem and Ramdas Pophale) SiO2 
 PCOD8091316
Probable space group: C 2/M
;
_chemical_formula_sum "Si O2"
_cell_formula_units_Z 64
_cell_length_a 13.666311
_cell_length_b 32.350342
_cell_length_c 8.969052
_cell_angle_alpha 90.000000
_cell_angle_beta 119.399804
_cell_angle_gamma 90.000000
_cell_volume 3454.636096
_symmetry_space_group_name_H-M "C 2/M"
_symmetry_group_IT_number 12
_symmetry_cell_setting 'monoclinic'
loop_
_space_group_symop_operation_xyz
x,y,z
-x,y,-z
-x,-y,-z
x,-y,z
1/2+x,1/2+y,z
1/2-x,1/2+y,-z
1/2-x,1/2-y,-z
1/2+x,1/2-y,z
loop_
_atom_site_type_symbol
_atom_site_label
_atom_site_fract_x
_atom_site_fract_y
_atom_site_fract_z
Si Si1 0.375516 0.388667 0.926290
Si Si2 0.278237 0.046474 0.025612
Si Si3 0.131196 0.758302 0.079854
Si Si4 0.090971 0.816741 0.813111
Si Si5 0.334970 0.323074 0.662658
Si Si6 0.273378 0.175620 0.725089
Si Si7 0.519443 0.953485 0.352381
Si Si8 0.879648 0.411456 0.836494
O O1 0.331076 0.368543 0.737409
O O2 0.500000 0.407543 0.000000
O O3 0.296760 0.425494 0.922417
O O4 0.380230 0.352009 0.047577
O O5 0.285293 0.063971 0.861719
O O6 0.228335 0.000000 0.984368
O O7 0.402723 0.046294 0.180637
O O8 0.198976 0.787729 0.244666
O O9 0.159934 0.711521 0.139232
O O10 0.148605 0.773870 0.920855
O O11 0.000000 0.767525 0.000000
O O12 0.149032 0.828009 0.700938
O O13 0.958152 0.813762 0.686738
O O14 0.242042 0.319265 0.463429
O O15 0.348287 0.136097 0.811558
O O16 0.500000 0.932605 0.500000
O O17 0.613217 0.928877 0.327128
O O18 0.565743 0.000000 0.408253
O O19 0.000000 0.417041 0.000000
#
# Coordination Sequence:
#
# PCOD8091316 Si02
#       8
#     8   8   8   8   8   8   8   8
#     4   9  18  35  53  76 104 137 177 217 265 308
#     4  10  19  34  56  77 102 137 180 218 260 322
#     4   9  19  35  51  72 106 139 174 213 259 309
#     4   9  18  35  52  73  99 143 177 214 252 318
#     4   9  20  33  52  73 106 135 177 219 255 309
#     4  12  19  30  54  80 102 136 173 222 263 308
#     4   9  19  35  55  76 105 141 175 212 265 323
#     4  10  21  34  50  79 110 138 174 217 265 316
#
# _framework density 18.525829000000002
#
# number of rings (size 3 to 8) (size 9 to 14) (size 15 to 20)
#    0.000    2.375    1.250    3.375    1.750    1.750 
#    0.000    0.000    0.000    0.000    0.000    1.750 
#    0.000    0.000    0.000    0.000    0.000    0.000 
#
# Total GULP energy -396606.715393 kJ/mol
# GULP energy per Si atom -12393.959856 kJ/mol
# Density = 1.848366 g / cm^3
# Si number density = 18.525829 Si / 1000 Ang^3
#
#
#
# Elastic Constant Matrix: (Units=GPa)
#
#
# Indices 1 2 3 4 5 6 
#
# 1 58.6583 41.2572 16.6087 0.0000 -23.9477 0.0000
# 2 41.2572 115.5300 23.6991 0.0000 -8.8460 0.0000
# 3 16.6087 23.6991 66.6283 0.0000 -18.6221 0.0000
# 4 0.0000 0.0000 0.0000 17.1391 0.0000 -0.0407
# 5 -23.9477 -8.8460 -18.6221 0.0000 27.3015 0.0000
# 6 0.0000 0.0000 0.0000 -0.0407 0.0000 16.3583
#
#
#
# Elastic Compliance Matrix: (Units=1/GPa)
#
#
# Indices 1 2 3 4 5 6 
#
# 1 0.036754 -0.011489 0.003577 0.000000 0.030956 0.000000
# 2 -0.011489 0.012948 -0.004183 0.000000 -0.008735 0.000000
# 3 0.003577 -0.004183 0.019896 0.000000 0.015353 0.000000
# 4 0.000000 0.000000 0.000000 0.058346 0.000000 0.000145
# 5 0.030956 -0.008735 0.015353 0.000000 0.071423 0.000000
# 6 0.000000 0.000000 0.000000 0.000145 0.000000 0.061131
#
#
# Mechanical properties :
#
#
# Convention : Reuss Voigt Hill
#
# Bulk Modulus (GPa) = 22.02295 44.88296 33.45295
# Shear Modulus (GPa) = 16.67647 22.77656 19.72652
#
# Velocity S-wave (km/s) = 3.00355 3.51015 3.26669
# Velocity P-wave (km/s) = 4.89304 6.38029 5.68551
#
# Compressibility (1/GPa) = 0.04540718
#
# Stress axis : x y z
#
# Youngs Moduli (GPa) = 27.20817 77.23369 50.26155
#
# Poissons Ratio (x) = 0.88731 -0.17976
# Poissons Ratio (y) = 0.31258 0.21025
# Poissons Ratio (z) = -0.09731 0.32307
#
# Static dielectric constant tensor:
#      x y z
#    x 3.509790 0.000000 -0.306880 
#    y 0.000000 3.375160 0.000000 
#    z -0.306880 0.000000 3.311140 
# 
# 
# High freq. dielectric constant tensor:
#      x y z
#    x 1.711960 0.000000 -0.019320 
#    y 0.000000 1.712770 0.000000 
#    z -0.019320 0.000000 1.708560 
# 
# From -- ./inp_files/68286.got.cif
#   From: 2010.06.25/outbox.cif.g09.slc.cpg/sg12_35_cif.got.tgz:68286.got - 2010.06.28 00:19:55.
