data_PCOD8091117
_publ_section_title
;
Structure prediction by ZEFSAII (Michael W. Deem and Ramdas Pophale) SiO2 
 PCOD8091117
Probable space group: C 2/M
;
_chemical_formula_sum "Si O2"
_cell_formula_units_Z 64
_cell_length_a 19.855195
_cell_length_b 9.330153
_cell_length_c 30.924246
_cell_angle_alpha 90.000000
_cell_angle_beta 37.069484
_cell_angle_gamma 90.000000
_cell_volume 3453.210980
_symmetry_space_group_name_H-M "C 2/M"
_symmetry_group_IT_number 12
_symmetry_cell_setting 'monoclinic'
loop_
_space_group_symop_operation_xyz
x,y,z
-x,y,-z
-x,-y,-z
x,-y,z
1/2+x,1/2+y,z
1/2-x,1/2+y,-z
1/2-x,1/2-y,-z
1/2+x,1/2-y,z
loop_
_atom_site_type_symbol
_atom_site_label
_atom_site_fract_x
_atom_site_fract_y
_atom_site_fract_z
Si Si1 0.766732 0.332776 0.924931
Si Si2 0.955194 0.166164 0.345323
Si Si3 0.913057 0.666243 0.931983
Si Si4 0.437337 0.832679 0.440896
Si Si5 0.332096 0.165089 0.191424
Si Si6 0.743860 0.832446 0.399434
Si Si7 0.189972 0.332717 0.333299
Si Si8 0.812244 0.164967 0.815427
O O1 0.742877 0.500000 0.931042
O O2 0.866365 0.304736 0.907902
O O3 0.802645 0.266367 0.861338
O O4 0.653480 0.258721 0.998959
O O5 0.868603 0.201043 0.351390
O O6 0.918117 0.255000 0.405611
O O7 0.077521 0.212347 0.267030
O O8 0.952138 0.000000 0.359760
O O9 0.900612 0.500000 0.951274
O O10 0.040833 0.717329 0.868492
O O11 0.347826 0.768209 0.520647
O O12 0.559134 0.800937 0.397193
O O13 0.417210 0.000000 0.443001
O O14 0.253648 0.255559 0.262349
O O15 0.294153 0.187402 0.161240
O O16 0.319922 0.000000 0.211239
O O17 0.730743 0.767307 0.358183
O O18 0.718841 0.000000 0.408752
O O19 0.217035 0.500000 0.315238
O O20 0.821827 0.000000 0.825853
#
# Coordination Sequence:
#
# PCOD8091117 Si02
#       8
#     8   8   8   8   8   8   8   8
#     4  10  21  37  59  86 112 138 174 220 262 309
#     4  10  20  35  54  77 107 143 183 222 264 319
#     4   9  20  39  60  82 110 144 176 212 263 316
#     4  10  19  34  55  77 106 141 178 225 275 320
#     4  10  21  38  57  78 108 145 182 218 261 316
#     4   9  19  34  53  78 106 140 182 224 271 324
#     4  10  20  34  54  79 106 140 181 225 271 318
#     4  10  21  36  55  78 109 148 180 215 265 318
#
# _framework density 18.533476
#
# number of rings (size 3 to 8) (size 9 to 14) (size 15 to 20)
#    0.000    2.250    1.250    1.125    1.750    4.000 
#    0.000    3.750    0.000    1.500    0.000    0.000 
#    0.000    0.000    0.000    0.000    0.000    0.000 
#
# Total GULP energy -396899.086163 kJ/mol
# GULP energy per Si atom -12403.096443 kJ/mol
# Density = 1.849129 g / cm^3
# Si number density = 18.533476 Si / 1000 Ang^3
#
#
#
# Elastic Constant Matrix: (Units=GPa)
#
#
# Indices 1 2 3 4 5 6 
#
# 1 89.6309 30.7976 36.7235 0.0004 -0.5335 0.0007
# 2 30.7976 49.3693 38.2009 0.0010 1.8278 0.0048
# 3 36.7235 38.2009 85.7953 -0.0014 -4.9498 0.0017
# 4 0.0004 0.0010 -0.0014 28.7232 -0.0004 5.3141
# 5 -0.5335 1.8278 -4.9498 -0.0004 34.6756 0.0021
# 6 0.0007 0.0048 0.0017 5.3141 0.0021 26.4402
#
#
#
# Elastic Compliance Matrix: (Units=1/GPa)
#
#
# Indices 1 2 3 4 5 6 
#
# 1 0.014823 -0.006629 -0.003388 0.000000 0.000094 0.000001
# 2 -0.006629 0.034325 -0.012660 -0.000001 -0.003719 -0.000005
# 3 -0.003388 -0.012660 0.018934 0.000001 0.003318 0.000001
# 4 0.000000 -0.000001 0.000001 0.036160 0.000001 -0.007268
# 5 0.000094 -0.003719 0.003318 0.000001 0.029510 -0.000002
# 6 0.000001 -0.000005 0.000001 -0.007268 -0.000002 0.039282
#
#
# Mechanical properties :
#
#
# Convention : Reuss Voigt Hill
#
# Bulk Modulus (GPa) = 43.99899 48.47104 46.23502
# Shear Modulus (GPa) = 22.12735 25.90601 24.01668
#
# Velocity S-wave (km/s) = 3.45905 3.74277 3.60370
# Velocity P-wave (km/s) = 6.30438 6.69983 6.50511
#
# Compressibility (1/GPa) = 0.02272779
#
# Stress axis : x y z
#
# Youngs Moduli (GPa) = 67.46146 29.13332 52.81412
#
# Poissons Ratio (x) = 0.19313 0.17892
# Poissons Ratio (y) = 0.44721 0.66865
# Poissons Ratio (z) = 0.22855 0.36884
#
# Static dielectric constant tensor:
#      x y z
#    x 3.554890 -0.000010 -0.070960 
#    y -0.000010 3.258180 0.000000 
#    z -0.070960 0.000000 3.467710 
# 
# 
# High freq. dielectric constant tensor:
#      x y z
#    x 1.731700 0.000000 -0.003870 
#    y 0.000000 1.700410 0.000000 
#    z -0.003870 0.000000 1.723330 
# 
# From -- ./inp_files/346026.got.cif
#   From: 2010.06.25/outbox.cif.g09.slc.cpg/sg12_174_cif.got.tgz:346026.got - 2010.06.28 00:19:55.
