data_PCOD8091229
_publ_section_title
;
Structure prediction by ZEFSAII (Michael W. Deem and Ramdas Pophale) SiO2 
 PCOD8091229
Probable space group: C 2/M
;
_chemical_formula_sum "Si O2"
_cell_formula_units_Z 44
_cell_length_a 17.894868
_cell_length_b 10.707596
_cell_length_c 12.574633
_cell_angle_alpha 90.000000
_cell_angle_beta 111.522709
_cell_angle_gamma 90.000000
_cell_volume 2241.433472
_symmetry_space_group_name_H-M "C 2/M"
_symmetry_group_IT_number 12
_symmetry_cell_setting 'monoclinic'
loop_
_space_group_symop_operation_xyz
x,y,z
-x,y,-z
-x,-y,-z
x,-y,z
1/2+x,1/2+y,z
1/2-x,1/2+y,-z
1/2-x,1/2-y,-z
1/2+x,1/2-y,z
loop_
_atom_site_type_symbol
_atom_site_label
_atom_site_fract_x
_atom_site_fract_y
_atom_site_fract_z
Si Si1 0.647429 0.863150 0.124451
Si Si2 0.205237 0.359548 0.600250
Si Si3 0.862484 0.720917 0.649118
Si Si4 0.985380 0.864200 0.226751
Si Si5 0.822802 0.147240 0.248150
Si Si6 0.500000 0.700415 0.000000
O O1 0.640514 0.865539 0.248689
O O2 0.738958 0.823429 0.143496
O O3 0.582061 0.777967 0.033966
O O4 0.629619 0.000000 0.070729
O O5 0.195807 0.500000 0.645013
O O6 0.158257 0.360955 0.464132
O O7 0.299799 0.335501 0.629798
O O8 0.168261 0.246358 0.650727
O O9 0.952839 0.771880 0.684004
O O10 0.894359 0.822224 0.203809
O O11 0.999494 0.000000 0.284550
O O12 0.001173 0.878115 0.108567
O O13 0.823596 0.000000 0.286717
#
# Coordination Sequence:
#
# PCOD8091229 Si02
#       6
#     8   8   8   8   8   4
#     4   9  17  33  52  74 103 137 171 209 257 313
#     4  10  19  34  55  81 108 139 175 216 258 303
#     4   9  19  32  53  78 105 137 175 213 255 305
#     4  10  20  36  53  74 101 135 175 218 262 312
#     4   9  20  36  54  75 107 142 174 210 259 315
#     4  10  20  32  54  78  98 128 174 224 266 306
#
# _framework density 19.630295
#
# number of rings (size 3 to 8) (size 9 to 14) (size 15 to 20)
#    0.000    2.545    0.000    1.636    0.000    6.545 
#    0.000    9.091    0.000    0.000    0.000    0.000 
#    0.000    0.000    0.000    0.000    0.000    0.000 
#
# Total GULP energy -272609.527223 kJ/mol
# GULP energy per Si atom -12391.342146 kJ/mol
# Density = 1.958562 g / cm^3
# Si number density = 19.630295 Si / 1000 Ang^3
#
#
#
# Elastic Constant Matrix: (Units=GPa)
#
#
# Indices 1 2 3 4 5 6 
#
# 1 146.4298 36.6313 17.3702 0.0000 15.2050 0.0000
# 2 36.6313 89.6011 13.5220 0.0000 3.2222 0.0000
# 3 17.3702 13.5220 46.5666 0.0000 11.6574 0.0000
# 4 0.0000 0.0000 0.0000 -0.3647 0.0000 -4.0810
# 5 15.2050 3.2222 11.6574 0.0000 27.6856 0.0000
# 6 0.0000 0.0000 0.0000 -4.0810 0.0000 22.6270
#
#
#
# Elastic Compliance Matrix: (Units=1/GPa)
#
#
# Indices 1 2 3 4 5 6 
#
# 1 0.008098 -0.002992 -0.001258 0.000000 -0.003569 0.000000
# 2 -0.002992 0.012778 -0.002944 0.000000 0.001396 0.000000
# 3 -0.001258 -0.002944 0.025196 0.000000 -0.009575 0.000000
# 4 0.000000 0.000000 0.000000 -0.908514 0.000000 -0.163857
# 5 -0.003569 0.001396 -0.009575 0.000000 0.041950 0.000000
# 6 0.000000 0.000000 0.000000 -0.163857 0.000000 0.014642
#
#
# Mechanical properties :
#
#
# Convention : Reuss Voigt Hill
#
# Bulk Modulus (GPa) = 31.56249 46.40496 38.98372
# Shear Modulus (GPa) = -6.40285 24.32786 8.96250
#
# Velocity S-wave (km/s) = -1.80798 3.52419 2.13906
# Velocity P-wave (km/s) = 3.42855 6.34434 5.09930
#
# Compressibility (1/GPa) = 0.03168318
#
# Stress axis : x y z
#
# Youngs Moduli (GPa) = 123.49273 78.25976 39.68914
#
# Poissons Ratio (x) = 0.23418 0.04994
# Poissons Ratio (y) = 0.36953 0.11683
# Poissons Ratio (z) = 0.15537 0.23037
#
# Static dielectric constant tensor:
#      x y z
#    x 3.690900 0.000000 0.146040 
#    y 0.000000 3.408740 0.000000 
#    z 0.146040 0.000000 3.305610 
# 
# 
# High freq. dielectric constant tensor:
#      x y z
#    x 1.767030 0.000000 0.016740 
#    y 0.000000 1.759310 0.000000 
#    z 0.016740 0.000000 1.742580 
# 
# From -- ./inp_files/153418.got.cif
#   From: 2010.06.25/outbox.cif.g09.slc.cpg/sg12_77_cif.got.tgz:153418.got - 2010.06.28 00:19:55.
