data_PCOD8091369
_publ_section_title
;
Structure prediction by ZEFSAII (Michael W. Deem and Ramdas Pophale) SiO2 
 PCOD8091369
Probable space group: C 2/M
;
_chemical_formula_sum "Si O2"
_cell_formula_units_Z 56
_cell_length_a 25.062435
_cell_length_b 8.560976
_cell_length_c 16.743439
_cell_angle_alpha 90.000000
_cell_angle_beta 120.808359
_cell_angle_gamma 90.000000
_cell_volume 3085.505458
_symmetry_space_group_name_H-M "C 2/M"
_symmetry_group_IT_number 12
_symmetry_cell_setting 'monoclinic'
loop_
_space_group_symop_operation_xyz
x,y,z
-x,y,-z
-x,-y,-z
x,-y,z
1/2+x,1/2+y,z
1/2-x,1/2+y,-z
1/2-x,1/2-y,-z
1/2+x,1/2-y,z
loop_
_atom_site_type_symbol
_atom_site_label
_atom_site_fract_x
_atom_site_fract_y
_atom_site_fract_z
Si Si1 0.799186 0.316761 0.207648
Si Si2 0.871828 0.315356 0.109400
Si Si3 0.945324 0.182700 0.899671
Si Si4 0.167675 0.317182 0.094671
Si Si5 0.410814 0.180966 0.405053
Si Si6 0.524782 0.318104 0.402990
Si Si7 0.988143 0.316143 0.771286
O O1 0.784444 0.500000 0.187695
O O2 0.831382 0.249979 0.151894
O O3 0.736853 0.221142 0.176174
O O4 0.843543 0.283015 0.316860
O O5 0.875211 0.500000 0.118538
O O6 0.941831 0.249133 0.166332
O O7 0.840064 0.261258 0.002785
O O8 0.879098 0.219980 0.886836
O O9 0.949275 0.274219 0.819720
O O10 0.951817 0.000000 0.887948
O O11 0.000000 0.242440 0.000000
O O12 0.153304 0.500000 0.092947
O O13 0.462911 0.224928 0.380114
O O14 0.419318 0.278382 0.493068
O O15 0.418223 0.000000 0.431329
O O16 0.510315 0.500000 0.395764
O O17 0.544349 0.266408 0.329293
O O18 0.987276 0.500000 0.757118
#
# Coordination Sequence:
#
# PCOD8091369 Si02
#       7
#     8   8   8   8   8   8   8
#     4  10  20  36  55  79 112 149 186 228 273 324
#     4   9  18  33  53  79 110 146 184 221 268 323
#     4  11  23  38  56  81 110 144 186 234 279 319
#     4  11  22  36  55  80 110 150 191 226 271 329
#     4  10  19  34  56  79 109 150 188 222 274 335
#     4  11  21  33  52  83 116 142 179 231 282 327
#     4  11  20  36  59  81 110 146 187 228 273 332
#
# _framework density 18.149374999999999
#
# number of rings (size 3 to 8) (size 9 to 14) (size 15 to 20)
#    0.000    1.571    2.857    4.286    0.000    1.714 
#    0.000    0.714    0.000    0.857    0.000    0.000 
#    0.000    0.000    0.000    0.000    0.000    0.000 
#
# Total GULP energy -347326.103830 kJ/mol
# GULP energy per Si atom -12404.503708 kJ/mol
# Density = 1.810807 g / cm^3
# Si number density = 18.149375 Si / 1000 Ang^3
#
#
#
# Elastic Constant Matrix: (Units=GPa)
#
#
# Indices 1 2 3 4 5 6 
#
# 1 93.2485 13.3190 45.3582 0.0000 1.7617 0.0000
# 2 13.3190 47.9782 30.7402 0.0000 1.4833 0.0000
# 3 45.3582 30.7402 117.5586 0.0000 -7.2301 0.0000
# 4 0.0000 0.0000 0.0000 27.1033 0.0000 0.1783
# 5 1.7617 1.4833 -7.2301 0.0000 26.5642 0.0000
# 6 0.0000 0.0000 0.0000 0.1783 0.0000 23.4148
#
#
#
# Elastic Compliance Matrix: (Units=1/GPa)
#
#
# Indices 1 2 3 4 5 6 
#
# 1 0.013345 -0.000294 -0.005213 0.000000 -0.002287 0.000000
# 2 -0.000294 0.025320 -0.006705 0.000000 -0.003219 0.000000
# 3 -0.005213 -0.006705 0.012525 0.000000 0.004129 0.000000
# 4 0.000000 0.000000 0.000000 0.036898 0.000000 -0.000281
# 5 -0.002287 -0.003219 0.004129 0.000000 0.039100 0.000000
# 6 0.000000 0.000000 0.000000 -0.000281 0.000000 0.042710
#
#
# Mechanical properties :
#
#
# Convention : Reuss Voigt Hill
#
# Bulk Modulus (GPa) = 37.36137 48.62445 42.99291
# Shear Modulus (GPa) = 24.60095 26.70766 25.65431
#
# Velocity S-wave (km/s) = 3.68567 3.84024 3.76374
# Velocity P-wave (km/s) = 6.22434 6.82002 6.52897
#
# Compressibility (1/GPa) = 0.02676561
#
# Stress axis : x y z
#
# Youngs Moduli (GPa) = 74.93547 39.49405 79.84041
#
# Poissons Ratio (x) = 0.01161 0.41618
# Poissons Ratio (y) = 0.02204 0.53537
# Poissons Ratio (z) = 0.39061 0.26483
#
# Static dielectric constant tensor:
#      x y z
#    x 3.136030 0.000000 -0.056940 
#    y 0.000000 3.205510 0.000000 
#    z -0.056940 0.000000 3.463940 
# 
# 
# High freq. dielectric constant tensor:
#      x y z
#    x 1.679880 0.000000 -0.005720 
#    y 0.000000 1.701260 0.000000 
#    z -0.005720 0.000000 1.708040 
# 
# From -- ./inp_files/287850.got.cif
#   From: 2010.06.25/outbox.cif.g09.slc.cpg/sg12_144_cif.got.tgz:287850.got - 2010.06.28 00:19:55.
