data_PCOD8091544
_publ_section_title
;
Structure prediction by ZEFSAII (Michael W. Deem and Ramdas Pophale) SiO2 
 PCOD8091544
Probable space group: C 2/M
;
_chemical_formula_sum "Si O2"
_cell_formula_units_Z 56
_cell_length_a 26.378243
_cell_length_b 16.241097
_cell_length_c 9.548597
_cell_angle_alpha 90.000000
_cell_angle_beta 136.231714
_cell_angle_gamma 90.000000
_cell_volume 2829.735975
_symmetry_space_group_name_H-M "C 2/M"
_symmetry_group_IT_number 12
_symmetry_cell_setting 'monoclinic'
loop_
_space_group_symop_operation_xyz
x,y,z
-x,y,-z
-x,-y,-z
x,-y,z
1/2+x,1/2+y,z
1/2-x,1/2+y,-z
1/2-x,1/2-y,-z
1/2+x,1/2-y,z
loop_
_atom_site_type_symbol
_atom_site_label
_atom_site_fract_x
_atom_site_fract_y
_atom_site_fract_z
Si Si1 0.379997 0.500000 0.353546
Si Si2 0.558598 0.680584 0.929466
Si Si3 0.046200 0.000000 0.787702
Si Si4 0.652021 0.776123 0.891845
Si Si5 0.573273 0.088784 0.561848
Si Si6 0.801639 0.834027 0.261029
Si Si7 0.397748 0.265894 0.697326
Si Si8 0.571097 0.910551 0.236721
O O1 0.461850 0.500000 0.575677
O O2 0.392461 0.500000 0.211813
O O3 0.331934 0.425658 0.316054
O O4 0.558122 0.583457 0.897813
O O5 0.590799 0.736844 0.869646
O O6 0.477933 0.717759 0.791805
O O7 0.608361 0.685608 0.168418
O O8 0.623537 0.839394 0.719059
O O9 0.682225 0.701775 0.859951
O O10 0.714007 0.823438 0.106690
O O11 0.500000 0.088389 0.500000
O O12 0.549496 0.102485 0.354857
O O13 0.613727 0.000000 0.659452
O O14 0.836776 0.790414 0.464984
O O15 0.381816 0.169979 0.706910
O O16 0.611458 0.000000 0.296015
O O17 0.500000 0.909673 0.000000
#
# Coordination Sequence:
#
# PCOD8091544 Si02
#       8
#     4   8   4   8   8   8   8   8
#     4  11  22  39  68  97 127 164 212 272 324 373
#     4  11  23  39  64  95 126 169 209 266 320 377
#     4  11  22  38  65 102 125 160 214 276 324 370
#     4  11  24  40  62  90 124 169 207 260 315 381
#     4  10  21  35  58  89 118 151 198 259 305 358
#     4  11  24  41  62  91 125 169 213 257 320 385
#     4  11  22  39  63  95 128 169 210 262 321 377
#     4  10  19  34  56  85 118 155 196 248 306 369
#
# _framework density 19.789833000000002
#
# number of rings (size 3 to 8) (size 9 to 14) (size 15 to 20)
#    0.000    1.286    5.714    0.857    1.000    2.286 
#    0.000    0.000    1.571    0.000    0.000    0.000 
#    0.000    0.000    0.000    0.000    0.000    0.000 
#
# Total GULP energy -346928.943647 kJ/mol
# GULP energy per Si atom -12390.319416 kJ/mol
# Density = 1.974479 g / cm^3
# Si number density = 19.789833 Si / 1000 Ang^3
#
#
#
# Elastic Constant Matrix: (Units=GPa)
#
#
# Indices 1 2 3 4 5 6 
#
# 1 42.4749 28.3974 25.2526 0.0000 -10.8088 0.0000
# 2 28.3974 170.1059 50.4556 0.0000 -3.2391 0.0000
# 3 25.2526 50.4556 124.7527 0.0000 -14.8888 0.0000
# 4 0.0000 0.0000 0.0000 27.3968 0.0000 -17.1707
# 5 -10.8088 -3.2391 -14.8888 0.0000 24.8034 0.0000
# 6 0.0000 0.0000 0.0000 -17.1707 0.0000 9.0024
#
#
#
# Elastic Compliance Matrix: (Units=1/GPa)
#
#
# Indices 1 2 3 4 5 6 
#
# 1 0.030983 -0.003967 -0.003358 0.000000 0.010968 0.000000
# 2 -0.003967 0.007203 -0.002374 0.000000 -0.002214 0.000000
# 3 -0.003358 -0.002374 0.010173 0.000000 0.004333 0.000000
# 4 0.000000 0.000000 0.000000 -0.186787 0.000000 -0.356268
# 5 0.010968 -0.002214 0.004333 0.000000 0.047409 0.000000
# 6 0.000000 0.000000 0.000000 -0.356268 0.000000 -0.568447
#
#
# Mechanical properties :
#
#
# Convention : Reuss Voigt Hill
#
# Bulk Modulus (GPa) = 34.53059 60.61609 47.57334
# Shear Modulus (GPa) = -7.93132 27.78903 9.92886
#
# Velocity S-wave (km/s) = -2.00411 3.75134 2.24233
# Velocity P-wave (km/s) = 3.48299 7.03277 5.54937
#
# Compressibility (1/GPa) = 0.02895983
#
# Stress axis : x y z
#
# Youngs Moduli (GPa) = 32.27530 138.82851 98.29901
#
# Poissons Ratio (x) = 0.55080 0.33010
# Poissons Ratio (y) = 0.12805 0.23340
# Poissons Ratio (z) = 0.10838 0.32963
#
# Static dielectric constant tensor:
#      x y z
#    x 3.449930 0.000000 -0.152150 
#    y 0.000000 4.294210 0.000000 
#    z -0.152150 0.000000 3.503140 
# 
# 
# High freq. dielectric constant tensor:
#      x y z
#    x 1.745400 0.000000 -0.024040 
#    y 0.000000 1.795510 0.000000 
#    z -0.024040 0.000000 1.772630 
# 
# From -- ./inp_files/106063.got.cif
#   From: 2010.06.25/outbox.cif.g09.slc.cpg/sg12_54_cif.got.tgz:106063.got - 2010.06.28 00:19:55.
