data_PCOD8091618
_publ_section_title
;
Structure prediction by ZEFSAII (Michael W. Deem and Ramdas Pophale) SiO2 
 PCOD8091618
Probable space group: C 2/M
;
_chemical_formula_sum "Si O2"
_cell_formula_units_Z 64
_cell_length_a 20.546119
_cell_length_b 8.677437
_cell_length_c 21.691809
_cell_angle_alpha 90.000000
_cell_angle_beta 61.765387
_cell_angle_gamma 90.000000
_cell_volume 3407.232206
_symmetry_space_group_name_H-M "C 2/M"
_symmetry_group_IT_number 12
_symmetry_cell_setting 'monoclinic'
loop_
_space_group_symop_operation_xyz
x,y,z
-x,y,-z
-x,-y,-z
x,-y,z
1/2+x,1/2+y,z
1/2-x,1/2+y,-z
1/2-x,1/2-y,-z
1/2+x,1/2-y,z
loop_
_atom_site_type_symbol
_atom_site_label
_atom_site_fract_x
_atom_site_fract_y
_atom_site_fract_z
Si Si1 0.667126 0.682805 0.918582
Si Si2 0.027824 0.819148 0.551669
Si Si3 0.089737 0.819935 0.077023
Si Si4 0.827613 0.182672 0.445243
Si Si5 0.595443 0.180670 0.702828
Si Si6 0.046314 0.180207 0.290971
Si Si7 0.334150 0.181226 0.839976
Si Si8 0.917705 0.179962 0.162990
O O1 0.663964 0.500000 0.920225
O O2 0.750849 0.743964 0.881205
O O3 0.626148 0.745142 0.876310
O O4 0.625857 0.743369 0.997968
O O5 0.107922 0.755382 0.537389
O O6 0.000000 0.742075 0.500000
O O7 0.967094 0.781284 0.631199
O O8 0.035906 0.000000 0.538326
O O9 0.123827 0.721918 0.116600
O O10 0.003241 0.787363 0.112335
O O11 0.106654 0.000000 0.080504
O O12 0.750000 0.250000 0.500000
O O13 0.846139 0.235850 0.367885
O O14 0.824168 0.000000 0.448047
O O15 0.512130 0.231687 0.725491
O O16 0.613352 0.227560 0.764616
O O17 0.604109 0.000000 0.689908
O O18 0.127568 0.236238 0.235727
O O19 0.036020 0.000000 0.282265
O O20 0.336207 0.000000 0.827822
O O21 0.902775 0.000000 0.180773
#
# Coordination Sequence:
#
# PCOD8091618 Si02
#       8
#     8   8   8   8   8   8   8   8
#     4   9  20  36  53  79 111 146 181 226 280 333
#     4   8  16  33  57  82 107 137 177 225 268 313
#     4  10  19  34  59  81 102 141 192 228 270 333
#     4  10  20  36  59  85 116 148 184 223 271 325
#     4  11  21  35  57  83 112 144 186 230 274 323
#     4  10  19  34  57  81 106 143 187 224 268 328
#     4  11  21  34  53  78 113 145 179 226 277 324
#     4  10  19  35  58  80 108 143 186 229 274 330
#
# _framework density 18.783574000000002
#
# number of rings (size 3 to 8) (size 9 to 14) (size 15 to 20)
#    0.000    2.125    1.250    3.750    0.000    1.500 
#    2.250    2.500    0.000   14.250    0.000    0.000 
#    0.000    0.000    0.000    0.000    0.000    0.000 
#
# Total GULP energy -396838.000879 kJ/mol
# GULP energy per Si atom -12401.187527 kJ/mol
# Density = 1.874082 g / cm^3
# Si number density = 18.783574 Si / 1000 Ang^3
#
#
#
# Elastic Constant Matrix: (Units=GPa)
#
#
# Indices 1 2 3 4 5 6 
#
# 1 98.2463 28.2281 67.3023 0.0002 -2.8026 -0.0004
# 2 28.2281 56.7335 33.8688 -0.0007 -2.0233 -0.0009
# 3 67.3023 33.8688 155.7481 0.0003 -4.4039 -0.0002
# 4 0.0002 -0.0007 0.0003 22.6851 0.0003 -8.3273
# 5 -2.8026 -2.0233 -4.4039 0.0003 34.2566 0.0001
# 6 -0.0004 -0.0009 -0.0002 -8.3273 0.0001 16.8610
#
#
#
# Elastic Compliance Matrix: (Units=1/GPa)
#
#
# Indices 1 2 3 4 5 6 
#
# 1 0.015288 -0.004203 -0.005685 0.000000 0.000272 0.000000
# 2 -0.004203 0.021425 -0.002827 0.000001 0.000558 0.000002
# 3 -0.005685 -0.002827 0.009509 0.000000 0.000590 0.000000
# 4 0.000000 0.000001 0.000000 0.053843 0.000000 0.026592
# 5 0.000272 0.000558 0.000590 0.000000 0.029323 0.000000
# 6 0.000000 0.000002 0.000000 0.026592 0.000000 0.072442
#
#
# Mechanical properties :
#
#
# Convention : Reuss Voigt Hill
#
# Bulk Modulus (GPa) = 48.09548 63.28070 55.68809
# Shear Modulus (GPa) = 21.35014 26.84911 24.09962
#
# Velocity S-wave (km/s) = 3.37506 3.78483 3.58581
# Velocity P-wave (km/s) = 6.39130 7.27066 6.84512
#
# Compressibility (1/GPa) = 0.02079197
#
# Stress axis : x y z
#
# Youngs Moduli (GPa) = 65.41023 46.67395 105.16902
#
# Poissons Ratio (x) = 0.19619 0.59784
# Poissons Ratio (y) = 0.27495 0.29731
# Poissons Ratio (z) = 0.37183 0.13194
#
# Static dielectric constant tensor:
#      x y z
#    x 4.243210 0.000010 0.208250 
#    y 0.000010 3.209370 0.000000 
#    z 0.208250 0.000000 3.764640 
# 
# 
# High freq. dielectric constant tensor:
#      x y z
#    x 1.720930 0.000000 -0.001050 
#    y 0.000000 1.708290 0.000000 
#    z -0.001050 0.000000 1.744970 
# 
# From -- ./inp_files/319842.got.cif
#   From: 2010.06.25/outbox.cif.g09.slc.cpg/sg12_160_cif.got.tgz:319842.got - 2010.06.28 00:19:55.
