data_PCOD8091082
_publ_section_title
;
Structure prediction by ZEFSAII (Michael W. Deem and Ramdas Pophale) SiO2 
 PCOD8091082
Probable space group: C 2/M
;
_chemical_formula_sum "Si O2"
_cell_formula_units_Z 56
_cell_length_a 14.480298
_cell_length_b 8.954564
_cell_length_c 27.874527
_cell_angle_alpha 90.000000
_cell_angle_beta 123.434386
_cell_angle_gamma 90.000000
_cell_volume 3016.232515
_symmetry_space_group_name_H-M "C 2/M"
_symmetry_group_IT_number 12
_symmetry_cell_setting 'monoclinic'
loop_
_space_group_symop_operation_xyz
x,y,z
-x,y,-z
-x,-y,-z
x,-y,z
1/2+x,1/2+y,z
1/2-x,1/2+y,-z
1/2-x,1/2-y,-z
1/2+x,1/2-y,z
loop_
_atom_site_type_symbol
_atom_site_label
_atom_site_fract_x
_atom_site_fract_y
_atom_site_fract_z
Si Si1 0.251122 0.323658 0.261904
Si Si2 0.065668 0.823862 0.566018
Si Si3 0.812090 0.324876 0.651744
Si Si4 0.591567 0.671351 0.946275
Si Si5 0.978942 0.678499 0.348014
Si Si6 0.841648 0.827794 0.854693
Si Si7 0.750572 0.676163 0.074099
O O1 0.272517 0.500000 0.267765
O O2 0.187361 0.274561 0.292301
O O3 0.368913 0.241536 0.291356
O O4 0.174539 0.275901 0.195895
O O5 0.193863 0.775852 0.595462
O O6 0.011049 0.737790 0.594912
O O7 0.000000 0.775645 0.500000
O O8 0.056776 0.000000 0.573900
O O9 0.825018 0.500000 0.652025
O O10 0.915306 0.257224 0.651596
O O11 0.623869 0.500000 0.948010
O O12 0.461623 0.694679 0.912186
O O13 0.634365 0.759905 0.912087
O O14 0.649340 0.733447 0.011319
O O15 0.974358 0.500000 0.346882
O O16 0.761275 0.771985 0.874194
O O17 0.821228 0.000000 0.834250
O O18 0.752855 0.500000 0.073834
#
# Coordination Sequence:
#
# PCOD8091082 Si02
#       7
#     8   8   8   8   8   8   8
#     4  10  21  37  53  72 100 132 169 210 254 303
#     4   9  18  34  54  78 110 142 170 203 246 296
#     4   8  17  34  53  72  99 136 169 202 249 297
#     4   9  18  33  52  74 100 130 166 206 247 300
#     4  10  19  34  55  76 101 134 172 211 251 294
#     4  10  20  34  52  74 100 131 167 206 253 303
#     4   9  18  33  52  73 100 133 165 202 252 304
#
# _framework density 18.566208
#
# number of rings (size 3 to 8) (size 9 to 14) (size 15 to 20)
#    0.000    2.714    0.000    2.143    0.000    4.857 
#    0.000   11.429    0.000    4.286    0.000    0.000 
#    0.000    0.000    0.000    0.000    0.000    0.000 
#
# Total GULP energy -347117.188169 kJ/mol
# GULP energy per Si atom -12397.042435 kJ/mol
# Density = 1.852395 g / cm^3
# Si number density = 18.566208 Si / 1000 Ang^3
#
#
#
# Elastic Constant Matrix: (Units=GPa)
#
#
# Indices 1 2 3 4 5 6 
#
# 1 121.8971 29.4876 31.3432 0.0000 -15.9994 0.0000
# 2 29.4876 38.0647 28.0974 0.0000 -7.4994 0.0000
# 3 31.3432 28.0974 83.0531 0.0000 -12.4183 0.0000
# 4 0.0000 0.0000 0.0000 30.7289 0.0000 -1.7429
# 5 -15.9994 -7.4994 -12.4183 0.0000 18.6776 0.0000
# 6 0.0000 0.0000 0.0000 -1.7429 0.0000 26.3340
#
#
#
# Elastic Compliance Matrix: (Units=1/GPa)
#
#
# Indices 1 2 3 4 5 6 
#
# 1 0.010810 -0.006454 -0.000998 0.000000 0.006005 0.000000
# 2 -0.006454 0.039680 -0.010474 0.000000 0.003440 0.000000
# 3 -0.000998 -0.010474 0.016882 0.000000 0.006164 0.000000
# 4 0.000000 0.000000 0.000000 0.032665 0.000000 0.002162
# 5 0.006005 0.003440 0.006164 0.000000 0.064163 0.000000
# 6 0.000000 0.000000 0.000000 0.002162 0.000000 0.038117
#
#
# Mechanical properties :
#
#
# Convention : Reuss Voigt Hill
#
# Bulk Modulus (GPa) = 31.72658 46.76349 39.24503
# Shear Modulus (GPa) = 20.10649 25.42056 22.76353
#
# Velocity S-wave (km/s) = 3.29441 3.70426 3.50533
# Velocity P-wave (km/s) = 5.62106 6.59830 6.12918
#
# Compressibility (1/GPa) = 0.03151931
#
# Stress axis : x y z
#
# Youngs Moduli (GPa) = 92.50935 25.20169 59.23384
#
# Poissons Ratio (x) = 0.16266 0.05912
# Poissons Ratio (y) = 0.59707 0.62041
# Poissons Ratio (z) = 0.09234 0.26396
#
# Static dielectric constant tensor:
#      x y z
#    x 3.596520 0.000000 -0.093940 
#    y 0.000000 3.236450 0.000000 
#    z -0.093940 0.000000 3.417280 
# 
# 
# High freq. dielectric constant tensor:
#      x y z
#    x 1.724430 0.000000 -0.005370 
#    y 0.000000 1.702070 0.000000 
#    z -0.005370 0.000000 1.719250 
# 
# From -- ./inp_files/360016.got.cif
#   From: 2010.06.25/outbox.cif.g09.slc.cpg/sg12_181_cif.got.tgz:360016.got - 2010.06.28 00:19:55.
