data_PCOD8091882
_publ_section_title
;
Structure prediction by ZEFSAII (Michael W. Deem and Ramdas Pophale) SiO2 
 PCOD8091882
Probable space group: C 2/M
;
_chemical_formula_sum "Si O2"
_cell_formula_units_Z 64
_cell_length_a 19.872620
_cell_length_b 9.151474
_cell_length_c 18.910625
_cell_angle_alpha 90.000000
_cell_angle_beta 89.247128
_cell_angle_gamma 90.000000
_cell_volume 3438.860564
_symmetry_space_group_name_H-M "C 2/M"
_symmetry_group_IT_number 12
_symmetry_cell_setting 'monoclinic'
loop_
_space_group_symop_operation_xyz
x,y,z
-x,y,-z
-x,-y,-z
x,-y,z
1/2+x,1/2+y,z
1/2-x,1/2+y,-z
1/2-x,1/2-y,-z
1/2+x,1/2-y,z
loop_
_atom_site_type_symbol
_atom_site_label
_atom_site_fract_x
_atom_site_fract_y
_atom_site_fract_z
Si Si1 0.796433 0.827031 0.942374
Si Si2 0.641326 0.832637 0.571805
Si Si3 0.893500 0.169575 0.568505
Si Si4 0.766145 0.168949 0.663951
Si Si5 0.504598 0.168357 0.648283
Si Si6 0.546808 0.832908 0.202460
Si Si7 0.795835 0.331647 0.799687
Si Si8 0.048388 0.828676 0.061503
O O1 0.774115 0.763110 0.867366
O O2 0.874391 0.786973 0.957030
O O3 0.784486 0.000000 0.943548
O O4 0.750000 0.750000 0.000000
O O5 0.632110 0.730842 0.504988
O O6 0.710228 0.785265 0.608024
O O7 0.582565 0.810204 0.629841
O O8 0.643892 0.000000 0.545718
O O9 0.838579 0.199808 0.629332
O O10 0.962599 0.245120 0.590240
O O11 0.907795 0.000000 0.558009
O O12 0.756277 0.268705 0.732949
O O13 0.758082 0.000000 0.686090
O O14 0.491835 0.227857 0.727826
O O15 0.481684 0.000000 0.644475
O O16 0.625440 0.813049 0.215737
O O17 0.523423 0.742517 0.134718
O O18 0.527662 0.000000 0.187854
O O19 0.775657 0.500000 0.812278
O O20 0.040230 0.000000 0.071485
O O21 0.000000 0.770000 0.000000
#
# Coordination Sequence:
#
# PCOD8091882 Si02
#       8
#     8   8   8   8   8   8   8   8
#     4  10  20  36  58  83 114 146 181 222 265 319
#     4  10  22  38  55  76 109 145 178 222 276 327
#     4  11  22  35  56  81 107 139 182 227 270 323
#     4  10  21  37  55  79 109 143 181 223 272 323
#     4  10  20  37  57  78 106 141 181 223 270 322
#     4   9  18  33  55  81 106 137 181 223 259 314
#     4  10  19  34  58  83 108 141 183 226 266 317
#     4   9  19  36  57  81 111 144 177 218 268 318
#
# _framework density 18.610814999999999
#
# number of rings (size 3 to 8) (size 9 to 14) (size 15 to 20)
#    0.000    2.125    1.250    1.875    0.000    4.750 
#    2.250    0.000    0.000    0.000    0.000    0.000 
#    0.000    0.000    0.000    0.000    0.000    0.000 
#
# Total GULP energy -396923.426337 kJ/mol
# GULP energy per Si atom -12403.857073 kJ/mol
# Density = 1.856846 g / cm^3
# Si number density = 18.610815 Si / 1000 Ang^3
#
#
#
# Elastic Constant Matrix: (Units=GPa)
#
#
# Indices 1 2 3 4 5 6 
#
# 1 40.4850 26.9700 16.8268 0.0000 9.6660 0.0000
# 2 26.9700 78.2381 55.0067 0.0000 -0.0535 0.0000
# 3 16.8268 55.0067 115.6290 0.0000 8.9612 0.0000
# 4 0.0000 0.0000 0.0000 40.0904 0.0000 1.2031
# 5 9.6660 -0.0535 8.9612 0.0000 25.7974 0.0000
# 6 0.0000 0.0000 0.0000 1.2031 0.0000 20.7083
#
#
#
# Elastic Compliance Matrix: (Units=1/GPa)
#
#
# Indices 1 2 3 4 5 6 
#
# 1 0.036845 -0.014646 0.002752 0.000000 -0.014792 0.000000
# 2 -0.014646 0.025304 -0.010622 0.000000 0.009230 0.000000
# 3 0.002752 -0.010622 0.013753 0.000000 -0.005830 0.000000
# 4 0.000000 0.000000 0.000000 0.024987 0.000000 -0.001452
# 5 -0.014792 0.009230 -0.005830 0.000000 0.046350 0.000000
# 6 0.000000 0.000000 0.000000 -0.001452 0.000000 0.048374
#
#
# Mechanical properties :
#
#
# Convention : Reuss Voigt Hill
#
# Bulk Modulus (GPa) = 32.39342 47.99547 40.19445
# Shear Modulus (GPa) = 19.92544 26.35578 23.14061
#
# Velocity S-wave (km/s) = 3.27561 3.76726 3.53001
# Velocity P-wave (km/s) = 5.63468 6.69089 6.18537
#
# Compressibility (1/GPa) = 0.03087047
#
# Stress axis : x y z
#
# Youngs Moduli (GPa) = 27.14061 39.51902 72.71334
#
# Poissons Ratio (x) = 0.57880 -0.20010
# Poissons Ratio (y) = 0.39750 0.77233
# Poissons Ratio (z) = -0.07469 0.41976
#
# Static dielectric constant tensor:
#      x y z
#    x 3.371220 0.000000 -0.024500 
#    y 0.000000 3.425140 0.000000 
#    z -0.024500 0.000000 3.504160 
# 
# 
# High freq. dielectric constant tensor:
#      x y z
#    x 1.710780 0.000000 -0.001720 
#    y 0.000000 1.722930 0.000000 
#    z -0.001720 0.000000 1.730830 
# 
# From -- ./inp_files/281324.got.cif
#   From: 2010.06.25/outbox.cif.g09.slc.cpg/sg12_141_cif.got.tgz:281324.got - 2010.06.28 00:19:55.
