data_PCOD8091214
_publ_section_title
;
Structure prediction by ZEFSAII (Michael W. Deem and Ramdas Pophale) SiO2 
 PCOD8091214
Probable space group: C 2/M
;
_chemical_formula_sum "Si O2"
_cell_formula_units_Z 56
_cell_length_a 8.183468
_cell_length_b 18.707224
_cell_length_c 27.017334
_cell_angle_alpha 90.000000
_cell_angle_beta 137.716914
_cell_angle_gamma 90.000000
_cell_volume 2782.732292
_symmetry_space_group_name_H-M "C 2/M"
_symmetry_group_IT_number 12
_symmetry_cell_setting 'monoclinic'
loop_
_space_group_symop_operation_xyz
x,y,z
-x,y,-z
-x,-y,-z
x,-y,z
1/2+x,1/2+y,z
1/2-x,1/2+y,-z
1/2-x,1/2-y,-z
1/2+x,1/2-y,z
loop_
_atom_site_type_symbol
_atom_site_label
_atom_site_fract_x
_atom_site_fract_y
_atom_site_fract_z
Si Si1 0.163888 0.671216 0.719102
Si Si2 0.452980 0.840652 0.861287
Si Si3 0.315373 0.579044 0.003441
Si Si4 0.358238 0.686228 0.870249
Si Si5 0.029557 0.918847 0.278225
Si Si6 0.335840 0.277101 0.365777
Si Si7 0.232126 0.647536 0.579024
O O1 0.304721 0.669217 0.801685
O O2 0.246643 0.601188 0.707603
O O3 0.228895 0.743711 0.702937
O O4 0.876257 0.669441 0.664410
O O5 0.425699 0.769475 0.888150
O O6 0.632764 0.829936 0.855420
O O7 0.194726 0.865929 0.782097
O O8 0.554631 0.898607 0.922871
O O9 0.292261 0.500000 0.022732
O O10 0.410411 0.637084 0.064164
O O11 0.500000 0.576053 0.000000
O O12 0.124407 0.909801 0.355536
O O13 0.948158 0.000000 0.251436
O O14 0.581309 0.322763 0.420078
O O15 0.371803 0.212498 0.411707
O O16 0.000000 0.611562 0.500000
#
# Coordination Sequence:
#
# PCOD8091214 Si02
#       7
#     8   8   8   8   8   8   8
#     4  10  19  34  55  80 112 140 179 229 274 329
#     4  11  21  37  59  82 111 145 188 235 278 329
#     4   9  20  36  53  78 113 150 187 228 275 328
#     4  11  20  34  60  87 109 142 185 233 283 326
#     4  11  24  39  55  77 110 151 188 229 281 332
#     4   9  18  34  57  87 113 141 178 226 282 328
#     4  10  19  34  59  87 115 143 179 227 277 334
#
# _framework density 20.124106999999999
#
# number of rings (size 3 to 8) (size 9 to 14) (size 15 to 20)
#    0.000    1.857    0.000    6.429    0.000    1.429 
#    0.000    4.286    0.000    5.143    0.000    0.000 
#    0.000    0.000    0.000    0.000    0.000    0.000 
#
# Total GULP energy -347177.348105 kJ/mol
# GULP energy per Si atom -12399.191004 kJ/mol
# Density = 2.007830 g / cm^3
# Si number density = 20.124107 Si / 1000 Ang^3
#
#
#
# Elastic Constant Matrix: (Units=GPa)
#
#
# Indices 1 2 3 4 5 6 
#
# 1 92.0469 24.9782 29.5588 -0.0003 6.9602 -0.0001
# 2 24.9782 116.4685 44.7069 0.0002 7.8888 -0.0001
# 3 29.5588 44.7069 132.2871 -0.0030 14.7495 -0.0015
# 4 -0.0003 0.0002 -0.0030 19.3342 -0.0012 -1.0963
# 5 6.9602 7.8888 14.7495 -0.0012 17.7791 -0.0005
# 6 -0.0001 -0.0001 -0.0015 -1.0963 -0.0005 12.2530
#
#
#
# Elastic Compliance Matrix: (Units=1/GPa)
#
#
# Indices 1 2 3 4 5 6 
#
# 1 0.012110 -0.001721 -0.001852 0.000000 -0.002441 0.000000
# 2 -0.001721 0.010162 -0.002889 -0.000001 -0.001438 0.000000
# 3 -0.001852 -0.002889 0.009615 0.000001 -0.005970 0.000001
# 4 0.000000 -0.000001 0.000001 0.051986 0.000003 0.004651
# 5 -0.002441 -0.001438 -0.005970 0.000003 0.062792 0.000002
# 6 0.000000 0.000000 0.000001 0.004651 0.000002 0.082029
#
#
# Mechanical properties :
#
#
# Convention : Reuss Voigt Hill
#
# Bulk Modulus (GPa) = 52.73622 59.92115 56.32868
# Shear Modulus (GPa) = 20.16622 25.97714 23.07168
#
# Velocity S-wave (km/s) = 3.16902 3.59673 3.38963
# Velocity P-wave (km/s) = 6.29703 6.86215 6.58566
#
# Compressibility (1/GPa) = 0.01896230
#
# Stress axis : x y z
#
# Youngs Moduli (GPa) = 82.57364 98.41015 104.00168
#
# Poissons Ratio (x) = 0.16936 0.19264
# Poissons Ratio (y) = 0.14210 0.30049
# Poissons Ratio (z) = 0.15295 0.28433
#
# Static dielectric constant tensor:
#      x y z
#    x 3.768730 0.000000 -0.015360 
#    y 0.000000 3.622170 0.000000 
#    z -0.015360 0.000000 3.644070 
# 
# 
# High freq. dielectric constant tensor:
#      x y z
#    x 1.787790 0.000000 0.003190 
#    y 0.000000 1.760510 0.000000 
#    z 0.003190 0.000000 1.788590 
# 
# From -- ./inp_files/356754.got.cif
#   From: 2010.06.25/outbox.cif.g09.slc.cpg/sg12_179_cif.got.tgz:356754.got - 2010.06.28 00:19:55.
