data_PCOD8091779
_publ_section_title
;
Structure prediction by ZEFSAII (Michael W. Deem and Ramdas Pophale) SiO2 
 PCOD8091779
Probable space group: C 2/M
;
_chemical_formula_sum "Si O2"
_cell_formula_units_Z 56
_cell_length_a 23.504058
_cell_length_b 8.731473
_cell_length_c 18.336674
_cell_angle_alpha 90.000000
_cell_angle_beta 51.657433
_cell_angle_gamma 90.000000
_cell_volume 2951.493543
_symmetry_space_group_name_H-M "C 2/M"
_symmetry_group_IT_number 12
_symmetry_cell_setting 'monoclinic'
loop_
_space_group_symop_operation_xyz
x,y,z
-x,y,-z
-x,-y,-z
x,-y,z
1/2+x,1/2+y,z
1/2-x,1/2+y,-z
1/2-x,1/2-y,-z
1/2+x,1/2-y,z
loop_
_atom_site_type_symbol
_atom_site_label
_atom_site_fract_x
_atom_site_fract_y
_atom_site_fract_z
Si Si1 0.357378 0.181882 0.470724
Si Si2 0.965959 0.672350 0.815776
Si Si3 0.753133 0.681779 0.332071
Si Si4 0.819831 0.818166 0.906634
Si Si5 0.485365 0.830657 0.628246
Si Si6 0.113189 0.818827 0.709101
Si Si7 0.657924 0.320527 0.274773
O O1 0.292869 0.271526 0.560611
O O2 0.432482 0.223978 0.453549
O O3 0.360870 0.236670 0.385052
O O4 0.343663 0.000000 0.482528
O O5 0.963439 0.500000 0.849520
O O6 0.890570 0.757676 0.893550
O O7 0.977501 0.670097 0.720847
O O8 0.033165 0.764184 0.797764
O O9 0.763988 0.500000 0.322220
O O10 0.830744 0.766153 0.272815
O O11 0.712988 0.744711 0.291417
O O12 0.820585 0.758041 0.822311
O O13 0.818658 0.000000 0.911313
O O14 0.750000 0.750000 0.000000
O O15 0.424971 0.723970 0.639227
O O16 0.472512 0.000000 0.606966
O O17 0.113380 0.000000 0.698162
O O18 0.662494 0.500000 0.271924
#
# Coordination Sequence:
#
# PCOD8091779 Si02
#       7
#     8   8   8   8   8   8   8
#     4  10  20  34  50  72  99 133 176 220 258 296
#     4   9  17  32  53  78 104 133 166 205 250 299
#     4  11  22  35  49  69  99 138 176 214 254 297
#     4  10  19  34  57  85 109 132 162 202 250 304
#     4   8  16  30  49  70  97 130 166 207 252 296
#     4  11  21  34  52  74 100 135 175 216 254 295
#     4   9  20  35  51  72 102 135 168 203 251 308
#
# _framework density 18.973444000000001
#
# number of rings (size 3 to 8) (size 9 to 14) (size 15 to 20)
#    0.000    2.286    0.000    4.286    0.000    6.286 
#    0.000    2.857    0.000    0.857    0.000    6.000 
#    0.000    0.000    0.000    0.000    0.000    0.000 
#
# Total GULP energy -347142.364979 kJ/mol
# GULP energy per Si atom -12397.941606 kJ/mol
# Density = 1.893026 g / cm^3
# Si number density = 18.973444 Si / 1000 Ang^3
#
#
#
# Elastic Constant Matrix: (Units=GPa)
#
#
# Indices 1 2 3 4 5 6 
#
# 1 141.0445 33.3306 34.1078 0.0000 -27.3541 0.0001
# 2 33.3306 65.4302 19.7372 -0.0003 -10.7691 -0.0002
# 3 34.1078 19.7372 39.4503 -0.0001 -24.8524 0.0002
# 4 0.0000 -0.0003 -0.0001 23.2682 -0.0001 -9.7363
# 5 -27.3541 -10.7691 -24.8524 -0.0001 30.9178 0.0000
# 6 0.0001 -0.0002 0.0002 -9.7363 0.0000 34.2629
#
#
#
# Elastic Compliance Matrix: (Units=1/GPa)
#
#
# Indices 1 2 3 4 5 6 
#
# 1 0.009603 -0.002932 -0.004308 0.000000 0.004012 0.000000
# 2 -0.002932 0.018954 -0.008961 0.000000 -0.003195 0.000000
# 3 -0.004308 -0.008961 0.059132 0.000000 0.040599 0.000000
# 4 0.000000 0.000000 0.000000 0.048777 0.000000 0.013861
# 5 0.004012 -0.003195 0.040599 0.000000 0.067415 0.000000
# 6 0.000000 0.000000 0.000000 0.013861 0.000000 0.033125
#
#
# Mechanical properties :
#
#
# Convention : Reuss Voigt Hill
#
# Bulk Modulus (GPa) = 18.08723 46.69737 32.39230
# Shear Modulus (GPa) = 17.37100 28.27306 22.82203
#
# Velocity S-wave (km/s) = 3.02908 3.86442 3.47196
# Velocity P-wave (km/s) = 4.66769 6.67660 5.76040
#
# Compressibility (1/GPa) = 0.05528764
#
# Stress axis : x y z
#
# Youngs Moduli (GPa) = 104.13828 52.75893 16.91125
#
# Poissons Ratio (x) = 0.15468 0.07286
# Poissons Ratio (y) = 0.30531 0.15153
# Poissons Ratio (z) = 0.44866 0.47275
#
# Static dielectric constant tensor:
#      x y z
#    x 3.979480 0.000000 -0.150310 
#    y 0.000000 3.506830 0.000000 
#    z -0.150310 0.000000 3.300890 
# 
# 
# High freq. dielectric constant tensor:
#      x y z
#    x 1.747060 0.000000 -0.025210 
#    y 0.000000 1.742420 0.000000 
#    z -0.025210 0.000000 1.696030 
# 
# From -- ./inp_files/288258.got.cif
#   From: 2010.06.25/outbox.cif.g09.slc.cpg/sg12_145_cif.got.tgz:288258.got - 2010.06.28 00:19:55.
