data_PCOD8091200
_publ_section_title
;
Structure prediction by ZEFSAII (Michael W. Deem and Ramdas Pophale) SiO2 
 PCOD8091200
Probable space group: C 2/M
;
_chemical_formula_sum "Si O2"
_cell_formula_units_Z 56
_cell_length_a 29.749091
_cell_length_b 9.029482
_cell_length_c 12.423028
_cell_angle_alpha 90.000000
_cell_angle_beta 75.186777
_cell_angle_gamma 90.000000
_cell_volume 3226.150734
_symmetry_space_group_name_H-M "C 2/M"
_symmetry_group_IT_number 12
_symmetry_cell_setting 'monoclinic'
loop_
_space_group_symop_operation_xyz
x,y,z
-x,y,-z
-x,-y,-z
x,-y,z
1/2+x,1/2+y,z
1/2-x,1/2+y,-z
1/2-x,1/2-y,-z
1/2+x,1/2-y,z
loop_
_atom_site_type_symbol
_atom_site_label
_atom_site_fract_x
_atom_site_fract_y
_atom_site_fract_z
Si Si1 0.049071 0.828720 0.020525
Si Si2 0.198985 0.826536 0.416209
Si Si3 0.555102 0.173558 0.631333
Si Si4 0.450410 0.826423 0.758693
Si Si5 0.710731 0.670810 0.653386
Si Si6 0.901299 0.176055 0.596734
Si Si7 0.611119 0.670371 0.780690
O O1 0.060180 0.725358 0.114217
O O2 0.047743 0.000000 0.057500
O O3 0.089412 0.797573 0.909837
O O4 0.000000 0.781379 0.000000
O O5 0.244022 0.756388 0.330070
O O6 0.197596 0.775429 0.541259
O O7 0.151636 0.771082 0.390117
O O8 0.203625 0.000000 0.401942
O O9 0.502998 0.214221 0.696693
O O10 0.565284 0.257285 0.514538
O O11 0.589074 0.224995 0.704768
O O12 0.561730 0.000000 0.608052
O O13 0.415768 0.737696 0.703188
O O14 0.440618 0.000000 0.754205
O O15 0.724116 0.500000 0.644953
O O16 0.666191 0.703605 0.755832
O O17 0.905885 0.000000 0.590605
O O18 0.602597 0.500000 0.750072
#
# Coordination Sequence:
#
# PCOD8091200 Si02
#       7
#     8   8   8   8   8   8   8
#     4  10  20  35  58  80 102 140 185 222 259 307
#     4   9  18  32  51  77 106 135 171 214 262 316
#     4  11  22  34  51  78 111 144 175 213 265 317
#     4  11  24  38  52  76 111 144 179 220 265 316
#     4   9  17  31  51  77 108 137 168 213 265 311
#     4  11  22  37  56  77 106 143 181 220 261 314
#     4  10  19  34  55  80 109 139 179 220 257 310
#
# _framework density 17.358146999999999
#
# number of rings (size 3 to 8) (size 9 to 14) (size 15 to 20)
#    0.000    1.857    2.857    1.714    0.000    6.000 
#    0.000    0.000    0.000    0.857    0.000    0.000 
#    0.000    0.000    0.000    0.000    0.000    0.000 
#
# Total GULP energy -347288.532883 kJ/mol
# GULP energy per Si atom -12403.161889 kJ/mol
# Density = 1.731864 g / cm^3
# Si number density = 17.358147 Si / 1000 Ang^3
#
#
#
# Elastic Constant Matrix: (Units=GPa)
#
#
# Indices 1 2 3 4 5 6 
#
# 1 80.6442 28.8705 53.2081 0.0000 -14.6181 0.0000
# 2 28.8705 48.5460 34.3061 0.0000 -1.3434 0.0000
# 3 53.2081 34.3061 96.6798 0.0000 -6.4908 0.0000
# 4 0.0000 0.0000 0.0000 26.3703 0.0000 -2.5080
# 5 -14.6181 -1.3434 -6.4908 0.0000 29.2892 0.0000
# 6 0.0000 0.0000 0.0000 -2.5080 0.0000 27.8507
#
#
#
# Elastic Compliance Matrix: (Units=1/GPa)
#
#
# Indices 1 2 3 4 5 6 
#
# 1 0.022635 -0.006451 -0.009572 0.000000 0.008880 0.000000
# 2 -0.006451 0.029356 -0.007098 0.000000 -0.003446 0.000000
# 3 -0.009572 -0.007098 0.018056 0.000000 -0.001101 0.000000
# 4 0.000000 0.000000 0.000000 0.038249 0.000000 0.003444
# 5 0.008880 -0.003446 -0.001101 0.000000 0.038172 0.000000
# 6 0.000000 0.000000 0.000000 0.003444 0.000000 0.036216
#
#
# Mechanical properties :
#
#
# Convention : Reuss Voigt Hill
#
# Bulk Modulus (GPa) = 42.00746 50.95992 46.48369
# Shear Modulus (GPa) = 21.10959 24.00106 22.55532
#
# Velocity S-wave (km/s) = 3.49107 3.72250 3.60864
# Velocity P-wave (km/s) = 6.36420 6.92081 6.64834
#
# Compressibility (1/GPa) = 0.02380529
#
# Stress axis : x y z
#
# Youngs Moduli (GPa) = 44.18029 34.06481 55.38361
#
# Poissons Ratio (x) = 0.21975 0.53012
# Poissons Ratio (y) = 0.28501 0.39310
# Poissons Ratio (z) = 0.42288 0.24178
#
# Static dielectric constant tensor:
#      x y z
#    x 3.339580 0.000000 -0.148170 
#    y 0.000000 3.235040 0.000000 
#    z -0.148170 0.000000 3.138140 
# 
# 
# High freq. dielectric constant tensor:
#      x y z
#    x 1.670430 0.000000 -0.012210 
#    y 0.000000 1.673770 0.000000 
#    z -0.012210 0.000000 1.653580 
# 
# From -- ./inp_files/186400.got.cif
#   From: 2010.06.25/outbox.cif.g09.slc.cpg/sg12_94_cif.got.tgz:186400.got - 2010.06.28 00:19:55.
