data_PCOD8091295
_publ_section_title
;
Structure prediction by ZEFSAII (Michael W. Deem and Ramdas Pophale) SiO2 
 PCOD8091295
Probable space group: C 2/M
;
_chemical_formula_sum "Si O2"
_cell_formula_units_Z 64
_cell_length_a 31.863214
_cell_length_b 17.481766
_cell_length_c 12.817009
_cell_angle_alpha 90.000000
_cell_angle_beta 152.246615
_cell_angle_gamma 90.000000
_cell_volume 3324.580490
_symmetry_space_group_name_H-M "C 2/M"
_symmetry_group_IT_number 12
_symmetry_cell_setting 'monoclinic'
loop_
_space_group_symop_operation_xyz
x,y,z
-x,y,-z
-x,-y,-z
x,-y,z
1/2+x,1/2+y,z
1/2-x,1/2+y,-z
1/2-x,1/2-y,-z
1/2+x,1/2-y,z
loop_
_atom_site_type_symbol
_atom_site_label
_atom_site_fract_x
_atom_site_fract_y
_atom_site_fract_z
Si Si1 0.305113 0.412183 0.669137
Si Si2 0.967334 0.852954 0.320511
Si Si3 0.793850 0.084645 0.008060
Si Si4 0.128102 0.222461 0.063371
Si Si5 0.693921 0.319755 0.538362
Si Si6 0.153392 0.091189 0.654004
Si Si7 0.668204 0.087009 0.550342
Si Si8 0.467361 0.203611 0.818026
O O1 0.340276 0.500000 0.737768
O O2 0.377673 0.359208 0.888639
O O3 0.288000 0.377783 0.516907
O O4 0.214689 0.408998 0.539177
O O5 0.000000 0.814245 0.500000
O O6 0.048374 0.885142 0.428658
O O7 0.897350 0.920465 0.196021
O O8 0.908318 0.788462 0.133463
O O9 0.731415 0.124089 0.781515
O O10 0.755987 0.000000 0.935652
O O11 0.793825 0.120902 0.125063
O O12 0.229208 0.255055 0.290022
O O13 0.060155 0.280525 0.965360
O O14 0.698358 0.368344 0.654122
O O15 0.598013 0.277399 0.314311
O O16 0.160343 0.000000 0.657935
O O17 0.578691 0.136971 0.350159
O O18 0.642417 0.000000 0.520040
O O19 0.500000 0.171595 0.000000
#
# Coordination Sequence:
#
# PCOD8091295 Si02
#       8
#     8   8   8   8   8   8   8   8
#     4  11  22  38  63  89 115 152 198 244 290 347
#     4  10  19  34  55  88 117 151 198 246 292 346
#     4   9  17  34  60  87 117 153 194 247 297 338
#     4  12  23  40  60  87 122 160 192 239 301 350
#     4  12  23  41  58  86 125 159 192 235 298 359
#     4  10  21  36  58  88 121 157 195 240 296 355
#     4  10  21  39  63  88 113 151 205 250 284 337
#     4  12  23  39  60  86 119 157 195 236 300 353
#
# _framework density 19.250548999999999
#
# number of rings (size 3 to 8) (size 9 to 14) (size 15 to 20)
#    0.000    1.250    5.000    1.875    0.000    2.250 
#    2.250    3.750    0.000    0.000    0.000    2.625 
#    0.000    0.000    0.000    0.000    0.000    0.000 
#
# Total GULP energy -396578.824921 kJ/mol
# GULP energy per Si atom -12393.088279 kJ/mol
# Density = 1.920673 g / cm^3
# Si number density = 19.250549 Si / 1000 Ang^3
#
#
#
# Elastic Constant Matrix: (Units=GPa)
#
#
# Indices 1 2 3 4 5 6 
#
# 1 86.4765 31.0385 42.8475 0.0000 -23.4748 0.0000
# 2 31.0385 76.2630 35.5783 0.0000 -11.5866 0.0000
# 3 42.8475 35.5783 104.4499 0.0000 -21.3832 0.0000
# 4 0.0000 0.0000 0.0000 20.4286 0.0000 -17.4932
# 5 -23.4748 -11.5866 -21.3832 0.0000 37.1207 0.0000
# 6 0.0000 0.0000 0.0000 -17.4932 0.0000 -7.6257
#
#
#
# Elastic Compliance Matrix: (Units=1/GPa)
#
#
# Indices 1 2 3 4 5 6 
#
# 1 0.016953 -0.003869 -0.004182 0.000000 0.007104 0.000000
# 2 -0.003869 0.016612 -0.003980 0.000000 0.000445 0.000000
# 3 -0.004182 -0.003980 0.013434 0.000000 0.003851 0.000000
# 4 0.000000 0.000000 0.000000 0.016513 0.000000 -0.037881
# 5 0.007104 0.000445 0.003851 0.000000 0.033789 0.000000
# 6 0.000000 0.000000 0.000000 -0.037881 0.000000 -0.044238
#
#
# Mechanical properties :
#
#
# Convention : Reuss Voigt Hill
#
# Bulk Modulus (GPa) = 43.59998 54.01312 48.80655
# Shear Modulus (GPa) = 58.98165 20.49974 39.74069
#
# Velocity S-wave (km/s) = 5.54125 3.26681 4.54849
# Velocity P-wave (km/s) = 7.97737 6.50755 7.27965
#
# Compressibility (1/GPa) = 0.02293579
#
# Stress axis : x y z
#
# Youngs Moduli (GPa) = 58.98520 60.19849 74.43975
#
# Poissons Ratio (x) = 0.23294 0.31132
# Poissons Ratio (y) = 0.22824 0.29626
# Poissons Ratio (z) = 0.24669 0.23958
#
# Static dielectric constant tensor:
#      x y z
#    x 3.711840 0.000000 -0.349800 
#    y 0.000000 3.382170 0.000000 
#    z -0.349800 0.000000 3.645380 
# 
# 
# High freq. dielectric constant tensor:
#      x y z
#    x 1.743560 0.000000 -0.021310 
#    y 0.000000 1.730560 0.000000 
#    z -0.021310 0.000000 1.753330 
# 
# From -- ./inp_files/190074.got.cif
#   From: 2010.06.25/outbox.cif.g09.slc.cpg/sg12_96_cif.got.tgz:190074.got - 2010.06.28 00:19:55.
