data_PCOD8091752
_publ_section_title
;
Structure prediction by ZEFSAII (Michael W. Deem and Ramdas Pophale) SiO2 
 PCOD8091752
Probable space group: C 2/M
;
_chemical_formula_sum "Si O2"
_cell_formula_units_Z 48
_cell_length_a 8.885887
_cell_length_b 24.390763
_cell_length_c 11.889357
_cell_angle_alpha 90.000000
_cell_angle_beta 104.765999
_cell_angle_gamma 90.000000
_cell_volume 2491.722648
_symmetry_space_group_name_H-M "C 2/M"
_symmetry_group_IT_number 12
_symmetry_cell_setting 'monoclinic'
loop_
_space_group_symop_operation_xyz
x,y,z
-x,y,-z
-x,-y,-z
x,-y,z
1/2+x,1/2+y,z
1/2-x,1/2+y,-z
1/2-x,1/2-y,-z
1/2+x,1/2-y,z
loop_
_atom_site_type_symbol
_atom_site_label
_atom_site_fract_x
_atom_site_fract_y
_atom_site_fract_z
Si Si1 0.000000 0.090714 0.500000
Si Si2 0.331267 0.610454 0.255241
Si Si3 0.217989 0.000000 0.462003
Si Si4 0.189116 0.500000 0.765101
Si Si5 0.089500 0.903824 0.118738
Si Si6 0.258779 0.291019 0.893195
Si Si7 0.836825 0.500000 0.726746
Si Si8 0.932497 0.695006 0.861774
O O1 0.104198 0.126026 0.607213
O O2 0.107614 0.053258 0.440444
O O3 0.474572 0.612677 0.197194
O O4 0.253437 0.550977 0.237880
O O5 0.194353 0.651032 0.196010
O O6 0.325244 0.000000 0.372507
O O7 0.329266 0.000000 0.590682
O O8 0.276018 0.444503 0.816332
O O9 0.019841 0.500000 0.791766
O O10 0.157630 0.848904 0.072772
O O11 0.000000 0.934117 0.000000
O O12 0.358344 0.255023 0.825520
O O13 0.086282 0.304933 0.812563
O O14 0.250000 0.250000 0.000000
O O15 0.000000 0.683325 0.000000
#
# Coordination Sequence:
#
# PCOD8091752 Si02
#       8
#     4   8   4   4   8   8   4   8
#     4   9  18  36  62  86 114 164 206 243 286 356
#     4  11  21  38  60  86 121 160 203 246 297 351
#     4   9  17  37  59  83 114 157 215 243 278 349
#     4  12  22  37  56  94 124 155 193 252 306 350
#     4  12  23  37  58  88 123 158 195 244 301 362
#     4  10  20  37  59  84 115 155 201 238 284 354
#     4  10  23  36  58  83 120 163 205 245 290 354
#     4  10  19  34  57  84 111 147 194 246 293 345
#
# _framework density 19.263781999999999
#
# number of rings (size 3 to 8) (size 9 to 14) (size 15 to 20)
#    0.000    1.500    1.667    7.000    0.000    0.000 
#    0.000    1.250    0.000    4.000    0.000    0.000 
#    0.000    0.000    0.000    0.000    0.000    0.000 
#
# Total GULP energy -297373.720245 kJ/mol
# GULP energy per Si atom -12390.571677 kJ/mol
# Density = 1.921994 g / cm^3
# Si number density = 19.263782 Si / 1000 Ang^3
#
#
#
# Elastic Constant Matrix: (Units=GPa)
#
#
# Indices 1 2 3 4 5 6 
#
# 1 132.2622 41.1580 33.0477 0.0000 20.4494 0.0000
# 2 41.1580 108.0381 35.4827 0.0000 14.8063 0.0000
# 3 33.0477 35.4827 79.8511 0.0000 15.5875 0.0000
# 4 0.0000 0.0000 0.0000 -343.9575 0.0000 132.6095
# 5 20.4494 14.8063 15.5875 0.0000 32.6374 0.0000
# 6 0.0000 0.0000 0.0000 132.6095 0.0000 -11.5726
#
#
#
# Elastic Compliance Matrix: (Units=1/GPa)
#
#
# Indices 1 2 3 4 5 6 
#
# 1 0.009414 -0.002375 -0.002095 0.000000 -0.003821 0.000000
# 2 -0.002375 0.011689 -0.003823 0.000000 -0.001989 0.000000
# 3 -0.002095 -0.003823 0.015985 0.000000 -0.004587 0.000000
# 4 0.000000 0.000000 0.000000 0.000851 0.000000 0.009747
# 5 -0.003821 -0.001989 -0.004587 0.000000 0.036127 0.000000
# 6 0.000000 0.000000 0.000000 0.009747 0.000000 0.025282
#
#
# Mechanical properties :
#
#
# Convention : Reuss Voigt Hill
#
# Bulk Modulus (GPa) = 48.77603 59.94756 54.36179
# Shear Modulus (GPa) = 40.72790 -50.54767 -4.90988
#
# Velocity S-wave (km/s) = 4.60305 -5.12803 -1.59822
# Velocity P-wave (km/s) = 7.32297 1.96861 4.98751
#
# Compressibility (1/GPa) = 0.02050187
#
# Stress axis : x y z
#
# Youngs Moduli (GPa) = 106.22616 85.55204 62.56014
#
# Poissons Ratio (x) = 0.20315 0.13107
# Poissons Ratio (y) = 0.25225 0.23917
# Poissons Ratio (z) = 0.22256 0.32706
#
# Static dielectric constant tensor:
#      x y z
#    x 4.434330 0.000000 0.154540 
#    y 0.000000 3.539950 0.000000 
#    z 0.154540 0.000000 3.345980 
# 
# 
# High freq. dielectric constant tensor:
#      x y z
#    x 1.773850 0.000000 0.014660 
#    y 0.000000 1.741640 0.000000 
#    z 0.014660 0.000000 1.720040 
# 
# From -- ./inp_files/122633.got.cif
#   From: 2010.06.25/outbox.cif.g09.slc.cpg/sg12_62_cif.got.tgz:122633.got - 2010.06.28 00:19:55.
