data_PCOD8091995
_publ_section_title
;
Structure prediction by ZEFSAII (Michael W. Deem and Ramdas Pophale) SiO2 
 PCOD8091995
Probable space group: C 2/M
;
_chemical_formula_sum "Si O2"
_cell_formula_units_Z 40
_cell_length_a 9.595373
_cell_length_b 17.704340
_cell_length_c 12.051343
_cell_angle_alpha 90.000000
_cell_angle_beta 73.401757
_cell_angle_gamma 90.000000
_cell_volume 1961.971701
_symmetry_space_group_name_H-M "C 2/M"
_symmetry_group_IT_number 12
_symmetry_cell_setting 'monoclinic'
loop_
_space_group_symop_operation_xyz
x,y,z
-x,y,-z
-x,-y,-z
x,-y,z
1/2+x,1/2+y,z
1/2-x,1/2+y,-z
1/2-x,1/2-y,-z
1/2+x,1/2-y,z
loop_
_atom_site_type_symbol
_atom_site_label
_atom_site_fract_x
_atom_site_fract_y
_atom_site_fract_z
Si Si1 0.043772 0.914680 0.614122
Si Si2 0.282351 0.272859 0.369933
Si Si3 0.228098 0.914364 0.897413
Si Si4 0.923859 0.873069 0.856784
Si Si5 0.071445 0.285373 0.225814
O O1 0.164321 0.859451 0.637474
O O2 0.000000 0.888770 0.500000
O O3 0.911626 0.908124 0.734397
O O4 0.104460 0.000000 0.595945
O O5 0.250000 0.250000 0.500000
O O6 0.136743 0.269593 0.332316
O O7 0.398161 0.215776 0.285881
O O8 0.369618 0.863148 0.839710
O O9 0.088449 0.884259 0.863581
O O10 0.264635 0.000000 0.853978
O O11 0.192705 0.912979 0.037047
O O12 0.888461 0.783734 0.865173
#
# Coordination Sequence:
#
# PCOD8091995 Si02
#       5
#     8   8   8   8   8
#     4  10  19  34  58  86 117 155 206 258 296 354
#     4  11  22  38  60  88 123 163 202 255 309 376
#     4  11  21  37  63  92 125 163 208 258 307 365
#     4  10  20  36  59  91 121 164 210 252 295 377
#     4  11  21  38  61  90 122 157 211 254 302 373
#
# _framework density 20.387653
#
# number of rings (size 3 to 8) (size 9 to 14) (size 15 to 20)
#    0.000    1.400    4.000    6.000    0.000    0.000 
#    0.000    1.000    0.000   10.800    0.000    0.000 
#    0.000    0.000    0.000    0.000    0.000    0.000 
#
# Total GULP energy -247882.820586 kJ/mol
# GULP energy per Si atom -12394.141029 kJ/mol
# Density = 2.034125 g / cm^3
# Si number density = 20.387653 Si / 1000 Ang^3
#
#
#
# Elastic Constant Matrix: (Units=GPa)
#
#
# Indices 1 2 3 4 5 6 
#
# 1 24.0220 16.5527 7.3138 0.0000 -1.4849 0.0000
# 2 16.5527 144.6663 24.4198 0.0000 -4.0166 0.0000
# 3 7.3138 24.4198 130.4717 0.0000 2.2969 0.0000
# 4 0.0000 0.0000 0.0000 32.4667 0.0000 1.5031
# 5 -1.4849 -4.0166 2.2969 0.0000 26.3295 0.0000
# 6 0.0000 0.0000 0.0000 1.5031 0.0000 19.1142
#
#
#
# Elastic Compliance Matrix: (Units=1/GPa)
#
#
# Indices 1 2 3 4 5 6 
#
# 1 0.045626 -0.004882 -0.001679 0.000000 0.001975 0.000000
# 2 -0.004882 0.007699 -0.001185 0.000000 0.001003 0.000000
# 3 -0.001679 -0.001185 0.007998 0.000000 -0.000973 0.000000
# 4 0.000000 0.000000 0.000000 0.030913 0.000000 -0.002431
# 5 0.001975 0.001003 -0.000973 0.000000 0.038329 0.000000
# 6 0.000000 0.000000 0.000000 -0.002431 0.000000 0.052508
#
#
# Mechanical properties :
#
#
# Convention : Reuss Voigt Hill
#
# Bulk Modulus (GPa) = 21.81945 43.97029 32.89487
# Shear Modulus (GPa) = 23.38174 32.30699 27.84436
#
# Velocity S-wave (km/s) = 3.39020 3.98507 3.69961
# Velocity P-wave (km/s) = 5.10393 6.54127 5.86679
#
# Compressibility (1/GPa) = 0.04583067
#
# Stress axis : x y z
#
# Youngs Moduli (GPa) = 21.91735 129.88792 125.03903
#
# Poissons Ratio (x) = 0.63416 0.20989
# Poissons Ratio (y) = 0.10701 0.14816
# Poissons Ratio (z) = 0.03679 0.15391
#
# Static dielectric constant tensor:
#      x y z
#    x 3.427930 0.000000 -0.137300 
#    y 0.000000 3.797980 0.000000 
#    z -0.137300 0.000000 4.690740 
# 
# 
# High freq. dielectric constant tensor:
#      x y z
#    x 1.749420 0.000000 0.007670 
#    y 0.000000 1.798710 0.000000 
#    z 0.007670 0.000000 1.823910 
# 
# From -- ./inp_files/118928.got.cif
#   From: 2010.06.25/outbox.cif.g09.slc.cpg/sg12_60_cif.got.tgz:118928.got - 2010.06.28 00:19:55.
