data_PCOD8091024
_publ_section_title
;
Structure prediction by ZEFSAII (Michael W. Deem and Ramdas Pophale) SiO2 
 PCOD8091024
Probable space group: C 2/M
;
_chemical_formula_sum "Si O2"
_cell_formula_units_Z 56
_cell_length_a 30.379621
_cell_length_b 8.906778
_cell_length_c 11.197867
_cell_angle_alpha 90.000000
_cell_angle_beta 65.978748
_cell_angle_gamma 90.000000
_cell_volume 2767.557739
_symmetry_space_group_name_H-M "C 2/M"
_symmetry_group_IT_number 12
_symmetry_cell_setting 'monoclinic'
loop_
_space_group_symop_operation_xyz
x,y,z
-x,y,-z
-x,-y,-z
x,-y,z
1/2+x,1/2+y,z
1/2-x,1/2+y,-z
1/2-x,1/2-y,-z
1/2+x,1/2-y,z
loop_
_atom_site_type_symbol
_atom_site_label
_atom_site_fract_x
_atom_site_fract_y
_atom_site_fract_z
Si Si1 0.183009 0.173038 0.898435
Si Si2 0.778893 0.177041 0.782739
Si Si3 0.632547 0.325053 0.710215
Si Si4 0.627587 0.327257 0.180421
Si Si5 0.976609 0.820529 0.651494
Si Si6 0.476284 0.678141 0.149884
Si Si7 0.793089 0.675078 0.521555
O O1 0.226675 0.279651 0.894586
O O2 0.167621 0.210956 0.781639
O O3 0.199447 0.000000 0.895302
O O4 0.135042 0.201549 0.030990
O O5 0.822716 0.229465 0.817370
O O6 0.785365 0.286157 0.665624
O O7 0.780263 0.000000 0.750839
O O8 0.631767 0.500000 0.680027
O O9 0.578863 0.267183 0.793416
O O10 0.654662 0.237362 0.574072
O O11 0.621187 0.500000 0.218175
O O12 0.578078 0.253125 0.282977
O O13 0.000000 0.761544 0.500000
O O14 0.001761 0.762569 0.747373
O O15 0.978202 0.000000 0.649774
O O16 0.481184 0.500000 0.142417
O O17 0.500000 0.741968 0.000000
O O18 0.790871 0.500000 0.500871
O O19 0.750000 0.750000 0.500000
#
# Coordination Sequence:
#
# PCOD8091024 Si02
#       7
#     8   8   8   8   8   8   8
#     4  10  19  34  54  79 114 149 183 226 281 336
#     4  11  22  35  55  81 113 147 188 231 275 334
#     4  10  20  33  56  85 115 148 185 231 282 335
#     4   9  19  33  51  78 113 150 185 232 283 328
#     4   9  17  29  47  74 110 147 187 236 286 331
#     4   9  17  30  51  81 114 147 186 235 285 334
#     4  12  24  39  57  80 112 148 187 231 282 339
#
# _framework density 20.234445999999998
#
# number of rings (size 3 to 8) (size 9 to 14) (size 15 to 20)
#    0.000    2.000    1.429    3.000    2.000    3.429 
#    0.000    0.714    0.000    0.429    0.000    4.000 
#    0.000    0.000    0.000    0.000    0.000    0.000 
#
# Total GULP energy -346958.076289 kJ/mol
# GULP energy per Si atom -12391.359867 kJ/mol
# Density = 2.018839 g / cm^3
# Si number density = 20.234446 Si / 1000 Ang^3
#
#
#
# Elastic Constant Matrix: (Units=GPa)
#
#
# Indices 1 2 3 4 5 6 
#
# 1 105.8982 35.2545 58.7404 0.0000 -22.3225 0.0000
# 2 35.2545 39.6602 16.6690 0.0000 -7.4947 0.0000
# 3 58.7404 16.6690 127.3157 0.0000 -14.3236 0.0000
# 4 0.0000 0.0000 0.0000 18.7219 0.0000 -3.8122
# 5 -22.3225 -7.4947 -14.3236 0.0000 40.0100 0.0000
# 6 0.0000 0.0000 0.0000 -3.8122 0.0000 16.5598
#
#
#
# Elastic Compliance Matrix: (Units=1/GPa)
#
#
# Indices 1 2 3 4 5 6 
#
# 1 0.018197 -0.012542 -0.006122 0.000000 0.005611 0.000000
# 2 -0.012542 0.035926 0.001097 0.000000 0.000125 0.000000
# 3 -0.006122 0.001097 0.010601 0.000000 0.000585 0.000000
# 4 0.000000 0.000000 0.000000 0.056040 0.000000 0.012901
# 5 0.005611 0.000125 0.000585 0.000000 0.028357 0.000000
# 6 0.000000 0.000000 0.000000 0.012901 0.000000 0.063357
#
#
# Mechanical properties :
#
#
# Convention : Reuss Voigt Hill
#
# Bulk Modulus (GPa) = 33.79600 54.91133 44.35367
# Shear Modulus (GPa) = 19.41921 25.87234 22.64577
#
# Velocity S-wave (km/s) = 3.10128 3.57967 3.34903
# Velocity P-wave (km/s) = 5.43713 6.65446 6.07636
#
# Compressibility (1/GPa) = 0.02958930
#
# Stress axis : x y z
#
# Youngs Moduli (GPa) = 54.95310 27.83529 94.32723
#
# Poissons Ratio (x) = 0.34912 0.57751
# Poissons Ratio (y) = 0.68923 -0.10349
# Poissons Ratio (z) = 0.33644 -0.03054
#
# Static dielectric constant tensor:
#      x y z
#    x 3.983530 0.000000 0.070700 
#    y 0.000000 3.061430 0.000000 
#    z 0.070700 0.000000 4.227490 
# 
# 
# High freq. dielectric constant tensor:
#      x y z
#    x 1.797240 0.000000 -0.006610 
#    y 0.000000 1.728330 0.000000 
#    z -0.006610 0.000000 1.811190 
# 
# From -- ./inp_files/187186.got.cif
#   From: 2010.06.25/outbox.cif.g09.slc.cpg/sg12_94_cif.got.tgz:187186.got - 2010.06.28 00:19:55.
