data_PCOD8091821
_publ_section_title
;
Structure prediction by ZEFSAII (Michael W. Deem and Ramdas Pophale) SiO2 
 PCOD8091821
Probable space group: C 2/M
;
_chemical_formula_sum "Si O2"
_cell_formula_units_Z 48
_cell_length_a 24.801119
_cell_length_b 8.489957
_cell_length_c 11.090554
_cell_angle_alpha 90.000000
_cell_angle_beta 78.403344
_cell_angle_gamma 90.000000
_cell_volume 2287.562736
_symmetry_space_group_name_H-M "C 2/M"
_symmetry_group_IT_number 12
_symmetry_cell_setting 'monoclinic'
loop_
_space_group_symop_operation_xyz
x,y,z
-x,y,-z
-x,-y,-z
x,-y,z
1/2+x,1/2+y,z
1/2-x,1/2+y,-z
1/2-x,1/2-y,-z
1/2+x,1/2-y,z
loop_
_atom_site_type_symbol
_atom_site_label
_atom_site_fract_x
_atom_site_fract_y
_atom_site_fract_z
Si Si1 0.190276 0.819495 0.513835
Si Si2 0.465035 0.312226 0.131634
Si Si3 0.515302 0.815838 0.357091
Si Si4 0.763385 0.687740 0.865584
Si Si5 0.844730 0.181325 0.212202
Si Si6 0.366650 0.314304 0.694650
O O1 0.250000 0.750000 0.500000
O O2 0.152710 0.791852 0.646428
O O3 0.156138 0.743463 0.420659
O O4 0.199785 0.000000 0.479374
O O5 0.467295 0.500000 0.134395
O O6 0.482710 0.256058 0.257350
O O7 0.402332 0.250469 0.134955
O O8 0.500000 0.249048 0.000000
O O9 0.500000 0.749013 0.500000
O O10 0.578379 0.778852 0.299534
O O11 0.503661 0.000000 0.361562
O O12 0.770462 0.500000 0.851805
O O13 0.712388 0.756006 0.809071
O O14 0.820303 0.774455 0.812183
O O15 0.750000 0.750000 0.000000
O O16 0.841565 0.000000 0.176998
O O17 0.379537 0.500000 0.686547
#
# Coordination Sequence:
#
# PCOD8091821 Si02
#       6
#     8   8   8   8   8   8
#     4  10  19  34  57  86 119 153 195 245 303 366
#     4  10  22  41  67  95 124 165 214 265 318 380
#     4  11  25  44  65  93 130 171 214 266 323 379
#     4  11  23  39  60  88 127 167 207 256 310 370
#     4   9  19  37  60  87 122 159 197 249 309 365
#     4  11  23  39  64  94 124 161 208 257 311 378
#
# _framework density 20.983029999999999
#
# number of rings (size 3 to 8) (size 9 to 14) (size 15 to 20)
#    0.000    1.667    1.667    2.500    2.333    3.667 
#    0.000    2.500    0.000    0.000    0.000    0.000 
#    0.000    0.000    0.000    0.000    0.000    0.000 
#
# Total GULP energy -297386.372984 kJ/mol
# GULP energy per Si atom -12391.098874 kJ/mol
# Density = 2.093527 g / cm^3
# Si number density = 20.983030 Si / 1000 Ang^3
#
#
#
# Elastic Constant Matrix: (Units=GPa)
#
#
# Indices 1 2 3 4 5 6 
#
# 1 124.6451 6.5315 32.6430 0.0000 -19.1949 0.0000
# 2 6.5315 31.5189 14.6178 0.0000 -0.1056 0.0000
# 3 32.6430 14.6178 91.1567 0.0000 0.2164 0.0000
# 4 0.0000 0.0000 0.0000 30.0612 0.0000 0.6293
# 5 -19.1949 -0.1056 0.2164 0.0000 36.7930 0.0000
# 6 0.0000 0.0000 0.0000 0.6293 0.0000 21.8804
#
#
#
# Elastic Compliance Matrix: (Units=1/GPa)
#
#
# Indices 1 2 3 4 5 6 
#
# 1 0.009727 -0.000408 -0.003430 0.000000 0.005093 0.000000
# 2 -0.000408 0.034294 -0.005353 0.000000 -0.000083 0.000000
# 3 -0.003430 -0.005353 0.013061 0.000000 -0.001882 0.000000
# 4 0.000000 0.000000 0.000000 0.033286 0.000000 -0.000957
# 5 0.005093 -0.000083 -0.001882 0.000000 0.029847 0.000000
# 6 0.000000 0.000000 0.000000 -0.000957 0.000000 0.045731
#
#
# Mechanical properties :
#
#
# Convention : Reuss Voigt Hill
#
# Bulk Modulus (GPa) = 25.83957 39.43391 32.63674
# Shear Modulus (GPa) = 25.35153 30.64880 28.00016
#
# Velocity S-wave (km/s) = 3.47968 3.82599 3.65693
# Velocity P-wave (km/s) = 5.33718 6.19287 5.78088
#
# Compressibility (1/GPa) = 0.03870033
#
# Stress axis : x y z
#
# Youngs Moduli (GPa) = 102.80930 29.15969 76.56260
#
# Poissons Ratio (x) = 0.01189 0.26260
# Poissons Ratio (y) = 0.04194 0.40984
# Poissons Ratio (z) = 0.35262 0.15609
#
# Static dielectric constant tensor:
#      x y z
#    x 4.374670 0.000000 0.136800 
#    y 0.000000 3.645710 0.000000 
#    z 0.136800 0.000000 4.063180 
# 
# 
# High freq. dielectric constant tensor:
#      x y z
#    x 1.839820 0.000000 -0.003110 
#    y 0.000000 1.793510 0.000000 
#    z -0.003110 0.000000 1.834600 
# 
# From -- ./inp_files/172209.got.cif
#   From: 2010.06.25/outbox.cif.g09.slc.cpg/sg12_87_cif.got.tgz:172209.got - 2010.06.28 00:19:55.
