data_PCOD8091297
_publ_section_title
;
Structure prediction by ZEFSAII (Michael W. Deem and Ramdas Pophale) SiO2 
 PCOD8091297
Probable space group: C 2/M
;
_chemical_formula_sum "Si O2"
_cell_formula_units_Z 64
_cell_length_a 11.927344
_cell_length_b 17.723360
_cell_length_c 14.616990
_cell_angle_alpha 90.000000
_cell_angle_beta 88.245994
_cell_angle_gamma 90.000000
_cell_volume 3088.475915
_symmetry_space_group_name_H-M "C 2/M"
_symmetry_group_IT_number 12
_symmetry_cell_setting 'monoclinic'
loop_
_space_group_symop_operation_xyz
x,y,z
-x,y,-z
-x,-y,-z
x,-y,z
1/2+x,1/2+y,z
1/2-x,1/2+y,-z
1/2-x,1/2-y,-z
1/2+x,1/2-y,z
loop_
_atom_site_type_symbol
_atom_site_label
_atom_site_fract_x
_atom_site_fract_y
_atom_site_fract_z
Si Si1 0.696653 0.414775 0.351265
Si Si2 0.491651 0.676604 0.331333
Si Si3 0.531802 0.295095 0.872015
Si Si4 0.685785 0.326790 0.018483
Si Si5 0.073141 0.584057 0.723314
Si Si6 0.413107 0.874001 0.075028
Si Si7 0.065841 0.331050 0.408833
Si Si8 0.704192 0.588068 0.565046
O O1 0.696833 0.500000 0.315601
O O2 0.597855 0.373241 0.300965
O O3 0.813731 0.376478 0.318235
O O4 0.676943 0.409522 0.459397
O O5 0.441089 0.705654 0.236518
O O6 0.538241 0.742489 0.396842
O O7 0.402690 0.622385 0.381806
O O8 0.403763 0.319145 0.896407
O O9 0.553449 0.212323 0.910145
O O10 0.618868 0.349216 0.926312
O O11 0.784022 0.385769 0.043799
O O12 0.750000 0.250000 0.000000
O O13 0.064856 0.500000 0.683579
O O14 0.070200 0.580780 0.832148
O O15 0.969991 0.629600 0.684381
O O16 0.500000 0.909218 0.000000
O O17 0.195070 0.353749 0.416976
O O18 0.000000 0.361199 0.500000
O O19 0.726926 0.500000 0.594188
#
# Coordination Sequence:
#
# PCOD8091297 Si02
#       8
#     8   8   8   8   8   8   8   8
#     4  10  22  43  66  85 123 175 220 259 318 394
#     4  12  25  37  64 101 135 157 216 281 330 370
#     4  10  19  34  55  90 120 160 193 259 323 377
#     4   9  17  33  57  81 115 157 204 242 310 392
#     4  11  24  41  63  91 123 171 219 260 323 394
#     4  11  20  36  60  87 120 156 203 259 319 382
#     4  12  25  40  66  93 130 171 221 278 321 381
#     4  11  25  44  65  90 129 181 223 264 329 397
#
# _framework density 20.722194999999999
#
# number of rings (size 3 to 8) (size 9 to 14) (size 15 to 20)
#    0.000    1.250    5.000    2.625    1.750    5.750 
#    0.000    0.000    0.000    1.500    0.000    6.125 
#    0.000    0.000    0.000    0.000    0.000    0.000 
#
# Total GULP energy -396664.974070 kJ/mol
# GULP energy per Si atom -12395.780440 kJ/mol
# Density = 2.067503 g / cm^3
# Si number density = 20.722195 Si / 1000 Ang^3
#
#
#
# Elastic Constant Matrix: (Units=GPa)
#
#
# Indices 1 2 3 4 5 6 
#
# 1 104.6167 26.2139 17.7535 0.0000 0.7578 0.0000
# 2 26.2139 61.5985 16.7571 0.0000 2.8400 0.0000
# 3 17.7535 16.7571 95.4698 0.0000 -4.4914 0.0000
# 4 0.0000 0.0000 0.0000 17.4149 0.0000 2.4604
# 5 0.7578 2.8400 -4.4914 0.0000 33.5647 0.0000
# 6 0.0000 0.0000 0.0000 2.4604 0.0000 21.4356
#
#
#
# Elastic Compliance Matrix: (Units=1/GPa)
#
#
# Indices 1 2 3 4 5 6 
#
# 1 0.010844 -0.004267 -0.001270 0.000000 -0.000054 0.000000
# 2 -0.004267 0.018842 -0.002601 0.000000 -0.001846 0.000000
# 3 -0.001270 -0.002601 0.011250 0.000000 0.001754 0.000000
# 4 0.000000 0.000000 0.000000 0.058369 0.000000 -0.006700
# 5 -0.000054 -0.001846 0.001754 0.000000 0.030185 0.000000
# 6 0.000000 0.000000 0.000000 -0.006700 0.000000 0.047420
#
#
# Mechanical properties :
#
#
# Convention : Reuss Voigt Hill
#
# Bulk Modulus (GPa) = 40.54994 42.57044 41.56019
# Shear Modulus (GPa) = 24.82552 27.88039 26.35296
#
# Velocity S-wave (km/s) = 3.46499 3.67200 3.57000
# Velocity P-wave (km/s) = 5.96817 6.21016 6.09037
#
# Compressibility (1/GPa) = 0.02466095
#
# Stress axis : x y z
#
# Youngs Moduli (GPa) = 92.21917 53.07154 88.89115
#
# Poissons Ratio (x) = 0.22644 0.11290
# Poissons Ratio (y) = 0.39347 0.23118
# Poissons Ratio (z) = 0.11713 0.13802
#
# Static dielectric constant tensor:
#      x y z
#    x 4.441930 0.000000 0.543950 
#    y 0.000000 3.560540 0.000000 
#    z 0.543950 0.000000 4.230570 
# 
# 
# High freq. dielectric constant tensor:
#      x y z
#    x 1.822550 0.000000 0.001750 
#    y 0.000000 1.783900 0.000000 
#    z 0.001750 0.000000 1.815320 
# 
# From -- ./inp_files/206674.got.cif
#   From: 2010.06.25/outbox.cif.g09.slc.cpg/sg12_104_cif.got.tgz:206674.got - 2010.06.28 00:19:55.
