data_PCOD8091553
_publ_section_title
;
Structure prediction by ZEFSAII (Michael W. Deem and Ramdas Pophale) SiO2 
 PCOD8091553
Probable space group: C 2/M
;
_chemical_formula_sum "Si O2"
_cell_formula_units_Z 56
_cell_length_a 13.930977
_cell_length_b 18.643799
_cell_length_c 12.194738
_cell_angle_alpha 90.000000
_cell_angle_beta 113.519877
_cell_angle_gamma 90.000000
_cell_volume 2904.161110
_symmetry_space_group_name_H-M "C 2/M"
_symmetry_group_IT_number 12
_symmetry_cell_setting 'monoclinic'
loop_
_space_group_symop_operation_xyz
x,y,z
-x,y,-z
-x,-y,-z
x,-y,z
1/2+x,1/2+y,z
1/2-x,1/2+y,-z
1/2-x,1/2-y,-z
1/2+x,1/2-y,z
loop_
_atom_site_type_symbol
_atom_site_label
_atom_site_fract_x
_atom_site_fract_y
_atom_site_fract_z
Si Si1 0.255473 0.329250 0.959944
Si Si2 0.751084 0.151369 0.304814
Si Si3 0.544009 0.578090 0.667534
Si Si4 0.188303 0.916606 0.453441
Si Si5 0.376471 0.081750 0.943772
Si Si6 0.519057 0.380248 0.890043
Si Si7 0.809778 0.812871 0.745798
O O1 0.244361 0.334086 0.823951
O O2 0.250000 0.250000 0.000000
O O3 0.164300 0.378848 0.966383
O O4 0.364942 0.352113 0.059156
O O5 0.869041 0.139144 0.311578
O O6 0.738280 0.111307 0.415002
O O7 0.666453 0.119403 0.184194
O O8 0.726191 0.234907 0.311294
O O9 0.586628 0.500000 0.647274
O O10 0.432308 0.596176 0.558795
O O11 0.511354 0.568284 0.781351
O O12 0.216656 0.870892 0.359144
O O13 0.209976 0.000000 0.438138
O O14 0.336964 0.000000 0.928094
O O15 0.500000 0.087179 0.000000
O O16 0.433458 0.315933 0.834605
O O17 0.500000 0.418974 0.000000
#
# Coordination Sequence:
#
# PCOD8091553 Si02
#       7
#     8   8   8   8   8   8   8
#     4  11  20  36  60  85 119 158 197 243 299 349
#     4  12  21  37  60  85 121 158 200 247 297 356
#     4  10  19  34  56  86 118 152 197 244 295 354
#     4  10  22  39  60  87 120 157 199 249 304 355
#     4  11  25  40  60  91 122 159 204 247 296 355
#     4   9  19  32  52  84 119 154 188 239 298 354
#     4  10  22  36  58  90 122 154 199 243 300 358
#
# _framework density 19.282678000000001
#
# number of rings (size 3 to 8) (size 9 to 14) (size 15 to 20)
#    0.000    1.571    2.857    2.143    2.000    2.000 
#    0.000    2.857    0.000    0.000    0.000    3.000 
#    0.000    0.000    0.000    0.000    0.000    0.000 
#
# Total GULP energy -347067.193519 kJ/mol
# GULP energy per Si atom -12395.256911 kJ/mol
# Density = 1.923879 g / cm^3
# Si number density = 19.282678 Si / 1000 Ang^3
#
#
#
# Elastic Constant Matrix: (Units=GPa)
#
#
# Indices 1 2 3 4 5 6 
#
# 1 70.5541 46.1621 21.9508 0.0000 -8.0079 0.0000
# 2 46.1621 144.4703 44.6000 0.0000 -7.5314 0.0000
# 3 21.9508 44.6000 92.0493 0.0000 -5.8751 0.0000
# 4 0.0000 0.0000 0.0000 25.4269 0.0000 -4.9426
# 5 -8.0079 -7.5314 -5.8751 0.0000 25.3629 0.0000
# 6 0.0000 0.0000 0.0000 -4.9426 0.0000 28.5111
#
#
#
# Elastic Compliance Matrix: (Units=1/GPa)
#
#
# Indices 1 2 3 4 5 6 
#
# 1 0.018541 -0.005212 -0.001646 0.000000 0.003925 0.000000
# 2 -0.005212 0.009663 -0.003411 0.000000 0.000434 0.000000
# 3 -0.001646 -0.003411 0.013004 0.000000 0.001480 0.000000
# 4 0.000000 0.000000 0.000000 0.040700 0.000000 0.007056
# 5 0.003925 0.000434 0.001480 0.000000 0.041139 0.000000
# 6 0.000000 0.000000 0.000000 0.007056 0.000000 0.036297
#
#
# Mechanical properties :
#
#
# Convention : Reuss Voigt Hill
#
# Bulk Modulus (GPa) = 48.37976 59.16661 53.77319
# Shear Modulus (GPa) = 26.77084 28.81756 27.79420
#
# Velocity S-wave (km/s) = 3.73008 3.87004 3.80071
# Velocity P-wave (km/s) = 6.61026 7.12180 6.87079
#
# Compressibility (1/GPa) = 0.02066980
#
# Stress axis : x y z
#
# Youngs Moduli (GPa) = 53.93479 103.48925 76.90219
#
# Poissons Ratio (x) = 0.53935 0.12656
# Poissons Ratio (y) = 0.28109 0.26234
# Poissons Ratio (z) = 0.08876 0.35304
#
# Static dielectric constant tensor:
#      x y z
#    x 3.464440 0.000000 0.052420 
#    y 0.000000 3.591060 0.000000 
#    z 0.052420 0.000000 2.797420 
# 
# 
# High freq. dielectric constant tensor:
#      x y z
#    x 1.737390 0.000000 -0.012250 
#    y 0.000000 1.742680 0.000000 
#    z -0.012250 0.000000 1.770700 
# 
# From -- ./inp_files/146261.got.cif
#   From: 2010.06.25/outbox.cif.g09.slc.cpg/sg12_74_cif.got.tgz:146261.got - 2010.06.28 00:19:55.
