data_PCOD8091873
_publ_section_title
;
Structure prediction by ZEFSAII (Michael W. Deem and Ramdas Pophale) SiO2 
 PCOD8091873
Probable space group: C 2/M
;
_chemical_formula_sum "Si O2"
_cell_formula_units_Z 52
_cell_length_a 15.390112
_cell_length_b 24.082295
_cell_length_c 11.114426
_cell_angle_alpha 90.000000
_cell_angle_beta 141.589518
_cell_angle_gamma 90.000000
_cell_volume 2559.303871
_symmetry_space_group_name_H-M "C 2/M"
_symmetry_group_IT_number 12
_symmetry_cell_setting 'monoclinic'
loop_
_space_group_symop_operation_xyz
x,y,z
-x,y,-z
-x,-y,-z
x,-y,z
1/2+x,1/2+y,z
1/2-x,1/2+y,-z
1/2-x,1/2-y,-z
1/2+x,1/2-y,z
loop_
_atom_site_type_symbol
_atom_site_label
_atom_site_fract_x
_atom_site_fract_y
_atom_site_fract_z
Si Si1 0.000000 0.182061 0.500000
Si Si2 0.593283 0.736801 0.218674
Si Si3 0.892119 0.267013 0.208578
Si Si4 0.784869 0.836637 0.454864
Si Si5 0.598726 0.892601 0.715276
Si Si6 0.139337 0.563109 0.398346
Si Si7 0.344427 0.436708 0.846311
O O1 0.101565 0.222101 0.681283
O O2 0.089109 0.146315 0.499584
O O3 0.509992 0.765235 0.236037
O O4 0.708378 0.783388 0.310437
O O5 0.662745 0.680982 0.352400
O O6 0.500000 0.721515 0.000000
O O7 0.896234 0.327063 0.270694
O O8 0.750000 0.250000 0.000000
O O9 0.687366 0.891180 0.352782
O O10 0.500000 0.911863 0.500000
O O11 0.522766 0.922476 0.745708
O O12 0.759240 0.911066 0.867334
O O13 0.144544 0.500000 0.353273
O O14 0.250083 0.570004 0.626117
O O15 0.368713 0.500000 0.907663
O O16 0.500000 0.409127 0.000000
#
# Coordination Sequence:
#
# PCOD8091873 Si02
#       7
#     4   8   8   8   8   8   8
#     4  10  22  38  53  82 121 152 192 244 294 352
#     4  10  21  36  57  84 117 152 192 237 303 356
#     4  11  21  34  55  86 114 150 191 240 298 363
#     4  10  21  37  59  83 118 156 195 243 293 354
#     4  10  19  34  58  82 119 153 194 240 298 357
#     4  10  20  36  59  85 114 160 206 244 293 352
#     4   9  19  33  52  82 118 151 190 242 298 356
#
# _framework density 20.318024999999999
#
# number of rings (size 3 to 8) (size 9 to 14) (size 15 to 20)
#    0.000    2.000    2.308    1.385    0.000    7.385 
#    0.000    0.385    0.000    0.462    0.000    0.000 
#    0.000    0.000    0.000    0.000    0.000    0.000 
#
# Total GULP energy -322123.766081 kJ/mol
# GULP energy per Si atom -12389.375619 kJ/mol
# Density = 2.027178 g / cm^3
# Si number density = 20.318025 Si / 1000 Ang^3
#
#
#
# Elastic Constant Matrix: (Units=GPa)
#
#
# Indices 1 2 3 4 5 6 
#
# 1 122.1459 61.4005 25.6616 0.0000 26.5828 0.0000
# 2 61.4005 88.5467 0.9426 0.0000 16.0855 0.0000
# 3 25.6616 0.9426 77.4715 0.0000 10.5900 0.0000
# 4 0.0000 0.0000 0.0000 -136.4893 0.0000 -197.2833
# 5 26.5828 16.0855 10.5900 0.0000 38.9196 0.0000
# 6 0.0000 0.0000 0.0000 -197.2833 0.0000 -241.6513
#
#
#
# Elastic Compliance Matrix: (Units=1/GPa)
#
#
# Indices 1 2 3 4 5 6 
#
# 1 0.014861 -0.009320 -0.004101 0.000000 -0.005183 0.000000
# 2 -0.009320 0.018079 0.003135 0.000000 -0.001959 0.000000
# 3 -0.004101 0.003135 0.014564 0.000000 -0.002458 0.000000
# 4 0.000000 0.000000 0.000000 0.040697 0.000000 -0.033225
# 5 -0.005183 -0.001959 -0.002458 0.000000 0.030712 0.000000
# 6 0.000000 0.000000 0.000000 -0.033225 0.000000 0.022986
#
#
# Mechanical properties :
#
#
# Convention : Reuss Voigt Hill
#
# Bulk Modulus (GPa) = 37.12973 51.57480 44.35226
# Shear Modulus (GPa) = 29.16314 -54.50026 -12.66856
#
# Velocity S-wave (km/s) = 3.79269 -5.18477 -2.49973
# Velocity P-wave (km/s) = 6.12318 3.22546 3.68033
#
# Compressibility (1/GPa) = 0.02693260
#
# Stress axis : x y z
#
# Youngs Moduli (GPa) = 67.28800 55.31328 68.66176
#
# Poissons Ratio (x) = 0.51553 0.28157
# Poissons Ratio (y) = 0.62713 -0.21526
# Poissons Ratio (z) = 0.27594 -0.17341
#
# Static dielectric constant tensor:
#      x y z
#    x 3.718450 0.000000 0.260700 
#    y 0.000000 3.513480 0.000000 
#    z 0.260700 0.000000 3.725560 
# 
# 
# High freq. dielectric constant tensor:
#      x y z
#    x 1.798450 0.000000 0.028450 
#    y 0.000000 1.780840 0.000000 
#    z 0.028450 0.000000 1.772300 
# 
# From -- ./inp_files/149329.got.cif
#   From: 2010.06.25/outbox.cif.g09.slc.cpg/sg12_75_cif.got.tgz:149329.got - 2010.06.28 00:19:55.
