data_PCOD8091238
_publ_section_title
;
Structure prediction by ZEFSAII (Michael W. Deem and Ramdas Pophale) SiO2 
 PCOD8091238
Probable space group: C 2/M
;
_chemical_formula_sum "Si O2"
_cell_formula_units_Z 64
_cell_length_a 25.644804
_cell_length_b 11.095079
_cell_length_c 12.938517
_cell_angle_alpha 90.000000
_cell_angle_beta 119.095651
_cell_angle_gamma 90.000000
_cell_volume 3216.850402
_symmetry_space_group_name_H-M "C 2/M"
_symmetry_group_IT_number 12
_symmetry_cell_setting 'monoclinic'
loop_
_space_group_symop_operation_xyz
x,y,z
-x,y,-z
-x,-y,-z
x,-y,z
1/2+x,1/2+y,z
1/2-x,1/2+y,-z
1/2-x,1/2-y,-z
1/2+x,1/2-y,z
loop_
_atom_site_type_symbol
_atom_site_label
_atom_site_fract_x
_atom_site_fract_y
_atom_site_fract_z
Si Si1 0.994839 0.640025 0.609464
Si Si2 0.319582 0.364878 0.240775
Si Si3 0.380562 0.138076 0.622203
Si Si4 0.307933 0.133014 0.948077
Si Si5 0.709413 0.863185 0.644730
Si Si6 0.901850 0.244979 0.172036
Si Si7 0.660395 0.723321 0.217985
Si Si8 0.445669 0.364861 0.008742
O O1 0.982555 0.500000 0.583855
O O2 0.056172 0.659793 0.729898
O O3 0.000000 0.699478 0.500000
O O4 0.937545 0.692963 0.615322
O O5 0.319430 0.500000 0.294559
O O6 0.263375 0.358329 0.108408
O O7 0.316782 0.247829 0.312981
O O8 0.380449 0.357045 0.232495
O O9 0.321518 0.145835 0.495837
O O10 0.370164 0.219564 0.711721
O O11 0.392611 0.000000 0.667946
O O12 0.324221 0.172953 0.848281
O O13 0.332864 0.000000 0.982352
O O14 0.339514 0.201781 0.071669
O O15 0.780198 0.850320 0.695769
O O16 0.697125 0.000000 0.679155
O O17 0.939392 0.197420 0.112635
O O18 0.613829 0.634635 0.117668
O O19 0.464506 0.500000 0.051955
O O20 0.500000 0.299837 0.000000
#
# Coordination Sequence:
#
# PCOD8091238 Si02
#       8
#     8   8   8   8   8   8   8   8
#     4  10  21  36  55  81 112 146 188 236 282 332
#     4  10  21  37  56  82 116 149 184 231 286 339
#     4  10  20  35  56  82 113 150 190 233 282 332
#     4   9  19  33  51  80 112 142 178 225 281 337
#     4  10  21  37  59  86 115 149 190 234 280 334
#     4  11  20  34  57  79 105 145 188 231 278 336
#     4  10  19  34  55  81 111 145 183 229 278 335
#     4  10  21  36  53  75 106 143 183 229 279 333
#
# _framework density 19.895237000000002
#
# number of rings (size 3 to 8) (size 9 to 14) (size 15 to 20)
#    0.000    2.000    0.000    3.750    0.000    2.500 
#    0.000    4.375    0.000   14.250    0.000    0.000 
#    0.000    0.000    0.000    0.000    0.000    0.000 
#
# Total GULP energy -396565.289596 kJ/mol
# GULP energy per Si atom -12392.665300 kJ/mol
# Density = 1.984995 g / cm^3
# Si number density = 19.895237 Si / 1000 Ang^3
#
#
#
# Elastic Constant Matrix: (Units=GPa)
#
#
# Indices 1 2 3 4 5 6 
#
# 1 111.4397 19.9970 29.5549 0.0000 -14.6505 0.0000
# 2 19.9970 93.2729 20.0197 0.0000 -16.3015 0.0000
# 3 29.5549 20.0197 85.9031 0.0000 -8.9432 0.0000
# 4 0.0000 0.0000 0.0000 16.0186 0.0000 3.1755
# 5 -14.6505 -16.3015 -8.9432 0.0000 26.7913 0.0000
# 6 0.0000 0.0000 0.0000 3.1755 0.0000 24.7443
#
#
#
# Elastic Compliance Matrix: (Units=1/GPa)
#
#
# Indices 1 2 3 4 5 6 
#
# 1 0.010468 -0.000874 -0.002960 0.000000 0.004204 0.000000
# 2 -0.000874 0.012451 -0.001929 0.000000 0.006454 0.000000
# 3 -0.002960 -0.001929 0.013280 0.000000 0.001641 0.000000
# 4 0.000000 0.000000 0.000000 0.064057 0.000000 -0.008221
# 5 0.004204 0.006454 0.001641 0.000000 0.044099 0.000000
# 6 0.000000 0.000000 0.000000 -0.008221 0.000000 0.041468
#
#
# Mechanical properties :
#
#
# Convention : Reuss Voigt Hill
#
# Bulk Modulus (GPa) = 40.53169 47.75099 44.14134
# Shear Modulus (GPa) = 24.32220 28.24712 26.28466
#
# Velocity S-wave (km/s) = 3.50024 3.77210 3.63871
# Velocity P-wave (km/s) = 6.06237 6.55934 6.31575
#
# Compressibility (1/GPa) = 0.02467205
#
# Stress axis : x y z
#
# Youngs Moduli (GPa) = 95.52835 80.31733 75.30240
#
# Poissons Ratio (x) = 0.07021 0.22290
# Poissons Ratio (y) = 0.08350 0.14526
# Poissons Ratio (z) = 0.28278 0.15493
#
# Static dielectric constant tensor:
#      x y z
#    x 3.801170 0.000000 0.049400 
#    y 0.000000 3.542320 0.000000 
#    z 0.049400 0.000000 3.506900 
# 
# 
# High freq. dielectric constant tensor:
#      x y z
#    x 1.786640 0.000000 0.004390 
#    y 0.000000 1.762630 0.000000 
#    z 0.004390 0.000000 1.770070 
# 
# From -- ./inp_files/175286.got.cif
#   From: 2010.06.25/outbox.cif.g09.slc.cpg/sg12_88_cif.got.tgz:175286.got - 2010.06.28 00:19:55.
