data_PCOD8091207
_publ_section_title
;
Structure prediction by ZEFSAII (Michael W. Deem and Ramdas Pophale) SiO2 
 PCOD8091207
Probable space group: C 2/M
;
_chemical_formula_sum "Si O2"
_cell_formula_units_Z 40
_cell_length_a 19.381992
_cell_length_b 13.913841
_cell_length_c 12.565362
_cell_angle_alpha 90.000000
_cell_angle_beta 37.682829
_cell_angle_gamma 90.000000
_cell_volume 2071.417612
_symmetry_space_group_name_H-M "C 2/M"
_symmetry_group_IT_number 12
_symmetry_cell_setting 'monoclinic'
loop_
_space_group_symop_operation_xyz
x,y,z
-x,y,-z
-x,-y,-z
x,-y,z
1/2+x,1/2+y,z
1/2-x,1/2+y,-z
1/2-x,1/2-y,-z
1/2+x,1/2-y,z
loop_
_atom_site_type_symbol
_atom_site_label
_atom_site_fract_x
_atom_site_fract_y
_atom_site_fract_z
Si Si1 0.730483 0.311301 0.777673
Si Si2 0.585008 0.729206 0.308875
Si Si3 0.369574 0.243031 0.300461
Si Si4 0.935624 0.611416 0.392861
Si Si5 0.553067 0.390376 0.144553
O O1 0.793020 0.244470 0.787156
O O2 0.650615 0.241605 0.802268
O O3 0.818146 0.370717 0.598307
O O4 0.649590 0.385061 0.937195
O O5 0.500000 0.684630 0.500000
O O6 0.535748 0.831558 0.329260
O O7 0.600689 0.653959 0.195439
O O8 0.250000 0.250000 0.500000
O O9 0.428540 0.148022 0.278358
O O10 0.440421 0.336902 0.245319
O O11 0.967124 0.500000 0.354936
O O12 0.519878 0.500000 0.204639
#
# Coordination Sequence:
#
# PCOD8091207 Si02
#       5
#     8   8   8   8   8
#     4  10  19  34  55  80 110 139 172 222 269 309
#     4   9  20  37  54  76 110 147 179 214 260 317
#     4   9  20  36  52  74 106 139 172 214 266 319
#     4   9  18  34  56  79 104 139 180 215 255 314
#     4  11  22  35  55  82 109 139 178 225 272 314
#
# _framework density 19.310448000000001
#
# number of rings (size 3 to 8) (size 9 to 14) (size 15 to 20)
#    0.000    2.400    0.000    3.000    0.000    9.600 
#    0.000    1.000    0.000    9.600    0.000    0.000 
#    0.000    0.000    0.000    0.000    0.000    0.000 
#
# Total GULP energy -247930.646402 kJ/mol
# GULP energy per Si atom -12396.532320 kJ/mol
# Density = 1.926650 g / cm^3
# Si number density = 19.310448 Si / 1000 Ang^3
#
#
#
# Elastic Constant Matrix: (Units=GPa)
#
#
# Indices 1 2 3 4 5 6 
#
# 1 160.0357 57.9646 33.8125 0.0000 10.9543 0.0000
# 2 57.9646 114.3736 52.6761 0.0000 8.9605 0.0000
# 3 33.8125 52.6761 55.7776 0.0000 6.5854 0.0000
# 4 0.0000 0.0000 0.0000 19.5407 0.0000 -0.9667
# 5 10.9543 8.9605 6.5854 0.0000 27.8804 0.0000
# 6 0.0000 0.0000 0.0000 -0.9667 0.0000 8.7269
#
#
#
# Elastic Compliance Matrix: (Units=1/GPa)
#
#
# Indices 1 2 3 4 5 6 
#
# 1 0.007826 -0.003080 -0.001634 0.000000 -0.001699 0.000000
# 2 -0.003080 0.016753 -0.013847 0.000000 -0.000903 0.000000
# 3 -0.001634 -0.013847 0.032296 0.000000 -0.002536 0.000000
# 4 0.000000 0.000000 0.000000 0.051457 0.000000 0.005700
# 5 -0.001699 -0.000903 -0.002536 0.000000 0.037424 0.000000
# 6 0.000000 0.000000 0.000000 0.005700 0.000000 0.115219
#
#
# Mechanical properties :
#
#
# Convention : Reuss Voigt Hill
#
# Bulk Modulus (GPa) = 50.63197 68.78814 59.71006
# Shear Modulus (GPa) = 16.41054 23.61186 20.01120
#
# Velocity S-wave (km/s) = 2.91834 3.50058 3.22264
# Velocity P-wave (km/s) = 6.13454 7.21376 6.69593
#
# Compressibility (1/GPa) = 0.01975037
#
# Stress axis : x y z
#
# Youngs Moduli (GPa) = 127.78086 59.69219 30.96378
#
# Poissons Ratio (x) = 0.18387 0.05061
# Poissons Ratio (y) = 0.39360 0.42876
# Poissons Ratio (z) = 0.20886 0.82657
#
# Static dielectric constant tensor:
#      x y z
#    x 4.746240 0.000000 0.203880 
#    y 0.000000 3.198440 0.000000 
#    z 0.203880 0.000000 3.531510 
# 
# 
# High freq. dielectric constant tensor:
#      x y z
#    x 1.775290 0.000000 0.001650 
#    y 0.000000 1.714040 0.000000 
#    z 0.001650 0.000000 1.748510 
# 
# From -- ./inp_files/142188.got.cif
#   From: 2010.06.25/outbox.cif.g09.slc.cpg/sg12_72_cif.got.tgz:142188.got - 2010.06.28 00:19:55.
