data_PCOD8091012
_publ_section_title
;
Structure prediction by ZEFSAII (Michael W. Deem and Ramdas Pophale) SiO2 
 PCOD8091012
Probable space group: C 2/M
;
_chemical_formula_sum "Si O2"
_cell_formula_units_Z 44
_cell_length_a 27.559587
_cell_length_b 17.479305
_cell_length_c 5.189409
_cell_angle_alpha 90.000000
_cell_angle_beta 63.305001
_cell_angle_gamma 90.000000
_cell_volume 2233.396693
_symmetry_space_group_name_H-M "C 2/M"
_symmetry_group_IT_number 12
_symmetry_cell_setting 'monoclinic'
loop_
_space_group_symop_operation_xyz
x,y,z
-x,y,-z
-x,-y,-z
x,-y,z
1/2+x,1/2+y,z
1/2-x,1/2+y,-z
1/2-x,1/2-y,-z
1/2+x,1/2-y,z
loop_
_atom_site_type_symbol
_atom_site_label
_atom_site_fract_x
_atom_site_fract_y
_atom_site_fract_z
Si Si1 0.611388 0.268166 0.311129
Si Si2 0.354126 0.819442 0.283207
Si Si3 0.253174 0.587245 0.474299
Si Si4 0.500000 0.210109 0.500000
Si Si5 0.051463 0.417532 0.050393
Si Si6 0.823165 0.913196 0.807709
O O1 0.645807 0.227556 0.452487
O O2 0.545904 0.262000 0.529935
O O3 0.625211 0.357993 0.280121
O O4 0.628724 0.234380 0.994299
O O5 0.295053 0.852992 0.370143
O O6 0.394805 0.891704 0.230776
O O7 0.231591 0.500000 0.542694
O O8 0.296536 0.602715 0.594580
O O9 0.279376 0.603289 0.134493
O O10 0.460545 0.154251 0.745783
O O11 0.062589 0.500000 0.164636
O O12 0.000000 0.431134 0.000000
O O13 0.844840 0.000000 0.775869
#
# Coordination Sequence:
#
# PCOD8091012 Si02
#       6
#     8   8   8   4   8   8
#     4  11  23  37  59  81 113 146 185 236 276 330
#     4  11  22  36  56  88 113 148 185 224 273 324
#     4  10  21  38  58  83 117 148 182 226 272 330
#     4  10  21  38  53  82 114 148 188 234 279 314
#     4  10  19  34  54  78 112 152 186 217 262 325
#     4  10  22  40  59  81 109 146 185 230 288 336
#
# _framework density 19.700932999999999
#
# number of rings (size 3 to 8) (size 9 to 14) (size 15 to 20)
#    0.000    1.636    1.818    3.000    0.000    4.364 
#    0.000    2.273    0.000    0.000    0.000    7.636 
#    0.000    0.000    0.000    0.000    0.000    0.000 
#
# Total GULP energy -272611.799027 kJ/mol
# GULP energy per Si atom -12391.445410 kJ/mol
# Density = 1.965609 g / cm^3
# Si number density = 19.700933 Si / 1000 Ang^3
#
#
#
# Elastic Constant Matrix: (Units=GPa)
#
#
# Indices 1 2 3 4 5 6 
#
# 1 74.8720 64.1777 19.7691 0.0000 -1.3851 0.0000
# 2 64.1777 125.8869 24.7441 0.0000 -22.5375 0.0000
# 3 19.7691 24.7441 49.0043 0.0000 10.1019 0.0000
# 4 0.0000 0.0000 0.0000 22.9879 0.0000 -0.7171
# 5 -1.3851 -22.5375 10.1019 0.0000 33.9513 0.0000
# 6 0.0000 0.0000 0.0000 -0.7171 0.0000 -44.9794
#
#
#
# Elastic Compliance Matrix: (Units=1/GPa)
#
#
# Indices 1 2 3 4 5 6 
#
# 1 0.025903 -0.014327 -0.001569 0.000000 -0.007987 0.000000
# 2 -0.014327 0.019107 -0.006778 0.000000 0.014116 0.000000
# 3 -0.001569 -0.006778 0.027062 0.000000 -0.012615 0.000000
# 4 0.000000 0.000000 0.000000 0.043479 0.000000 -0.000693
# 5 -0.007987 0.014116 -0.012615 0.000000 0.042252 0.000000
# 6 0.000000 0.000000 0.000000 -0.000693 0.000000 -0.022221
#
#
# Mechanical properties :
#
#
# Convention : Reuss Voigt Hill
#
# Bulk Modulus (GPa) = 37.41882 51.90499 44.66190
# Shear Modulus (GPa) = 26.33798 11.79679 19.06738
#
# Velocity S-wave (km/s) = 3.66032 2.44968 3.11439
# Velocity P-wave (km/s) = 6.07442 5.86557 5.97091
#
# Compressibility (1/GPa) = 0.02672452
#
# Stress axis : x y z
#
# Youngs Moduli (GPa) = 38.60484 52.33643 36.95169
#
# Poissons Ratio (x) = 0.74984 0.05798
# Poissons Ratio (y) = 0.55310 0.25046
# Poissons Ratio (z) = 0.06057 0.35473
#
# Static dielectric constant tensor:
#      x y z
#    x 3.609490 0.000000 -0.118910 
#    y 0.000000 4.176970 0.000000 
#    z -0.118910 0.000000 3.529400 
# 
# 
# High freq. dielectric constant tensor:
#      x y z
#    x 1.763680 0.000000 0.003250 
#    y 0.000000 1.772090 0.000000 
#    z 0.003250 0.000000 1.761730 
# 
# From -- ./inp_files/24599.got.cif
#   From: 2010.06.25/outbox.cif.g09.slc.cpg/sg12_13_cif.got.tgz:24599.got - 2010.06.28 00:19:55.
