data_PCOD8091648
_publ_section_title
;
Structure prediction by ZEFSAII (Michael W. Deem and Ramdas Pophale) SiO2 
 PCOD8091648
Probable space group: C 2/M
;
_chemical_formula_sum "Si O2"
_cell_formula_units_Z 64
_cell_length_a 30.464019
_cell_length_b 8.857649
_cell_length_c 17.016630
_cell_angle_alpha 90.000000
_cell_angle_beta 134.957875
_cell_angle_gamma 90.000000
_cell_volume 3249.251212
_symmetry_space_group_name_H-M "C 2/M"
_symmetry_group_IT_number 12
_symmetry_cell_setting 'monoclinic'
loop_
_space_group_symop_operation_xyz
x,y,z
-x,y,-z
-x,-y,-z
x,-y,z
1/2+x,1/2+y,z
1/2-x,1/2+y,-z
1/2-x,1/2-y,-z
1/2+x,1/2-y,z
loop_
_atom_site_type_symbol
_atom_site_label
_atom_site_fract_x
_atom_site_fract_y
_atom_site_fract_z
Si Si1 0.068494 0.171967 0.237959
Si Si2 0.946197 0.675964 0.048046
Si Si3 0.453219 0.324750 0.614959
Si Si4 0.580416 0.822191 0.732071
Si Si5 0.755481 0.174918 0.799206
Si Si6 0.362925 0.327405 0.823066
Si Si7 0.357156 0.324073 0.054043
Si Si8 0.124345 0.823450 0.632996
O O1 0.080676 0.210407 0.344761
O O2 0.131341 0.191754 0.264571
O O3 0.018436 0.284072 0.136885
O O4 0.044415 0.000000 0.199783
O O5 0.936525 0.500000 0.052753
O O6 0.916802 0.773290 0.080556
O O7 0.914610 0.719476 0.926044
O O8 0.471114 0.500000 0.629213
O O9 0.515824 0.229084 0.688421
O O10 0.404984 0.275070 0.487115
O O11 0.638986 0.761764 0.857502
O O12 0.585489 0.760924 0.650497
O O13 0.583638 0.000000 0.734104
O O14 0.794853 0.214311 0.770185
O O15 0.695943 0.279167 0.723783
O O16 0.735540 0.000000 0.775439
O O17 0.795055 0.216242 0.927211
O O18 0.376782 0.500000 0.866834
O O19 0.361637 0.500000 0.076964
O O20 0.118364 0.000000 0.640815
#
# Coordination Sequence:
#
# PCOD8091648 Si02
#       8
#     8   8   8   8   8   8   8   8
#     4  10  19  34  57  81 111 153 195 233 280 344
#     4  11  20  30  49  83 121 152 185 232 288 338
#     4  10  22  40  61  85 116 153 194 238 283 341
#     4  12  24  38  61  91 118 146 185 238 297 345
#     4   9  20  39  60  83 114 151 195 241 282 333
#     4   9  19  35  56  81 111 154 197 230 280 345
#     4  10  20  37  60  85 117 155 189 230 285 349
#     4  11  24  41  61  83 111 154 199 238 287 344
#
# _framework density 19.696847000000002
#
# number of rings (size 3 to 8) (size 9 to 14) (size 15 to 20)
#    0.000    1.750    1.250    4.500    0.000    7.500 
#    0.000    0.625    0.000    0.000    0.000    0.000 
#    0.000    0.000    0.000    0.000    0.000    0.000 
#
# Total GULP energy -396792.820724 kJ/mol
# GULP energy per Si atom -12399.775648 kJ/mol
# Density = 1.965202 g / cm^3
# Si number density = 19.696847 Si / 1000 Ang^3
#
#
#
# Elastic Constant Matrix: (Units=GPa)
#
#
# Indices 1 2 3 4 5 6 
#
# 1 82.9622 30.9534 43.9250 0.0000 -24.3911 0.0000
# 2 30.9534 86.9392 44.6020 0.0000 -8.4940 0.0000
# 3 43.9250 44.6020 91.1505 0.0000 -11.1298 0.0000
# 4 0.0000 0.0000 0.0000 19.4177 0.0000 6.4622
# 5 -24.3911 -8.4940 -11.1298 0.0000 28.9650 0.0000
# 6 0.0000 0.0000 0.0000 6.4622 0.0000 24.5897
#
#
#
# Elastic Compliance Matrix: (Units=1/GPa)
#
#
# Indices 1 2 3 4 5 6 
#
# 1 0.020901 -0.002374 -0.007183 0.000000 0.014144 0.000000
# 2 -0.002374 0.015707 -0.006530 0.000000 0.000098 0.000000
# 3 -0.007183 -0.006530 0.017475 0.000000 -0.001249 0.000000
# 4 0.000000 0.000000 0.000000 0.056435 0.000000 -0.014831
# 5 0.014144 0.000098 -0.001249 0.000000 0.045984 0.000000
# 6 0.000000 0.000000 0.000000 -0.014831 0.000000 0.044565
#
#
# Mechanical properties :
#
#
# Convention : Reuss Voigt Hill
#
# Bulk Modulus (GPa) = 45.64423 55.55697 50.60060
# Shear Modulus (GPa) = 20.78608 24.03257 22.40932
#
# Velocity S-wave (km/s) = 3.25206 3.49681 3.37666
# Velocity P-wave (km/s) = 6.10941 6.67614 6.39905
#
# Compressibility (1/GPa) = 0.02190858
#
# Stress axis : x y z
#
# Youngs Moduli (GPa) = 47.84388 63.66536 57.22428
#
# Poissons Ratio (x) = 0.15117 0.41106
# Poissons Ratio (y) = 0.11360 0.37366
# Poissons Ratio (z) = 0.34368 0.41572
#
# Static dielectric constant tensor:
#      x y z
#    x 3.690940 0.000000 -0.268340 
#    y 0.000000 3.509010 0.000000 
#    z -0.268340 0.000000 3.540520 
# 
# 
# High freq. dielectric constant tensor:
#      x y z
#    x 1.773330 0.000000 -0.016720 
#    y 0.000000 1.765120 0.000000 
#    z -0.016720 0.000000 1.747200 
# 
# From -- ./inp_files/295707.got.cif
#   From: 2010.06.25/outbox.cif.g09.slc.cpg/sg12_148_cif.got.tgz:295707.got - 2010.06.28 00:19:55.
