data_PCOD8091382
_publ_section_title
;
Structure prediction by ZEFSAII (Michael W. Deem and Ramdas Pophale) SiO2 
 PCOD8091382
Probable space group: C 2/M
;
_chemical_formula_sum "Si O2"
_cell_formula_units_Z 56
_cell_length_a 19.509827
_cell_length_b 9.259235
_cell_length_c 25.310629
_cell_angle_alpha 90.000000
_cell_angle_beta 139.023466
_cell_angle_gamma 90.000000
_cell_volume 2998.262688
_symmetry_space_group_name_H-M "C 2/M"
_symmetry_group_IT_number 12
_symmetry_cell_setting 'monoclinic'
loop_
_space_group_symop_operation_xyz
x,y,z
-x,y,-z
-x,-y,-z
x,-y,z
1/2+x,1/2+y,z
1/2-x,1/2+y,-z
1/2-x,1/2-y,-z
1/2+x,1/2-y,z
loop_
_atom_site_type_symbol
_atom_site_label
_atom_site_fract_x
_atom_site_fract_y
_atom_site_fract_z
Si Si1 0.813527 0.670143 0.141045
Si Si2 0.927138 0.170256 0.007731
Si Si3 0.313796 0.839746 0.687956
Si Si4 0.336087 0.841299 0.577889
Si Si5 0.564329 0.171808 0.685685
Si Si6 0.592659 0.327239 0.592903
Si Si7 0.470312 0.826636 0.141464
O O1 0.826646 0.500000 0.147567
O O2 0.692774 0.717303 0.071355
O O3 0.860880 0.727323 0.223674
O O4 0.877465 0.729163 0.126827
O O5 0.936314 0.000000 0.024342
O O6 0.000000 0.212852 0.000000
O O7 0.962564 0.258061 0.079358
O O8 0.316225 0.845496 0.627434
O O9 0.204169 0.764057 0.638224
O O10 0.418924 0.766174 0.771731
O O11 0.311272 0.000000 0.710718
O O12 0.250000 0.750000 0.500000
O O13 0.449622 0.776881 0.634937
O O14 0.329274 0.000000 0.548969
O O15 0.586404 0.259060 0.646310
O O16 0.575003 0.000000 0.683008
O O17 0.500000 0.272579 0.500000
O O18 0.588895 0.500000 0.593886
O O19 0.467354 0.000000 0.135838
#
# Coordination Sequence:
#
# PCOD8091382 Si02
#       7
#     8   8   8   8   8   8   8
#     4   9  18  36  58  79 107 143 177 215 268 320
#     4  10  22  37  55  82 114 142 170 213 271 324
#     4   9  18  34  55  77 104 141 180 217 263 318
#     4  10  19  34  56  80 106 139 180 222 264 311
#     4  10  20  35  57  81 106 141 183 220 262 321
#     4  10  21  36  53  76 109 145 178 220 274 319
#     4  10  19  36  60  80 103 140 184 221 257 312
#
# _framework density 18.677481
#
# number of rings (size 3 to 8) (size 9 to 14) (size 15 to 20)
#    0.000    2.286    1.429    1.286    2.000    2.286 
#    0.000    2.857    0.000    0.000    0.000    0.000 
#    0.000    0.000    0.000    0.000    0.000    0.000 
#
# Total GULP energy -346990.563073 kJ/mol
# GULP energy per Si atom -12392.520110 kJ/mol
# Density = 1.863497 g / cm^3
# Si number density = 18.677481 Si / 1000 Ang^3
#
#
#
# Elastic Constant Matrix: (Units=GPa)
#
#
# Indices 1 2 3 4 5 6 
#
# 1 154.8634 23.4224 73.0439 0.0000 15.1280 0.0000
# 2 23.4224 22.5390 32.9950 0.0000 -0.4287 0.0000
# 3 73.0439 32.9950 162.2400 0.0000 12.6458 0.0000
# 4 0.0000 0.0000 0.0000 19.0335 0.0000 -9.6939
# 5 15.1280 -0.4287 12.6458 0.0000 42.2962 0.0000
# 6 0.0000 0.0000 0.0000 -9.6939 0.0000 20.3546
#
#
#
# Elastic Compliance Matrix: (Units=1/GPa)
#
#
# Indices 1 2 3 4 5 6 
#
# 1 0.008746 -0.005184 -0.002698 0.000000 -0.002374 0.000000
# 2 -0.005184 0.067130 -0.011791 0.000000 0.006060 0.000000
# 3 -0.002698 -0.011791 0.009942 0.000000 -0.002127 0.000000
# 4 0.000000 0.000000 0.000000 0.069364 0.000000 0.033035
# 5 -0.002374 0.006060 -0.002127 0.000000 0.025189 0.000000
# 6 0.000000 0.000000 0.000000 0.033035 0.000000 0.064862
#
#
# Mechanical properties :
#
#
# Convention : Reuss Voigt Hill
#
# Bulk Modulus (GPa) = 21.51807 66.50722 44.01265
# Shear Modulus (GPa) = 16.66277 30.34894 23.50585
#
# Velocity S-wave (km/s) = 2.99010 4.03537 3.55140
# Velocity P-wave (km/s) = 4.84425 7.57614 6.35864
#
# Compressibility (1/GPa) = 0.04647258
#
# Stress axis : x y z
#
# Youngs Moduli (GPa) = 114.33870 14.89639 100.58068
#
# Poissons Ratio (x) = 0.07722 0.27140
# Poissons Ratio (y) = 0.59271 1.18593
# Poissons Ratio (z) = 0.30852 0.17564
#
# Static dielectric constant tensor:
#      x y z
#    x 3.506980 0.000000 0.316330 
#    y 0.000000 3.070360 0.000000 
#    z 0.316330 0.000000 3.609940 
# 
# 
# High freq. dielectric constant tensor:
#      x y z
#    x 1.742170 0.000000 0.007310 
#    y 0.000000 1.683020 0.000000 
#    z 0.007310 0.000000 1.742720 
# 
# From -- ./inp_files/343115.got.cif
#   From: 2010.06.25/outbox.cif.g09.slc.cpg/sg12_172_cif.got.tgz:343115.got - 2010.06.28 00:19:55.
