data_PCOD8091683
_publ_section_title
;
Structure prediction by ZEFSAII (Michael W. Deem and Ramdas Pophale) SiO2 
 PCOD8091683
Probable space group: C 2/M
;
_chemical_formula_sum "Si O2"
_cell_formula_units_Z 64
_cell_length_a 22.212286
_cell_length_b 9.140407
_cell_length_c 21.077735
_cell_angle_alpha 90.000000
_cell_angle_beta 127.821656
_cell_angle_gamma 90.000000
_cell_volume 3380.396576
_symmetry_space_group_name_H-M "C 2/M"
_symmetry_group_IT_number 12
_symmetry_cell_setting 'monoclinic'
loop_
_space_group_symop_operation_xyz
x,y,z
-x,y,-z
-x,-y,-z
x,-y,z
1/2+x,1/2+y,z
1/2-x,1/2+y,-z
1/2-x,1/2-y,-z
1/2+x,1/2-y,z
loop_
_atom_site_type_symbol
_atom_site_label
_atom_site_fract_x
_atom_site_fract_y
_atom_site_fract_z
Si Si1 0.344695 0.174125 0.271053
Si Si2 0.165069 0.338769 0.878630
Si Si3 0.363871 0.828925 0.538258
Si Si4 0.009676 0.170098 0.580695
Si Si5 0.656572 0.660853 0.989906
Si Si6 0.202832 0.332770 0.236844
Si Si7 0.275515 0.832446 0.606161
Si Si8 0.084948 0.669259 0.056462
O O1 0.347559 0.225428 0.199726
O O2 0.412198 0.251623 0.351625
O O3 0.265569 0.223387 0.250502
O O4 0.351201 0.000000 0.281325
O O5 0.127711 0.500000 0.859078
O O6 0.253165 0.351127 0.952614
O O7 0.125297 0.234914 0.904970
O O8 0.441650 0.744235 0.575629
O O9 0.339989 0.797612 0.595608
O O10 0.297823 0.770553 0.449257
O O11 0.376224 0.000000 0.532888
O O12 0.000000 0.192517 0.500000
O O13 0.013167 0.000000 0.601354
O O14 0.619675 0.500000 0.970173
O O15 0.635583 0.752929 0.037282
O O16 0.230374 0.500000 0.243691
O O17 0.188337 0.302095 0.301729
O O18 0.122703 0.304354 0.149685
O O19 0.247586 0.000000 0.581119
O O20 0.082799 0.500000 0.036639
O O21 0.000000 0.735525 0.000000
#
# Coordination Sequence:
#
# PCOD8091683 Si02
#       8
#     8   8   8   8   8   8   8   8
#     4  11  22  37  58  85 114 144 185 237 284 331
#     4   9  19  35  55  81 110 143 180 225 279 334
#     4  10  20  36  58  84 114 148 188 233 278 327
#     4  11  24  40  57  81 117 155 188 227 279 337
#     4  10  19  34  57  82 110 142 182 229 279 331
#     4  10  20  36  58  81 109 145 186 229 276 336
#     4   9  19  36  58  83 111 148 189 229 278 332
#     4  10  21  37  56  80 111 149 189 229 279 337
#
# _framework density 18.932690000000001
#
# number of rings (size 3 to 8) (size 9 to 14) (size 15 to 20)
#    0.000    2.000    1.250    2.250    0.000    6.750 
#    2.250    0.000    0.000    0.000    0.000    0.000 
#    0.000    0.000    0.000    0.000    0.000    0.000 
#
# Total GULP energy -396841.711684 kJ/mol
# GULP energy per Si atom -12401.303490 kJ/mol
# Density = 1.888960 g / cm^3
# Si number density = 18.932690 Si / 1000 Ang^3
#
#
#
# Elastic Constant Matrix: (Units=GPa)
#
#
# Indices 1 2 3 4 5 6 
#
# 1 59.5380 37.9338 43.3490 0.0000 -2.4897 0.0000
# 2 37.9338 92.1636 53.4280 0.0000 -3.1418 0.0000
# 3 43.3490 53.4280 124.5456 0.0000 -14.0913 0.0000
# 4 0.0000 0.0000 0.0000 18.3410 0.0000 -3.4673
# 5 -2.4897 -3.1418 -14.0913 0.0000 33.8372 0.0000
# 6 0.0000 0.0000 0.0000 -3.4673 0.0000 14.4653
#
#
#
# Elastic Compliance Matrix: (Units=1/GPa)
#
#
# Indices 1 2 3 4 5 6 
#
# 1 0.025661 -0.007113 -0.006025 0.000000 -0.001282 0.000000
# 2 -0.007113 0.016468 -0.004696 0.000000 -0.000950 0.000000
# 3 -0.006025 -0.004696 0.012637 0.000000 0.004383 0.000000
# 4 0.000000 0.000000 0.000000 0.057111 0.000000 0.013689
# 5 -0.001282 -0.000950 0.004383 0.000000 0.031196 0.000000
# 6 0.000000 0.000000 0.000000 0.013689 0.000000 0.072412
#
#
# Mechanical properties :
#
#
# Convention : Reuss Voigt Hill
#
# Bulk Modulus (GPa) = 52.36341 60.62985 56.49663
# Shear Modulus (GPa) = 19.41601 22.76446 21.09023
#
# Velocity S-wave (km/s) = 3.20586 3.47131 3.34122
# Velocity P-wave (km/s) = 6.43592 6.93975 6.69258
#
# Compressibility (1/GPa) = 0.01909731
#
# Stress axis : x y z
#
# Youngs Moduli (GPa) = 38.96944 60.72418 79.13329
#
# Poissons Ratio (x) = 0.43191 0.47680
# Poissons Ratio (y) = 0.27718 0.37164
# Poissons Ratio (z) = 0.23480 0.28518
#
# Static dielectric constant tensor:
#      x y z
#    x 3.389370 0.000000 -0.139560 
#    y 0.000000 3.685230 0.000000 
#    z -0.139560 0.000000 3.551950 
# 
# 
# High freq. dielectric constant tensor:
#      x y z
#    x 1.724610 0.000000 -0.015690 
#    y 0.000000 1.742770 0.000000 
#    z -0.015690 0.000000 1.737500 
# 
# From -- ./inp_files/324306.got.cif
#   From: 2010.06.25/outbox.cif.g09.slc.cpg/sg12_163_cif.got.tgz:324306.got - 2010.06.28 00:19:55.
