data_PCOD8091954
_publ_section_title
;
Structure prediction by ZEFSAII (Michael W. Deem and Ramdas Pophale) SiO2 
 PCOD8091954
Probable space group: C 2/M
;
_chemical_formula_sum "Si O2"
_cell_formula_units_Z 64
_cell_length_a 15.121805
_cell_length_b 9.048061
_cell_length_c 25.191753
_cell_angle_alpha 90.000000
_cell_angle_beta 106.644588
_cell_angle_gamma 90.000000
_cell_volume 3302.390031
_symmetry_space_group_name_H-M "C 2/M"
_symmetry_group_IT_number 12
_symmetry_cell_setting 'monoclinic'
loop_
_space_group_symop_operation_xyz
x,y,z
-x,y,-z
-x,-y,-z
x,-y,z
1/2+x,1/2+y,z
1/2-x,1/2+y,-z
1/2-x,1/2-y,-z
1/2+x,1/2-y,z
loop_
_atom_site_type_symbol
_atom_site_label
_atom_site_fract_x
_atom_site_fract_y
_atom_site_fract_z
Si Si1 0.971390 0.833101 0.744382
Si Si2 0.268730 0.667187 0.755873
Si Si3 0.039410 0.175860 0.062802
Si Si4 0.580190 0.671280 0.861150
Si Si5 0.094011 0.673387 0.366266
Si Si6 0.485703 0.326971 0.437444
Si Si7 0.290854 0.672437 0.354938
Si Si8 0.719113 0.171568 0.132320
O O1 0.873956 0.830462 0.756532
O O2 0.971371 0.733656 0.691937
O O3 0.044142 0.762348 0.798819
O O4 0.998197 0.000000 0.731813
O O5 0.235744 0.500000 0.761476
O O6 0.205228 0.737470 0.699229
O O7 0.259506 0.764946 0.806372
O O8 0.140364 0.241825 0.087865
O O9 0.972314 0.239997 0.097207
O O10 0.047063 0.000000 0.065745
O O11 0.000000 0.231120 0.000000
O O12 0.553087 0.500000 0.853956
O O13 0.688992 0.695024 0.887057
O O14 0.080386 0.500000 0.367476
O O15 0.200801 0.716822 0.373977
O O16 0.062348 0.744478 0.415840
O O17 0.500000 0.274561 0.500000
O O18 0.503672 0.500000 0.433950
O O19 0.381562 0.284311 0.403385
O O20 0.287389 0.500000 0.340044
O O21 0.692829 0.000000 0.133215
#
# Coordination Sequence:
#
# PCOD8091954 Si02
#       8
#     8   8   8   8   8   8   8   8
#     4   9  17  34  58  79 110 151 188 224 274 345
#     4  10  19  34  58  85 114 147 190 233 277 338
#     4  10  21  41  64  82 110 154 198 237 278 334
#     4   9  19  36  56  82 113 151 188 225 283 343
#     4  10  21  36  55  84 116 144 183 237 290 331
#     4  10  22  40  60  81 110 154 200 231 273 346
#     4   9  20  38  57  81 115 150 185 231 288 338
#     4  11  22  35  56  85 117 149 185 232 286 338
#
# _framework density 19.379902999999999
#
# number of rings (size 3 to 8) (size 9 to 14) (size 15 to 20)
#    0.000    2.250    1.250    1.125    1.750    3.000 
#    0.000    1.875    0.000    0.000    0.000    0.000 
#    0.000    0.000    0.000    0.000    0.000    0.000 
#
# Total GULP energy -396849.204111 kJ/mol
# GULP energy per Si atom -12401.537628 kJ/mol
# Density = 1.933579 g / cm^3
# Si number density = 19.379903 Si / 1000 Ang^3
#
#
#
# Elastic Constant Matrix: (Units=GPa)
#
#
# Indices 1 2 3 4 5 6 
#
# 1 71.2499 24.8904 50.7240 0.0000 13.3548 0.0000
# 2 24.8904 46.7475 35.3681 0.0000 1.0593 0.0000
# 3 50.7240 35.3681 140.6302 0.0000 11.9616 0.0000
# 4 0.0000 0.0000 0.0000 25.4385 0.0000 -0.2845
# 5 13.3548 1.0593 11.9616 0.0000 24.6189 0.0000
# 6 0.0000 0.0000 0.0000 -0.2845 0.0000 24.8804
#
#
#
# Elastic Compliance Matrix: (Units=1/GPa)
#
#
# Indices 1 2 3 4 5 6 
#
# 1 0.022178 -0.007579 -0.005318 0.000000 -0.009121 0.000000
# 2 -0.007579 0.029121 -0.005042 0.000000 0.005308 0.000000
# 3 -0.005318 -0.005042 0.010466 0.000000 -0.001983 0.000000
# 4 0.000000 0.000000 0.000000 0.039315 0.000000 0.000450
# 5 -0.009121 0.005308 -0.001983 0.000000 0.046302 0.000000
# 6 0.000000 0.000000 0.000000 0.000450 0.000000 0.040197
#
#
# Mechanical properties :
#
#
# Convention : Reuss Voigt Hill
#
# Bulk Modulus (GPa) = 38.62730 53.39919 46.01324
# Shear Modulus (GPa) = 21.54386 24.83059 23.18723
#
# Velocity S-wave (km/s) = 3.33777 3.58335 3.46274
# Velocity P-wave (km/s) = 5.90163 6.68836 6.30727
#
# Compressibility (1/GPa) = 0.02588843
#
# Stress axis : x y z
#
# Youngs Moduli (GPa) = 45.08999 34.33954 95.55188
#
# Poissons Ratio (x) = 0.26025 0.50810
# Poissons Ratio (y) = 0.34172 0.48175
# Poissons Ratio (z) = 0.23977 0.17313
#
# Static dielectric constant tensor:
#      x y z
#    x 3.601030 0.000000 -0.007940 
#    y 0.000000 3.438210 0.000000 
#    z -0.007940 0.000000 3.613620 
# 
# 
# High freq. dielectric constant tensor:
#      x y z
#    x 1.759780 0.000000 0.001260 
#    y 0.000000 1.739080 0.000000 
#    z 0.001260 0.000000 1.754020 
# 
# From -- ./inp_files/359967.got.cif
#   From: 2010.06.25/outbox.cif.g09.slc.cpg/sg12_180_cif.got.tgz:359967.got - 2010.06.28 00:19:55.
