data_PCOD8091687
_publ_section_title
;
Structure prediction by ZEFSAII (Michael W. Deem and Ramdas Pophale) SiO2 
 PCOD8091687
Probable space group: C 2/M
;
_chemical_formula_sum "Si O2"
_cell_formula_units_Z 56
_cell_length_a 19.102664
_cell_length_b 8.805374
_cell_length_c 26.926381
_cell_angle_alpha 90.000000
_cell_angle_beta 138.747751
_cell_angle_gamma 90.000000
_cell_volume 2986.430568
_symmetry_space_group_name_H-M "C 2/M"
_symmetry_group_IT_number 12
_symmetry_cell_setting 'monoclinic'
loop_
_space_group_symop_operation_xyz
x,y,z
-x,y,-z
-x,-y,-z
x,-y,z
1/2+x,1/2+y,z
1/2-x,1/2+y,-z
1/2-x,1/2-y,-z
1/2+x,1/2-y,z
loop_
_atom_site_type_symbol
_atom_site_label
_atom_site_fract_x
_atom_site_fract_y
_atom_site_fract_z
Si Si1 0.475217 0.676785 0.733238
Si Si2 0.573098 0.823528 0.190691
Si Si3 0.209064 0.327000 0.702357
Si Si4 0.218394 0.677484 0.430738
Si Si5 0.577079 0.179729 0.082668
Si Si6 0.876823 0.165903 0.429417
Si Si7 0.682305 0.676709 0.784530
O O1 0.447378 0.500000 0.716768
O O2 0.478829 0.730739 0.792210
O O3 0.388850 0.757550 0.651967
O O4 0.595492 0.710233 0.780106
O O5 0.697486 0.792198 0.257429
O O6 0.535086 0.770034 0.115165
O O7 0.549832 0.000000 0.187280
O O8 0.248745 0.500000 0.727005
O O9 0.134611 0.302981 0.615565
O O10 0.146619 0.277223 0.718413
O O11 0.199439 0.500000 0.428936
O O12 0.250000 0.750000 0.500000
O O13 0.318464 0.712805 0.449001
O O14 0.698722 0.230848 0.136418
O O15 0.571651 0.000000 0.076638
O O16 0.500000 0.253615 0.000000
O O17 0.000000 0.146922 0.500000
O O18 0.831295 0.000000 0.388051
O O19 0.683206 0.500000 0.770209
#
# Coordination Sequence:
#
# PCOD8091687 Si02
#       7
#     8   8   8   8   8   8   8
#     4  11  22  37  57  81 113 151 190 232 278 334
#     4  10  19  34  57  82 110 146 184 226 276 329
#     4  11  21  34  55  81 107 139 183 232 274 325
#     4  11  24  40  58  80 111 149 187 235 287 335
#     4   8  15  32  59  86 110 143 188 229 268 327
#     4  10  22  39  57  76 104 143 184 227 279 333
#     4   9  20  36  56  81 112 148 185 225 276 330
#
# _framework density 18.751481999999999
#
# number of rings (size 3 to 8) (size 9 to 14) (size 15 to 20)
#    0.000    2.000    1.429    3.429    2.000    2.000 
#    0.000    0.714    0.000   10.714    0.000    0.000 
#    0.000    0.000    0.000    0.000    0.000    0.000 
#
# Total GULP energy -346968.066589 kJ/mol
# GULP energy per Si atom -12391.716664 kJ/mol
# Density = 1.870880 g / cm^3
# Si number density = 18.751482 Si / 1000 Ang^3
#
#
#
# Elastic Constant Matrix: (Units=GPa)
#
#
# Indices 1 2 3 4 5 6 
#
# 1 139.7559 47.5634 71.0574 0.0000 -13.1662 0.0000
# 2 47.5634 74.5281 45.6731 0.0000 -10.4617 0.0003
# 3 71.0574 45.6731 129.9878 0.0000 -20.4529 0.0000
# 4 0.0000 0.0000 0.0000 32.3781 0.0000 36.3888
# 5 -13.1662 -10.4617 -20.4529 0.0000 25.1769 0.0000
# 6 0.0000 0.0003 0.0000 36.3888 0.0000 160.8265
#
#
#
# Elastic Compliance Matrix: (Units=1/GPa)
#
#
# Indices 1 2 3 4 5 6 
#
# 1 0.010851 -0.004173 -0.004409 0.000000 0.000359 0.000000
# 2 -0.004173 0.018848 -0.003959 0.000000 0.002434 0.000000
# 3 -0.004409 -0.003959 0.012466 0.000000 0.006176 0.000000
# 4 0.000000 0.000000 0.000000 0.041417 0.000000 -0.009371
# 5 0.000359 0.002434 0.006176 0.000000 0.045935 0.000000
# 6 0.000000 0.000000 0.000000 -0.009371 0.000000 0.008338
#
#
# Mechanical properties :
#
#
# Convention : Reuss Voigt Hill
#
# Bulk Modulus (GPa) = 58.53252 74.76218 66.64735
# Shear Modulus (GPa) = 29.65043 55.67481 42.66262
#
# Velocity S-wave (km/s) = 3.98078 5.45485 4.77504
# Velocity P-wave (km/s) = 7.23958 8.92358 8.12533
#
# Compressibility (1/GPa) = 0.01708452
#
# Stress axis : x y z
#
# Youngs Moduli (GPa) = 92.15773 53.05487 80.21825
#
# Poissons Ratio (x) = 0.22138 0.35369
# Poissons Ratio (y) = 0.38454 0.31756
# Poissons Ratio (z) = 0.40633 0.21003
#
# Static dielectric constant tensor:
#      x y z
#    x 3.270190 0.000000 0.018950 
#    y 0.000000 3.382940 0.000000 
#    z 0.018950 0.000000 3.500380 
# 
# 
# High freq. dielectric constant tensor:
#      x y z
#    x 1.731850 0.000000 -0.012660 
#    y 0.000000 1.721260 0.000000 
#    z -0.012660 0.000000 1.716190 
# 
# From -- ./inp_files/342487.got.cif
#   From: 2010.06.25/outbox.cif.g09.slc.cpg/sg12_172_cif.got.tgz:342487.got - 2010.06.28 00:19:55.
