data_PCOD8091484
_publ_section_title
;
Structure prediction by ZEFSAII (Michael W. Deem and Ramdas Pophale) SiO2 
 PCOD8091484
Probable space group: C 2/M
;
_chemical_formula_sum "Si O2"
_cell_formula_units_Z 56
_cell_length_a 22.247027
_cell_length_b 8.649548
_cell_length_c 18.070816
_cell_angle_alpha 90.000000
_cell_angle_beta 130.023847
_cell_angle_gamma 90.000000
_cell_volume 2662.841937
_symmetry_space_group_name_H-M "C 2/M"
_symmetry_group_IT_number 12
_symmetry_cell_setting 'monoclinic'
loop_
_space_group_symop_operation_xyz
x,y,z
-x,y,-z
-x,-y,-z
x,-y,z
1/2+x,1/2+y,z
1/2-x,1/2+y,-z
1/2-x,1/2-y,-z
1/2+x,1/2-y,z
loop_
_atom_site_type_symbol
_atom_site_label
_atom_site_fract_x
_atom_site_fract_y
_atom_site_fract_z
Si Si1 0.908645 0.822831 0.252092
Si Si2 0.463033 0.181394 0.548009
Si Si3 0.178587 0.682274 0.252798
Si Si4 0.209280 0.319285 0.540662
Si Si5 0.014434 0.326628 0.089541
Si Si6 0.638475 0.825289 0.934603
Si Si7 0.761530 0.679142 0.855532
O O1 0.883516 0.787932 0.148724
O O2 0.829413 0.788118 0.235174
O O3 0.977853 0.716623 0.337864
O O4 0.935579 0.000000 0.280148
O O5 0.500000 0.251431 0.500000
O O6 0.377365 0.248579 0.504862
O O7 0.454502 0.000000 0.530563
O O8 0.196617 0.500000 0.280881
O O9 0.233730 0.785442 0.346716
O O10 0.088492 0.735356 0.196472
O O11 0.191505 0.736366 0.178311
O O12 0.200617 0.500000 0.519297
O O13 0.250000 0.250000 0.500000
O O14 0.042403 0.500000 0.090921
O O15 0.937207 0.325940 0.074843
O O16 0.000000 0.237616 0.000000
O O17 0.656584 0.000000 0.920372
O O18 0.708298 0.750390 0.041370
O O19 0.778686 0.500000 0.881334
#
# Coordination Sequence:
#
# PCOD8091484 Si02
#       7
#     8   8   8   8   8   8   8
#     4  11  23  36  55  86 120 152 188 238 298 345
#     4  10  23  45  68  87 111 152 206 252 293 353
#     4  10  19  35  61  88 114 148 193 241 286 337
#     4  11  25  43  63  89 120 154 195 246 304 359
#     4   9  16  30  56  86 111 145 193 234 271 329
#     4  10  19  34  56  82 116 156 196 232 274 340
#     4   9  18  34  57  85 117 155 196 235 280 343
#
# _framework density 21.030165
#
# number of rings (size 3 to 8) (size 9 to 14) (size 15 to 20)
#    0.000    2.000    1.429    2.143    2.000    1.429 
#    0.000    2.143    0.000    0.857    0.000    0.000 
#    0.000    0.000    0.000    0.000    0.000    0.000 
#
# Total GULP energy -346924.023218 kJ/mol
# GULP energy per Si atom -12390.143686 kJ/mol
# Density = 2.098230 g / cm^3
# Si number density = 21.030165 Si / 1000 Ang^3
#
#
#
# Elastic Constant Matrix: (Units=GPa)
#
#
# Indices 1 2 3 4 5 6 
#
# 1 78.4893 18.4121 32.5256 0.0000 5.6847 0.0000
# 2 18.4121 23.5905 6.7672 0.0002 4.7115 -0.0002
# 3 32.5256 6.7672 127.8060 0.0000 14.6324 0.0000
# 4 0.0000 0.0002 0.0000-2529.0796 0.0000 1698.3086
# 5 5.6847 4.7115 14.6324 0.0000 37.5266 0.0000
# 6 0.0000 -0.0002 0.0000 1698.3086 0.0000-1110.6618
#
#
#
# Elastic Compliance Matrix: (Units=1/GPa)
#
#
# Indices 1 2 3 4 5 6 
#
# 1 0.017182 -0.012415 -0.003764 0.000000 0.000424 0.000000
# 2 -0.012415 0.052831 0.000949 0.000000 -0.005122 0.000000
# 3 -0.003764 0.000949 0.009086 0.000000 -0.003092 0.000000
# 4 0.000000 0.000000 0.000000 0.014750 0.000000 0.022554
# 5 0.000424 -0.005122 -0.003092 0.000000 0.028432 0.000000
# 6 0.000000 0.000000 0.000000 0.022554 0.000000 0.033587
#
#
# Mechanical properties :
#
#
# Convention : Reuss Voigt Hill
#
# Bulk Modulus (GPa) = 20.56006 38.36618 29.46312
# Shear Modulus (GPa) = 24.68638 -708.96423 -342.13892
#
# Velocity S-wave (km/s) = 3.42987 -18.38069 -12.76882
# Velocity P-wave (km/s) = 5.04808 20.78902 14.26009
#
# Compressibility (1/GPa) = 0.04863800
#
# Stress axis : x y z
#
# Youngs Moduli (GPa) = 58.20044 18.92834 110.05998
#
# Poissons Ratio (x) = 0.23500 0.41424
# Poissons Ratio (y) = 0.72257 -0.10441
# Poissons Ratio (z) = 0.21905 -0.01796
#
# Static dielectric constant tensor:
#      x y z
#    x 4.224990 0.000000 0.126800 
#    y 0.000000 3.532310 0.000000 
#    z 0.126800 0.000000 3.950860 
# 
# 
# High freq. dielectric constant tensor:
#      x y z
#    x 1.840510 0.000000 0.010890 
#    y 0.000000 1.774370 0.000000 
#    z 0.010890 0.000000 1.838740 
# 
# From -- ./inp_files/288430.got.cif
#   From: 2010.06.25/outbox.cif.g09.slc.cpg/sg12_145_cif.got.tgz:288430.got - 2010.06.28 00:19:55.
