data_PCOD8091078
_publ_section_title
;
Structure prediction by ZEFSAII (Michael W. Deem and Ramdas Pophale) SiO2 
 PCOD8091078
Probable space group: C 2/M
;
_chemical_formula_sum "Si O2"
_cell_formula_units_Z 44
_cell_length_a 13.805227
_cell_length_b 10.624817
_cell_length_c 25.803084
_cell_angle_alpha 90.000000
_cell_angle_beta 40.451577
_cell_angle_gamma 90.000000
_cell_volume 2455.562127
_symmetry_space_group_name_H-M "C 2/M"
_symmetry_group_IT_number 12
_symmetry_cell_setting 'monoclinic'
loop_
_space_group_symop_operation_xyz
x,y,z
-x,y,-z
-x,-y,-z
x,-y,z
1/2+x,1/2+y,z
1/2-x,1/2+y,-z
1/2-x,1/2-y,-z
1/2+x,1/2-y,z
loop_
_atom_site_type_symbol
_atom_site_label
_atom_site_fract_x
_atom_site_fract_y
_atom_site_fract_z
Si Si1 0.333857 0.000000 0.903375
Si Si2 0.457648 0.642566 0.284532
Si Si3 0.378712 0.147036 0.590064
Si Si4 0.000174 0.748235 0.840242
Si Si5 0.300813 0.000000 0.798477
Si Si6 0.959841 0.000000 0.916982
Si Si7 0.656846 0.240647 0.283706
O O1 0.407854 0.126549 0.896594
O O2 0.364698 0.000000 0.829909
O O3 0.159702 0.000000 0.988163
O O4 0.468575 0.500000 0.259511
O O5 0.284796 0.674010 0.367035
O O6 0.516817 0.732315 0.214595
O O7 0.555290 0.654874 0.296934
O O8 0.500000 0.198230 0.500000
O O9 0.401738 0.221509 0.634252
O O10 0.402496 0.000000 0.591842
O O11 0.170548 0.719941 0.786391
O O12 0.936940 0.873952 0.892722
O O13 0.364891 0.883545 0.740999
O O14 0.122509 0.000000 0.875646
#
# Coordination Sequence:
#
# PCOD8091078 Si02
#       7
#     4   8   8   8   4   4   8
#     4  12  21  34  55  83 104 137 178 233 266 302
#     4  10  19  34  55  75 105 145 175 213 265 318
#     4   9  18  33  54  80 105 136 178 215 259 319
#     4  10  21  35  55  78 107 141 181 216 263 323
#     4  10  19  34  55  78  98 136 184 216 251 314
#     4  10  21  38  53  73 112 145 172 217 276 318
#     4  10  19  34  55  78 105 138 174 218 259 310
#
# _framework density 17.918503999999999
#
# number of rings (size 3 to 8) (size 9 to 14) (size 15 to 20)
#    0.000    2.000    3.636    0.818    1.273    0.727 
#    0.000    0.000    0.000    1.636    0.000    0.000 
#    0.000    0.000    0.000    0.000    0.000    0.000 
#
# Total GULP energy -272781.474565 kJ/mol
# GULP energy per Si atom -12399.157935 kJ/mol
# Density = 1.787772 g / cm^3
# Si number density = 17.918504 Si / 1000 Ang^3
#
#
#
# Elastic Constant Matrix: (Units=GPa)
#
#
# Indices 1 2 3 4 5 6 
#
# 1 92.7604 20.1653 20.9338 0.0000 3.6994 0.0000
# 2 20.1653 82.1353 24.6818 0.0000 -4.1722 0.0000
# 3 20.9338 24.6818 88.6862 0.0000 3.2169 0.0000
# 4 0.0000 0.0000 0.0000 20.4175 0.0000 0.2349
# 5 3.6994 -4.1722 3.2169 0.0000 16.6630 0.0000
# 6 0.0000 0.0000 0.0000 0.2349 0.0000 28.9186
#
#
#
# Elastic Compliance Matrix: (Units=1/GPa)
#
#
# Indices 1 2 3 4 5 6 
#
# 1 0.011884 -0.002457 -0.002017 0.000000 -0.002864 0.000000
# 2 -0.002457 0.014074 -0.003509 0.000000 0.004747 0.000000
# 3 -0.002017 -0.003509 0.012834 0.000000 -0.002908 0.000000
# 4 0.000000 0.000000 0.000000 0.048982 0.000000 -0.000398
# 5 -0.002864 0.004747 -0.002908 0.000000 0.062399 0.000000
# 6 0.000000 0.000000 0.000000 -0.000398 0.000000 0.034583
#
#
# Mechanical properties :
#
#
# Convention : Reuss Voigt Hill
#
# Bulk Modulus (GPa) = 43.81163 43.90484 43.85824
# Shear Modulus (GPa) = 24.00019 26.38656 25.19338
#
# Velocity S-wave (km/s) = 3.66376 3.84159 3.75373
# Velocity P-wave (km/s) = 6.51161 6.65078 6.58156
#
# Compressibility (1/GPa) = 0.02282499
#
# Stress axis : x y z
#
# Youngs Moduli (GPa) = 84.14609 71.05383 77.91791
#
# Poissons Ratio (x) = 0.17457 0.15720
# Poissons Ratio (y) = 0.20674 0.27342
# Poissons Ratio (z) = 0.16976 0.24933
#
# Static dielectric constant tensor:
#      x y z
#    x 3.214840 0.000000 -0.002890 
#    y 0.000000 3.188370 0.000000 
#    z -0.002890 0.000000 3.218440 
# 
# 
# High freq. dielectric constant tensor:
#      x y z
#    x 1.691790 0.000000 -0.000380 
#    y 0.000000 1.685950 0.000000 
#    z -0.000380 0.000000 1.685840 
# 
# From -- ./inp_files/211968.got.cif
#   From: 2010.06.25/outbox.cif.g09.slc.cpg/sg12_106_cif.got.tgz:211968.got - 2010.06.28 00:19:55.
