data_PCOD8091268
_publ_section_title
;
Structure prediction by ZEFSAII (Michael W. Deem and Ramdas Pophale) SiO2 
 PCOD8091268
Probable space group: C 2/M
;
_chemical_formula_sum "Si O2"
_cell_formula_units_Z 56
_cell_length_a 19.812746
_cell_length_b 8.636468
_cell_length_c 25.975922
_cell_angle_alpha 90.000000
_cell_angle_beta 39.918486
_cell_angle_gamma 90.000000
_cell_volume 2852.212640
_symmetry_space_group_name_H-M "C 2/M"
_symmetry_group_IT_number 12
_symmetry_cell_setting 'monoclinic'
loop_
_space_group_symop_operation_xyz
x,y,z
-x,y,-z
-x,-y,-z
x,-y,z
1/2+x,1/2+y,z
1/2-x,1/2+y,-z
1/2-x,1/2-y,-z
1/2+x,1/2-y,z
loop_
_atom_site_type_symbol
_atom_site_label
_atom_site_fract_x
_atom_site_fract_y
_atom_site_fract_z
Si Si1 0.911883 0.170918 0.508065
Si Si2 0.093125 0.817563 0.333508
Si Si3 0.443132 0.177224 0.174844
Si Si4 0.391643 0.821970 0.087921
Si Si5 0.743185 0.179565 0.330666
Si Si6 0.651933 0.318054 0.087847
Si Si7 0.177859 0.681093 0.182823
O O1 0.818583 0.285319 0.579837
O O2 0.000000 0.165479 0.500000
O O3 0.972834 0.225138 0.420519
O O4 0.862818 0.000000 0.529406
O O5 0.176037 0.728356 0.320428
O O6 0.108061 0.769444 0.265962
O O7 0.113865 0.000000 0.328605
O O8 0.393563 0.198819 0.147691
O O9 0.354106 0.230811 0.267182
O O10 0.546250 0.282868 0.118083
O O11 0.474672 0.000000 0.167089
O O12 0.300789 0.716847 0.117401
O O13 0.369962 0.000000 0.085023
O O14 0.500000 0.763467 0.000000
O O15 0.767987 0.000000 0.312708
O O16 0.668153 0.500000 0.084953
O O17 0.639159 0.238107 0.150372
O O18 0.750000 0.250000 0.000000
O O19 0.157915 0.500000 0.199895
#
# Coordination Sequence:
#
# PCOD8091268 Si02
#       7
#     8   8   8   8   8   8   8
#     4   8  16  30  50  77 113 155 194 235 288 347
#     4  10  19  34  55  82 117 156 197 241 292 346
#     4  11  22  38  61  86 119 156 196 243 295 350
#     4  10  21  37  59  85 114 149 189 238 297 350
#     4  11  20  31  52  85 121 154 194 241 291 347
#     4  12  26  45  65  86 117 154 200 245 294 354
#     4  12  24  38  60  88 119 153 196 243 293 352
#
# _framework density 19.633880000000001
#
# number of rings (size 3 to 8) (size 9 to 14) (size 15 to 20)
#    0.000    1.429    1.429    6.429    0.000    5.143 
#    0.000    0.000    0.000    0.857    0.000    0.000 
#    0.000    0.000    0.000    0.000    0.000    0.000 
#
# Total GULP energy -347268.100076 kJ/mol
# GULP energy per Si atom -12402.432146 kJ/mol
# Density = 1.958919 g / cm^3
# Si number density = 19.633880 Si / 1000 Ang^3
#
#
#
# Elastic Constant Matrix: (Units=GPa)
#
#
# Indices 1 2 3 4 5 6 
#
# 1 28.8201 11.8833 3.8003 -0.0001 0.3387 0.0007
# 2 11.8833 74.6810 27.8597 0.0000 -0.1207 0.0013
# 3 3.8003 27.8597 128.5245 0.0000 6.7831 0.0002
# 4 -0.0001 0.0000 0.0000 33.0570 -0.0001 -2.3526
# 5 0.3387 -0.1207 6.7831 -0.0001 27.8996 0.0000
# 6 0.0007 0.0013 0.0002 -2.3526 0.0000 26.7715
#
#
#
# Elastic Compliance Matrix: (Units=1/GPa)
#
#
# Indices 1 2 3 4 5 6 
#
# 1 0.037147 -0.005997 0.000230 0.000000 -0.000533 -0.000001
# 2 -0.005997 0.015556 -0.003244 0.000000 0.000929 -0.000001
# 3 0.000230 -0.003244 0.008588 0.000000 -0.002105 0.000000
# 4 0.000000 0.000000 0.000000 0.030441 0.000000 0.002675
# 5 -0.000533 0.000929 -0.002105 0.000000 0.036365 0.000000
# 6 -0.000001 -0.000001 0.000000 0.002675 0.000000 0.037588
#
#
# Mechanical properties :
#
#
# Convention : Reuss Voigt Hill
#
# Bulk Modulus (GPa) = 23.11161 35.45690 29.28426
# Shear Modulus (GPa) = 25.23583 30.11110 27.67347
#
# Velocity S-wave (km/s) = 3.58903 3.92041 3.75837
# Velocity P-wave (km/s) = 5.38253 6.21217 5.81217
#
# Compressibility (1/GPa) = 0.04326829
#
# Stress axis : x y z
#
# Youngs Moduli (GPa) = 26.92022 64.28318 116.44110
#
# Poissons Ratio (x) = 0.38553 -0.02675
# Poissons Ratio (y) = 0.16145 0.37770
# Poissons Ratio (z) = -0.00619 0.20852
#
# Static dielectric constant tensor:
#      x y z
#    x 3.247210 0.000000 0.139850 
#    y 0.000000 3.586860 0.000000 
#    z 0.139850 0.000000 4.024840 
# 
# 
# High freq. dielectric constant tensor:
#      x y z
#    x 1.723370 0.000000 0.006660 
#    y 0.000000 1.769850 0.000000 
#    z 0.006660 0.000000 1.787970 
# 
# From -- ./inp_files/362914.got.cif
#   From: 2010.06.25/outbox.cif.g09.slc.cpg/sg12_182_cif.got.tgz:362914.got - 2010.06.28 00:19:55.
