data_PCOD8091257
_publ_section_title
;
Structure prediction by ZEFSAII (Michael W. Deem and Ramdas Pophale) SiO2 
 PCOD8091257
Probable space group: C 2/M
;
_chemical_formula_sum "Si O2"
_cell_formula_units_Z 48
_cell_length_a 12.676955
_cell_length_b 13.997316
_cell_length_c 22.354726
_cell_angle_alpha 90.000000
_cell_angle_beta 38.204222
_cell_angle_gamma 90.000000
_cell_volume 2453.268646
_symmetry_space_group_name_H-M "C 2/M"
_symmetry_group_IT_number 12
_symmetry_cell_setting 'monoclinic'
loop_
_space_group_symop_operation_xyz
x,y,z
-x,y,-z
-x,-y,-z
x,-y,z
1/2+x,1/2+y,z
1/2-x,1/2+y,-z
1/2-x,1/2-y,-z
1/2+x,1/2-y,z
loop_
_atom_site_type_symbol
_atom_site_label
_atom_site_fract_x
_atom_site_fract_y
_atom_site_fract_z
Si Si1 0.633666 0.329969 0.024360
Si Si2 0.200586 0.109171 0.543909
Si Si3 0.771798 0.786528 0.140623
Si Si4 0.744578 0.891681 0.346070
Si Si5 0.629007 0.603686 0.149655
Si Si6 0.488611 0.790567 0.641632
O O1 0.440465 0.291552 0.105267
O O2 0.638684 0.411164 0.072985
O O3 0.750000 0.250000 0.000000
O O4 0.708521 0.359029 0.925377
O O5 0.296161 0.114899 0.565316
O O6 0.338559 0.146527 0.434130
O O7 0.034238 0.177657 0.616393
O O8 0.144457 0.000000 0.554707
O O9 0.760648 0.679324 0.118738
O O10 0.609235 0.813729 0.253026
O O11 0.628245 0.817270 0.362580
O O12 0.940221 0.861346 0.250675
O O13 0.712300 0.000000 0.336961
O O14 0.667364 0.500000 0.161413
#
# Coordination Sequence:
#
# PCOD8091257 Si02
#       6
#     8   8   8   8   8   8
#     4   9  19  36  54  78 113 146 180 221 272 334
#     4  10  22  38  56  84 115 145 190 237 277 333
#     4  10  19  34  55  82 109 148 186 223 277 336
#     4  10  19  34  56  84 110 141 189 234 272 329
#     4  10  19  34  57  83 109 141 186 233 272 322
#     4  11  20  33  59  85 111 150 187 232 286 332
#
# _framework density 19.565733000000002
#
# number of rings (size 3 to 8) (size 9 to 14) (size 15 to 20)
#    0.000    2.000    3.333    1.000    0.000    1.333 
#    0.000   10.000    0.000    9.000    0.000    0.000 
#    0.000    0.000    0.000    0.000    0.000    0.000 
#
# Total GULP energy -297406.716012 kJ/mol
# GULP energy per Si atom -12391.946500 kJ/mol
# Density = 1.952120 g / cm^3
# Si number density = 19.565733 Si / 1000 Ang^3
#
#
#
# Elastic Constant Matrix: (Units=GPa)
#
#
# Indices 1 2 3 4 5 6 
#
# 1 58.4121 24.3757 7.6548 -0.0001 6.5197 0.0000
# 2 24.3757 88.1103 15.0412 -0.0001 0.8009 0.0001
# 3 7.6548 15.0412 128.3908 -0.0005 16.0784 0.0000
# 4 -0.0001 -0.0001 -0.0005 13.1851 0.0001 3.6531
# 5 6.5197 0.8009 16.0784 0.0001 20.4550 0.0000
# 6 0.0000 0.0001 0.0000 3.6531 0.0000 23.9074
#
#
#
# Elastic Compliance Matrix: (Units=1/GPa)
#
#
# Indices 1 2 3 4 5 6 
#
# 1 0.020116 -0.005550 0.000251 0.000000 -0.006392 0.000000
# 2 -0.005550 0.013121 -0.001512 0.000000 0.002444 0.000000
# 3 0.000251 -0.001512 0.008822 0.000000 -0.006955 0.000000
# 4 0.000000 0.000000 0.000000 0.079196 -0.000001 -0.012101
# 5 -0.006392 0.002444 -0.006955 -0.000001 0.056297 0.000000
# 6 0.000000 0.000000 0.000000 -0.012101 0.000000 0.043677
#
#
# Mechanical properties :
#
#
# Convention : Reuss Voigt Hill
#
# Bulk Modulus (GPa) = 35.16538 41.00630 38.08584
# Shear Modulus (GPa) = 20.46418 26.69894 23.58156
#
# Velocity S-wave (km/s) = 3.23758 3.69803 3.47543
# Velocity P-wave (km/s) = 5.65578 6.26399 5.96764
#
# Compressibility (1/GPa) = 0.02843706
#
# Stress axis : x y z
#
# Youngs Moduli (GPa) = 49.71096 76.21516 113.35418
#
# Poissons Ratio (x) = 0.42299 -0.02849
# Poissons Ratio (y) = 0.27589 0.17142
# Poissons Ratio (z) = -0.01249 0.11526
#
# Static dielectric constant tensor:
#      x y z
#    x 3.725110 0.000000 0.350230 
#    y 0.000000 3.918230 -0.000010 
#    z 0.350230 -0.000010 4.038880 
# 
# 
# High freq. dielectric constant tensor:
#      x y z
#    x 1.744310 0.000000 0.006060 
#    y 0.000000 1.738180 0.000000 
#    z 0.006060 0.000000 1.783160 
# 
# From -- ./inp_files/305619.got.cif
#   From: 2010.06.25/outbox.cif.g09.slc.cpg/sg12_153_cif.got.tgz:305619.got - 2010.06.28 00:19:55.
