data_PCOD8091011
_publ_section_title
;
Structure prediction by ZEFSAII (Michael W. Deem and Ramdas Pophale) SiO2 
 PCOD8091011
Probable space group: C 2/M
;
_chemical_formula_sum "Si O2"
_cell_formula_units_Z 56
_cell_length_a 28.702670
_cell_length_b 8.785823
_cell_length_c 14.294868
_cell_angle_alpha 90.000000
_cell_angle_beta 120.039243
_cell_angle_gamma 90.000000
_cell_volume 3120.639893
_symmetry_space_group_name_H-M "C 2/M"
_symmetry_group_IT_number 12
_symmetry_cell_setting 'monoclinic'
loop_
_space_group_symop_operation_xyz
x,y,z
-x,y,-z
-x,-y,-z
x,-y,z
1/2+x,1/2+y,z
1/2-x,1/2+y,-z
1/2-x,1/2-y,-z
1/2+x,1/2-y,z
loop_
_atom_site_type_symbol
_atom_site_label
_atom_site_fract_x
_atom_site_fract_y
_atom_site_fract_z
Si Si1 0.053370 0.178170 0.498945
Si Si2 0.244055 0.179349 0.891003
Si Si3 0.412759 0.828758 0.150894
Si Si4 0.848275 0.821763 0.934804
Si Si5 0.943861 0.824237 0.904983
Si Si6 0.861630 0.326954 0.292654
Si Si7 0.477512 0.325900 0.739056
O O1 0.107352 0.262123 0.586382
O O2 0.050388 0.218664 0.386090
O O3 0.000000 0.236402 0.500000
O O4 0.060597 0.000000 0.524544
O O5 0.291788 0.234393 0.870205
O O6 0.189767 0.226946 0.784531
O O7 0.246091 0.000000 0.905486
O O8 0.250000 0.250000 0.000000
O O9 0.404872 0.817095 0.253355
O O10 0.473244 0.783465 0.188805
O O11 0.401646 0.000000 0.103516
O O12 0.371825 0.712189 0.061237
O O13 0.890964 0.754022 0.901784
O O14 0.837457 0.000000 0.911299
O O15 0.937153 0.803656 0.786260
O O16 0.944749 0.000000 0.935864
O O17 0.000000 0.751039 0.000000
O O18 0.843158 0.500000 0.292806
O O19 0.498361 0.500000 0.755122
#
# Coordination Sequence:
#
# PCOD8091011 Si02
#       7
#     8   8   8   8   8   8   8
#     4  10  20  33  54  82 110 144 183 225 273 321
#     4  12  24  38  57  81 111 143 181 223 273 327
#     4  11  21  31  49  79 113 145 181 223 269 322
#     4  11  21  35  56  79 110 147 184 223 268 324
#     4   9  17  31  54  82 108 144 185 221 269 324
#     4  11  23  37  54  78 112 148 183 222 270 325
#     4  10  19  34  54  78 112 148 186 224 267 327
#
# _framework density 17.945036000000002
#
# number of rings (size 3 to 8) (size 9 to 14) (size 15 to 20)
#    0.000    1.429    4.286    2.571    0.000    2.000 
#    0.000    2.143    0.000    0.857    0.000    0.000 
#    0.000    0.000    0.000    0.000    0.000    0.000 
#
# Total GULP energy -347185.322213 kJ/mol
# GULP energy per Si atom -12399.475793 kJ/mol
# Density = 1.790419 g / cm^3
# Si number density = 17.945036 Si / 1000 Ang^3
#
#
#
# Elastic Constant Matrix: (Units=GPa)
#
#
# Indices 1 2 3 4 5 6 
#
# 1 108.8685 38.3536 44.7638 0.0000 4.9998 0.0000
# 2 38.3536 80.5757 31.5790 0.0000 6.6123 0.0000
# 3 44.7638 31.5790 105.9071 0.0000 0.6647 0.0000
# 4 0.0000 0.0000 0.0000 23.3812 0.0000 7.9655
# 5 4.9998 6.6123 0.6647 0.0000 29.8799 0.0000
# 6 0.0000 0.0000 0.0000 7.9655 0.0000 22.6695
#
#
#
# Elastic Compliance Matrix: (Units=1/GPa)
#
#
# Indices 1 2 3 4 5 6 
#
# 1 0.012353 -0.004247 -0.003948 0.000000 -0.001039 0.000000
# 2 -0.004247 0.015791 -0.002896 0.000000 -0.002719 0.000000
# 3 -0.003948 -0.002896 0.011968 0.000000 0.001035 0.000000
# 4 0.000000 0.000000 0.000000 0.048585 0.000000 -0.017072
# 5 -0.001039 -0.002719 0.001035 0.000000 0.034220 0.000000
# 6 0.000000 0.000000 0.000000 -0.017072 0.000000 0.050111
#
#
# Mechanical properties :
#
#
# Convention : Reuss Voigt Hill
#
# Bulk Modulus (GPa) = 55.77771 58.30491 57.04131
# Shear Modulus (GPa) = 24.85254 27.22977 26.04116
#
# Velocity S-wave (km/s) = 3.72550 3.89961 3.81354
# Velocity P-wave (km/s) = 7.04669 7.26892 7.15867
#
# Compressibility (1/GPa) = 0.01792831
#
# Stress axis : x y z
#
# Youngs Moduli (GPa) = 80.95350 63.32909 83.55555
#
# Poissons Ratio (x) = 0.26897 0.32989
# Poissons Ratio (y) = 0.34383 0.24199
# Poissons Ratio (z) = 0.31962 0.18341
#
# Static dielectric constant tensor:
#      x y z
#    x 3.425650 0.000000 -0.004000 
#    y 0.000000 3.253530 0.000000 
#    z -0.004000 0.000000 3.265420 
# 
# 
# High freq. dielectric constant tensor:
#      x y z
#    x 1.687280 0.000000 -0.000400 
#    y 0.000000 1.687600 0.000000 
#    z -0.000400 0.000000 1.679040 
# 
# From -- ./inp_files/244303.got.cif
#   From: 2010.06.25/outbox.cif.g09.slc.cpg/sg12_123_cif.got.tgz:244303.got - 2010.06.28 00:19:55.
