data_PCOD8091835
_publ_section_title
;
Structure prediction by ZEFSAII (Michael W. Deem and Ramdas Pophale) SiO2 
 PCOD8091835
Probable space group: C 2/M
;
_chemical_formula_sum "Si O2"
_cell_formula_units_Z 64
_cell_length_a 20.372888
_cell_length_b 8.777916
_cell_length_c 32.337225
_cell_angle_alpha 90.000000
_cell_angle_beta 36.216598
_cell_angle_gamma 90.000000
_cell_volume 3416.773760
_symmetry_space_group_name_H-M "C 2/M"
_symmetry_group_IT_number 12
_symmetry_cell_setting 'monoclinic'
loop_
_space_group_symop_operation_xyz
x,y,z
-x,y,-z
-x,-y,-z
x,-y,z
1/2+x,1/2+y,z
1/2-x,1/2+y,-z
1/2-x,1/2-y,-z
1/2+x,1/2-y,z
loop_
_atom_site_type_symbol
_atom_site_label
_atom_site_fract_x
_atom_site_fract_y
_atom_site_fract_z
Si Si1 0.742418 0.677498 0.068456
Si Si2 0.845585 0.324356 0.722169
Si Si3 0.389912 0.178297 0.794435
Si Si4 0.760095 0.322849 0.429198
Si Si5 0.911001 0.324544 0.429161
Si Si6 0.421928 0.677553 0.922656
Si Si7 0.120432 0.179641 0.704668
Si Si8 0.356871 0.178484 0.218341
O O1 0.761758 0.500000 0.066221
O O2 0.711847 0.758821 0.126771
O O3 0.643092 0.708035 0.086822
O O4 0.856081 0.750455 0.994427
O O5 0.808974 0.500000 0.735587
O O6 0.863326 0.283602 0.760826
O O7 0.753651 0.212317 0.751174
O O8 0.958564 0.292476 0.639653
O O9 0.502608 0.258973 0.750043
O O10 0.405408 0.000000 0.794137
O O11 0.761688 0.500000 0.417301
O O12 0.855043 0.279670 0.414036
O O13 0.639687 0.276820 0.508240
O O14 0.783406 0.229023 0.375853
O O15 0.884772 0.500000 0.452282
O O16 0.438515 0.500000 0.922649
O O17 0.540177 0.758059 0.860126
O O18 0.153007 0.241686 0.732652
O O19 0.113025 0.000000 0.711327
O O20 0.371792 0.000000 0.217241
#
# Coordination Sequence:
#
# PCOD8091835 Si02
#       8
#     8   8   8   8   8   8   8   8
#     4  10  20  34  57  89 120 152 191 242 290 341
#     4  10  22  41  61  84 120 159 195 235 291 354
#     4  11  21  37  61  89 119 153 194 244 291 343
#     4  10  19  34  57  88 119 150 191 243 292 342
#     4   9  18  35  57  85 118 155 191 234 291 349
#     4  10  20  36  58  85 118 156 193 237 292 347
#     4  12  23  37  59  87 118 154 197 244 290 344
#     4  12  25  40  60  86 119 156 196 243 293 348
#
# _framework density 18.731119
#
# number of rings (size 3 to 8) (size 9 to 14) (size 15 to 20)
#    0.000    1.500    2.500    3.750    0.000    3.000 
#    0.000    1.250    0.000    7.500    0.000    0.000 
#    0.000    0.000    0.000    0.000    0.000    0.000 
#
# Total GULP energy -396980.855940 kJ/mol
# GULP energy per Si atom -12405.651748 kJ/mol
# Density = 1.868849 g / cm^3
# Si number density = 18.731119 Si / 1000 Ang^3
#
#
#
# Elastic Constant Matrix: (Units=GPa)
#
#
# Indices 1 2 3 4 5 6 
#
# 1 66.6971 41.0710 43.6605 0.0037 1.4945 0.0532
# 2 41.0710 112.7738 48.2335 0.0152 6.9510 -0.0196
# 3 43.6605 48.2335 122.7683 0.0034 7.3874 0.0087
# 4 0.0037 0.0152 0.0034 39.2388 0.0042 0.6839
# 5 1.4945 6.9510 7.3874 0.0042 26.7853 -0.0075
# 6 0.0532 -0.0196 0.0087 0.6839 -0.0075 28.4599
#
#
#
# Elastic Compliance Matrix: (Units=1/GPa)
#
#
# Indices 1 2 3 4 5 6 
#
# 1 0.022275 -0.005758 -0.005770 0.000001 0.001843 -0.000043
# 2 -0.005758 0.012218 -0.002625 -0.000004 -0.002126 0.000020
# 3 -0.005770 -0.002625 0.011357 0.000001 -0.002129 0.000005
# 4 0.000001 -0.000004 0.000001 0.025496 -0.000003 -0.000613
# 5 0.001843 -0.002126 -0.002129 -0.000003 0.038370 0.000006
# 6 -0.000043 0.000020 0.000005 -0.000613 0.000006 0.035152
#
#
# Mechanical properties :
#
#
# Convention : Reuss Voigt Hill
#
# Bulk Modulus (GPa) = 57.00013 63.12992 60.06502
# Shear Modulus (GPa) = 27.92977 30.18176 29.05576
#
# Velocity S-wave (km/s) = 3.86565 4.01848 3.94280
# Velocity P-wave (km/s) = 7.10078 7.43688 7.27078
#
# Compressibility (1/GPa) = 0.01754382
#
# Stress axis : x y z
#
# Youngs Moduli (GPa) = 44.89375 81.84782 88.05268
#
# Poissons Ratio (x) = 0.47127 0.50810
# Poissons Ratio (y) = 0.25849 0.23110
# Poissons Ratio (z) = 0.25905 0.21482
#
# Static dielectric constant tensor:
#      x y z
#    x 3.294630 0.000000 0.171460 
#    y 0.000000 3.533640 0.000000 
#    z 0.171460 0.000000 3.683900 
# 
# 
# High freq. dielectric constant tensor:
#      x y z
#    x 1.697890 0.000000 0.007390 
#    y 0.000000 1.739220 0.000000 
#    z 0.007390 0.000000 1.744870 
# 
# From -- ./inp_files/378028.got.cif
#   From: 2010.06.25/outbox.cif.g09.slc.cpg/sg12_190_cif.got.tgz:378028.got - 2010.06.28 00:19:55.
