data_PCOD8091184
_publ_section_title
;
Structure prediction by ZEFSAII (Michael W. Deem and Ramdas Pophale) SiO2 
 PCOD8091184
Probable space group: C 2/M
;
_chemical_formula_sum "Si O2"
_cell_formula_units_Z 48
_cell_length_a 20.254989
_cell_length_b 9.904417
_cell_length_c 19.289700
_cell_angle_alpha 90.000000
_cell_angle_beta 39.528809
_cell_angle_gamma 90.000000
_cell_volume 2462.984585
_symmetry_space_group_name_H-M "C 2/M"
_symmetry_group_IT_number 12
_symmetry_cell_setting 'monoclinic'
loop_
_space_group_symop_operation_xyz
x,y,z
-x,y,-z
-x,-y,-z
x,-y,z
1/2+x,1/2+y,z
1/2-x,1/2+y,-z
1/2-x,1/2-y,-z
1/2+x,1/2-y,z
loop_
_atom_site_type_symbol
_atom_site_label
_atom_site_fract_x
_atom_site_fract_y
_atom_site_fract_z
Si Si1 0.036836 0.352644 0.394795
Si Si2 0.163010 0.347549 0.726000
Si Si3 0.219685 0.847271 0.233575
Si Si4 0.629811 0.651539 0.525640
Si Si5 0.540587 0.349779 0.740194
Si Si6 0.305596 0.347000 0.901800
O O1 0.054777 0.500000 0.343203
O O2 0.140094 0.266829 0.319240
O O3 0.000000 0.387059 0.500000
O O4 0.952325 0.265449 0.424501
O O5 0.127326 0.500000 0.740044
O O6 0.184365 0.327798 0.790980
O O7 0.262227 0.312062 0.597966
O O8 0.068882 0.250866 0.779809
O O9 0.248615 0.826668 0.129461
O O10 0.174413 0.000000 0.280257
O O11 0.595270 0.500000 0.529388
O O12 0.631197 0.655077 0.608342
O O13 0.535079 0.500000 0.776488
O O14 0.428345 0.311716 0.797899
O O15 0.289584 0.500000 0.940312
O O16 0.250000 0.250000 0.000000
#
# Coordination Sequence:
#
# PCOD8091184 Si02
#       6
#     8   8   8   8   8   8
#     4  11  21  30  48  83 119 149 187 235 278 320
#     4  10  21  34  56  86 115 153 190 223 270 329
#     4  10  20  38  60  80 110 150 192 231 277 339
#     4  10  19  34  55  79 113 159 194 221 267 332
#     4  10  21  37  57  82 116 152 185 229 281 331
#     4  10  22  41  64  86 106 140 188 239 292 339
#
# _framework density 19.48855
#
# number of rings (size 3 to 8) (size 9 to 14) (size 15 to 20)
#    0.000    1.833    3.333    1.000    0.000    4.000 
#    0.000    0.833    0.000    5.000    0.000    0.000 
#    0.000    0.000    0.000    0.000    0.000    0.000 
#
# Total GULP energy -297404.558802 kJ/mol
# GULP energy per Si atom -12391.856617 kJ/mol
# Density = 1.944419 g / cm^3
# Si number density = 19.488550 Si / 1000 Ang^3
#
#
#
# Elastic Constant Matrix: (Units=GPa)
#
#
# Indices 1 2 3 4 5 6 
#
# 1 118.1716 58.9046 29.9739 0.0000 12.8207 0.0000
# 2 58.9046 115.4990 27.8094 0.0000 6.2071 0.0000
# 3 29.9739 27.8094 63.1967 0.0000 17.1258 0.0000
# 4 0.0000 0.0000 0.0000 30.4614 0.0000 -2.8998
# 5 12.8207 6.2071 17.1258 0.0000 19.2108 0.0000
# 6 0.0000 0.0000 0.0000 -2.8998 0.0000 35.4132
#
#
#
# Elastic Compliance Matrix: (Units=1/GPa)
#
#
# Indices 1 2 3 4 5 6 
#
# 1 0.012225 -0.005469 -0.002188 0.000000 -0.004441 0.000000
# 2 -0.005469 0.012142 -0.003527 0.000000 0.002871 0.000000
# 3 -0.002188 -0.003527 0.023350 0.000000 -0.018216 0.000000
# 4 0.000000 0.000000 0.000000 0.033086 0.000000 0.002709
# 5 -0.004441 0.002871 -0.018216 0.000000 0.070329 0.000000
# 6 0.000000 0.000000 0.000000 0.002709 0.000000 0.028460
#
#
# Mechanical properties :
#
#
# Convention : Reuss Voigt Hill
#
# Bulk Modulus (GPa) = 39.45065 58.91592 49.18328
# Shear Modulus (GPa) = 23.76293 29.02904 26.39599
#
# Velocity S-wave (km/s) = 3.49568 3.86365 3.68426
# Velocity P-wave (km/s) = 6.04813 7.08522 6.58712
#
# Compressibility (1/GPa) = 0.02534813
#
# Stress axis : x y z
#
# Youngs Moduli (GPa) = 81.79650 82.35555 42.82678
#
# Poissons Ratio (x) = 0.45044 0.09371
# Poissons Ratio (y) = 0.44738 0.15106
# Poissons Ratio (z) = 0.17899 0.29048
#
# Static dielectric constant tensor:
#      x y z
#    x 3.504080 0.000000 0.166170 
#    y 0.000000 3.854450 0.000000 
#    z 0.166170 0.000000 3.109830 
# 
# 
# High freq. dielectric constant tensor:
#      x y z
#    x 1.752410 0.000000 0.013240 
#    y 0.000000 1.773760 0.000000 
#    z 0.013240 0.000000 1.718500 
# 
# From -- ./inp_files/244730.got.cif
#   From: 2010.06.25/outbox.cif.g09.slc.cpg/sg12_123_cif.got.tgz:244730.got - 2010.06.28 00:19:55.
