data_PCOD8091425
_publ_section_title
;
Structure prediction by ZEFSAII (Michael W. Deem and Ramdas Pophale) SiO2 
 PCOD8091425
Probable space group: C 2/M
;
_chemical_formula_sum "Si O2"
_cell_formula_units_Z 64
_cell_length_a 25.637843
_cell_length_b 9.249500
_cell_length_c 14.259546
_cell_angle_alpha 90.000000
_cell_angle_beta 79.256521
_cell_angle_gamma 90.000000
_cell_volume 3322.197546
_symmetry_space_group_name_H-M "C 2/M"
_symmetry_group_IT_number 12
_symmetry_cell_setting 'monoclinic'
loop_
_space_group_symop_operation_xyz
x,y,z
-x,y,-z
-x,-y,-z
x,-y,z
1/2+x,1/2+y,z
1/2-x,1/2+y,-z
1/2-x,1/2-y,-z
1/2+x,1/2-y,z
loop_
_atom_site_type_symbol
_atom_site_label
_atom_site_fract_x
_atom_site_fract_y
_atom_site_fract_z
Si Si1 0.031432 0.163227 0.396131
Si Si2 0.135625 0.661321 0.367668
Si Si3 0.507985 0.333881 0.792236
Si Si4 0.099911 0.332415 0.860223
Si Si5 0.588310 0.168205 0.080571
Si Si6 0.225903 0.169451 0.420259
Si Si7 0.809002 0.660318 0.849882
Si Si8 0.719528 0.831939 0.794303
O O1 0.077611 0.278139 0.369944
O O2 0.992846 0.179269 0.319918
O O3 0.000000 0.202331 0.500000
O O4 0.054516 0.000000 0.392939
O O5 0.132450 0.500000 0.412175
O O6 0.166969 0.767121 0.427087
O O7 0.164513 0.655991 0.259740
O O8 0.508478 0.500000 0.824885
O O9 0.561761 0.258105 0.806491
O O10 0.456208 0.260030 0.852995
O O11 0.095909 0.500000 0.832817
O O12 0.159671 0.274522 0.825548
O O13 0.081459 0.308898 0.972652
O O14 0.647168 0.221931 0.091865
O O15 0.581503 0.000000 0.111066
O O16 0.250000 0.250000 0.500000
O O17 0.261600 0.203089 0.317244
O O18 0.221993 0.000000 0.442216
O O19 0.791318 0.500000 0.887349
O O20 0.756469 0.758453 0.861391
O O21 0.722574 0.000000 0.815924
#
# Coordination Sequence:
#
# PCOD8091425 Si02
#       8
#     8   8   8   8   8   8   8   8
#     4  10  22  39  57  81 112 146 184 230 289 341
#     4  10  19  34  56  81 109 142 183 229 277 332
#     4  11  23  38  58  83 113 147 189 238 283 332
#     4  10  22  39  58  80 114 155 189 228 281 340
#     4  10  20  37  60  84 111 149 191 229 279 339
#     4  10  20  35  56  81 111 146 188 233 279 335
#     4   9  18  33  56  83 110 142 182 228 275 329
#     4   9  20  37  55  80 113 148 186 230 282 334
#
# _framework density 19.264358000000001
#
# number of rings (size 3 to 8) (size 9 to 14) (size 15 to 20)
#    0.000    2.125    1.250    1.500    0.000    6.250 
#    0.000    2.500    0.000    0.000    0.000    0.000 
#    0.000    0.000    0.000    0.000    0.000    0.000 
#
# Total GULP energy -396844.517088 kJ/mol
# GULP energy per Si atom -12401.391159 kJ/mol
# Density = 1.922051 g / cm^3
# Si number density = 19.264358 Si / 1000 Ang^3
#
#
#
# Elastic Constant Matrix: (Units=GPa)
#
#
# Indices 1 2 3 4 5 6 
#
# 1 139.4109 64.7309 43.1185 0.0000 13.5869 0.0000
# 2 64.7309 97.0661 34.7110 0.0000 8.3602 0.0000
# 3 43.1185 34.7110 49.6725 0.0000 16.2942 0.0000
# 4 0.0000 0.0000 0.0000 20.2213 0.0000 13.0769
# 5 13.5869 8.3602 16.2942 0.0000 28.1899 0.0000
# 6 0.0000 0.0000 0.0000 13.0769 0.0000 31.4806
#
#
#
# Elastic Compliance Matrix: (Units=1/GPa)
#
#
# Indices 1 2 3 4 5 6 
#
# 1 0.011695 -0.005576 -0.006107 0.000000 -0.000453 0.000000
# 2 -0.005576 0.016469 -0.007339 0.000000 0.002046 0.000000
# 3 -0.006107 -0.007339 0.035639 0.000000 -0.015480 0.000000
# 4 0.000000 0.000000 0.000000 0.067617 0.000000 -0.028088
# 5 -0.000453 0.002046 -0.015480 0.000000 0.044033 0.000000
# 6 0.000000 0.000000 0.000000 -0.028088 0.000000 0.043433
#
#
# Mechanical properties :
#
#
# Convention : Reuss Voigt Hill
#
# Bulk Modulus (GPa) = 38.82047 63.47450 51.14748
# Shear Modulus (GPa) = 18.83114 25.55097 22.19106
#
# Velocity S-wave (km/s) = 3.12991 3.64584 3.39768
# Velocity P-wave (km/s) = 5.76689 7.12345 6.48076
#
# Compressibility (1/GPa) = 0.02575961
#
# Stress axis : x y z
#
# Youngs Moduli (GPa) = 85.50543 60.71890 28.05899
#
# Poissons Ratio (x) = 0.33860 0.17134
# Poissons Ratio (y) = 0.47682 0.20593
# Poissons Ratio (z) = 0.52214 0.44562
#
# Static dielectric constant tensor:
#      x y z
#    x 4.102390 0.000000 -0.044460 
#    y 0.000000 3.697870 0.000000 
#    z -0.044460 0.000000 3.550950 
# 
# 
# High freq. dielectric constant tensor:
#      x y z
#    x 1.753850 0.000000 0.011860 
#    y 0.000000 1.750570 0.000000 
#    z 0.011860 0.000000 1.745130 
# 
# From -- ./inp_files/238642.got.cif
#   From: 2010.06.25/outbox.cif.g09.slc.cpg/sg12_120_cif.got.tgz:238642.got - 2010.06.28 00:19:55.
