data_PCOD8091115
_publ_section_title
;
Structure prediction by ZEFSAII (Michael W. Deem and Ramdas Pophale) SiO2 
 PCOD8091115
Probable space group: C 2/M
;
_chemical_formula_sum "Si O2"
_cell_formula_units_Z 56
_cell_length_a 19.164413
_cell_length_b 8.663985
_cell_length_c 26.550251
_cell_angle_alpha 90.000000
_cell_angle_beta 39.511189
_cell_angle_gamma 90.000000
_cell_volume 2804.756953
_symmetry_space_group_name_H-M "C 2/M"
_symmetry_group_IT_number 12
_symmetry_cell_setting 'monoclinic'
loop_
_space_group_symop_operation_xyz
x,y,z
-x,y,-z
-x,-y,-z
x,-y,z
1/2+x,1/2+y,z
1/2-x,1/2+y,-z
1/2-x,1/2-y,-z
1/2+x,1/2-y,z
loop_
_atom_site_type_symbol
_atom_site_label
_atom_site_fract_x
_atom_site_fract_y
_atom_site_fract_z
Si Si1 0.859962 0.684276 0.415800
Si Si2 0.972417 0.182166 0.071053
Si Si3 0.815880 0.679840 0.008813
Si Si4 0.699267 0.821148 0.763357
Si Si5 0.647618 0.178021 0.170554
Si Si6 0.408649 0.179420 0.276988
Si Si7 0.080472 0.820935 0.310522
O O1 0.864027 0.500000 0.416911
O O2 0.750000 0.750000 0.500000
O O3 0.868572 0.746058 0.353228
O O4 0.960856 0.755602 0.392261
O O5 0.856739 0.241755 0.156929
O O6 0.968762 0.000000 0.071544
O O7 0.000000 0.248623 0.000000
O O8 0.066074 0.240660 0.056502
O O9 0.832864 0.500000 0.991709
O O10 0.747944 0.715525 0.097244
O O11 0.750000 0.750000 0.000000
O O12 0.656681 0.746723 0.734163
O O13 0.831173 0.799272 0.693587
O O14 0.666368 0.000000 0.783685
O O15 0.538731 0.209583 0.197634
O O16 0.622427 0.216794 0.241670
O O17 0.683965 0.000000 0.145967
O O18 0.382015 0.000000 0.293269
O O19 0.071891 0.000000 0.299583
#
# Coordination Sequence:
#
# PCOD8091115 Si02
#       7
#     8   8   8   8   8   8   8
#     4  10  20  37  61  85 112 143 178 222 270 327
#     4  11  24  39  55  78 111 151 193 238 289 339
#     4  12  24  37  54  77 107 143 188 240 291 340
#     4  10  20  36  57  80 108 143 186 231 275 329
#     4  10  19  34  55  77 105 142 185 231 277 328
#     4   8  17  34  56  80 105 139 179 221 269 320
#     4  10  20  34  56  84 111 142 179 219 268 329
#
# _framework density 19.966079000000001
#
# number of rings (size 3 to 8) (size 9 to 14) (size 15 to 20)
#    0.000    1.857    0.000    5.571    0.000    5.714 
#    0.000    4.286    0.000    4.286    0.000    0.000 
#    0.000    0.000    0.000    0.000    0.000    0.000 
#
# Total GULP energy -347181.559742 kJ/mol
# GULP energy per Si atom -12399.341419 kJ/mol
# Density = 1.992064 g / cm^3
# Si number density = 19.966079 Si / 1000 Ang^3
#
#
#
# Elastic Constant Matrix: (Units=GPa)
#
#
# Indices 1 2 3 4 5 6 
#
# 1 106.7162 32.9038 26.7448 0.0000 -17.9448 -0.0005
# 2 32.9038 57.3691 27.3497 -0.0001 -5.8207 -0.0006
# 3 26.7448 27.3497 92.7707 0.0000 -19.4785 -0.0001
# 4 0.0000 -0.0001 0.0000 33.3108 0.0000 -4.2705
# 5 -17.9448 -5.8207 -19.4785 0.0000 29.1177 0.0000
# 6 -0.0005 -0.0006 -0.0001 -4.2705 0.0000 25.9679
#
#
#
# Elastic Compliance Matrix: (Units=1/GPa)
#
#
# Indices 1 2 3 4 5 6 
#
# 1 0.012457 -0.006311 -0.000446 0.000000 0.006117 0.000000
# 2 -0.006311 0.023479 -0.005740 0.000000 -0.003036 0.000000
# 3 -0.000446 -0.005740 0.014312 0.000000 0.008151 0.000000
# 4 0.000000 0.000000 0.000000 0.030667 0.000000 0.005043
# 5 0.006117 -0.003036 0.008151 0.000000 0.042959 0.000000
# 6 0.000000 0.000000 0.000000 0.005043 0.000000 0.039338
#
#
# Mechanical properties :
#
#
# Convention : Reuss Voigt Hill
#
# Bulk Modulus (GPa) = 39.59919 47.87249 43.73584
# Shear Modulus (GPa) = 25.42916 29.00312 27.21614
#
# Velocity S-wave (km/s) = 3.57265 3.81546 3.69605
# Velocity P-wave (km/s) = 6.07410 6.59085 6.33774
#
# Compressibility (1/GPa) = 0.02525304
#
# Stress axis : x y z
#
# Youngs Moduli (GPa) = 80.27587 42.59105 69.87364
#
# Poissons Ratio (x) = 0.26880 0.03118
# Poissons Ratio (y) = 0.50665 0.40106
# Poissons Ratio (z) = 0.03582 0.24446
#
# Static dielectric constant tensor:
#      x y z
#    x 4.058700 0.000000 -0.167760 
#    y 0.000000 3.694120 0.000000 
#    z -0.167760 0.000000 3.734180 
# 
# 
# High freq. dielectric constant tensor:
#      x y z
#    x 1.786240 0.000000 -0.014650 
#    y 0.000000 1.770180 0.000000 
#    z -0.014650 0.000000 1.764310 
# 
# From -- ./inp_files/363019.got.cif
#   From: 2010.06.25/outbox.cif.g09.slc.cpg/sg12_182_cif.got.tgz:363019.got - 2010.06.28 00:19:55.
