data_PCOD8091645
_publ_section_title
;
Structure prediction by ZEFSAII (Michael W. Deem and Ramdas Pophale) SiO2 
 PCOD8091645
Probable space group: C 2/M
;
_chemical_formula_sum "Si O2"
_cell_formula_units_Z 40
_cell_length_a 29.654337
_cell_length_b 9.179457
_cell_length_c 14.911002
_cell_angle_alpha 90.000000
_cell_angle_beta 30.851125
_cell_angle_gamma 90.000000
_cell_volume 2081.458571
_symmetry_space_group_name_H-M "C 2/M"
_symmetry_group_IT_number 12
_symmetry_cell_setting 'monoclinic'
loop_
_space_group_symop_operation_xyz
x,y,z
-x,y,-z
-x,-y,-z
x,-y,z
1/2+x,1/2+y,z
1/2-x,1/2+y,-z
1/2-x,1/2-y,-z
1/2+x,1/2-y,z
loop_
_atom_site_type_symbol
_atom_site_label
_atom_site_fract_x
_atom_site_fract_y
_atom_site_fract_z
Si Si1 0.974319 0.327503 0.443933
Si Si2 0.982408 0.331307 0.130947
Si Si3 0.297189 0.668493 0.694281
Si Si4 0.810678 0.832553 0.466283
Si Si5 0.111042 0.330485 0.066406
O O1 0.966076 0.500000 0.446138
O O2 0.880312 0.261943 0.580839
O O3 0.000000 0.281771 0.500000
O O4 0.049763 0.261756 0.249163
O O5 0.953170 0.500000 0.184470
O O6 0.907372 0.233716 0.301857
O O7 0.069529 0.301952 0.039697
O O8 0.000000 0.280730 0.000000
O O9 0.316295 0.500000 0.684602
O O10 0.273695 0.684940 0.629557
O O11 0.211196 0.729693 0.894594
O O12 0.750000 0.750000 0.500000
O O13 0.814560 0.000000 0.430274
O O14 0.117202 0.500000 0.075664
#
# Coordination Sequence:
#
# PCOD8091645 Si02
#       5
#     8   8   8   8   8
#     4  10  21  38  60  85 113 148 191 238 289 341
#     4  10  19  34  57  81 110 152 194 228 281 348
#     4  10  21  38  59  83 113 151 192 233 280 342
#     4  11  22  35  54  82 116 151 193 238 284 338
#     4   9  18  35  57  80 113 151 185 228 284 340
#
# _framework density 19.217292
#
# number of rings (size 3 to 8) (size 9 to 14) (size 15 to 20)
#    0.000    2.000    2.000    1.800    0.000    5.600 
#    0.000    2.000    0.000    0.000    0.000    0.000 
#    0.000    0.000    0.000    0.000    0.000    0.000 
#
# Total GULP energy -247977.603591 kJ/mol
# GULP energy per Si atom -12398.880180 kJ/mol
# Density = 1.917355 g / cm^3
# Si number density = 19.217292 Si / 1000 Ang^3
#
#
#
# Elastic Constant Matrix: (Units=GPa)
#
#
# Indices 1 2 3 4 5 6 
#
# 1 100.6004 27.0499 56.5625 0.0000 4.5556 0.0000
# 2 27.0499 48.5520 29.7573 0.0000 -4.8945 0.0000
# 3 56.5625 29.7573 161.7879 0.0000 -5.9869 0.0000
# 4 0.0000 0.0000 0.0000 26.9107 0.0000 -4.7564
# 5 4.5556 -4.8945 -5.9869 0.0000 32.9842 0.0000
# 6 0.0000 0.0000 0.0000 -4.7564 0.0000 17.7421
#
#
#
# Elastic Compliance Matrix: (Units=1/GPa)
#
#
# Indices 1 2 3 4 5 6 
#
# 1 0.013819 -0.005645 -0.003921 0.000000 -0.003458 0.000000
# 2 -0.005645 0.025758 -0.002611 0.000000 0.004128 0.000000
# 3 -0.003921 -0.002611 0.008092 0.000000 0.001623 0.000000
# 4 0.000000 0.000000 0.000000 0.039008 0.000000 0.010457
# 5 -0.003458 0.004128 0.001623 0.000000 0.031702 0.000000
# 6 0.000000 0.000000 0.000000 0.010457 0.000000 0.059167
#
#
# Mechanical properties :
#
#
# Convention : Reuss Voigt Hill
#
# Bulk Modulus (GPa) = 42.89059 59.74216 51.31638
# Shear Modulus (GPa) = 23.84673 28.69878 26.27276
#
# Velocity S-wave (km/s) = 3.52646 3.86862 3.70150
# Velocity P-wave (km/s) = 6.24087 7.14914 6.71039
#
# Compressibility (1/GPa) = 0.02331514
#
# Stress axis : x y z
#
# Youngs Moduli (GPa) = 72.36273 38.82301 123.57644
#
# Poissons Ratio (x) = 0.21914 0.48456
# Poissons Ratio (y) = 0.40845 0.32272
# Poissons Ratio (z) = 0.28374 0.10139
#
# Static dielectric constant tensor:
#      x y z
#    x 3.520010 0.000000 0.122260 
#    y 0.000000 3.362700 0.000000 
#    z 0.122260 0.000000 4.056420 
# 
# 
# High freq. dielectric constant tensor:
#      x y z
#    x 1.748880 0.000000 -0.000210 
#    y 0.000000 1.719270 0.000000 
#    z -0.000210 0.000000 1.764180 
# 
# From -- ./inp_files/211192.got.cif
#   From: 2010.06.25/outbox.cif.g09.slc.cpg/sg12_106_cif.got.tgz:211192.got - 2010.06.28 00:19:55.
