data_PCOD8091912
_publ_section_title
;
Structure prediction by ZEFSAII (Michael W. Deem and Ramdas Pophale) SiO2 
 PCOD8091912
Probable space group: C 2/M
;
_chemical_formula_sum "Si O2"
_cell_formula_units_Z 56
_cell_length_a 18.659591
_cell_length_b 9.154118
_cell_length_c 18.482488
_cell_angle_alpha 90.000000
_cell_angle_beta 112.296778
_cell_angle_gamma 90.000000
_cell_volume 2920.984557
_symmetry_space_group_name_H-M "C 2/M"
_symmetry_group_IT_number 12
_symmetry_cell_setting 'monoclinic'
loop_
_space_group_symop_operation_xyz
x,y,z
-x,y,-z
-x,-y,-z
x,-y,z
1/2+x,1/2+y,z
1/2-x,1/2+y,-z
1/2-x,1/2-y,-z
1/2+x,1/2-y,z
loop_
_atom_site_type_symbol
_atom_site_label
_atom_site_fract_x
_atom_site_fract_y
_atom_site_fract_z
Si Si1 0.637388 0.828069 0.153307
Si Si2 0.301210 0.337506 0.465367
Si Si3 0.927374 0.673333 0.280520
Si Si4 0.213506 0.827832 0.703041
Si Si5 0.975080 0.164314 0.568032
Si Si6 0.028509 0.327011 0.861847
Si Si7 0.822968 0.673622 0.990963
O O1 0.699334 0.787758 0.239274
O O2 0.553581 0.759576 0.142087
O O3 0.668899 0.770070 0.088406
O O4 0.627082 0.000000 0.142223
O O5 0.267101 0.500000 0.445636
O O6 0.250000 0.250000 0.500000
O O7 0.300935 0.270499 0.384289
O O8 0.383476 0.337824 0.535311
O O9 0.919333 0.500000 0.281706
O O10 0.845082 0.744629 0.266842
O O11 0.953429 0.728484 0.211772
O O12 0.993688 0.726218 0.360185
O O13 0.197201 0.000000 0.703468
O O14 0.000000 0.225732 0.500000
O O15 0.009243 0.000000 0.592600
O O16 0.021989 0.500000 0.859856
O O17 0.098127 0.275319 0.939846
O O18 0.811043 0.500000 0.991810
O O19 0.750000 0.750000 0.000000
#
# Coordination Sequence:
#
# PCOD8091912 Si02
#       7
#     8   8   8   8   8   8   8
#     4   9  18  33  57  82 105 142 187 220 258 319
#     4  10  22  37  56  79 107 143 178 224 276 321
#     4  11  22  34  55  83 110 141 179 229 275 314
#     4  10  20  37  57  77 107 146 183 222 268 325
#     4  10  20  39  59  76 105 145 184 222 271 325
#     4   9  19  34  53  82 114 140 175 225 271 310
#     4  10  19  34  58  84 110 142 178 219 264 317
#
# _framework density 19.171617000000001
#
# number of rings (size 3 to 8) (size 9 to 14) (size 15 to 20)
#    0.000    2.143    1.429    1.714    2.000    3.143 
#    0.000    0.714    0.000    4.286    0.000    0.000 
#    0.000    0.000    0.000    0.000    0.000    0.000 
#
# Total GULP energy -347182.695365 kJ/mol
# GULP energy per Si atom -12399.381977 kJ/mol
# Density = 1.912798 g / cm^3
# Si number density = 19.171617 Si / 1000 Ang^3
#
#
#
# Elastic Constant Matrix: (Units=GPa)
#
#
# Indices 1 2 3 4 5 6 
#
# 1 153.9508 36.8038 58.5549 0.0000 -5.0344 0.0000
# 2 36.8038 41.5724 28.2920 0.0000 -3.5717 0.0000
# 3 58.5549 28.2920 111.2609 0.0000 1.3167 0.0000
# 4 0.0000 0.0000 0.0000 19.0208 0.0000 -3.5699
# 5 -5.0344 -3.5717 1.3167 0.0000 38.2753 0.0000
# 6 0.0000 0.0000 0.0000 -3.5699 0.0000 30.8403
#
#
#
# Elastic Compliance Matrix: (Units=1/GPa)
#
#
# Indices 1 2 3 4 5 6 
#
# 1 0.009184 -0.005765 -0.003377 0.000000 0.000786 0.000000
# 2 -0.005765 0.033048 -0.005400 0.000000 0.002511 0.000000
# 3 -0.003377 -0.005400 0.012154 0.000000 -0.001366 0.000000
# 4 0.000000 0.000000 0.000000 0.053741 0.000000 0.006221
# 5 0.000786 0.002511 -0.001366 0.000000 0.026511 0.000000
# 6 0.000000 0.000000 0.000000 0.006221 0.000000 0.033145
#
#
# Mechanical properties :
#
#
# Convention : Reuss Voigt Hill
#
# Bulk Modulus (GPa) = 39.51898 61.56505 50.54201
# Shear Modulus (GPa) = 24.35452 29.83619 27.09535
#
# Velocity S-wave (km/s) = 3.56805 3.94924 3.76347
# Velocity P-wave (km/s) = 6.13455 7.27857 6.73091
#
# Compressibility (1/GPa) = 0.02530430
#
# Stress axis : x y z
#
# Youngs Moduli (GPa) = 108.88815 30.25875 82.27649
#
# Poissons Ratio (x) = 0.17443 0.27782
# Poissons Ratio (y) = 0.62772 0.44425
# Poissons Ratio (z) = 0.36768 0.16338
#
# Static dielectric constant tensor:
#      x y z
#    x 3.499510 0.000000 -0.199620 
#    y 0.000000 3.189440 0.000000 
#    z -0.199620 0.000000 3.439470 
# 
# 
# High freq. dielectric constant tensor:
#      x y z
#    x 1.759600 0.000000 0.002170 
#    y 0.000000 1.704380 0.000000 
#    z 0.002170 0.000000 1.760640 
# 
# From -- ./inp_files/275534.got.cif
#   From: 2010.06.25/outbox.cif.g09.slc.cpg/sg12_138_cif.got.tgz:275534.got - 2010.06.28 00:19:55.
