data_PCOD8091480
_publ_section_title
;
Structure prediction by ZEFSAII (Michael W. Deem and Ramdas Pophale) SiO2 
 PCOD8091480
Probable space group: C 2/M
;
_chemical_formula_sum "Si O2"
_cell_formula_units_Z 48
_cell_length_a 18.210943
_cell_length_b 10.345849
_cell_length_c 13.219862
_cell_angle_alpha 90.000000
_cell_angle_beta 97.569232
_cell_angle_gamma 90.000000
_cell_volume 2469.020231
_symmetry_space_group_name_H-M "C 2/M"
_symmetry_group_IT_number 12
_symmetry_cell_setting 'monoclinic'
loop_
_space_group_symop_operation_xyz
x,y,z
-x,y,-z
-x,-y,-z
x,-y,z
1/2+x,1/2+y,z
1/2-x,1/2+y,-z
1/2-x,1/2-y,-z
1/2+x,1/2-y,z
loop_
_atom_site_type_symbol
_atom_site_label
_atom_site_fract_x
_atom_site_fract_y
_atom_site_fract_z
Si Si1 0.653378 0.146649 0.396890
Si Si2 0.002640 0.356018 0.267813
Si Si3 0.038948 0.145743 0.904915
Si Si4 0.791147 0.852562 0.076282
Si Si5 0.289647 0.355183 0.302327
Si Si6 0.927986 0.228499 0.434805
O O1 0.590545 0.155989 0.299469
O O2 0.728873 0.212304 0.365321
O O3 0.628295 0.219185 0.492349
O O4 0.668389 0.000000 0.432584
O O5 0.982764 0.500000 0.223648
O O6 0.978994 0.245507 0.186756
O O7 0.961310 0.339798 0.368494
O O8 0.125007 0.145112 0.945037
O O9 0.013104 0.000000 0.869015
O O10 0.000000 0.192880 0.000000
O O11 0.787528 0.795160 0.189785
O O12 0.758909 0.000000 0.061479
O O13 0.750000 0.750000 0.000000
O O14 0.261132 0.500000 0.284900
O O15 0.374462 0.361196 0.358013
O O16 0.000000 0.157747 0.500000
#
# Coordination Sequence:
#
# PCOD8091480 Si02
#       6
#     8   8   8   8   8   8
#     4   9  19  34  54  80 114 150 187 233 281 329
#     4  10  20  35  58  86 112 147 192 235 277 331
#     4  10  22  40  60  81 113 151 186 234 292 339
#     4  10  22  40  60  84 115 151 188 232 287 340
#     4  10  20  36  56  80 115 153 187 232 287 336
#     4  10  19  34  56  82 114 149 188 232 281 336
#
# _framework density 19.440909999999999
#
# number of rings (size 3 to 8) (size 9 to 14) (size 15 to 20)
#    0.000    2.167    1.667    1.000    2.333    3.333 
#    0.000    2.500    0.000    3.000    0.000    0.000 
#    0.000    0.000    0.000    0.000    0.000    0.000 
#
# Total GULP energy -297371.635190 kJ/mol
# GULP energy per Si atom -12390.484800 kJ/mol
# Density = 1.939666 g / cm^3
# Si number density = 19.440910 Si / 1000 Ang^3
#
#
#
# Elastic Constant Matrix: (Units=GPa)
#
#
# Indices 1 2 3 4 5 6 
#
# 1 121.2640 23.6117 54.6897 0.0000 -9.9399 0.0000
# 2 23.6117 76.5257 46.5016 0.0000 7.8208 0.0000
# 3 54.6897 46.5016 125.0559 0.0000 -3.0038 0.0000
# 4 0.0000 0.0000 0.0000 21.0865 0.0000 5.3997
# 5 -9.9399 7.8208 -3.0038 0.0000 37.1592 0.0000
# 6 0.0000 0.0000 0.0000 5.3997 0.0000 23.3696
#
#
#
# Elastic Compliance Matrix: (Units=1/GPa)
#
#
# Indices 1 2 3 4 5 6 
#
# 1 0.010544 -0.000989 -0.004179 0.000000 0.002691 0.000000
# 2 -0.000989 0.017612 -0.006224 0.000000 -0.004474 0.000000
# 3 -0.004179 -0.006224 0.012166 0.000000 0.001176 0.000000
# 4 0.000000 0.000000 0.000000 0.050406 0.000000 -0.011647
# 5 0.002691 -0.004474 0.001176 0.000000 0.028668 0.000000
# 6 0.000000 0.000000 0.000000 -0.011647 0.000000 0.045482
#
#
# Mechanical properties :
#
#
# Convention : Reuss Voigt Hill
#
# Bulk Modulus (GPa) = 57.01530 63.60571 60.31050
# Shear Modulus (GPa) = 25.83870 29.52591 27.68230
#
# Velocity S-wave (km/s) = 3.64962 3.90134 3.77758
# Velocity P-wave (km/s) = 6.86664 7.28577 7.07931
#
# Compressibility (1/GPa) = 0.01753915
#
# Stress axis : x y z
#
# Youngs Moduli (GPa) = 94.83833 56.77960 82.19322
#
# Poissons Ratio (x) = 0.05616 0.34347
# Poissons Ratio (y) = 0.09381 0.51156
# Poissons Ratio (z) = 0.39631 0.35339
#
# Static dielectric constant tensor:
#      x y z
#    x 3.869710 0.000000 -0.227800 
#    y 0.000000 3.319000 0.000000 
#    z -0.227800 0.000000 3.530730 
# 
# 
# High freq. dielectric constant tensor:
#      x y z
#    x 1.772420 0.000000 -0.012240 
#    y 0.000000 1.727660 0.000000 
#    z -0.012240 0.000000 1.756350 
# 
# From -- ./inp_files/153510.got.cif
#   From: 2010.06.25/outbox.cif.g09.slc.cpg/sg12_77_cif.got.tgz:153510.got - 2010.06.28 00:19:55.
