data_PCOD8091845
_publ_section_title
;
Structure prediction by ZEFSAII (Michael W. Deem and Ramdas Pophale) SiO2 
 PCOD8091845
Probable space group: C 2/M
;
_chemical_formula_sum "Si O2"
_cell_formula_units_Z 40
_cell_length_a 12.724340
_cell_length_b 21.550912
_cell_length_c 20.539854
_cell_angle_alpha 90.000000
_cell_angle_beta 158.688549
_cell_angle_gamma 90.000000
_cell_volume 2047.047510
_symmetry_space_group_name_H-M "C 2/M"
_symmetry_group_IT_number 12
_symmetry_cell_setting 'monoclinic'
loop_
_space_group_symop_operation_xyz
x,y,z
-x,y,-z
-x,-y,-z
x,-y,z
1/2+x,1/2+y,z
1/2-x,1/2+y,-z
1/2-x,1/2-y,-z
1/2+x,1/2-y,z
loop_
_atom_site_type_symbol
_atom_site_label
_atom_site_fract_x
_atom_site_fract_y
_atom_site_fract_z
Si Si1 0.812024 0.292026 0.657623
Si Si2 0.254147 0.853847 0.186702
Si Si3 0.888141 0.430792 0.507795
Si Si4 0.965285 0.175784 0.266494
Si Si5 0.546664 0.777205 0.118324
O O1 0.500000 0.316944 0.500000
O O2 0.007760 0.282701 0.835857
O O3 0.971739 0.339199 0.701543
O O4 0.777970 0.225303 0.601436
O O5 0.365087 0.898135 0.307308
O O6 0.092718 0.793427 0.122208
O O7 0.000000 0.889098 0.000000
O O8 0.827715 0.500000 0.499853
O O9 0.586942 0.393451 0.334237
O O10 0.000000 0.434180 0.500000
O O11 0.841890 0.186622 0.268121
O O12 0.715223 0.189285 0.069851
#
# Coordination Sequence:
#
# PCOD8091845 Si02
#       5
#     8   8   8   8   8
#     4  11  20  31  58  92 123 152 184 242 310 354
#     4  11  22  39  59  90 123 155 191 243 299 351
#     4  11  25  41  60  82 114 162 206 240 281 344
#     4  10  19  35  56  85 119 153 193 240 288 351
#     4  10  19  34  57  94 120 151 186 239 308 362
#
# _framework density 19.540337999999998
#
# number of rings (size 3 to 8) (size 9 to 14) (size 15 to 20)
#    0.000    1.400    4.000    4.800    2.800    3.600 
#    0.000    2.000    0.000    5.400    0.000    0.000 
#    0.000    0.000    0.000    0.000    0.000    0.000 
#
# Total GULP energy -247937.879110 kJ/mol
# GULP energy per Si atom -12396.893955 kJ/mol
# Density = 1.949586 g / cm^3
# Si number density = 19.540338 Si / 1000 Ang^3
#
#
#
# Elastic Constant Matrix: (Units=GPa)
#
#
# Indices 1 2 3 4 5 6 
#
# 1 86.5593 31.2970 19.8900 -0.0243 -3.4245 0.0014
# 2 31.2970 121.5990 59.2832 -0.0411 -4.8365 -0.0002
# 3 19.8900 59.2832 104.0880 0.0575 -2.2161 -0.0015
# 4 -0.0243 -0.0411 0.0575 15.0718 -0.0056 1.0920
# 5 -3.4245 -4.8365 -2.2161 -0.0056 35.2586 0.0318
# 6 0.0014 -0.0002 -0.0015 1.0920 0.0318 16.9209
#
#
#
# Elastic Compliance Matrix: (Units=1/GPa)
#
#
# Indices 1 2 3 4 5 6 
#
# 1 0.012807 -0.002879 -0.000790 0.000016 0.000799 -0.000004
# 2 -0.002879 0.012080 -0.006309 0.000053 0.000981 -0.000005
# 3 -0.000790 -0.006309 0.013349 -0.000070 -0.000103 0.000006
# 4 0.000016 0.000053 -0.000070 0.066661 0.000019 -0.004302
# 5 0.000799 0.000981 -0.000103 0.000019 0.028568 -0.000055
# 6 -0.000004 -0.000005 0.000006 -0.004302 -0.000055 0.059376
#
#
# Mechanical properties :
#
#
# Convention : Reuss Voigt Hill
#
# Bulk Modulus (GPa) = 54.70745 59.24299 56.97522
# Shear Modulus (GPa) = 22.84242 26.90200 24.87221
#
# Velocity S-wave (km/s) = 3.42276 3.71447 3.57159
# Velocity P-wave (km/s) = 6.60896 6.98431 6.79922
#
# Compressibility (1/GPa) = 0.01827905
#
# Stress axis : x y z
#
# Youngs Moduli (GPa) = 78.08215 82.78438 74.90983
#
# Poissons Ratio (x) = 0.23834 0.05922
# Poissons Ratio (y) = 0.22480 0.47260
# Poissons Ratio (z) = 0.06172 0.52228
#
# Static dielectric constant tensor:
#      x y z
#    x 3.953050 -0.000150 -0.027040 
#    y -0.000150 3.302990 -0.000520 
#    z -0.027040 -0.000520 3.705220 
# 
# 
# High freq. dielectric constant tensor:
#      x y z
#    x 1.783970 -0.000010 -0.002420 
#    y -0.000010 1.702140 -0.000030 
#    z -0.002420 -0.000030 1.780390 
# 
# From -- ./inp_files/340699.got.cif
#   From: 2010.06.25/outbox.cif.g09.slc.cpg/sg12_171_cif.got.tgz:340699.got - 2010.06.28 00:19:55.
