data_PCOD8091176
_publ_section_title
;
Structure prediction by ZEFSAII (Michael W. Deem and Ramdas Pophale) SiO2 
 PCOD8091176
Probable space group: C 2/M
;
_chemical_formula_sum "Si O2"
_cell_formula_units_Z 52
_cell_length_a 16.872715
_cell_length_b 18.432130
_cell_length_c 12.086007
_cell_angle_alpha 90.000000
_cell_angle_beta 133.851289
_cell_angle_gamma 90.000000
_cell_volume 2710.585674
_symmetry_space_group_name_H-M "C 2/M"
_symmetry_group_IT_number 12
_symmetry_cell_setting 'monoclinic'
loop_
_space_group_symop_operation_xyz
x,y,z
-x,y,-z
-x,-y,-z
x,-y,z
1/2+x,1/2+y,z
1/2-x,1/2+y,-z
1/2-x,1/2-y,-z
1/2+x,1/2-y,z
loop_
_atom_site_type_symbol
_atom_site_label
_atom_site_fract_x
_atom_site_fract_y
_atom_site_fract_z
Si Si1 0.737837 0.343841 0.559484
Si Si2 0.399524 0.216692 0.548248
Si Si3 0.131027 0.500000 0.593561
Si Si4 0.282247 0.000000 0.564135
Si Si5 0.130091 0.727936 0.118221
Si Si6 0.702468 0.149860 0.743987
Si Si7 0.506012 0.000000 0.876051
Si Si8 0.599978 0.850945 0.871456
O O1 0.620914 0.303643 0.467099
O O2 0.789544 0.319667 0.492870
O O3 0.709091 0.428809 0.517269
O O4 0.824459 0.324860 0.741533
O O5 0.399438 0.190103 0.419477
O O6 0.501544 0.194263 0.720560
O O7 0.143730 0.500000 0.474986
O O8 0.200861 0.567169 0.705046
O O9 0.000000 0.500000 0.500000
O O10 0.376587 0.000000 0.743754
O O11 0.185416 0.807374 0.176570
O O12 0.156954 0.690888 0.027120
O O13 0.000000 0.737019 0.000000
O O14 0.690959 0.146053 0.864666
O O15 0.561400 0.929816 0.873942
O O16 0.500000 0.000000 0.000000
#
# Coordination Sequence:
#
# PCOD8091176 Si02
#       8
#     8   8   4   4   8   8   4   8
#     4  10  20  33  53  82 109 139 188 232 282 330
#     4  10  19  34  55  79 109 143 182 233 280 329
#     4  12  22  34  55  82 112 140 171 233 289 330
#     4  12  18  32  50  79 107 141 174 227 279 328
#     4  11  22  38  56  77 112 152 186 229 273 339
#     4  11  23  36  55  85 112 144 185 231 288 340
#     4  12  22  32  52  85 113 147 180 225 281 337
#     4  12  21  36  56  81 114 147 184 229 288 343
#
# _framework density 19.184045999999999
#
# number of rings (size 3 to 8) (size 9 to 14) (size 15 to 20)
#    0.000    0.923    4.615    4.615    0.000    0.000 
#    0.000    0.385    0.000    0.923    0.000    9.692 
#    0.000    0.000    0.000    4.923    0.000    0.000 
#
# Total GULP energy -322133.206726 kJ/mol
# GULP energy per Si atom -12389.738720 kJ/mol
# Density = 1.914038 g / cm^3
# Si number density = 19.184046 Si / 1000 Ang^3
#
#
#
# Elastic Constant Matrix: (Units=GPa)
#
#
# Indices 1 2 3 4 5 6 
#
# 1 49.0275 36.0418 27.9645 0.0000 -17.1340 0.0000
# 2 36.0418 167.1448 40.0953 0.0000 0.4386 0.0000
# 3 27.9645 40.0953 91.0332 0.0000 -16.3852 0.0000
# 4 0.0000 0.0000 0.0000 25.7132 0.0000 11.1405
# 5 -17.1340 0.4386 -16.3852 0.0000 33.3830 0.0000
# 6 0.0000 0.0000 0.0000 11.1405 0.0000 -22.5240
#
#
#
# Elastic Compliance Matrix: (Units=1/GPa)
#
#
# Indices 1 2 3 4 5 6 
#
# 1 0.032500 -0.005896 -0.004794 0.000000 0.014405 0.000000
# 2 -0.005896 0.007846 -0.002422 0.000000 -0.004318 0.000000
# 3 -0.004794 -0.002422 0.014356 0.000000 0.004617 0.000000
# 4 0.000000 0.000000 0.000000 0.032027 0.000000 0.015841
# 5 0.014405 -0.004318 0.004617 0.000000 0.039672 0.000000
# 6 0.000000 0.000000 0.000000 0.015841 0.000000 -0.036562
#
#
# Mechanical properties :
#
#
# Convention : Reuss Voigt Hill
#
# Bulk Modulus (GPa) = 35.11477 57.26762 46.19119
# Shear Modulus (GPa) = 39.82316 20.85468 30.33892
#
# Velocity S-wave (km/s) = 4.56109 3.30067 3.98108
# Velocity P-wave (km/s) = 6.78837 6.66651 6.72772
#
# Compressibility (1/GPa) = 0.02847805
#
# Stress axis : x y z
#
# Youngs Moduli (GPa) = 30.76960 127.44547 69.65967
#
# Poissons Ratio (x) = 0.75139 0.33395
# Poissons Ratio (y) = 0.18141 0.16872
# Poissons Ratio (z) = 0.14751 0.30868
#
# Static dielectric constant tensor:
#      x y z
#    x 3.552270 0.000000 -0.433520 
#    y 0.000000 3.762450 0.000000 
#    z -0.433520 0.000000 3.633230 
# 
# 
# High freq. dielectric constant tensor:
#      x y z
#    x 1.726550 0.000000 -0.038300 
#    y 0.000000 1.750560 0.000000 
#    z -0.038300 0.000000 1.749110 
# 
# From -- ./inp_files/158361.got.cif
#   From: 2010.06.25/outbox.cif.g09.slc.cpg/sg12_80_cif.got.tgz:158361.got - 2010.06.28 00:19:55.
