data_PCOD8091521
_publ_section_title
;
Structure prediction by ZEFSAII (Michael W. Deem and Ramdas Pophale) SiO2 
 PCOD8091521
Probable space group: C 2/M
;
_chemical_formula_sum "Si O2"
_cell_formula_units_Z 56
_cell_length_a 19.733103
_cell_length_b 14.461081
_cell_length_c 23.267209
_cell_angle_alpha 90.000000
_cell_angle_beta 26.723406
_cell_angle_gamma 90.000000
_cell_volume 2985.711113
_symmetry_space_group_name_H-M "C 2/M"
_symmetry_group_IT_number 12
_symmetry_cell_setting 'monoclinic'
loop_
_space_group_symop_operation_xyz
x,y,z
-x,y,-z
-x,-y,-z
x,-y,z
1/2+x,1/2+y,z
1/2-x,1/2+y,-z
1/2-x,1/2-y,-z
1/2+x,1/2-y,z
loop_
_atom_site_type_symbol
_atom_site_label
_atom_site_fract_x
_atom_site_fract_y
_atom_site_fract_z
Si Si1 0.922980 0.742768 0.805581
Si Si2 0.841634 0.311394 0.639347
Si Si3 0.954755 0.106401 0.095617
Si Si4 0.889399 0.000000 0.669247
Si Si5 0.776279 0.000000 0.634298
Si Si6 0.234229 0.690703 0.616665
Si Si7 0.170778 0.888601 0.033747
Si Si8 0.560193 0.309261 0.329643
O O1 0.881823 0.839260 0.867888
O O2 0.884417 0.753267 0.767576
O O3 0.099057 0.724590 0.679487
O O4 0.834463 0.652726 0.895113
O O5 0.723193 0.382913 0.756336
O O6 0.760736 0.263305 0.647386
O O7 0.882650 0.234793 0.654815
O O8 0.000000 0.360414 0.500000
O O9 0.056629 0.145688 0.070170
O O10 0.994672 0.000000 0.060602
O O11 0.000000 0.153750 0.000000
O O12 0.767453 0.000000 0.710279
O O13 0.868534 0.088466 0.725914
O O14 0.052326 0.000000 0.516367
O O15 0.692287 0.090886 0.674738
O O16 0.379378 0.684729 0.465907
O O17 0.176779 0.000000 0.036929
#
# Coordination Sequence:
#
# PCOD8091521 Si02
#       8
#     8   8   8   4   4   8   8   8
#     4  11  22  37  58  81 111 153 185 236 286 338
#     4  10  19  34  57  84 113 143 182 238 284 336
#     4  10  20  37  59  78 102 143 191 234 279 336
#     4   9  16  30  52  83 113 148 181 215 285 344
#     4   9  16  30  54  81 113 146 181 225 272 352
#     4  10  19  34  56  84 113 147 184 227 288 343
#     4  10  23  40  56  78 108 148 195 233 277 336
#     4  10  20  33  55  85 117 142 182 231 285 347
#
# _framework density 18.756
#
# number of rings (size 3 to 8) (size 9 to 14) (size 15 to 20)
#    0.000    2.000    2.857    1.286    2.000    0.286 
#    0.000    0.000    0.000    0.857    0.000    5.000 
#    0.000    0.000    0.000    0.000    0.000    0.000 
#
# Total GULP energy -347114.065213 kJ/mol
# GULP energy per Si atom -12396.930900 kJ/mol
# Density = 1.871331 g / cm^3
# Si number density = 18.756000 Si / 1000 Ang^3
#
#
#
# Elastic Constant Matrix: (Units=GPa)
#
#
# Indices 1 2 3 4 5 6 
#
# 1 63.9635 11.1302 20.7412 0.0000 -0.1325 0.0013
# 2 11.1302 62.3683 15.6789 -0.0367 0.0635 0.0017
# 3 20.7412 15.6789 67.2470 -0.0257 2.1185 0.0019
# 4 0.0000 -0.0367 -0.0257 21.6498 0.0028 -1.5718
# 5 -0.1325 0.0635 2.1185 0.0028 25.5177 0.0008
# 6 0.0013 0.0017 0.0019 -1.5718 0.0008 20.8457
#
#
#
# Elastic Compliance Matrix: (Units=1/GPa)
#
#
# Indices 1 2 3 4 5 6 
#
# 1 0.017584 -0.001881 -0.005001 -0.000009 0.000511 -0.000001
# 2 -0.001881 0.017236 -0.003446 0.000025 0.000233 0.000001
# 3 -0.005001 -0.003446 0.017262 0.000015 -0.001451 0.000000
# 4 -0.000009 0.000025 0.000015 0.046444 -0.000006 0.003502
# 5 0.000511 0.000233 -0.001451 -0.000006 0.039311 -0.000002
# 6 -0.000001 0.000001 0.000000 0.003502 -0.000002 0.048236
#
#
# Mechanical properties :
#
#
# Convention : Reuss Voigt Hill
#
# Bulk Modulus (GPa) = 31.82102 32.07548 31.94825
# Shear Modulus (GPa) = 23.01990 23.33786 23.17888
#
# Velocity S-wave (km/s) = 3.50713 3.53127 3.51922
# Velocity P-wave (km/s) = 5.77950 5.81077 5.79516
#
# Compressibility (1/GPa) = 0.03142577
#
# Stress axis : x y z
#
# Youngs Moduli (GPa) = 56.86997 58.01974 57.93047
#
# Poissons Ratio (x) = 0.10915 0.28971
# Poissons Ratio (y) = 0.10699 0.19961
# Poissons Ratio (z) = 0.28440 0.19991
#
# Static dielectric constant tensor:
#      x y z
#    x 3.476850 0.000000 0.015610 
#    y 0.000000 3.286820 0.000010 
#    z 0.015610 0.000010 3.335260 
# 
# 
# High freq. dielectric constant tensor:
#      x y z
#    x 1.734860 0.000000 0.000810 
#    y 0.000000 1.715890 0.000000 
#    z 0.000810 0.000000 1.714790 
# 
# From -- ./inp_files/316737.got.cif
#   From: 2010.06.25/outbox.cif.g09.slc.cpg/sg12_159_cif.got.tgz:316737.got - 2010.06.28 00:19:55.
