data_PCOD8091876
_publ_section_title
;
Structure prediction by ZEFSAII (Michael W. Deem and Ramdas Pophale) SiO2 
 PCOD8091876
Probable space group: C 2/M
;
_chemical_formula_sum "Si O2"
_cell_formula_units_Z 48
_cell_length_a 25.107702
_cell_length_b 8.969855
_cell_length_c 24.093828
_cell_angle_alpha 90.000000
_cell_angle_beta 29.144646
_cell_angle_gamma 90.000000
_cell_volume 2642.661309
_symmetry_space_group_name_H-M "C 2/M"
_symmetry_group_IT_number 12
_symmetry_cell_setting 'monoclinic'
loop_
_space_group_symop_operation_xyz
x,y,z
-x,y,-z
-x,-y,-z
x,-y,z
1/2+x,1/2+y,z
1/2-x,1/2+y,-z
1/2-x,1/2-y,-z
1/2+x,1/2-y,z
loop_
_atom_site_type_symbol
_atom_site_label
_atom_site_fract_x
_atom_site_fract_y
_atom_site_fract_z
Si Si1 0.814879 0.177030 0.741733
Si Si2 0.926758 0.325263 0.017325
Si Si3 0.991778 0.325853 0.375941
Si Si4 0.599404 0.173830 0.772572
Si Si5 0.864350 0.674037 0.384797
Si Si6 0.191095 0.675185 0.368236
O O1 0.847203 0.245558 0.653106
O O2 0.900452 0.231440 0.709715
O O3 0.818331 0.000000 0.734313
O O4 0.695973 0.239185 0.868824
O O5 0.918234 0.500000 0.035559
O O6 0.982916 0.289392 0.907072
O O7 0.000000 0.254170 0.000000
O O8 0.020079 0.500000 0.353806
O O9 0.953101 0.277629 0.349739
O O10 0.896068 0.282726 0.505554
O O11 0.589646 0.220361 0.717245
O O12 0.691166 0.267871 0.720057
O O13 0.629468 0.000000 0.752189
O O14 0.841836 0.500000 0.409713
O O15 0.750000 0.750000 0.500000
O O16 0.196767 0.500000 0.352522
#
# Coordination Sequence:
#
# PCOD8091876 Si02
#       6
#     8   8   8   8   8   8
#     4  11  22  36  56  80 107 143 186 224 263 321
#     4   9  17  33  55  79 108 138 175 228 272 306
#     4  10  22  38  52  76 115 148 172 216 280 324
#     4  10  19  34  58  83 106 139 184 223 261 317
#     4  10  20  35  57  81 108 143 180 220 265 318
#     4  11  21  34  54  80 114 144 170 219 280 325
#
# _framework density 18.163509000000001
#
# number of rings (size 3 to 8) (size 9 to 14) (size 15 to 20)
#    0.000    1.833    3.333    1.500    0.000    4.000 
#    0.000    3.333    0.000    0.000    0.000    0.000 
#    0.000    0.000    0.000    0.000    0.000    0.000 
#
# Total GULP energy -297644.560592 kJ/mol
# GULP energy per Si atom -12401.856691 kJ/mol
# Density = 1.812217 g / cm^3
# Si number density = 18.163509 Si / 1000 Ang^3
#
#
#
# Elastic Constant Matrix: (Units=GPa)
#
#
# Indices 1 2 3 4 5 6 
#
# 1 132.0064 32.6170 42.8668 0.0009 8.3585 0.0001
# 2 32.6170 43.1816 25.7595 -0.0142 -1.3216 0.0055
# 3 42.8668 25.7595 87.0854 -0.0014 8.0017 0.0014
# 4 0.0009 -0.0142 -0.0014 21.4501 0.0023 -5.4881
# 5 8.3585 -1.3216 8.0017 0.0023 32.2561 -0.0007
# 6 0.0001 0.0055 0.0014 -5.4881 -0.0007 29.9310
#
#
#
# Elastic Compliance Matrix: (Units=1/GPa)
#
#
# Indices 1 2 3 4 5 6 
#
# 1 0.010165 -0.005918 -0.003058 -0.000004 -0.002118 0.000000
# 2 -0.005918 0.031911 -0.006945 0.000020 0.004564 -0.000002
# 3 -0.003058 -0.006945 0.015346 -0.000003 -0.003299 0.000000
# 4 -0.000004 0.000020 -0.000003 0.048914 -0.000001 0.008969
# 5 -0.002118 0.004564 -0.003299 -0.000001 0.032556 0.000000
# 6 0.000000 -0.000002 0.000000 0.008969 0.000000 0.035055
#
#
# Mechanical properties :
#
#
# Convention : Reuss Voigt Hill
#
# Bulk Modulus (GPa) = 39.09606 51.63997 45.36801
# Shear Modulus (GPa) = 23.32986 27.46280 25.39633
#
# Velocity S-wave (km/s) = 3.58779 3.89263 3.74332
# Velocity P-wave (km/s) = 6.22368 6.97824 6.61173
#
# Compressibility (1/GPa) = 0.02557803
#
# Stress axis : x y z
#
# Youngs Moduli (GPa) = 98.37668 31.33683 65.16392
#
# Poissons Ratio (x) = 0.18547 0.19929
# Poissons Ratio (y) = 0.58224 0.45258
# Poissons Ratio (z) = 0.30087 0.21764
#
# Static dielectric constant tensor:
#      x y z
#    x 3.757930 -0.000010 -0.152630 
#    y -0.000010 3.199010 0.000020 
#    z -0.152630 0.000020 3.742410 
# 
# 
# High freq. dielectric constant tensor:
#      x y z
#    x 1.707120 0.000000 0.003820 
#    y 0.000000 1.687970 0.000000 
#    z 0.003820 0.000000 1.705060 
# 
# From -- ./inp_files/172060.got.cif
#   From: 2010.06.25/outbox.cif.g09.slc.cpg/sg12_87_cif.got.tgz:172060.got - 2010.06.28 00:19:55.
