data_PCOD8091511
_publ_section_title
;
Structure prediction by ZEFSAII (Michael W. Deem and Ramdas Pophale) SiO2 
 PCOD8091511
Probable space group: C 2/M
;
_chemical_formula_sum "Si O2"
_cell_formula_units_Z 56
_cell_length_a 20.899412
_cell_length_b 13.513319
_cell_length_c 10.965915
_cell_angle_alpha 90.000000
_cell_angle_beta 113.676368
_cell_angle_gamma 90.000000
_cell_volume 2836.318723
_symmetry_space_group_name_H-M "C 2/M"
_symmetry_group_IT_number 12
_symmetry_cell_setting 'monoclinic'
loop_
_space_group_symop_operation_xyz
x,y,z
-x,y,-z
-x,-y,-z
x,-y,z
1/2+x,1/2+y,z
1/2-x,1/2+y,-z
1/2-x,1/2-y,-z
1/2+x,1/2-y,z
loop_
_atom_site_type_symbol
_atom_site_label
_atom_site_fract_x
_atom_site_fract_y
_atom_site_fract_z
Si Si1 0.307529 0.766654 0.442174
Si Si2 0.295312 0.614264 0.240980
Si Si3 0.302627 0.109199 0.218343
Si Si4 0.931696 0.614095 0.175084
Si Si5 0.357590 0.806357 0.897946
Si Si6 0.661919 0.609074 0.986898
Si Si7 0.910886 0.620078 0.684151
O O1 0.250000 0.750000 0.500000
O O2 0.327698 0.663646 0.389276
O O3 0.271554 0.831537 0.308734
O O4 0.125996 0.671206 0.459933
O O5 0.281928 0.500000 0.261542
O O6 0.222872 0.665812 0.146546
O O7 0.347943 0.627884 0.166129
O O8 0.372459 0.162745 0.217521
O O9 0.245405 0.107041 0.068739
O O10 0.320937 0.000000 0.278656
O O11 0.932488 0.500000 0.206746
O O12 0.008793 0.655018 0.260848
O O13 0.909736 0.626848 0.017833
O O14 0.372653 0.693175 0.954640
O O15 0.376868 0.826402 0.773597
O O16 0.630947 0.500000 0.998130
O O17 0.901226 0.500000 0.679015
#
# Coordination Sequence:
#
# PCOD8091511 Si02
#       7
#     8   8   8   8   8   8   8
#     4  12  23  36  53  79 117 156 193 230 283 342
#     4  11  21  34  57  86 115 148 188 238 292 344
#     4  10  19  34  56  83 115 150 188 236 288 341
#     4  10  21  36  59  87 116 151 190 235 291 350
#     4  12  19  35  60  87 119 150 189 238 293 345
#     4  10  20  35  58  90 119 145 190 247 294 335
#     4  11  24  39  56  85 122 159 193 230 283 351
#
# _framework density 19.743901999999999
#
# number of rings (size 3 to 8) (size 9 to 14) (size 15 to 20)
#    0.000    1.143    4.286    3.429    0.000    2.286 
#    0.000    2.857    0.000    2.571    0.000    3.000 
#    0.000    0.000    0.000    0.000    0.000    0.000 
#
# Total GULP energy -346967.786093 kJ/mol
# GULP energy per Si atom -12391.706646 kJ/mol
# Density = 1.969896 g / cm^3
# Si number density = 19.743902 Si / 1000 Ang^3
#
#
#
# Elastic Constant Matrix: (Units=GPa)
#
#
# Indices 1 2 3 4 5 6 
#
# 1 37.3414 17.8908 18.7829 0.0000 0.1918 0.0000
# 2 17.8908 104.8421 35.9646 0.0000 -15.8550 0.0000
# 3 18.7829 35.9646 98.3073 0.0000 -9.9966 0.0000
# 4 0.0000 0.0000 0.0000 41.9579 0.0000 -4.2169
# 5 0.1918 -15.8550 -9.9966 0.0000 30.7084 0.0000
# 6 0.0000 0.0000 0.0000 -4.2169 0.0000 16.6061
#
#
#
# Elastic Compliance Matrix: (Units=1/GPa)
#
#
# Indices 1 2 3 4 5 6 
#
# 1 0.031275 -0.004288 -0.004811 0.000000 -0.003975 0.000000
# 2 -0.004288 0.012125 -0.003079 0.000000 0.005285 0.000000
# 3 -0.004811 -0.003079 0.012472 0.000000 0.002500 0.000000
# 4 0.000000 0.000000 0.000000 0.024458 0.000000 0.006211
# 5 -0.003975 0.005285 0.002500 0.000000 0.036132 0.000000
# 6 0.000000 0.000000 0.000000 0.006211 0.000000 0.061796
#
#
# Mechanical properties :
#
#
# Convention : Reuss Voigt Hill
#
# Bulk Modulus (GPa) = 31.72983 42.86304 37.29644
# Shear Modulus (GPa) = 23.46110 29.04465 26.25288
#
# Velocity S-wave (km/s) = 3.45087 3.83961 3.65042
# Velocity P-wave (km/s) = 5.65540 6.43533 6.05793
#
# Compressibility (1/GPa) = 0.03151608
#
# Stress axis : x y z
#
# Youngs Moduli (GPa) = 31.97483 82.47196 80.17854
#
# Poissons Ratio (x) = 0.35361 0.38574
# Poissons Ratio (y) = 0.13710 0.24689
# Poissons Ratio (z) = 0.15383 0.25396
#
# Static dielectric constant tensor:
#      x y z
#    x 3.499100 0.000000 -0.018400 
#    y 0.000000 3.873260 0.000000 
#    z -0.018400 0.000000 3.712480 
# 
# 
# High freq. dielectric constant tensor:
#      x y z
#    x 1.734870 0.000000 -0.015360 
#    y 0.000000 1.777330 0.000000 
#    z -0.015360 0.000000 1.770310 
# 
# From -- ./inp_files/166798.got.cif
#   From: 2010.06.25/outbox.cif.g09.slc.cpg/sg12_84_cif.got.tgz:166798.got - 2010.06.28 00:19:55.
