data_PCOD8091365
_publ_section_title
;
Structure prediction by ZEFSAII (Michael W. Deem and Ramdas Pophale) SiO2 
 PCOD8091365
Probable space group: C 2/M
;
_chemical_formula_sum "Si O2"
_cell_formula_units_Z 60
_cell_length_a 14.709682
_cell_length_b 9.258780
_cell_length_c 24.488888
_cell_angle_alpha 90.000000
_cell_angle_beta 66.507700
_cell_angle_gamma 90.000000
_cell_volume 3058.787264
_symmetry_space_group_name_H-M "C 2/M"
_symmetry_group_IT_number 12
_symmetry_cell_setting 'monoclinic'
loop_
_space_group_symop_operation_xyz
x,y,z
-x,y,-z
-x,-y,-z
x,-y,z
1/2+x,1/2+y,z
1/2-x,1/2+y,-z
1/2-x,1/2-y,-z
1/2+x,1/2-y,z
loop_
_atom_site_type_symbol
_atom_site_label
_atom_site_fract_x
_atom_site_fract_y
_atom_site_fract_z
Si Si1 0.639569 0.172631 0.147231
Si Si2 0.850822 0.829434 0.058590
Si Si3 0.000000 0.757908 0.500000
Si Si4 0.455431 0.329066 0.926034
Si Si5 0.550772 0.832930 0.279706
Si Si6 0.162999 0.668197 0.645890
Si Si7 0.361187 0.164848 0.628679
Si Si8 0.341735 0.660950 0.457040
O O1 0.747238 0.234535 0.104716
O O2 0.560571 0.241707 0.125347
O O3 0.614426 0.230269 0.214101
O O4 0.632644 0.000000 0.145266
O O5 0.937392 0.778363 0.078261
O O6 0.846901 0.000000 0.060969
O O7 0.873801 0.781393 0.990910
O O8 0.934315 0.665957 0.558656
O O9 0.925539 0.856349 0.483054
O O10 0.451132 0.500000 0.916027
O O11 0.433808 0.812045 0.292569
O O12 0.585913 0.767754 0.329871
O O13 0.574173 0.000000 0.279672
O O14 0.185841 0.500000 0.628324
O O15 0.262106 0.741197 0.644265
O O16 0.120006 0.747148 0.602772
O O17 0.327952 0.000000 0.645252
O O18 0.308456 0.500000 0.447302
O O19 0.250000 0.750000 0.500000
#
# Coordination Sequence:
#
# PCOD8091365 Si02
#       8
#     8   8   4   8   8   8   8   8
#     4  10  19  34  56  79 108 150 192 228 275 334
#     4   8  16  31  53  80 112 150 184 224 279 338
#     4  12  24  38  64  90 120 140 184 232 290 334
#     4   9  17  32  53  81 114 145 184 231 281 329
#     4   9  21  40  57  78 112 151 189 229 281 340
#     4  11  23  41  60  82 113 148 185 234 285 333
#     4  11  23  40  62  87 112 148 189 232 286 347
#     4  12  25  40  61  90 119 147 182 227 284 345
#
# _framework density 19.615617
#
# number of rings (size 3 to 8) (size 9 to 14) (size 15 to 20)
#    0.000    1.867    2.667    2.400    0.000    2.667 
#    0.000    5.333    0.000    0.000    0.000    0.000 
#    0.000    0.000    0.000    0.000    0.000    0.000 
#
# Total GULP energy -371762.235549 kJ/mol
# GULP energy per Si atom -12392.074518 kJ/mol
# Density = 1.957097 g / cm^3
# Si number density = 19.615617 Si / 1000 Ang^3
#
#
#
# Elastic Constant Matrix: (Units=GPa)
#
#
# Indices 1 2 3 4 5 6 
#
# 1 119.6591 35.4648 56.4586 0.0000 7.1016 0.0000
# 2 35.4648 76.4727 27.7580 0.0000 -1.1171 0.0000
# 3 56.4586 27.7580 126.7310 0.0000 8.7695 0.0000
# 4 0.0000 0.0000 0.0000 20.1100 0.0000 7.3827
# 5 7.1016 -1.1171 8.7695 0.0000 27.6258 0.0000
# 6 0.0000 0.0000 0.0000 7.3827 0.0000 24.3856
#
#
#
# Elastic Compliance Matrix: (Units=1/GPa)
#
#
# Indices 1 2 3 4 5 6 
#
# 1 0.011591 -0.003881 -0.004189 0.000000 -0.001807 0.000000
# 2 -0.003881 0.015575 -0.001835 0.000000 0.002210 0.000000
# 3 -0.004189 -0.001835 0.010316 0.000000 -0.002272 0.000000
# 4 0.000000 0.000000 0.000000 0.055944 0.000000 -0.016937
# 5 -0.001807 0.002210 -0.002272 0.000000 0.037473 0.000000
# 6 0.000000 0.000000 0.000000 -0.016937 0.000000 0.046136
#
#
# Mechanical properties :
#
#
# Convention : Reuss Voigt Hill
#
# Bulk Modulus (GPa) = 56.58809 62.46950 59.52880
# Shear Modulus (GPa) = 24.66261 27.96971 26.31616
#
# Velocity S-wave (km/s) = 3.54968 3.78019 3.66675
# Velocity P-wave (km/s) = 6.76102 7.13926 6.95272
#
# Compressibility (1/GPa) = 0.01767156
#
# Stress axis : x y z
#
# Youngs Moduli (GPa) = 86.27387 64.20535 96.93747
#
# Poissons Ratio (x) = 0.24921 0.40603
# Poissons Ratio (y) = 0.33487 0.17790
# Poissons Ratio (z) = 0.36137 0.11783
#
# Static dielectric constant tensor:
#      x y z
#    x 3.595080 0.000000 -0.209020 
#    y 0.000000 3.119770 0.000000 
#    z -0.209020 0.000000 3.565800 
# 
# 
# High freq. dielectric constant tensor:
#      x y z
#    x 1.776740 0.000000 -0.003840 
#    y 0.000000 1.733630 0.000000 
#    z -0.003840 0.000000 1.762790 
# 
# From -- ./inp_files/338654.got.cif
#   From: 2010.06.25/outbox.cif.g09.slc.cpg/sg12_170_cif.got.tgz:338654.got - 2010.06.28 00:19:55.
