data_PCOD8091804
_publ_section_title
;
Structure prediction by ZEFSAII (Michael W. Deem and Ramdas Pophale) SiO2 
 PCOD8091804
Probable space group: C 2/M
;
_chemical_formula_sum "Si O2"
_cell_formula_units_Z 48
_cell_length_a 22.769118
_cell_length_b 9.249378
_cell_length_c 12.042821
_cell_angle_alpha 90.000000
_cell_angle_beta 70.015195
_cell_angle_gamma 90.000000
_cell_volume 2383.497426
_symmetry_space_group_name_H-M "C 2/M"
_symmetry_group_IT_number 12
_symmetry_cell_setting 'monoclinic'
loop_
_space_group_symop_operation_xyz
x,y,z
-x,y,-z
-x,-y,-z
x,-y,z
1/2+x,1/2+y,z
1/2-x,1/2+y,-z
1/2-x,1/2-y,-z
1/2+x,1/2-y,z
loop_
_atom_site_type_symbol
_atom_site_label
_atom_site_fract_x
_atom_site_fract_y
_atom_site_fract_z
Si Si1 0.259935 0.663379 0.604102
Si Si2 0.815381 0.830021 0.975348
Si Si3 0.902751 0.836450 0.524740
Si Si4 0.451404 0.169113 0.283304
Si Si5 0.848866 0.669192 0.167708
Si Si6 0.570082 0.333630 0.246836
O O1 0.241145 0.500000 0.587639
O O2 0.250000 0.750000 0.500000
O O3 0.330028 0.678356 0.601491
O O4 0.214350 0.719389 0.729808
O O5 0.852906 0.766421 0.055857
O O6 0.802584 0.000000 0.999429
O O7 0.750000 0.750000 0.000000
O O8 0.860074 0.799639 0.840971
O O9 0.921261 0.729514 0.415306
O O10 0.937553 0.798305 0.617154
O O11 0.918714 0.000000 0.476591
O O12 0.407893 0.205707 0.206838
O O13 0.519039 0.237759 0.215567
O O14 0.459281 0.000000 0.294578
O O15 0.846908 0.500000 0.136758
O O16 0.554222 0.500000 0.233670
#
# Coordination Sequence:
#
# PCOD8091804 Si02
#       6
#     8   8   8   8   8   8
#     4  10  19  34  57  85 118 154 194 243 295 351
#     4  11  24  43  67  91 118 154 199 248 297 356
#     4  10  20  36  60  85 117 160 200 243 298 358
#     4  11  23  38  59  89 123 157 197 250 299 346
#     4  10  22  40  60  87 126 161 196 247 300 351
#     4  10  23  42  61  84 118 160 201 243 296 357
#
# _framework density 20.138473999999999
#
# number of rings (size 3 to 8) (size 9 to 14) (size 15 to 20)
#    0.000    1.667    1.667    2.500    0.000    9.333 
#    0.000    5.000    0.000    0.000    0.000    0.000 
#    0.000    0.000    0.000    0.000    0.000    0.000 
#
# Total GULP energy -297665.937320 kJ/mol
# GULP energy per Si atom -12402.747388 kJ/mol
# Density = 2.009264 g / cm^3
# Si number density = 20.138474 Si / 1000 Ang^3
#
#
#
# Elastic Constant Matrix: (Units=GPa)
#
#
# Indices 1 2 3 4 5 6 
#
# 1 114.2827 60.3199 36.3792 0.0000 2.2215 0.0000
# 2 60.3199 100.6756 55.5249 0.0000 7.7261 0.0000
# 3 36.3792 55.5249 93.2103 0.0000 6.3632 0.0000
# 4 0.0000 0.0000 0.0000 33.6968 0.0000 0.8704
# 5 2.2215 7.7261 6.3632 0.0000 31.6378 0.0000
# 6 0.0000 0.0000 0.0000 0.8704 0.0000 38.1470
#
#
#
# Elastic Compliance Matrix: (Units=1/GPa)
#
#
# Indices 1 2 3 4 5 6 
#
# 1 0.012856 -0.007411 -0.000674 0.000000 0.001043 0.000000
# 2 -0.007411 0.019175 -0.008360 0.000000 -0.002481 0.000000
# 3 -0.000674 -0.008360 0.016050 0.000000 -0.001139 0.000000
# 4 0.000000 0.000000 0.000000 0.029694 0.000000 -0.000678
# 5 0.001043 -0.002481 -0.001139 0.000000 0.032369 0.000000
# 6 0.000000 0.000000 0.000000 -0.000678 0.000000 0.026230
#
#
# Mechanical properties :
#
#
# Convention : Reuss Voigt Hill
#
# Bulk Modulus (GPa) = 65.83624 68.06849 66.95237
# Shear Modulus (GPa) = 28.68166 31.09263 29.88714
#
# Velocity S-wave (km/s) = 3.77798 3.93357 3.85656
# Velocity P-wave (km/s) = 7.19678 7.38269 7.29033
#
# Compressibility (1/GPa) = 0.01518920
#
# Stress axis : x y z
#
# Youngs Moduli (GPa) = 77.78353 52.15257 62.30720
#
# Poissons Ratio (x) = 0.38650 0.04200
# Poissons Ratio (y) = 0.57646 0.52091
# Poissons Ratio (z) = 0.05244 0.43601
#
# Static dielectric constant tensor:
#      x y z
#    x 3.986730 0.000000 -0.052010 
#    y 0.000000 3.579960 0.000000 
#    z -0.052010 0.000000 3.609930 
# 
# 
# High freq. dielectric constant tensor:
#      x y z
#    x 1.802520 0.000000 -0.004230 
#    y 0.000000 1.780840 0.000000 
#    z -0.004230 0.000000 1.785560 
# 
# From -- ./inp_files/172906.got.cif
#   From: 2010.06.25/outbox.cif.g09.slc.cpg/sg12_87_cif.got.tgz:172906.got - 2010.06.28 00:19:55.
