data_PCOD8091181
_publ_section_title
;
Structure prediction by ZEFSAII (Michael W. Deem and Ramdas Pophale) SiO2 
 PCOD8091181
Probable space group: C 2/M
;
_chemical_formula_sum "Si O2"
_cell_formula_units_Z 64
_cell_length_a 30.107173
_cell_length_b 9.207303
_cell_length_c 16.002703
_cell_angle_alpha 90.000000
_cell_angle_beta 132.802116
_cell_angle_gamma 90.000000
_cell_volume 3254.746001
_symmetry_space_group_name_H-M "C 2/M"
_symmetry_group_IT_number 12
_symmetry_cell_setting 'monoclinic'
loop_
_space_group_symop_operation_xyz
x,y,z
-x,y,-z
-x,-y,-z
x,-y,z
1/2+x,1/2+y,z
1/2-x,1/2+y,-z
1/2-x,1/2-y,-z
1/2+x,1/2-y,z
loop_
_atom_site_type_symbol
_atom_site_label
_atom_site_fract_x
_atom_site_fract_y
_atom_site_fract_z
Si Si1 0.455562 0.671234 0.372763
Si Si2 0.839230 0.167271 0.783078
Si Si3 0.228253 0.332767 0.052504
Si Si4 0.875110 0.166082 0.644097
Si Si5 0.109296 0.328214 0.994106
Si Si6 0.489758 0.671090 0.233591
Si Si7 0.835045 0.831424 0.308127
Si Si8 0.700545 0.171085 0.580203
O O1 0.500000 0.738102 0.500000
O O2 0.465292 0.500000 0.381574
O O3 0.471032 0.733152 0.300839
O O4 0.387238 0.714055 0.309651
O O5 0.875646 0.190062 0.743951
O O6 0.770062 0.217307 0.681416
O O7 0.841704 0.000000 0.815929
O O8 0.872011 0.267566 0.892191
O O9 0.233629 0.500000 0.036354
O O10 0.270909 0.294486 0.184968
O O11 0.250000 0.250000 0.000000
O O12 0.160661 0.288212 0.991673
O O13 0.823503 0.266459 0.537903
O O14 0.940327 0.208462 0.691159
O O15 0.858843 0.000000 0.601792
O O16 0.100643 0.500000 0.991200
O O17 0.047697 0.254365 0.885282
O O18 0.476740 0.500000 0.208163
O O19 0.840808 0.738445 0.399403
O O20 0.841669 0.000000 0.341047
O O21 0.692520 0.000000 0.569387
#
# Coordination Sequence:
#
# PCOD8091181 Si02
#       8
#     8   8   8   8   8   8   8   8
#     4   9  17  31  55  85 112 145 192 239 283 334
#     4  10  22  40  61  87 117 153 197 243 293 351
#     4  10  21  35  54  81 111 150 194 236 285 340
#     4  10  22  40  63  87 113 152 199 244 293 352
#     4  11  23  39  59  85 119 156 195 243 295 347
#     4  10  21  39  62  86 115 155 199 244 292 348
#     4  10  19  34  55  79 112 151 190 231 279 345
#     4  11  22  36  58  89 121 151 188 241 300 351
#
# _framework density 19.663592000000001
#
# number of rings (size 3 to 8) (size 9 to 14) (size 15 to 20)
#    0.000    1.875    1.250    2.625    0.000    6.500 
#    0.000    3.125    0.000    1.500    0.000    0.000 
#    0.000    0.000    0.000    0.000    0.000    0.000 
#
# Total GULP energy -396928.039770 kJ/mol
# GULP energy per Si atom -12404.001243 kJ/mol
# Density = 1.961884 g / cm^3
# Si number density = 19.663592 Si / 1000 Ang^3
#
#
#
# Elastic Constant Matrix: (Units=GPa)
#
#
# Indices 1 2 3 4 5 6 
#
# 1 92.7950 35.4217 39.1899 0.0000 -7.5158 0.0000
# 2 35.4217 60.5686 49.5627 0.0000 -2.6404 0.0000
# 3 39.1899 49.5627 106.8808 0.0000 -3.8030 0.0000
# 4 0.0000 0.0000 0.0000 35.2830 0.0000 -4.8995
# 5 -7.5158 -2.6404 -3.8030 0.0000 28.0771 0.0000
# 6 0.0000 0.0000 0.0000 -4.8995 0.0000 24.6877
#
#
#
# Elastic Compliance Matrix: (Units=1/GPa)
#
#
# Indices 1 2 3 4 5 6 
#
# 1 0.014422 -0.006550 -0.002146 0.000000 0.002954 0.000000
# 2 -0.006550 0.029600 -0.011343 0.000000 -0.000506 0.000000
# 3 -0.002146 -0.011343 0.015419 0.000000 0.000447 0.000000
# 4 0.000000 0.000000 0.000000 0.029145 0.000000 0.005784
# 5 0.002954 -0.000506 0.000447 0.000000 0.036420 0.000000
# 6 0.000000 0.000000 0.000000 0.005784 0.000000 0.041654
#
#
# Mechanical properties :
#
#
# Convention : Reuss Voigt Hill
#
# Bulk Modulus (GPa) = 51.64020 56.51035 54.07528
# Shear Modulus (GPa) = 23.45313 26.68089 25.06701
#
# Velocity S-wave (km/s) = 3.45732 3.68756 3.57430
# Velocity P-wave (km/s) = 6.50048 6.85068 6.67788
#
# Compressibility (1/GPa) = 0.01936476
#
# Stress axis : x y z
#
# Youngs Moduli (GPa) = 69.33820 33.78371 64.85625
#
# Poissons Ratio (x) = 0.22127 0.13917
# Poissons Ratio (y) = 0.45414 0.73564
# Poissons Ratio (z) = 0.14879 0.38319
#
# Static dielectric constant tensor:
#      x y z
#    x 3.662790 0.000000 0.034440 
#    y 0.000000 3.385220 0.000000 
#    z 0.034440 0.000000 3.589390 
# 
# 
# High freq. dielectric constant tensor:
#      x y z
#    x 1.775680 0.000000 -0.002170 
#    y 0.000000 1.744730 0.000000 
#    z -0.002170 0.000000 1.772960 
# 
# From -- ./inp_files/249829.got.cif
#   From: 2010.06.25/outbox.cif.g09.slc.cpg/sg12_125_cif.got.tgz:249829.got - 2010.06.28 00:19:55.
