data_PCOD8091861
_publ_section_title
;
Structure prediction by ZEFSAII (Michael W. Deem and Ramdas Pophale) SiO2 
 PCOD8091861
Probable space group: C 2/M
;
_chemical_formula_sum "Si O2"
_cell_formula_units_Z 64
_cell_length_a 20.582968
_cell_length_b 8.993502
_cell_length_c 20.459836
_cell_angle_alpha 90.000000
_cell_angle_beta 63.762304
_cell_angle_gamma 90.000000
_cell_volume 3397.158320
_symmetry_space_group_name_H-M "C 2/M"
_symmetry_group_IT_number 12
_symmetry_cell_setting 'monoclinic'
loop_
_space_group_symop_operation_xyz
x,y,z
-x,y,-z
-x,-y,-z
x,-y,z
1/2+x,1/2+y,z
1/2-x,1/2+y,-z
1/2-x,1/2-y,-z
1/2+x,1/2-y,z
loop_
_atom_site_type_symbol
_atom_site_label
_atom_site_fract_x
_atom_site_fract_y
_atom_site_fract_z
Si Si1 0.458570 0.327906 0.340403
Si Si2 0.706920 0.676474 0.849828
Si Si3 0.487414 0.670877 0.828049
Si Si4 0.733695 0.170675 0.314720
Si Si5 0.409511 0.828869 0.683732
Si Si6 0.793041 0.175588 0.422892
Si Si7 0.443898 0.826427 0.081305
Si Si8 0.840316 0.171868 0.835363
O O1 0.473494 0.500000 0.348212
O O2 0.475771 0.289780 0.257472
O O3 0.509252 0.229641 0.366771
O O4 0.376876 0.282962 0.392865
O O5 0.706460 0.500000 0.853410
O O6 0.729894 0.736952 0.767438
O O7 0.629033 0.738648 0.903083
O O8 0.766114 0.734639 0.876726
O O9 0.504526 0.500000 0.838774
O O10 0.523085 0.778547 0.864458
O O11 0.400010 0.697696 0.866014
O O12 0.645876 0.188077 0.352567
O O13 0.764218 0.245205 0.367059
O O14 0.757255 0.000000 0.305776
O O15 0.380049 0.721387 0.752324
O O16 0.410717 0.000000 0.706908
O O17 0.750000 0.250000 0.500000
O O18 0.779854 0.000000 0.431173
O O19 0.426379 0.000000 0.091301
O O20 0.500000 0.784807 0.000000
O O21 0.819135 0.000000 0.839741
#
# Coordination Sequence:
#
# PCOD8091861 Si02
#       8
#     8   8   8   8   8   8   8   8
#     4   9  18  33  53  76 103 133 163 207 263 305
#     4  10  19  34  58  82 102 132 175 214 254 307
#     4   9  18  34  57  80 101 133 173 209 253 308
#     4   8  16  32  53  75  99 128 163 206 251 295
#     4   9  16  28  50  78 102 128 167 209 249 300
#     4  10  20  35  51  69  99 135 170 208 252 300
#     4  11  24  38  51  73 107 141 172 212 260 304
#     4   9  17  31  52  80 111 135 161 207 263 307
#
# _framework density 18.839275000000001
#
# number of rings (size 3 to 8) (size 9 to 14) (size 15 to 20)
#    0.000    2.625    0.000    3.750    0.000    6.000 
#    0.000    6.250    0.000    3.750    0.000    0.000 
#    0.000    0.000    0.000    0.000    0.000    0.000 
#
# Total GULP energy -396620.156471 kJ/mol
# GULP energy per Si atom -12394.379890 kJ/mol
# Density = 1.879640 g / cm^3
# Si number density = 18.839275 Si / 1000 Ang^3
#
#
#
# Elastic Constant Matrix: (Units=GPa)
#
#
# Indices 1 2 3 4 5 6 
#
# 1 123.5552 48.7294 39.7112 0.0000 -36.1821 0.0001
# 2 48.7294 63.2145 29.0896 -0.0001 -18.5342 -0.0001
# 3 39.7112 29.0896 61.4651 0.0000 -23.4100 0.0000
# 4 0.0000 -0.0001 0.0000 24.6456 0.0000 -3.9110
# 5 -36.1821 -18.5342 -23.4100 0.0000 18.7305 0.0000
# 6 0.0001 -0.0001 0.0000 -3.9110 0.0000 37.0907
#
#
#
# Elastic Compliance Matrix: (Units=1/GPa)
#
#
# Indices 1 2 3 4 5 6 
#
# 1 0.020712 -0.006594 0.004757 0.000000 0.039431 0.000000
# 2 -0.006594 0.024939 -0.005716 0.000000 0.004794 0.000000
# 3 0.004757 -0.005716 0.032915 0.000000 0.044671 0.000000
# 4 0.000000 0.000000 0.000000 0.041266 0.000000 0.004351
# 5 0.039431 0.004794 0.044671 0.000000 0.190134 0.000000
# 6 0.000000 0.000000 0.000000 0.004351 0.000000 0.027420
#
#
# Mechanical properties :
#
#
# Convention : Reuss Voigt Hill
#
# Bulk Modulus (GPa) = 15.75824 53.69945 34.72884
# Shear Modulus (GPa) = 13.38166 24.80702 19.09434
#
# Velocity S-wave (km/s) = 2.66805 3.63267 3.18707
# Velocity P-wave (km/s) = 4.22777 6.79418 5.65840
#
# Compressibility (1/GPa) = 0.06345887
#
# Stress axis : x y z
#
# Youngs Moduli (GPa) = 48.28027 40.09845 30.38111
#
# Poissons Ratio (x) = 0.26443 -0.14452
# Poissons Ratio (y) = 0.31838 0.17366
# Poissons Ratio (z) = -0.22967 0.22921
#
# Static dielectric constant tensor:
#      x y z
#    x 4.049060 0.000000 -0.105990 
#    y 0.000000 3.383380 0.000000 
#    z -0.105990 0.000000 3.152550 
# 
# 
# High freq. dielectric constant tensor:
#      x y z
#    x 1.755480 0.000000 -0.012150 
#    y 0.000000 1.723480 0.000000 
#    z -0.012150 0.000000 1.688310 
# 
# From -- ./inp_files/319910.got.cif
#   From: 2010.06.25/outbox.cif.g09.slc.cpg/sg12_160_cif.got.tgz:319910.got - 2010.06.28 00:19:55.
