data_PCOD8091765
_publ_section_title
;
Structure prediction by ZEFSAII (Michael W. Deem and Ramdas Pophale) SiO2 
 PCOD8091765
Probable space group: C 2/M
;
_chemical_formula_sum "Si O2"
_cell_formula_units_Z 56
_cell_length_a 19.355202
_cell_length_b 8.609839
_cell_length_c 25.510172
_cell_angle_alpha 90.000000
_cell_angle_beta 40.691661
_cell_angle_gamma 90.000000
_cell_volume 2771.697085
_symmetry_space_group_name_H-M "C 2/M"
_symmetry_group_IT_number 12
_symmetry_cell_setting 'monoclinic'
loop_
_space_group_symop_operation_xyz
x,y,z
-x,y,-z
-x,-y,-z
x,-y,z
1/2+x,1/2+y,z
1/2-x,1/2+y,-z
1/2-x,1/2-y,-z
1/2+x,1/2-y,z
loop_
_atom_site_type_symbol
_atom_site_label
_atom_site_fract_x
_atom_site_fract_y
_atom_site_fract_z
Si Si1 0.820655 0.315771 0.506478
Si Si2 0.065004 0.683754 0.360699
Si Si3 0.443866 0.826187 0.189585
Si Si4 0.412041 0.825615 0.089500
Si Si5 0.720850 0.315216 0.356292
Si Si6 0.669311 0.186010 0.089504
Si Si7 0.200441 0.679781 0.187536
O O1 0.807501 0.500000 0.516406
O O2 0.750000 0.250000 0.500000
O O3 0.783231 0.240731 0.581959
O O4 0.942759 0.266713 0.428741
O O5 0.078728 0.500000 0.356659
O O6 0.122450 0.753075 0.378838
O O7 0.116099 0.750932 0.277405
O O8 0.462481 0.826600 0.117252
O O9 0.332402 0.746428 0.269640
O O10 0.550242 0.746071 0.150310
O O11 0.438491 0.000000 0.215541
O O12 0.314946 0.708583 0.145742
O O13 0.376245 0.000000 0.093495
O O14 0.500000 0.758865 0.000000
O O15 0.717072 0.500000 0.355190
O O16 0.698242 0.251738 0.130495
O O17 0.671951 0.000000 0.084017
O O18 0.750000 0.250000 0.000000
O O19 0.175668 0.500000 0.196548
#
# Coordination Sequence:
#
# PCOD8091765 Si02
#       7
#     8   8   8   8   8   8   8
#     4  11  25  43  65  93 124 158 197 243 298 356
#     4  10  22  41  63  88 122 160 197 244 301 357
#     4   9  19  35  57  84 115 154 195 239 291 348
#     4  10  19  34  57  84 114 151 194 240 288 340
#     4  11  22  39  65  92 122 160 201 244 295 356
#     4  10  21  38  58  81 114 155 199 243 296 353
#     4  10  21  36  58  85 114 152 194 240 294 350
#
# _framework density 20.204229000000002
#
# number of rings (size 3 to 8) (size 9 to 14) (size 15 to 20)
#    0.000    1.857    1.429    2.143    2.000    4.857 
#    0.000    2.143    0.000    0.000    0.000    0.000 
#    0.000    0.000    0.000    0.000    0.000    0.000 
#
# Total GULP energy -347100.811835 kJ/mol
# GULP energy per Si atom -12396.457566 kJ/mol
# Density = 2.015824 g / cm^3
# Si number density = 20.204229 Si / 1000 Ang^3
#
#
#
# Elastic Constant Matrix: (Units=GPa)
#
#
# Indices 1 2 3 4 5 6 
#
# 1 135.0253 26.3051 59.1106 -0.0001 -1.5041 -0.0005
# 2 26.3051 32.9713 25.1478 -0.0002 -1.2928 -0.0011
# 3 59.1106 25.1478 150.2220 -0.0002 1.2085 0.0002
# 4 -0.0001 -0.0002 -0.0002 27.9059 0.0001 2.0128
# 5 -1.5041 -1.2928 1.2085 0.0001 44.5835 0.0000
# 6 -0.0005 -0.0011 0.0002 2.0128 0.0000 27.1887
#
#
#
# Elastic Compliance Matrix: (Units=1/GPa)
#
#
# Indices 1 2 3 4 5 6 
#
# 1 0.009768 -0.005560 -0.002915 0.000000 0.000247 0.000000
# 2 -0.005560 0.037995 -0.004181 0.000000 0.001028 0.000002
# 3 -0.002915 -0.004181 0.008507 0.000000 -0.000450 0.000000
# 4 0.000000 0.000000 0.000000 0.036027 0.000000 -0.002667
# 5 0.000247 0.001028 -0.000450 0.000000 0.022480 0.000000
# 6 0.000000 0.000002 0.000000 -0.002667 0.000000 0.036977
#
#
# Mechanical properties :
#
#
# Convention : Reuss Voigt Hill
#
# Bulk Modulus (GPa) = 32.30168 59.92727 46.11447
# Shear Modulus (GPa) = 26.68295 33.77929 30.23112
#
# Velocity S-wave (km/s) = 3.63803 4.09331 3.87237
# Velocity P-wave (km/s) = 5.80253 7.21564 6.54732
#
# Compressibility (1/GPa) = 0.03095814
#
# Stress axis : x y z
#
# Youngs Moduli (GPa) = 102.37486 26.31954 117.54668
#
# Poissons Ratio (x) = 0.14634 0.34262
# Poissons Ratio (y) = 0.56923 0.49144
# Poissons Ratio (z) = 0.29840 0.11004
#
# Static dielectric constant tensor:
#      x y z
#    x 3.779510 0.000000 0.035350 
#    y 0.000000 3.437310 0.000000 
#    z 0.035350 0.000000 3.986810 
# 
# 
# High freq. dielectric constant tensor:
#      x y z
#    x 1.800610 0.000000 0.003050 
#    y 0.000000 1.759680 0.000000 
#    z 0.003050 0.000000 1.808300 
# 
# From -- ./inp_files/362915.got.cif
#   From: 2010.06.25/outbox.cif.g09.slc.cpg/sg12_182_cif.got.tgz:362915.got - 2010.06.28 00:19:55.
