data_PCOD8091916
_publ_section_title
;
Structure prediction by ZEFSAII (Michael W. Deem and Ramdas Pophale) SiO2 
 PCOD8091916
Probable space group: C 2/M
;
_chemical_formula_sum "Si O2"
_cell_formula_units_Z 48
_cell_length_a 29.521395
_cell_length_b 8.961748
_cell_length_c 14.872690
_cell_angle_alpha 90.000000
_cell_angle_beta 141.315009
_cell_angle_gamma 90.000000
_cell_volume 2459.380283
_symmetry_space_group_name_H-M "C 2/M"
_symmetry_group_IT_number 12
_symmetry_cell_setting 'monoclinic'
loop_
_space_group_symop_operation_xyz
x,y,z
-x,y,-z
-x,-y,-z
x,-y,z
1/2+x,1/2+y,z
1/2-x,1/2+y,-z
1/2-x,1/2-y,-z
1/2+x,1/2-y,z
loop_
_atom_site_type_symbol
_atom_site_label
_atom_site_fract_x
_atom_site_fract_y
_atom_site_fract_z
Si Si1 0.806043 0.831423 0.835397
Si Si2 0.466163 0.668699 0.036123
Si Si3 0.818298 0.820633 0.056215
Si Si4 0.464933 0.826422 0.352782
Si Si5 0.051738 0.328331 0.314206
Si Si6 0.787132 0.678967 0.470501
O O1 0.748798 0.758267 0.677713
O O2 0.781602 0.000000 0.815286
O O3 0.880446 0.822296 0.896035
O O4 0.812696 0.758315 0.944645
O O5 0.494681 0.500000 0.087590
O O6 0.489468 0.751583 0.161179
O O7 0.500000 0.745677 0.000000
O O8 0.893087 0.766271 0.217065
O O9 0.816775 0.000000 0.058667
O O10 0.750000 0.750000 0.000000
O O11 0.500000 0.770047 0.500000
O O12 0.530327 0.800077 0.384045
O O13 0.442332 0.000000 0.322868
O O14 0.050836 0.500000 0.287895
O O15 0.130371 0.264289 0.409903
O O16 0.779852 0.500000 0.465180
O O17 0.750000 0.750000 0.500000
#
# Coordination Sequence:
#
# PCOD8091916 Si02
#       6
#     8   8   8   8   8   8
#     4   9  19  36  58  82 113 151 189 233 285 343
#     4  10  19  34  58  84 110 147 190 231 282 344
#     4  11  23  40  63  89 119 155 196 244 295 351
#     4  10  22  40  63  89 118 155 196 240 297 359
#     4  10  21  36  57  85 116 148 187 239 289 341
#     4  10  21  38  58  83 115 153 195 235 284 341
#
# _framework density 19.517112999999998
#
# number of rings (size 3 to 8) (size 9 to 14) (size 15 to 20)
#    0.000    2.000    1.667    1.500    2.333    2.667 
#    0.000    2.500    0.000    0.000    0.000    0.000 
#    0.000    0.000    0.000    0.000    0.000    0.000 
#
# Total GULP energy -297508.478607 kJ/mol
# GULP energy per Si atom -12396.186609 kJ/mol
# Density = 1.947269 g / cm^3
# Si number density = 19.517113 Si / 1000 Ang^3
#
#
#
# Elastic Constant Matrix: (Units=GPa)
#
#
# Indices 1 2 3 4 5 6 
#
# 1 108.0900 33.3304 35.7237 0.0000 -0.6731 0.0000
# 2 33.3304 42.0352 31.4196 0.0000 2.3357 0.0000
# 3 35.7237 31.4196 116.9283 0.0000 -6.9568 0.0000
# 4 0.0000 0.0000 0.0000 26.9948 0.0000 -0.5554
# 5 -0.6731 2.3357 -6.9568 0.0000 39.0580 0.0000
# 6 0.0000 0.0000 0.0000 -0.5554 0.0000 27.4104
#
#
#
# Elastic Compliance Matrix: (Units=1/GPa)
#
#
# Indices 1 2 3 4 5 6 
#
# 1 0.012445 -0.008854 -0.001394 0.000000 0.000496 0.000000
# 2 -0.008854 0.036479 -0.007313 0.000000 -0.003637 0.000000
# 3 -0.001394 -0.007313 0.011085 0.000000 0.002388 0.000000
# 4 0.000000 0.000000 0.000000 0.037060 0.000000 0.000751
# 5 0.000496 -0.003637 0.002388 0.000000 0.026254 0.000000
# 6 0.000000 0.000000 0.000000 0.000751 0.000000 0.036498
#
#
# Mechanical properties :
#
#
# Convention : Reuss Voigt Hill
#
# Bulk Modulus (GPa) = 40.18136 52.00009 46.09073
# Shear Modulus (GPa) = 24.60156 29.79797 27.19976
#
# Velocity S-wave (km/s) = 3.55422 3.91162 3.73719
# Velocity P-wave (km/s) = 6.12175 6.86310 6.50300
#
# Compressibility (1/GPa) = 0.02488716
#
# Stress axis : x y z
#
# Youngs Moduli (GPa) = 80.35058 27.41323 90.20974
#
# Poissons Ratio (x) = 0.24272 0.12572
# Poissons Ratio (y) = 0.71143 0.65974
# Poissons Ratio (z) = 0.11198 0.20048
#
# Static dielectric constant tensor:
#      x y z
#    x 3.750100 0.000000 -0.072300 
#    y 0.000000 3.342850 0.000000 
#    z -0.072300 0.000000 3.724120 
# 
# 
# High freq. dielectric constant tensor:
#      x y z
#    x 1.777660 0.000000 -0.001850 
#    y 0.000000 1.729810 0.000000 
#    z -0.001850 0.000000 1.771270 
# 
# From -- ./inp_files/244869.got.cif
#   From: 2010.06.25/outbox.cif.g09.slc.cpg/sg12_123_cif.got.tgz:244869.got - 2010.06.28 00:19:55.
