data_PCOD8091662
_publ_section_title
;
Structure prediction by ZEFSAII (Michael W. Deem and Ramdas Pophale) SiO2 
 PCOD8091662
Probable space group: C 2/M
;
_chemical_formula_sum "Si O2"
_cell_formula_units_Z 40
_cell_length_a 27.482459
_cell_length_b 8.841940
_cell_length_c 26.004522
_cell_angle_alpha 90.000000
_cell_angle_beta 19.284924
_cell_angle_gamma 90.000000
_cell_volume 2086.968771
_symmetry_space_group_name_H-M "C 2/M"
_symmetry_group_IT_number 12
_symmetry_cell_setting 'monoclinic'
loop_
_space_group_symop_operation_xyz
x,y,z
-x,y,-z
-x,-y,-z
x,-y,z
1/2+x,1/2+y,z
1/2-x,1/2+y,-z
1/2-x,1/2-y,-z
1/2+x,1/2-y,z
loop_
_atom_site_type_symbol
_atom_site_label
_atom_site_fract_x
_atom_site_fract_y
_atom_site_fract_z
Si Si1 0.425803 0.178964 0.429638
Si Si2 0.592589 0.323733 0.765826
Si Si3 0.909986 0.823196 0.640226
Si Si4 0.898690 0.825827 0.051670
Si Si5 0.591771 0.323456 0.654026
O O1 0.259006 0.242852 0.603683
O O2 0.527744 0.231398 0.373997
O O3 0.493333 0.244957 0.308620
O O4 0.428563 0.000000 0.422870
O O5 0.608140 0.500000 0.761825
O O6 0.518718 0.294549 0.783201
O O7 0.486439 0.255270 0.915306
O O8 0.742421 0.776948 0.798061
O O9 0.000000 0.776574 0.500000
O O10 0.922495 0.000000 0.639330
O O11 0.851544 0.000000 0.089145
O O12 0.000000 0.811905 0.000000
O O13 0.606148 0.500000 0.628345
O O14 0.750000 0.250000 0.500000
#
# Coordination Sequence:
#
# PCOD8091662 Si02
#       5
#     8   8   8   8   8
#     4  10  19  34  57  82 107 139 181 223 265 312
#     4   8  16  31  53  81 109 138 175 219 262 308
#     4  11  24  39  54  77 109 141 174 216 268 323
#     4  10  20  36  58  81 105 137 178 220 263 314
#     4   9  16  29  50  78 112 145 179 218 261 311
#
# _framework density 19.166554999999999
#
# number of rings (size 3 to 8) (size 9 to 14) (size 15 to 20)
#    0.000    2.400    0.000    4.200    0.000    3.600 
#    0.000    7.000    0.000    0.000    0.000    0.000 
#    0.000    0.000    0.000    0.000    0.000    0.000 
#
# Total GULP energy -247913.629479 kJ/mol
# GULP energy per Si atom -12395.681474 kJ/mol
# Density = 1.912293 g / cm^3
# Si number density = 19.166555 Si / 1000 Ang^3
#
#
#
# Elastic Constant Matrix: (Units=GPa)
#
#
# Indices 1 2 3 4 5 6 
#
# 1 143.0901 47.5140 46.6678 -0.0002 17.1771 0.0006
# 2 47.5140 68.1204 24.3327 0.0773 6.4457 -0.0235
# 3 46.6678 24.3327 88.1487 0.0657 14.0411 -0.0203
# 4 -0.0002 0.0773 0.0657 20.4113 -0.0180 -3.3016
# 5 17.1771 6.4457 14.0411 -0.0180 32.0635 0.0043
# 6 0.0006 -0.0235 -0.0203 -3.3016 0.0043 27.2456
#
#
#
# Elastic Compliance Matrix: (Units=1/GPa)
#
#
# Indices 1 2 3 4 5 6 
#
# 1 0.010359 -0.005721 -0.003444 0.000030 -0.002891 -0.000004
# 2 -0.005721 0.019505 -0.002385 -0.000065 0.000189 0.000007
# 3 -0.003444 -0.002385 0.014465 -0.000040 -0.004010 0.000005
# 4 0.000030 -0.000065 -0.000040 0.049972 0.000042 0.006056
# 5 -0.002891 0.000189 -0.004010 0.000042 0.034455 -0.000003
# 6 -0.000004 0.000007 0.000005 0.006056 -0.000003 0.037437
#
#
# Mechanical properties :
#
#
# Convention : Reuss Voigt Hill
#
# Bulk Modulus (GPa) = 47.10980 59.59869 53.35424
# Shear Modulus (GPa) = 25.46206 28.00038 26.73122
#
# Velocity S-wave (km/s) = 3.64876 3.82632 3.73859
# Velocity P-wave (km/s) = 6.51029 7.11924 6.82156
#
# Compressibility (1/GPa) = 0.02122701
#
# Stress axis : x y z
#
# Youngs Moduli (GPa) = 96.53581 51.26939 69.13191
#
# Poissons Ratio (x) = 0.29334 0.23811
# Poissons Ratio (y) = 0.55233 0.16488
# Poissons Ratio (z) = 0.33250 0.12228
#
# Static dielectric constant tensor:
#      x y z
#    x 3.995020 -0.000020 0.366780 
#    y -0.000020 3.474520 0.000020 
#    z 0.366780 0.000020 3.457360 
# 
# 
# High freq. dielectric constant tensor:
#      x y z
#    x 1.767580 0.000000 0.014590 
#    y 0.000000 1.732200 0.000000 
#    z 0.014590 0.000000 1.717860 
# 
# From -- ./inp_files/92760.got.cif
#   From: 2010.06.25/outbox.cif.g09.slc.cpg/sg12_47_cif.got.tgz:92760.got - 2010.06.28 00:19:55.
