data_PCOD8091228
_publ_section_title
;
Structure prediction by ZEFSAII (Michael W. Deem and Ramdas Pophale) SiO2 
 PCOD8091228
Probable space group: C 2/M
;
_chemical_formula_sum "Si O2"
_cell_formula_units_Z 48
_cell_length_a 20.329720
_cell_length_b 8.848949
_cell_length_c 14.923313
_cell_angle_alpha 90.000000
_cell_angle_beta 99.346596
_cell_angle_gamma 90.000000
_cell_volume 2649.012536
_symmetry_space_group_name_H-M "C 2/M"
_symmetry_group_IT_number 12
_symmetry_cell_setting 'monoclinic'
loop_
_space_group_symop_operation_xyz
x,y,z
-x,y,-z
-x,-y,-z
x,-y,z
1/2+x,1/2+y,z
1/2-x,1/2+y,-z
1/2-x,1/2-y,-z
1/2+x,1/2-y,z
loop_
_atom_site_type_symbol
_atom_site_label
_atom_site_fract_x
_atom_site_fract_y
_atom_site_fract_z
Si Si1 0.290610 0.679170 0.928314
Si Si2 0.700534 0.820536 0.559919
Si Si3 0.940324 0.320396 0.546121
Si Si4 0.235556 0.674952 0.260924
Si Si5 0.059890 0.821541 0.074505
Si Si6 0.082364 0.326122 0.262135
O O1 0.284673 0.500000 0.930234
O O2 0.256516 0.740489 0.831194
O O3 0.368361 0.731403 0.948692
O O4 0.250000 0.750000 0.000000
O O5 0.750000 0.750000 0.500000
O O6 0.627271 0.767649 0.515546
O O7 0.713055 0.753650 0.660738
O O8 0.709003 0.000000 0.562592
O O9 0.943368 0.500000 0.550037
O O10 0.945560 0.261264 0.649857
O O11 0.000000 0.251990 0.500000
O O12 0.254240 0.500000 0.252703
O O13 0.161688 0.694909 0.283537
O O14 0.049427 0.764296 0.173286
O O15 0.056416 0.000000 0.076537
O O16 0.000000 0.755797 0.000000
O O17 0.063161 0.500000 0.244014
#
# Coordination Sequence:
#
# PCOD8091228 Si02
#       6
#     8   8   8   8   8   8
#     4  10  20  36  57  81 109 142 174 216 269 318
#     4  11  20  33  55  81 107 139 179 221 263 315
#     4   9  18  34  53  75 108 141 172 216 266 311
#     4  10  19  34  55  81 108 138 179 223 263 312
#     4   9  19  36  56  77 104 138 174 216 267 315
#     4   9  17  32  54  78 102 136 178 216 258 309
#
# _framework density 18.119959999999999
#
# number of rings (size 3 to 8) (size 9 to 14) (size 15 to 20)
#    0.000    2.333    1.667    1.500    0.000    1.667 
#    3.000    0.000    0.000    3.500    0.000    0.000 
#    0.000    0.000    0.000    0.000    0.000    0.000 
#
# Total GULP energy -297600.171232 kJ/mol
# GULP energy per Si atom -12400.007135 kJ/mol
# Density = 1.807872 g / cm^3
# Si number density = 18.119960 Si / 1000 Ang^3
#
#
#
# Elastic Constant Matrix: (Units=GPa)
#
#
# Indices 1 2 3 4 5 6 
#
# 1 115.4535 35.1761 93.4262 0.0000 1.6610 0.0000
# 2 35.1761 50.9806 40.5697 0.0000 1.3087 0.0000
# 3 93.4262 40.5697 179.3318 0.0000 0.2012 0.0000
# 4 0.0000 0.0000 0.0000 36.1440 0.0000 1.5355
# 5 1.6610 1.3087 0.2012 0.0000 38.2386 0.0000
# 6 0.0000 0.0000 0.0000 1.5355 0.0000 18.9487
#
#
#
# Elastic Compliance Matrix: (Units=1/GPa)
#
#
# Indices 1 2 3 4 5 6 
#
# 1 0.016121 -0.005400 -0.007176 0.000000 -0.000478 0.000000
# 2 -0.005400 0.025755 -0.003012 0.000000 -0.000631 0.000000
# 3 -0.007176 -0.003012 0.009996 0.000000 0.000362 0.000000
# 4 0.000000 0.000000 0.000000 0.027763 0.000000 -0.002250
# 5 -0.000478 -0.000631 0.000362 0.000000 0.026192 0.000000
# 6 0.000000 0.000000 0.000000 -0.002250 0.000000 0.052956
#
#
# Mechanical properties :
#
#
# Convention : Reuss Voigt Hill
#
# Bulk Modulus (GPa) = 48.32339 76.01221 62.16780
# Shear Modulus (GPa) = 25.39902 30.43919 27.91911
#
# Velocity S-wave (km/s) = 3.74801 4.10307 3.92955
# Velocity P-wave (km/s) = 6.74215 8.03041 7.41431
#
# Compressibility (1/GPa) = 0.02069391
#
# Stress axis : x y z
#
# Youngs Moduli (GPa) = 62.03197 38.82768 100.04101
#
# Poissons Ratio (x) = 0.20968 0.71791
# Poissons Ratio (y) = 0.33498 0.30136
# Poissons Ratio (z) = 0.44515 0.11696
#
# Static dielectric constant tensor:
#      x y z
#    x 2.335100 0.000000 -1.055730 
#    y 0.000000 3.238970 0.000000 
#    z -1.055730 0.000000 2.424430 
# 
# 
# High freq. dielectric constant tensor:
#      x y z
#    x 1.687240 0.000000 0.003430 
#    y 0.000000 1.691210 0.000000 
#    z 0.003430 0.000000 1.716430 
# 
# From -- ./inp_files/221572.got.cif
#   From: 2010.06.25/outbox.cif.g09.slc.cpg/sg12_111_cif.got.tgz:221572.got - 2010.06.28 00:19:55.
