data_PCOD8091532
_publ_section_title
;
Structure prediction by ZEFSAII (Michael W. Deem and Ramdas Pophale) SiO2 
 PCOD8091532
Probable space group: C 2/M
;
_chemical_formula_sum "Si O2"
_cell_formula_units_Z 56
_cell_length_a 26.452838
_cell_length_b 8.582919
_cell_length_c 14.413489
_cell_angle_alpha 90.000000
_cell_angle_beta 122.889030
_cell_angle_gamma 90.000000
_cell_volume 2747.975737
_symmetry_space_group_name_H-M "C 2/M"
_symmetry_group_IT_number 12
_symmetry_cell_setting 'monoclinic'
loop_
_space_group_symop_operation_xyz
x,y,z
-x,y,-z
-x,-y,-z
x,-y,z
1/2+x,1/2+y,z
1/2-x,1/2+y,-z
1/2-x,1/2-y,-z
1/2+x,1/2-y,z
loop_
_atom_site_type_symbol
_atom_site_label
_atom_site_fract_x
_atom_site_fract_y
_atom_site_fract_z
Si Si1 0.501467 0.817474 0.394310
Si Si2 0.386232 0.819385 0.162028
Si Si3 0.847563 0.181912 0.945133
Si Si4 0.717492 0.681756 0.826113
Si Si5 0.890157 0.183503 0.610856
Si Si6 0.147280 0.684175 0.242725
Si Si7 0.782052 0.182988 0.381590
O O1 0.500000 0.766559 0.500000
O O2 0.438332 0.769942 0.285203
O O3 0.552606 0.720686 0.394112
O O4 0.515287 0.000000 0.397903
O O5 0.321948 0.782406 0.143299
O O6 0.390117 0.000000 0.141376
O O7 0.394139 0.723120 0.074112
O O8 0.787115 0.276574 0.908003
O O9 0.875639 0.236924 0.875198
O O10 0.833736 0.000000 0.928100
O O11 0.708277 0.500000 0.838740
O O12 0.697057 0.725153 0.701526
O O13 0.896326 0.265512 0.717095
O O14 0.830533 0.254277 0.501128
O O15 0.885142 0.000000 0.620133
O O16 0.146335 0.500000 0.227479
O O17 0.214793 0.747943 0.332765
O O18 0.780449 0.000000 0.392906
#
# Coordination Sequence:
#
# PCOD8091532 Si02
#       7
#     8   8   8   8   8   8   8
#     4  10  23  42  61  83 112 147 187 229 275 328
#     4  11  22  37  57  81 111 148 189 231 278 330
#     4  11  22  37  57  83 114 146 185 231 280 332
#     4  10  19  34  56  84 117 150 186 227 277 332
#     4  11  21  35  57  85 115 148 188 230 277 329
#     4  10  20  37  58  82 115 150 186 228 277 331
#     4   8  17  32  53  83 116 149 183 224 273 328
#
# _framework density 20.378637999999999
#
# number of rings (size 3 to 8) (size 9 to 14) (size 15 to 20)
#    0.000    1.857    0.000    5.571    0.000    1.429 
#    0.000    7.857    0.000    4.286    0.000    0.000 
#    0.000    0.000    0.000    0.000    0.000    0.000 
#
# Total GULP energy -347275.105490 kJ/mol
# GULP energy per Si atom -12402.682339 kJ/mol
# Density = 2.033226 g / cm^3
# Si number density = 20.378638 Si / 1000 Ang^3
#
#
#
# Elastic Constant Matrix: (Units=GPa)
#
#
# Indices 1 2 3 4 5 6 
#
# 1 82.0168 21.8038 42.9767 0.0000 -25.6878 0.0000
# 2 21.8038 60.5961 33.4512 0.0000 -9.1338 0.0000
# 3 42.9767 33.4512 135.7931 0.0000 -24.7413 0.0000
# 4 0.0000 0.0000 0.0000 27.2798 0.0000 -5.3004
# 5 -25.6878 -9.1338 -24.7413 0.0000 29.0146 0.0000
# 6 0.0000 0.0000 0.0000 -5.3004 0.0000 33.0542
#
#
#
# Elastic Compliance Matrix: (Units=1/GPa)
#
#
# Indices 1 2 3 4 5 6 
#
# 1 0.018572 -0.003217 -0.002692 0.000000 0.013134 0.000000
# 2 -0.003217 0.019796 -0.003838 0.000000 0.000111 0.000000
# 3 -0.002692 -0.003838 0.010072 0.000000 0.004997 0.000000
# 4 0.000000 0.000000 0.000000 0.037836 0.000000 0.006067
# 5 0.013134 0.000111 0.004997 0.000000 0.050389 0.000000
# 6 0.000000 0.000000 0.000000 0.006067 0.000000 0.031226
#
#
# Mechanical properties :
#
#
# Convention : Reuss Voigt Hill
#
# Bulk Modulus (GPa) = 34.54762 52.76326 43.65544
# Shear Modulus (GPa) = 25.37622 29.88135 27.62878
#
# Velocity S-wave (km/s) = 3.53262 3.83339 3.68608
# Velocity P-wave (km/s) = 5.79904 6.74840 6.29165
#
# Compressibility (1/GPa) = 0.02894555
#
# Stress axis : x y z
#
# Youngs Moduli (GPa) = 53.84375 50.51603 99.28342
#
# Poissons Ratio (x) = 0.16249 0.26732
# Poissons Ratio (y) = 0.17319 0.38107
# Poissons Ratio (z) = 0.14497 0.19389
#
# Static dielectric constant tensor:
#      x y z
#    x 3.524630 0.000000 -0.115210 
#    y 0.000000 3.481580 0.000000 
#    z -0.115210 0.000000 4.081810 
# 
# 
# High freq. dielectric constant tensor:
#      x y z
#    x 1.780170 0.000000 -0.020120 
#    y 0.000000 1.788780 0.000000 
#    z -0.020120 0.000000 1.805320 
# 
# From -- ./inp_files/238925.got.cif
#   From: 2010.06.25/outbox.cif.g09.slc.cpg/sg12_120_cif.got.tgz:238925.got - 2010.06.28 00:19:55.
