data_PCOD8091055
_publ_section_title
;
Structure prediction by ZEFSAII (Michael W. Deem and Ramdas Pophale) SiO2 
 PCOD8091055
Probable space group: C 2/M
;
_chemical_formula_sum "Si O2"
_cell_formula_units_Z 56
_cell_length_a 14.580966
_cell_length_b 15.138130
_cell_length_c 19.701259
_cell_angle_alpha 90.000000
_cell_angle_beta 39.998469
_cell_angle_gamma 90.000000
_cell_volume 2795.156793
_symmetry_space_group_name_H-M "C 2/M"
_symmetry_group_IT_number 12
_symmetry_cell_setting 'monoclinic'
loop_
_space_group_symop_operation_xyz
x,y,z
-x,y,-z
-x,-y,-z
x,-y,z
1/2+x,1/2+y,z
1/2-x,1/2+y,-z
1/2-x,1/2-y,-z
1/2+x,1/2-y,z
loop_
_atom_site_type_symbol
_atom_site_label
_atom_site_fract_x
_atom_site_fract_y
_atom_site_fract_z
Si Si1 0.064722 0.280542 0.031370
Si Si2 0.973763 0.840172 0.589331
Si Si3 0.639371 0.819493 0.532229
Si Si4 0.615753 0.275945 0.147256
Si Si5 0.501488 0.099036 0.259830
Si Si6 0.333203 0.099425 0.223033
Si Si7 0.595245 0.597809 0.654770
O O1 0.071710 0.215512 0.092658
O O2 0.962226 0.363414 0.104399
O O3 0.226890 0.314709 0.927634
O O4 0.000000 0.233789 0.000000
O O5 0.808668 0.842592 0.705563
O O6 0.000000 0.882127 0.500000
O O7 0.019550 0.736872 0.560923
O O8 0.065342 0.896860 0.591036
O O9 0.750000 0.750000 0.500000
O O10 0.562071 0.880706 0.630809
O O11 0.736374 0.881295 0.428143
O O12 0.616241 0.173366 0.171867
O O13 0.500859 0.330351 0.253808
O O14 0.371738 0.102454 0.280416
O O15 0.570513 0.000000 0.220803
O O16 0.302726 0.000000 0.215660
O O17 0.561229 0.500000 0.701589
#
# Coordination Sequence:
#
# PCOD8091055 Si02
#       7
#     8   8   8   8   8   8   8
#     4  10  22  37  61  86 116 162 193 252 309 360
#     4  11  22  33  57  90 123 159 190 241 299 366
#     4  10  19  34  54  83 117 155 194 225 279 352
#     4  10  21  40  60  91 118 155 209 246 303 365
#     4  10  19  36  62  86 115 155 199 243 292 356
#     4  10  21  35  56  91 122 148 189 243 308 370
#     4  11  22  37  60  87 120 158 199 243 296 361
#
# _framework density 20.034655000000001
#
# number of rings (size 3 to 8) (size 9 to 14) (size 15 to 20)
#    0.000    1.714    2.857    3.429    2.000    3.143 
#    0.000    2.143    0.000    5.143    0.000    0.000 
#    0.000    0.000    0.000    0.000    0.000    0.000 
#
# Total GULP energy -347042.837063 kJ/mol
# GULP energy per Si atom -12394.387038 kJ/mol
# Density = 1.998905 g / cm^3
# Si number density = 20.034655 Si / 1000 Ang^3
#
#
#
# Elastic Constant Matrix: (Units=GPa)
#
#
# Indices 1 2 3 4 5 6 
#
# 1 86.9578 33.7667 44.7938 -0.0001 -5.7015 0.0000
# 2 33.7667 112.3966 48.1272 -0.0002 -11.1868 0.0001
# 3 44.7938 48.1272 128.9769 -0.0007 -15.2995 0.0003
# 4 -0.0001 -0.0002 -0.0007 11.4604 0.0003 -2.8571
# 5 -5.7015 -11.1868 -15.2995 0.0003 35.0115 -0.0001
# 6 0.0000 0.0001 0.0003 -2.8571 -0.0001 20.6079
#
#
#
# Elastic Compliance Matrix: (Units=1/GPa)
#
#
# Indices 1 2 3 4 5 6 
#
# 1 0.014639 -0.002659 -0.004124 0.000000 -0.000268 0.000000
# 2 -0.002659 0.011174 -0.003031 0.000000 0.001813 0.000000
# 3 -0.004124 -0.003031 0.010675 0.000000 0.003025 0.000000
# 4 0.000000 0.000000 0.000000 0.090381 0.000000 0.012531
# 5 -0.000268 0.001813 0.003025 0.000000 0.030420 0.000000
# 6 0.000000 0.000000 0.000000 0.012531 0.000000 0.050262
#
#
# Mechanical properties :
#
#
# Convention : Reuss Voigt Hill
#
# Bulk Modulus (GPa) = 59.30801 64.63406 61.97103
# Shear Modulus (GPa) = 21.47774 26.85886 24.16830
#
# Velocity S-wave (km/s) = 3.27774 3.66542 3.47699
# Velocity P-wave (km/s) = 6.63263 7.08836 6.86428
#
# Compressibility (1/GPa) = 0.01686113
#
# Stress axis : x y z
#
# Youngs Moduli (GPa) = 68.31089 89.49210 93.67332
#
# Poissons Ratio (x) = 0.23794 0.38629
# Poissons Ratio (y) = 0.18162 0.28394
# Poissons Ratio (z) = 0.28170 0.27126
#
# Static dielectric constant tensor:
#      x y z
#    x 3.753880 0.000000 -0.073010 
#    y 0.000000 3.707900 0.000000 
#    z -0.073010 0.000000 3.775440 
# 
# 
# High freq. dielectric constant tensor:
#      x y z
#    x 1.764900 0.000000 0.000450 
#    y 0.000000 1.758030 0.000000 
#    z 0.000450 0.000000 1.792310 
# 
# From -- ./inp_files/310762.got.cif
#   From: 2010.06.25/outbox.cif.g09.slc.cpg/sg12_156_cif.got.tgz:310762.got - 2010.06.28 00:19:55.
