data_PCOD8091305
_publ_section_title
;
Structure prediction by ZEFSAII (Michael W. Deem and Ramdas Pophale) SiO2 
 PCOD8091305
Probable space group: C 2/M
;
_chemical_formula_sum "Si O2"
_cell_formula_units_Z 48
_cell_length_a 15.754870
_cell_length_b 9.183957
_cell_length_c 28.843598
_cell_angle_alpha 90.000000
_cell_angle_beta 36.020304
_cell_angle_gamma 90.000000
_cell_volume 2454.282403
_symmetry_space_group_name_H-M "C 2/M"
_symmetry_group_IT_number 12
_symmetry_cell_setting 'monoclinic'
loop_
_space_group_symop_operation_xyz
x,y,z
-x,y,-z
-x,-y,-z
x,-y,z
1/2+x,1/2+y,z
1/2-x,1/2+y,-z
1/2-x,1/2-y,-z
1/2+x,1/2-y,z
loop_
_atom_site_type_symbol
_atom_site_label
_atom_site_fract_x
_atom_site_fract_y
_atom_site_fract_z
Si Si1 0.118621 0.671643 0.813512
Si Si2 0.076353 0.163679 0.347798
Si Si3 0.594602 0.828951 0.501214
Si Si4 0.922999 0.671669 0.817837
Si Si5 0.594476 0.335624 0.667963
Si Si6 0.639297 0.171494 0.908637
O O1 0.138041 0.500000 0.808834
O O2 0.261549 0.730536 0.723486
O O3 0.109952 0.733707 0.869735
O O4 0.975408 0.710254 0.847192
O O5 0.965340 0.258995 0.425727
O O6 0.031404 0.165039 0.314077
O O7 0.072080 0.000000 0.369783
O O8 0.500000 0.774865 0.500000
O O9 0.757962 0.777803 0.420236
O O10 0.585160 0.000000 0.512545
O O11 0.903055 0.500000 0.819798
O O12 0.773852 0.751183 0.873513
O O13 0.050076 0.727178 0.728314
O O14 0.616330 0.500000 0.677866
O O15 0.671596 0.000000 0.894137
O O16 0.500000 0.210791 0.000000
#
# Coordination Sequence:
#
# PCOD8091305 Si02
#       6
#     8   8   8   8   8   8
#     4   9  19  37  58  84 117 151 189 233 285 340
#     4  10  19  34  56  76 105 151 195 235 277 337
#     4  10  21  34  49  77 114 146 187 245 289 324
#     4  11  22  36  59  88 118 149 186 241 290 331
#     4  10  20  36  56  77 110 155 195 233 281 343
#     4  10  21  41  66  86 113 155 192 225 279 353
#
# _framework density 19.557652000000001
#
# number of rings (size 3 to 8) (size 9 to 14) (size 15 to 20)
#    0.000    2.000    1.667    2.000    0.000    2.667 
#    0.000    2.500    0.000    0.000    0.000    0.000 
#    0.000    0.000    0.000    0.000    0.000    0.000 
#
# Total GULP energy -297591.199445 kJ/mol
# GULP energy per Si atom -12399.633310 kJ/mol
# Density = 1.951314 g / cm^3
# Si number density = 19.557652 Si / 1000 Ang^3
#
#
#
# Elastic Constant Matrix: (Units=GPa)
#
#
# Indices 1 2 3 4 5 6 
#
# 1 132.3804 38.4123 67.2749 0.0000 -8.9651 0.0000
# 2 38.4123 49.5197 44.9292 -0.0001 -2.9340 -0.0003
# 3 67.2749 44.9292 134.3801 0.0000 -6.5016 -0.0001
# 4 0.0000 -0.0001 0.0000 28.8149 0.0000 -5.0096
# 5 -8.9651 -2.9340 -6.5016 0.0000 22.6888 0.0000
# 6 0.0000 -0.0003 -0.0001 -5.0096 0.0000 24.1538
#
#
#
# Elastic Compliance Matrix: (Units=1/GPa)
#
#
# Indices 1 2 3 4 5 6 
#
# 1 0.011103 -0.005065 -0.003736 0.000000 0.002661 0.000000
# 2 -0.005065 0.031319 -0.007947 0.000000 -0.000228 0.000000
# 3 -0.003736 -0.007947 0.012014 0.000000 0.000939 0.000000
# 4 0.000000 0.000000 0.000000 0.036003 0.000000 0.007467
# 5 0.002661 -0.000228 0.000939 0.000000 0.045366 0.000000
# 6 0.000000 0.000000 0.000000 0.007467 0.000000 0.042950
#
#
# Mechanical properties :
#
#
# Convention : Reuss Voigt Hill
#
# Bulk Modulus (GPa) = 47.75380 68.61255 58.18318
# Shear Modulus (GPa) = 22.80704 26.17575 24.49139
#
# Velocity S-wave (km/s) = 3.41859 3.66237 3.54258
# Velocity P-wave (km/s) = 6.32869 7.28301 6.82256
#
# Compressibility (1/GPa) = 0.02094074
#
# Stress axis : x y z
#
# Youngs Moduli (GPa) = 90.06962 31.92913 83.23315
#
# Poissons Ratio (x) = 0.16171 0.31097
# Poissons Ratio (y) = 0.45618 0.66145
# Poissons Ratio (z) = 0.33651 0.25374
#
# Static dielectric constant tensor:
#      x y z
#    x 3.718270 0.000000 -0.035500 
#    y 0.000000 3.323300 0.000000 
#    z -0.035500 0.000000 3.572210 
# 
# 
# High freq. dielectric constant tensor:
#      x y z
#    x 1.774340 0.000000 -0.006240 
#    y 0.000000 1.735170 0.000000 
#    z -0.006240 0.000000 1.763970 
# 
# From -- ./inp_files/360243.got.cif
#   From: 2010.06.25/outbox.cif.g09.slc.cpg/sg12_181_cif.got.tgz:360243.got - 2010.06.28 00:19:55.
