data_PCOD8091672
_publ_section_title
;
Structure prediction by ZEFSAII (Michael W. Deem and Ramdas Pophale) SiO2 
 PCOD8091672
Probable space group: C 2/M
;
_chemical_formula_sum "Si O2"
_cell_formula_units_Z 64
_cell_length_a 20.569789
_cell_length_b 9.066440
_cell_length_c 23.569957
_cell_angle_alpha 90.000000
_cell_angle_beta 132.446436
_cell_angle_gamma 90.000000
_cell_volume 3243.605231
_symmetry_space_group_name_H-M "C 2/M"
_symmetry_group_IT_number 12
_symmetry_cell_setting 'monoclinic'
loop_
_space_group_symop_operation_xyz
x,y,z
-x,y,-z
-x,-y,-z
x,-y,z
1/2+x,1/2+y,z
1/2-x,1/2+y,-z
1/2-x,1/2-y,-z
1/2+x,1/2-y,z
loop_
_atom_site_type_symbol
_atom_site_label
_atom_site_fract_x
_atom_site_fract_y
_atom_site_fract_z
Si Si1 0.244656 0.328512 0.141869
Si Si2 0.484767 0.837029 0.357717
Si Si3 0.304888 0.672047 0.686251
Si Si4 0.397674 0.837982 0.185456
Si Si5 0.327430 0.326780 0.311313
Si Si6 0.671086 0.823045 0.419784
Si Si7 0.007792 0.830177 0.161860
Si Si8 0.078992 0.162807 0.004207
O O1 0.250829 0.500000 0.134662
O O2 0.307317 0.253225 0.132049
O O3 0.272646 0.288518 0.222340
O O4 0.146758 0.274903 0.072014
O O5 0.432628 0.849466 0.269025
O O6 0.429011 0.728488 0.365878
O O7 0.582733 0.777050 0.402196
O O8 0.489905 0.000000 0.388852
O O9 0.286397 0.500000 0.662265
O O10 0.218342 0.743190 0.663337
O O11 0.330019 0.756248 0.643628
O O12 0.386508 0.690886 0.778051
O O13 0.472387 0.761004 0.193384
O O14 0.378579 0.000000 0.149203
O O15 0.328677 0.500000 0.324691
O O16 0.750000 0.750000 0.500000
O O17 0.679692 0.000000 0.421140
O O18 0.984343 0.000000 0.158025
O O19 0.960737 0.771548 0.077393
O O20 0.121780 0.000000 0.019977
O O21 0.000000 0.144174 0.000000
#
# Coordination Sequence:
#
# PCOD8091672 Si02
#       8
#     8   8   8   8   8   8   8   8
#     4  10  21  36  54  80 113 149 192 241 292 346
#     4   9  19  37  60  86 118 154 193 235 285 346
#     4  11  22  38  62  90 120 155 196 242 292 349
#     4  10  19  34  57  82 108 146 189 236 289 342
#     4  10  21  36  59  88 119 155 197 246 292 342
#     4  11  23  41  64  93 125 156 192 236 288 348
#     4  10  21  35  55  82 111 146 191 241 290 343
#     4  10  21  37  54  74 106 148 192 239 292 348
#
# _framework density 19.731131000000001
#
# number of rings (size 3 to 8) (size 9 to 14) (size 15 to 20)
#    0.000    1.875    1.250    2.625    0.000    5.750 
#    0.000    0.625    0.000    3.750    0.000    0.000 
#    0.000    0.000    0.000    0.000    0.000    0.000 
#
# Total GULP energy -396763.645451 kJ/mol
# GULP energy per Si atom -12398.863920 kJ/mol
# Density = 1.968622 g / cm^3
# Si number density = 19.731131 Si / 1000 Ang^3
#
#
#
# Elastic Constant Matrix: (Units=GPa)
#
#
# Indices 1 2 3 4 5 6 
#
# 1 122.0677 57.3165 26.0272 0.0000 20.3048 0.0000
# 2 57.3165 99.2166 34.9052 0.0000 10.1824 0.0000
# 3 26.0272 34.9052 67.1842 0.0000 18.7541 0.0000
# 4 0.0000 0.0000 0.0000 32.5849 0.0000 5.8368
# 5 20.3048 10.1824 18.7541 0.0000 25.7122 0.0000
# 6 0.0000 0.0000 0.0000 5.8368 0.0000 38.0048
#
#
#
# Elastic Compliance Matrix: (Units=1/GPa)
#
#
# Indices 1 2 3 4 5 6 
#
# 1 0.012449 -0.006682 0.000822 0.000000 -0.007784 0.000000
# 2 -0.006682 0.015921 -0.006776 0.000000 0.003914 0.000000
# 3 0.000822 -0.006776 0.021997 0.000000 -0.014010 0.000000
# 4 0.000000 0.000000 0.000000 0.031557 0.000000 -0.004847
# 5 -0.007784 0.003914 -0.014010 0.000000 0.053708 0.000000
# 6 0.000000 0.000000 0.000000 -0.004847 0.000000 0.027057
#
#
# Mechanical properties :
#
#
# Convention : Reuss Voigt Hill
#
# Bulk Modulus (GPa) = 39.84743 58.32957 49.08850
# Shear Modulus (GPa) = 25.46767 30.60834 28.03801
#
# Velocity S-wave (km/s) = 3.59658 3.94289 3.77371
# Velocity P-wave (km/s) = 6.12260 7.09612 6.62726
#
# Compressibility (1/GPa) = 0.02509572
#
# Stress axis : x y z
#
# Youngs Moduli (GPa) = 80.32525 62.80938 45.46035
#
# Poissons Ratio (x) = 0.41970 -0.03736
# Poissons Ratio (y) = 0.53674 0.30802
# Poissons Ratio (z) = -0.06600 0.42557
#
# Static dielectric constant tensor:
#      x y z
#    x 3.819000 0.000000 -0.086190 
#    y 0.000000 3.758910 0.000000 
#    z -0.086190 0.000000 3.759780 
# 
# 
# High freq. dielectric constant tensor:
#      x y z
#    x 1.775050 0.000000 0.010210 
#    y 0.000000 1.775950 0.000000 
#    z 0.010210 0.000000 1.750180 
# 
# From -- ./inp_files/346265.got.cif
#   From: 2010.06.25/outbox.cif.g09.slc.cpg/sg12_174_cif.got.tgz:346265.got - 2010.06.28 00:19:55.
