data_PCOD8091422
_publ_section_title
;
Structure prediction by ZEFSAII (Michael W. Deem and Ramdas Pophale) SiO2 
 PCOD8091422
Probable space group: C 2/M
;
_chemical_formula_sum "Si O2"
_cell_formula_units_Z 64
_cell_length_a 33.002277
_cell_length_b 9.123845
_cell_length_c 11.098535
_cell_angle_alpha 90.000000
_cell_angle_beta 95.060059
_cell_angle_gamma 90.000000
_cell_volume 3328.830003
_symmetry_space_group_name_H-M "C 2/M"
_symmetry_group_IT_number 12
_symmetry_cell_setting 'monoclinic'
loop_
_space_group_symop_operation_xyz
x,y,z
-x,y,-z
-x,-y,-z
x,-y,z
1/2+x,1/2+y,z
1/2-x,1/2+y,-z
1/2-x,1/2-y,-z
1/2+x,1/2-y,z
loop_
_atom_site_type_symbol
_atom_site_label
_atom_site_fract_x
_atom_site_fract_y
_atom_site_fract_z
Si Si1 0.877594 0.832231 0.844552
Si Si2 0.270323 0.169732 0.182661
Si Si3 0.115246 0.170125 0.424276
Si Si4 0.911178 0.331605 0.220388
Si Si5 0.454104 0.668718 0.016204
Si Si6 0.455454 0.833149 0.480021
Si Si7 0.339193 0.673116 0.324827
Si Si8 0.804799 0.669296 0.928170
O O1 0.869389 0.785417 0.704152
O O2 0.925165 0.812207 0.891396
O O3 0.850314 0.728957 0.921964
O O4 0.864230 0.000000 0.862377
O O5 0.295412 0.253161 0.292875
O O6 0.225622 0.239876 0.165250
O O7 0.266012 0.000000 0.215986
O O8 0.293588 0.193567 0.063618
O O9 0.072993 0.249935 0.434646
O O10 0.148082 0.213928 0.534977
O O11 0.105463 0.000000 0.428534
O O12 0.898369 0.500000 0.192455
O O13 0.941013 0.317944 0.340226
O O14 0.870666 0.238837 0.236070
O O15 0.935590 0.268876 0.114806
O O16 0.454796 0.500000 0.059784
O O17 0.500000 0.721997 0.000000
O O18 0.500000 0.761976 0.500000
O O19 0.456438 0.000000 0.524176
O O20 0.336502 0.500000 0.303237
O O21 0.802282 0.500000 0.890851
#
# Coordination Sequence:
#
# PCOD8091422 Si02
#       8
#     8   8   8   8   8   8   8   8
#     4  10  21  38  56  76 110 147 181 224 273 324
#     4  10  20  35  58  86 115 142 177 222 269 320
#     4   9  20  36  54  78 104 141 185 224 269 321
#     4  10  20  34  52  76 106 138 177 222 270 324
#     4  10  22  37  54  78 107 142 182 225 273 324
#     4   9  19  34  52  75 103 135 175 225 276 320
#     4  10  19  34  56  81 109 140 179 225 270 317
#     4  10  21  36  56  85 113 143 181 219 267 323
#
# _framework density 19.225974000000001
#
# number of rings (size 3 to 8) (size 9 to 14) (size 15 to 20)
#    0.000    2.250    0.000    2.250    1.750    6.000 
#    0.000    0.625    0.000    0.000    0.000    0.000 
#    0.000    0.000    0.000    0.000    0.000    0.000 
#
# Total GULP energy -396876.000546 kJ/mol
# GULP energy per Si atom -12402.375017 kJ/mol
# Density = 1.918222 g / cm^3
# Si number density = 19.225974 Si / 1000 Ang^3
#
#
#
# Elastic Constant Matrix: (Units=GPa)
#
#
# Indices 1 2 3 4 5 6 
#
# 1 99.8120 37.5445 24.2901 0.0000 16.0812 0.0000
# 2 37.5445 84.2336 33.1062 0.0000 4.0442 0.0000
# 3 24.2901 33.1062 58.6875 0.0000 -4.5479 0.0000
# 4 0.0000 0.0000 0.0000 17.5804 0.0000 1.6812
# 5 16.0812 4.0442 -4.5479 0.0000 23.6508 0.0000
# 6 0.0000 0.0000 0.0000 1.6812 0.0000 34.9728
#
#
#
# Elastic Compliance Matrix: (Units=1/GPa)
#
#
# Indices 1 2 3 4 5 6 
#
# 1 0.014207 -0.004182 -0.004278 0.000000 -0.009767 0.000000
# 2 -0.004182 0.016934 -0.007944 0.000000 -0.001580 0.000000
# 3 -0.004278 -0.007944 0.023979 0.000000 0.008878 0.000000
# 4 0.000000 0.000000 0.000000 0.057144 0.000000 -0.002747
# 5 -0.009767 -0.001580 0.008878 0.000000 0.050900 0.000000
# 6 0.000000 0.000000 0.000000 -0.002747 0.000000 0.028726
#
#
# Mechanical properties :
#
#
# Convention : Reuss Voigt Hill
#
# Bulk Modulus (GPa) = 44.81882 48.06832 46.44357
# Shear Modulus (GPa) = 21.53925 25.09363 23.31644
#
# Velocity S-wave (km/s) = 3.35075 3.61667 3.48624
# Velocity P-wave (km/s) = 6.19130 6.51893 6.35723
#
# Compressibility (1/GPa) = 0.02231205
#
# Stress axis : x y z
#
# Youngs Moduli (GPa) = 70.39026 59.05346 41.70276
#
# Poissons Ratio (x) = 0.24696 0.17839
# Poissons Ratio (y) = 0.29436 0.33129
# Poissons Ratio (z) = 0.30111 0.46913
#
# Static dielectric constant tensor:
#      x y z
#    x 3.556490 0.000000 0.221650 
#    y 0.000000 3.548140 0.000000 
#    z 0.221650 0.000000 3.480390 
# 
# 
# High freq. dielectric constant tensor:
#      x y z
#    x 1.748440 0.000000 0.016550 
#    y 0.000000 1.751470 0.000000 
#    z 0.016550 0.000000 1.738470 
# 
# From -- ./inp_files/187418.got.cif
#   From: 2010.06.25/outbox.cif.g09.slc.cpg/sg12_94_cif.got.tgz:187418.got - 2010.06.28 00:19:55.
