data_PCOD8091616
_publ_section_title
;
Structure prediction by ZEFSAII (Michael W. Deem and Ramdas Pophale) SiO2 
 PCOD8091616
Probable space group: C 2/M
;
_chemical_formula_sum "Si O2"
_cell_formula_units_Z 48
_cell_length_a 30.446655
_cell_length_b 8.948084
_cell_length_c 9.413630
_cell_angle_alpha 90.000000
_cell_angle_beta 89.862752
_cell_angle_gamma 90.000000
_cell_volume 2564.634717
_symmetry_space_group_name_H-M "C 2/M"
_symmetry_group_IT_number 12
_symmetry_cell_setting 'monoclinic'
loop_
_space_group_symop_operation_xyz
x,y,z
-x,y,-z
-x,-y,-z
x,-y,z
1/2+x,1/2+y,z
1/2-x,1/2+y,-z
1/2-x,1/2-y,-z
1/2+x,1/2-y,z
loop_
_atom_site_type_symbol
_atom_site_label
_atom_site_fract_x
_atom_site_fract_y
_atom_site_fract_z
Si Si1 0.615408 0.677975 0.603026
Si Si2 0.620268 0.823537 0.897991
Si Si3 0.460413 0.824159 0.907673
Si Si4 0.456029 0.174981 0.586673
Si Si5 0.711733 0.671097 0.915979
Si Si6 0.713275 0.332032 0.587452
O O1 0.614142 0.500000 0.623250
O O2 0.602193 0.753091 0.752247
O O3 0.583203 0.730930 0.480606
O O4 0.664452 0.732867 0.560633
O O5 0.666252 0.754816 0.946907
O O6 0.625148 0.000000 0.876456
O O7 0.585873 0.782762 0.021370
O O8 0.461954 0.763549 0.746596
O O9 0.467664 0.000000 0.901489
O O10 0.500000 0.752328 0.000000
O O11 0.500000 0.208420 0.500000
O O12 0.443873 0.000000 0.582770
O O13 0.706677 0.500000 0.965549
O O14 0.724896 0.680911 0.752171
O O15 0.750000 0.750000 0.000000
O O16 0.714326 0.500000 0.532920
O O17 0.750000 0.250000 0.500000
#
# Coordination Sequence:
#
# PCOD8091616 Si02
#       6
#     8   8   8   8   8   8
#     4  10  21  37  54  77 110 143 177 218 265 317
#     4  10  19  34  57  81 106 140 180 221 267 314
#     4   9  18  33  54  81 109 136 174 223 266 311
#     4  10  20  35  57  82 106 138 180 221 265 317
#     4  10  21  37  55  79 110 142 179 221 266 317
#     4   9  20  36  54  77 105 138 177 220 264 315
#
# _framework density 18.716117000000001
#
# number of rings (size 3 to 8) (size 9 to 14) (size 15 to 20)
#    0.000    2.333    0.000    3.500    0.000    8.333 
#    0.000    6.667    0.000    3.500    0.000    0.000 
#    0.000    0.000    0.000    0.000    0.000    0.000 
#
# Total GULP energy -297620.463563 kJ/mol
# GULP energy per Si atom -12400.852648 kJ/mol
# Density = 1.867352 g / cm^3
# Si number density = 18.716117 Si / 1000 Ang^3
#
#
#
# Elastic Constant Matrix: (Units=GPa)
#
#
# Indices 1 2 3 4 5 6 
#
# 1 125.8267 54.3476 88.1750 0.0000 8.1089 0.0000
# 2 54.3476 79.1620 47.1400 0.0000 -2.6788 0.0000
# 3 88.1750 47.1400 136.4742 0.0000 0.2903 0.0000
# 4 0.0000 0.0000 0.0000 27.5688 0.0000 5.3652
# 5 8.1089 -2.6788 0.2903 0.0000 39.4100 0.0000
# 6 0.0000 0.0000 0.0000 5.3652 0.0000 29.8710
#
#
#
# Elastic Compliance Matrix: (Units=1/GPa)
#
#
# Indices 1 2 3 4 5 6 
#
# 1 0.017322 -0.006757 -0.008850 0.000000 -0.003958 0.000000
# 2 -0.006757 0.018589 -0.002061 0.000000 0.002669 0.000000
# 3 -0.008850 -0.002061 0.013754 0.000000 0.001579 0.000000
# 4 0.000000 0.000000 0.000000 0.037587 0.000000 -0.006751
# 5 -0.003958 0.002669 0.001579 0.000000 0.026358 0.000000
# 6 0.000000 0.000000 0.000000 -0.006751 0.000000 0.034690
#
#
# Mechanical properties :
#
#
# Convention : Reuss Voigt Hill
#
# Bulk Modulus (GPa) = 69.78319 80.08758 74.93538
# Shear Modulus (GPa) = 26.53776 29.48999 28.01388
#
# Velocity S-wave (km/s) = 3.76960 3.97375 3.87302
# Velocity P-wave (km/s) = 7.50417 7.99611 7.75404
#
# Compressibility (1/GPa) = 0.01433010
#
# Stress axis : x y z
#
# Youngs Moduli (GPa) = 57.72891 53.79645 72.70803
#
# Poissons Ratio (x) = 0.36348 0.64344
# Poissons Ratio (y) = 0.39005 0.14986
# Poissons Ratio (z) = 0.51088 0.11088
#
# Static dielectric constant tensor:
#      x y z
#    x 3.752880 0.000000 0.184380 
#    y 0.000000 3.360330 0.000000 
#    z 0.184380 0.000000 3.584740 
# 
# 
# High freq. dielectric constant tensor:
#      x y z
#    x 1.738790 0.000000 0.001780 
#    y 0.000000 1.715120 0.000000 
#    z 0.001780 0.000000 1.728710 
# 
# From -- ./inp_files/108627.got.cif
#   From: 2010.06.25/outbox.cif.g09.slc.cpg/sg12_55_cif.got.tgz:108627.got - 2010.06.28 00:19:55.
