data_PCOD8091668
_publ_section_title
;
Structure prediction by ZEFSAII (Michael W. Deem and Ramdas Pophale) SiO2 
 PCOD8091668
Probable space group: C 2/M
;
_chemical_formula_sum "Si O2"
_cell_formula_units_Z 56
_cell_length_a 19.155267
_cell_length_b 8.981402
_cell_length_c 17.206423
_cell_angle_alpha 90.000000
_cell_angle_beta 84.291843
_cell_angle_gamma 90.000000
_cell_volume 2945.534406
_symmetry_space_group_name_H-M "C 2/M"
_symmetry_group_IT_number 12
_symmetry_cell_setting 'monoclinic'
loop_
_space_group_symop_operation_xyz
x,y,z
-x,y,-z
-x,-y,-z
x,-y,z
1/2+x,1/2+y,z
1/2-x,1/2+y,-z
1/2-x,1/2-y,-z
1/2+x,1/2-y,z
loop_
_atom_site_type_symbol
_atom_site_label
_atom_site_fract_x
_atom_site_fract_y
_atom_site_fract_z
Si Si1 0.817994 0.823183 0.723559
Si Si2 0.305838 0.675020 0.182012
Si Si3 0.542597 0.826689 0.241180
Si Si4 0.389492 0.830689 0.300652
Si Si5 0.683923 0.169536 0.972726
Si Si6 0.234732 0.330246 0.581116
Si Si7 0.958990 0.331191 0.932175
O O1 0.770257 0.749395 0.795657
O O2 0.897105 0.765155 0.722336
O O3 0.786045 0.772396 0.644027
O O4 0.815917 0.000000 0.733550
O O5 0.295492 0.500000 0.173956
O O6 0.360144 0.711099 0.243813
O O7 0.340457 0.743955 0.101315
O O8 0.472633 0.805074 0.301148
O O9 0.528202 0.762274 0.155271
O O10 0.564699 0.000000 0.233938
O O11 0.347206 0.806776 0.385958
O O12 0.374725 0.000000 0.272235
O O13 0.702416 0.000000 0.949682
O O14 0.750000 0.250000 0.000000
O O15 0.623536 0.177535 0.043637
O O16 0.251929 0.500000 0.563289
O O17 0.250000 0.250000 0.500000
O O18 0.987544 0.500000 0.925668
O O19 0.000000 0.250925 0.000000
#
# Coordination Sequence:
#
# PCOD8091668 Si02
#       7
#     8   8   8   8   8   8   8
#     4  10  21  37  56  80 111 143 177 223 277 324
#     4  11  21  34  53  76 102 139 188 229 269 325
#     4  10  19  34  57  82 108 141 183 226 271 327
#     4   9  19  36  57  81 109 140 175 218 268 319
#     4  11  21  33  50  73 103 137 177 230 283 326
#     4   9  19  36  58  83 109 140 176 216 266 323
#     4   9  18  32  51  74 100 136 180 222 267 316
#
# _framework density 19.01183
#
# number of rings (size 3 to 8) (size 9 to 14) (size 15 to 20)
#    0.000    2.143    0.000    4.714    0.000    6.857 
#    0.000    1.429    0.000    7.286    0.000    0.000 
#    0.000    0.000    0.000    0.000    0.000    0.000 
#
# Total GULP energy -347135.172875 kJ/mol
# GULP energy per Si atom -12397.684746 kJ/mol
# Density = 1.896856 g / cm^3
# Si number density = 19.011830 Si / 1000 Ang^3
#
#
#
# Elastic Constant Matrix: (Units=GPa)
#
#
# Indices 1 2 3 4 5 6 
#
# 1 110.8421 35.5641 37.8844 0.0000 -8.7862 0.0000
# 2 35.5641 87.5895 33.7653 0.0000 -4.6943 0.0000
# 3 37.8844 33.7653 106.7379 0.0000 -10.0514 0.0000
# 4 0.0000 0.0000 0.0000 30.2299 0.0000 2.4733
# 5 -8.7862 -4.6943 -10.0514 0.0000 23.5433 0.0000
# 6 0.0000 0.0000 0.0000 2.4733 0.0000 29.8828
#
#
#
# Elastic Compliance Matrix: (Units=1/GPa)
#
#
# Indices 1 2 3 4 5 6 
#
# 1 0.011215 -0.003392 -0.002685 0.000000 0.002363 0.000000
# 2 -0.003392 0.014046 -0.003224 0.000000 0.000158 0.000000
# 3 -0.002685 -0.003224 0.011655 0.000000 0.003331 0.000000
# 4 0.000000 0.000000 0.000000 0.033305 0.000000 -0.002757
# 5 0.002363 0.000158 0.003331 0.000000 0.044810 0.000000
# 6 0.000000 0.000000 0.000000 -0.002757 0.000000 0.033692
#
#
# Mechanical properties :
#
#
# Convention : Reuss Voigt Hill
#
# Bulk Modulus (GPa) = 54.60496 57.73300 56.16898
# Shear Modulus (GPa) = 28.82982 29.92825 29.37903
#
# Velocity S-wave (km/s) = 3.89834 3.97191 3.93530
# Velocity P-wave (km/s) = 7.00333 7.17409 7.08923
#
# Compressibility (1/GPa) = 0.01831335
#
# Stress axis : x y z
#
# Youngs Moduli (GPa) = 89.16472 71.19669 85.79685
#
# Poissons Ratio (x) = 0.24150 0.23037
# Poissons Ratio (y) = 0.30245 0.27664
# Poissons Ratio (z) = 0.23941 0.22956
#
# Static dielectric constant tensor:
#      x y z
#    x 3.497870 0.000000 -0.132420 
#    y 0.000000 3.410220 0.000000 
#    z -0.132420 0.000000 3.499060 
# 
# 
# High freq. dielectric constant tensor:
#      x y z
#    x 1.741490 0.000000 -0.009770 
#    y 0.000000 1.722790 0.000000 
#    z -0.009770 0.000000 1.727380 
# 
# From -- ./inp_files/280153.got.cif
#   From: 2010.06.25/outbox.cif.g09.slc.cpg/sg12_141_cif.got.tgz:280153.got - 2010.06.28 00:19:55.
