data_PCOD8091689
_publ_section_title
;
Structure prediction by ZEFSAII (Michael W. Deem and Ramdas Pophale) SiO2 
 PCOD8091689
Probable space group: C 2/M
;
_chemical_formula_sum "Si O2"
_cell_formula_units_Z 40
_cell_length_a 31.285219
_cell_length_b 12.452069
_cell_length_c 8.465719
_cell_angle_alpha 90.000000
_cell_angle_beta 142.665652
_cell_angle_gamma 90.000000
_cell_volume 2000.094098
_symmetry_space_group_name_H-M "C 2/M"
_symmetry_group_IT_number 12
_symmetry_cell_setting 'monoclinic'
loop_
_space_group_symop_operation_xyz
x,y,z
-x,y,-z
-x,-y,-z
x,-y,z
1/2+x,1/2+y,z
1/2-x,1/2+y,-z
1/2-x,1/2-y,-z
1/2+x,1/2-y,z
loop_
_atom_site_type_symbol
_atom_site_label
_atom_site_fract_x
_atom_site_fract_y
_atom_site_fract_z
Si Si1 0.277699 0.121349 0.647596
Si Si2 0.078401 0.699898 0.054222
Si Si3 0.688159 0.777508 0.936408
Si Si4 0.572176 0.875523 0.378728
Si Si5 0.145117 0.126946 0.065945
O O1 0.356827 0.129847 0.817286
O O2 0.216931 0.176004 0.358612
O O3 0.252365 0.000000 0.560219
O O4 0.273728 0.152971 0.818153
O O5 0.082738 0.701417 0.257477
O O6 0.082701 0.819305 0.987548
O O7 0.005978 0.645379 0.782780
O O8 0.628877 0.848128 0.677557
O O9 0.750000 0.750000 0.000000
O O10 0.649793 0.672504 0.900554
O O11 0.579884 0.000000 0.351098
O O12 0.134100 0.000000 0.027847
#
# Coordination Sequence:
#
# PCOD8091689 Si02
#       5
#     8   8   8   8   8
#     4  10  19  34  57  82 110 148 187 228 279 333
#     4  10  20  38  58  83 114 148 186 229 279 340
#     4  11  22  36  55  85 115 144 186 236 280 334
#     4  11  22  37  60  88 115 143 179 235 294 338
#     4  10  22  39  58  79 113 158 195 228 273 331
#
# _framework density 19.99906
#
# number of rings (size 3 to 8) (size 9 to 14) (size 15 to 20)
#    0.000    1.600    0.000    7.800    0.000    6.400 
#    0.000   10.000    0.000    0.000    0.000    0.000 
#    0.000    0.000    0.000    0.000    0.000    0.000 
#
# Total GULP energy -247936.382211 kJ/mol
# GULP energy per Si atom -12396.819111 kJ/mol
# Density = 1.995354 g / cm^3
# Si number density = 19.999060 Si / 1000 Ang^3
#
#
#
# Elastic Constant Matrix: (Units=GPa)
#
#
# Indices 1 2 3 4 5 6 
#
# 1 134.7640 47.0328 44.7317 0.0000 6.2429 0.0000
# 2 47.0328 98.9552 19.7292 0.0000 1.9608 0.0000
# 3 44.7317 19.7292 99.2731 0.0000 2.0990 0.0000
# 4 0.0000 0.0000 0.0000 29.2491 0.0000 1.3592
# 5 6.2429 1.9608 2.0990 0.0000 27.5183 0.0000
# 6 0.0000 0.0000 0.0000 1.3592 0.0000 24.5029
#
#
#
# Elastic Compliance Matrix: (Units=1/GPa)
#
#
# Indices 1 2 3 4 5 6 
#
# 1 0.010152 -0.004047 -0.003734 0.000000 -0.001730 0.000000
# 2 -0.004047 0.012145 -0.000592 0.000000 0.000098 0.000000
# 3 -0.003734 -0.000592 0.011874 0.000000 -0.000016 0.000000
# 4 0.000000 0.000000 0.000000 0.034277 0.000000 -0.001901
# 5 -0.001730 0.000098 -0.000016 0.000000 0.036726 0.000000
# 6 0.000000 0.000000 0.000000 -0.001901 0.000000 0.040917
#
#
# Mechanical properties :
#
#
# Convention : Reuss Voigt Hill
#
# Bulk Modulus (GPa) = 57.38692 61.77552 59.58122
# Shear Modulus (GPa) = 29.64805 31.02063 30.33434
#
# Velocity S-wave (km/s) = 3.85447 3.94268 3.89882
# Velocity P-wave (km/s) = 6.96895 7.18906 7.07986
#
# Compressibility (1/GPa) = 0.01742557
#
# Stress axis : x y z
#
# Youngs Moduli (GPa) = 98.50213 82.33806 84.22003
#
# Poissons Ratio (x) = 0.33318 0.31445
# Poissons Ratio (y) = 0.39859 0.04989
# Poissons Ratio (z) = 0.36777 0.04878
#
# Static dielectric constant tensor:
#      x y z
#    x 3.724510 0.000000 -0.010830 
#    y 0.000000 3.748750 0.000000 
#    z -0.010830 0.000000 3.688540 
# 
# 
# High freq. dielectric constant tensor:
#      x y z
#    x 1.781240 0.000000 -0.001550 
#    y 0.000000 1.785000 0.000000 
#    z -0.001550 0.000000 1.782200 
# 
# From -- ./inp_files/112119.got.cif
#   From: 2010.06.25/outbox.cif.g09.slc.cpg/sg12_57_cif.got.tgz:112119.got - 2010.06.28 00:19:55.
