data_PCOD8091440
_publ_section_title
;
Structure prediction by ZEFSAII (Michael W. Deem and Ramdas Pophale) SiO2 
 PCOD8091440
Probable space group: C 2/M
;
_chemical_formula_sum "Si O2"
_cell_formula_units_Z 28
_cell_length_a 13.856467
_cell_length_b 5.297893
_cell_length_c 17.399716
_cell_angle_alpha 90.000000
_cell_angle_beta 83.769138
_cell_angle_gamma 90.000000
_cell_volume 1269.768987
_symmetry_space_group_name_H-M "C 2/M"
_symmetry_group_IT_number 12
_symmetry_cell_setting 'monoclinic'
loop_
_space_group_symop_operation_xyz
x,y,z
-x,y,-z
-x,-y,-z
x,-y,z
1/2+x,1/2+y,z
1/2-x,1/2+y,-z
1/2-x,1/2-y,-z
1/2+x,1/2-y,z
loop_
_atom_site_type_symbol
_atom_site_label
_atom_site_fract_x
_atom_site_fract_y
_atom_site_fract_z
Si Si1 0.250121 0.000000 0.448709
Si Si2 0.710587 0.000000 0.064441
Si Si3 0.952137 0.500000 0.347558
Si Si4 0.734203 0.500000 0.109250
Si Si5 0.423788 0.000000 0.171273
Si Si6 0.040759 0.000000 0.410959
Si Si7 0.061291 0.000000 0.917963
O O1 0.250000 0.250000 0.500000
O O2 0.342681 0.000000 0.386362
O O3 0.157012 0.000000 0.401682
O O4 0.666254 0.749642 0.109230
O O5 0.825188 0.000000 0.072493
O O6 0.694965 0.000000 0.974020
O O7 0.954075 0.500000 0.256385
O O8 0.006432 0.250675 0.371223
O O9 0.805124 0.500000 0.176037
O O10 0.466442 0.749512 0.127995
O O11 0.000000 0.000000 0.500000
O O12 0.000000 0.000000 0.000000
#
# Coordination Sequence:
#
# PCOD8091440 Si02
#       7
#     4   4   4   4   4   4   4
#     4  12  23  40  68  99 127 169 224 266 320 396
#     4   8  14  25  46  70  92 125 178 240 276 335
#     4  12  24  42  64  96 141 174 213 278 334 390
#     4   8  14  27  45  68  94 129 180 225 285 349
#     4  10  21  36  55  80 119 163 199 261 336 375
#     4  12  23  41  69  99 131 173 225 269 322 395
#     4  10  19  34  56  81 110 154 215 258 311 385
#
# _framework density 22.051255999999999
#
# number of rings (size 3 to 8) (size 9 to 14) (size 15 to 20)
#    0.000    1.714    2.857    2.571    0.000    0.000 
#    0.000    2.857    0.000   10.286    0.000    0.000 
#    0.000    0.000    0.000    0.000    0.000    0.000 
#
# Total GULP energy -173515.459452 kJ/mol
# GULP energy per Si atom -12393.961389 kJ/mol
# Density = 2.200107 g / cm^3
# Si number density = 22.051256 Si / 1000 Ang^3
#
#
#
# Elastic Constant Matrix: (Units=GPa)
#
#
# Indices 1 2 3 4 5 6 
#
# 1 115.7412 36.6626 45.6358 0.0000 9.2763 0.0000
# 2 36.6626 261.0678 79.0599 0.0000 12.7863 0.0000
# 3 45.6358 79.0599 152.0124 0.0000 19.6822 0.0000
# 4 0.0000 0.0000 0.0000 40.1020 0.0000 6.3587
# 5 9.2763 12.7863 19.6822 0.0000 33.7585 0.0000
# 6 0.0000 0.0000 0.0000 6.3587 0.0000 12.6996
#
#
#
# Elastic Compliance Matrix: (Units=1/GPa)
#
#
# Indices 1 2 3 4 5 6 
#
# 1 0.009906 -0.000570 -0.002545 0.000000 -0.001022 0.000000
# 2 -0.000570 0.004584 -0.002172 0.000000 -0.000313 0.000000
# 3 -0.002545 -0.002172 0.008951 0.000000 -0.003697 0.000000
# 4 0.000000 0.000000 0.000000 0.027087 0.000000 -0.013562
# 5 -0.001022 -0.000313 -0.003697 0.000000 0.032177 0.000000
# 6 0.000000 0.000000 0.000000 -0.013562 0.000000 0.085534
#
#
# Mechanical properties :
#
#
# Convention : Reuss Voigt Hill
#
# Bulk Modulus (GPa) = 77.72697 94.61532 86.17114
# Shear Modulus (GPa) = 27.30734 41.80957 34.55846
#
# Velocity S-wave (km/s) = 3.52285 4.35905 3.96307
# Velocity P-wave (km/s) = 7.20223 8.26651 7.75266
#
# Compressibility (1/GPa) = 0.01286555
#
# Stress axis : x y z
#
# Youngs Moduli (GPa) = 100.94897 218.16680 111.72262
#
# Poissons Ratio (x) = 0.12444 0.28432
# Poissons Ratio (y) = 0.05758 0.24268
# Poissons Ratio (z) = 0.25690 0.47389
#
# Static dielectric constant tensor:
#      x y z
#    x 3.439930 0.000000 0.251270 
#    y 0.000000 5.338900 0.000000 
#    z 0.251270 0.000000 3.688710 
# 
# 
# High freq. dielectric constant tensor:
#      x y z
#    x 1.858480 0.000000 0.028990 
#    y 0.000000 1.912410 0.000000 
#    z 0.028990 0.000000 1.837590 
# 
# From -- ./inp_files/266402.got.cif
#   From: 2010.06.25/outbox.cif.g09.slc.cpg/sg12_134_cif.got.tgz:266402.got - 2010.06.28 00:19:55.
