data_PCOD8091504
_publ_section_title
;
Structure prediction by ZEFSAII (Michael W. Deem and Ramdas Pophale) SiO2 
 PCOD8091504
Probable space group: C 2/M
;
_chemical_formula_sum "Si O2"
_cell_formula_units_Z 64
_cell_length_a 14.509956
_cell_length_b 8.604336
_cell_length_c 32.670842
_cell_angle_alpha 90.000000
_cell_angle_beta 51.058116
_cell_angle_gamma 90.000000
_cell_volume 3172.508017
_symmetry_space_group_name_H-M "C 2/M"
_symmetry_group_IT_number 12
_symmetry_cell_setting 'monoclinic'
loop_
_space_group_symop_operation_xyz
x,y,z
-x,y,-z
-x,-y,-z
x,-y,z
1/2+x,1/2+y,z
1/2-x,1/2+y,-z
1/2-x,1/2-y,-z
1/2+x,1/2-y,z
loop_
_atom_site_type_symbol
_atom_site_label
_atom_site_fract_x
_atom_site_fract_y
_atom_site_fract_z
Si Si1 0.015103 0.180216 0.670234
Si Si2 0.743605 0.319531 0.381735
Si Si3 0.419122 0.683773 0.060340
Si Si4 0.443389 0.184426 0.140468
Si Si5 0.846269 0.316929 0.860916
Si Si6 0.811942 0.316358 0.778852
Si Si7 0.172742 0.678751 0.485973
Si Si8 0.534801 0.176059 0.398487
O O1 0.120324 0.273082 0.662969
O O2 0.889612 0.235364 0.722483
O O3 0.022696 0.214122 0.619756
O O4 0.034005 0.000000 0.672976
O O5 0.727398 0.500000 0.377679
O O6 0.694618 0.280799 0.440155
O O7 0.669329 0.225833 0.368785
O O8 0.423838 0.500000 0.067224
O O9 0.469592 0.768517 0.086408
O O10 0.284539 0.737979 0.088049
O O11 0.500000 0.735229 0.000000
O O12 0.550501 0.251833 0.138894
O O13 0.322598 0.261948 0.189811
O O14 0.432294 0.000000 0.147253
O O15 0.853228 0.500000 0.862106
O O16 0.862161 0.264393 0.809269
O O17 0.817451 0.500000 0.771920
O O18 0.207931 0.500000 0.467090
O O19 0.250000 0.750000 0.500000
O O20 0.036435 0.690570 0.538839
O O21 0.530745 0.000000 0.383037
#
# Coordination Sequence:
#
# PCOD8091504 Si02
#       8
#     8   8   8   8   8   8   8   8
#     4  12  25  42  63  88 119 152 193 244 298 354
#     4  12  25  41  62  89 121 157 195 238 291 351
#     4   9  18  34  54  79 115 157 196 233 282 343
#     4  10  19  34  56  83 113 146 192 241 289 340
#     4   8  17  34  56  80 110 150 189 232 284 340
#     4  10  21  40  61  81 111 149 190 235 290 350
#     4  11  22  38  63  89 119 155 196 240 289 349
#     4  11  24  42  63  89 119 154 196 241 292 352
#
# _framework density 20.173313
#
# number of rings (size 3 to 8) (size 9 to 14) (size 15 to 20)
#    0.000    1.625    1.250    4.875    0.000    4.750 
#    0.000   10.000    0.000    0.000    0.000    0.000 
#    0.000    0.000    0.000    0.000    0.000    0.000 
#
# Total GULP energy -396874.205623 kJ/mol
# GULP energy per Si atom -12402.318926 kJ/mol
# Density = 2.012740 g / cm^3
# Si number density = 20.173313 Si / 1000 Ang^3
#
#
#
# Elastic Constant Matrix: (Units=GPa)
#
#
# Indices 1 2 3 4 5 6 
#
# 1 122.2586 16.4344 18.2953 0.0003 -8.4089 0.0002
# 2 16.4344 64.4416 26.5514 0.0006 -1.4255 0.0001
# 3 18.2953 26.5514 88.8452 0.0002 -12.0045 0.0002
# 4 0.0003 0.0006 0.0002 29.8486 0.0002 1.2274
# 5 -8.4089 -1.4255 -12.0045 0.0002 19.1441 0.0002
# 6 0.0002 0.0001 0.0002 1.2274 0.0002 31.4812
#
#
#
# Elastic Compliance Matrix: (Units=1/GPa)
#
#
# Indices 1 2 3 4 5 6 
#
# 1 0.008768 -0.001824 -0.000829 0.000000 0.003196 0.000000
# 2 -0.001824 0.018160 -0.005438 0.000000 -0.002859 0.000000
# 3 -0.000829 -0.005438 0.014146 0.000000 0.008102 0.000000
# 4 0.000000 0.000000 0.000000 0.033556 0.000000 -0.001308
# 5 0.003196 -0.002859 0.008102 0.000000 0.058507 0.000000
# 6 0.000000 0.000000 0.000000 -0.001308 0.000000 0.031816
#
#
# Mechanical properties :
#
#
# Convention : Reuss Voigt Hill
#
# Bulk Modulus (GPa) = 40.17115 44.23419 42.20267
# Shear Modulus (GPa) = 26.39460 30.37907 28.38683
#
# Velocity S-wave (km/s) = 3.62109 3.88481 3.75527
# Velocity P-wave (km/s) = 6.11877 6.48822 6.30620
#
# Compressibility (1/GPa) = 0.02489349
#
# Stress axis : x y z
#
# Youngs Moduli (GPa) = 114.04577 55.06481 70.69164
#
# Poissons Ratio (x) = 0.10044 0.05858
# Poissons Ratio (y) = 0.20803 0.38442
# Poissons Ratio (z) = 0.09450 0.29944
#
# Static dielectric constant tensor:
#      x y z
#    x 3.833680 0.000000 -0.098360 
#    y 0.000000 3.580800 0.000000 
#    z -0.098360 0.000000 3.695690 
# 
# 
# High freq. dielectric constant tensor:
#      x y z
#    x 1.795800 0.000000 -0.007500 
#    y 0.000000 1.783610 0.000000 
#    z -0.007500 0.000000 1.781570 
# 
# From -- ./inp_files/375490.got.cif
#   From: 2010.06.25/outbox.cif.g09.slc.cpg/sg12_188_cif.got.tgz:375490.got - 2010.06.28 00:19:55.
