data_PCOD8091929
_publ_section_title
;
Structure prediction by ZEFSAII (Michael W. Deem and Ramdas Pophale) SiO2 
 PCOD8091929
Probable space group: C 2/M
;
_chemical_formula_sum "Si O2"
_cell_formula_units_Z 56
_cell_length_a 25.008519
_cell_length_b 9.120318
_cell_length_c 18.155422
_cell_angle_alpha 90.000000
_cell_angle_beta 43.600504
_cell_angle_gamma 90.000000
_cell_volume 2855.734810
_symmetry_space_group_name_H-M "C 2/M"
_symmetry_group_IT_number 12
_symmetry_cell_setting 'monoclinic'
loop_
_space_group_symop_operation_xyz
x,y,z
-x,y,-z
-x,-y,-z
x,-y,z
1/2+x,1/2+y,z
1/2-x,1/2+y,-z
1/2-x,1/2-y,-z
1/2+x,1/2-y,z
loop_
_atom_site_type_symbol
_atom_site_label
_atom_site_fract_x
_atom_site_fract_y
_atom_site_fract_z
Si Si1 0.207616 0.325790 0.715703
Si Si2 0.908236 0.172541 0.268234
Si Si3 0.210184 0.167457 0.864731
Si Si4 0.355438 0.327034 0.479692
Si Si5 0.585525 0.669613 0.105382
Si Si6 0.507931 0.666975 0.405673
Si Si7 0.860266 0.329629 0.806918
O O1 0.202191 0.500000 0.718917
O O2 0.128126 0.257639 0.764388
O O3 0.220858 0.275917 0.785919
O O4 0.277986 0.263985 0.594917
O O5 0.860170 0.217528 0.389303
O O6 0.996997 0.224011 0.188139
O O7 0.903726 0.000000 0.257157
O O8 0.274552 0.201419 0.862063
O O9 0.216954 0.000000 0.829853
O O10 0.126890 0.195578 0.985681
O O11 0.355446 0.500000 0.489557
O O12 0.430987 0.264343 0.445715
O O13 0.588148 0.500000 0.125693
O O14 0.631175 0.757766 0.121974
O O15 0.500000 0.674378 0.500000
O O16 0.520777 0.500000 0.365563
O O17 0.580543 0.763059 0.310604
O O18 0.877576 0.500000 0.797868
#
# Coordination Sequence:
#
# PCOD8091929 Si02
#       7
#     8   8   8   8   8   8   8
#     4  11  23  38  59  87 117 150 191 242 294 341
#     4  10  20  38  62  84 112 150 195 243 284 340
#     4  10  23  41  59  84 117 155 195 235 286 346
#     4   9  18  35  57  84 114 149 195 233 277 343
#     4  10  21  40  65  85 110 155 202 235 276 345
#     4  10  19  34  58  84 115 156 198 234 273 339
#     4  11  22  36  57  88 123 149 184 241 296 342
#
# _framework density 19.609663999999999
#
# number of rings (size 3 to 8) (size 9 to 14) (size 15 to 20)
#    0.000    1.857    1.429    2.571    0.000    4.286 
#    0.000    5.000    0.000    0.000    0.000    0.000 
#    0.000    0.000    0.000    0.000    0.000    0.000 
#
# Total GULP energy -347296.788750 kJ/mol
# GULP energy per Si atom -12403.456741 kJ/mol
# Density = 1.956503 g / cm^3
# Si number density = 19.609664 Si / 1000 Ang^3
#
#
#
# Elastic Constant Matrix: (Units=GPa)
#
#
# Indices 1 2 3 4 5 6 
#
# 1 91.4246 44.8885 37.6181 0.0056 -4.5951 -0.0027
# 2 44.8885 65.8211 37.0282 0.0232 -2.1843 -0.0294
# 3 37.6181 37.0282 113.4912 0.0160 -8.9434 -0.0241
# 4 0.0056 0.0232 0.0160 28.0594 -0.0123 5.0591
# 5 -4.5951 -2.1843 -8.9434 -0.0123 23.5072 0.0161
# 6 -0.0027 -0.0294 -0.0241 5.0591 0.0161 21.6763
#
#
#
# Elastic Compliance Matrix: (Units=1/GPa)
#
#
# Indices 1 2 3 4 5 6 
#
# 1 0.016957 -0.010312 -0.002134 0.000010 0.001544 -0.000018
# 2 -0.010312 0.024888 -0.004823 -0.000022 -0.001538 0.000033
# 3 -0.002134 -0.004823 0.011365 -0.000001 0.003458 0.000004
# 4 0.000010 -0.000022 -0.000001 0.037204 0.000025 -0.008683
# 5 0.001544 -0.001538 0.003458 0.000025 0.044015 -0.000037
# 6 -0.000018 0.000033 0.000004 -0.008683 -0.000037 0.048160
#
#
# Mechanical properties :
#
#
# Convention : Reuss Voigt Hill
#
# Bulk Modulus (GPa) = 53.56165 56.64516 55.10341
# Shear Modulus (GPa) = 22.38620 24.72871 23.55746
#
# Velocity S-wave (km/s) = 3.38241 3.55498 3.46976
# Velocity P-wave (km/s) = 6.52897 6.76753 6.64932
#
# Compressibility (1/GPa) = 0.01867007
#
# Stress axis : x y z
#
# Youngs Moduli (GPa) = 58.97227 40.18038 87.99068
#
# Poissons Ratio (x) = 0.41436 0.18780
# Poissons Ratio (y) = 0.60815 0.42438
# Poissons Ratio (z) = 0.12587 0.19379
#
# Static dielectric constant tensor:
#      x y z
#    x 3.564240 0.000000 -0.140300 
#    y 0.000000 3.372630 0.000000 
#    z -0.140300 0.000000 3.680800 
# 
# 
# High freq. dielectric constant tensor:
#      x y z
#    x 1.771920 0.000000 -0.002940 
#    y 0.000000 1.743160 0.000000 
#    z -0.002940 0.000000 1.773870 
# 
# From -- ./inp_files/288224.got.cif
#   From: 2010.06.25/outbox.cif.g09.slc.cpg/sg12_145_cif.got.tgz:288224.got - 2010.06.28 00:19:55.
