data_PCOD8091439
_publ_section_title
;
Structure prediction by ZEFSAII (Michael W. Deem and Ramdas Pophale) SiO2 
 PCOD8091439
Probable space group: C 2/M
;
_chemical_formula_sum "Si O2"
_cell_formula_units_Z 64
_cell_length_a 23.596618
_cell_length_b 11.400847
_cell_length_c 13.084606
_cell_angle_alpha 90.000000
_cell_angle_beta 108.102569
_cell_angle_gamma 90.000000
_cell_volume 3345.803824
_symmetry_space_group_name_H-M "C 2/M"
_symmetry_group_IT_number 12
_symmetry_cell_setting 'monoclinic'
loop_
_space_group_symop_operation_xyz
x,y,z
-x,y,-z
-x,-y,-z
x,-y,z
1/2+x,1/2+y,z
1/2-x,1/2+y,-z
1/2-x,1/2-y,-z
1/2+x,1/2-y,z
loop_
_atom_site_type_symbol
_atom_site_label
_atom_site_fract_x
_atom_site_fract_y
_atom_site_fract_z
Si Si1 0.187252 0.371464 0.410211
Si Si2 0.002066 0.867946 0.381691
Si Si3 0.840006 0.262523 0.057836
Si Si4 0.552068 0.133668 0.319794
Si Si5 0.756564 0.872985 0.873535
Si Si6 0.785297 0.717107 0.359649
Si Si7 0.132470 0.867363 0.731216
Si Si8 0.533091 0.865855 0.919694
O O1 0.212675 0.500000 0.401586
O O2 0.121015 0.359146 0.327651
O O3 0.185173 0.355761 0.531993
O O4 0.228968 0.283288 0.374389
O O5 0.041362 0.751346 0.381350
O O6 0.000000 0.881599 0.500000
O O7 0.937204 0.838257 0.301135
O O8 0.023353 0.000000 0.352022
O O9 0.803187 0.367591 0.090100
O O10 0.839456 0.160008 0.142659
O O11 0.906440 0.296406 0.065816
O O12 0.805503 0.221872 0.936424
O O13 0.511645 0.148183 0.198466
O O14 0.539883 0.000000 0.360891
O O15 0.740007 0.862293 0.745374
O O16 0.785405 0.000000 0.905052
O O17 0.837192 0.798233 0.344343
O O18 0.144919 0.000000 0.710182
O O19 0.550707 0.000000 0.949978
O O20 0.500000 0.812347 0.000000
#
# Coordination Sequence:
#
# PCOD8091439 Si02
#       8
#     8   8   8   8   8   8   8   8
#     4  10  21  38  58  82 114 149 190 238 283 337
#     4  10  20  35  56  83 116 152 189 231 283 342
#     4  10  20  36  58  82 111 146 184 231 282 346
#     4  10  21  38  59  85 116 151 194 239 285 339
#     4  10  21  36  56  83 113 146 185 234 285 337
#     4  10  21  36  57  83 112 147 187 234 287 338
#     4  10  19  34  56  81 110 145 187 231 278 337
#     4  10  21  37  59  84 113 149 186 235 287 339
#
# _framework density 19.128437999999999
#
# number of rings (size 3 to 8) (size 9 to 14) (size 15 to 20)
#    0.000    2.000    1.250    2.250    1.750    0.250 
#    0.000    5.000    0.000    1.875    0.000    0.000 
#    0.000    0.000    0.000    0.000    0.000    0.000 
#
# Total GULP energy -396504.376568 kJ/mol
# GULP energy per Si atom -12390.761768 kJ/mol
# Density = 1.908490 g / cm^3
# Si number density = 19.128438 Si / 1000 Ang^3
#
#
#
# Elastic Constant Matrix: (Units=GPa)
#
#
# Indices 1 2 3 4 5 6 
#
# 1 90.7220 38.5253 29.3561 0.0000 3.1086 0.0000
# 2 38.5253 105.3762 17.9960 0.0000 -4.6154 0.0000
# 3 29.3561 17.9960 68.0191 0.0000 1.5695 0.0000
# 4 0.0000 0.0000 0.0000 15.0671 0.0000 8.6468
# 5 3.1086 -4.6154 1.5695 0.0000 29.3704 0.0000
# 6 0.0000 0.0000 0.0000 8.6468 0.0000 25.7263
#
#
#
# Elastic Compliance Matrix: (Units=1/GPa)
#
#
# Indices 1 2 3 4 5 6 
#
# 1 0.014683 -0.004589 -0.005077 0.000000 -0.002004 0.000000
# 2 -0.004589 0.011459 -0.001105 0.000000 0.002345 0.000000
# 3 -0.005077 -0.001105 0.017198 0.000000 -0.000555 0.000000
# 4 0.000000 0.000000 0.000000 0.082231 0.000000 -0.027639
# 5 -0.002004 0.002345 -0.000555 0.000000 0.034658 0.000000
# 6 0.000000 0.000000 0.000000 -0.027639 0.000000 0.048160
#
#
# Mechanical properties :
#
#
# Convention : Reuss Voigt Hill
#
# Bulk Modulus (GPa) = 45.87530 48.43022 47.15276
# Shear Modulus (GPa) = 21.07955 25.91542 23.49748
#
# Velocity S-wave (km/s) = 3.32324 3.68477 3.50866
# Velocity P-wave (km/s) = 6.22576 6.59369 6.41236
#
# Compressibility (1/GPa) = 0.02179822
#
# Stress axis : x y z
#
# Youngs Moduli (GPa) = 68.10765 87.26806 58.14636
#
# Poissons Ratio (x) = 0.40045 0.29518
# Poissons Ratio (y) = 0.31253 0.06428
# Poissons Ratio (z) = 0.34575 0.09647
#
# Static dielectric constant tensor:
#      x y z
#    x 6.843580 0.000000 2.880880 
#    y 0.000000 3.669470 0.000000 
#    z 2.880880 0.000000 5.774220 
# 
# 
# High freq. dielectric constant tensor:
#      x y z
#    x 1.735450 0.000000 0.015970 
#    y 0.000000 1.747470 0.000000 
#    z 0.015970 0.000000 1.749720 
# 
# From -- ./inp_files/175322.got.cif
#   From: 2010.06.25/outbox.cif.g09.slc.cpg/sg12_88_cif.got.tgz:175322.got - 2010.06.28 00:19:55.
