data_PCOD8091801
_publ_section_title
;
Structure prediction by ZEFSAII (Michael W. Deem and Ramdas Pophale) SiO2 
 PCOD8091801
Probable space group: C 2/M
;
_chemical_formula_sum "Si O2"
_cell_formula_units_Z 64
_cell_length_a 29.835015
_cell_length_b 9.101370
_cell_length_c 21.690289
_cell_angle_alpha 90.000000
_cell_angle_beta 33.528955
_cell_angle_gamma 90.000000
_cell_volume 3253.263759
_symmetry_space_group_name_H-M "C 2/M"
_symmetry_group_IT_number 12
_symmetry_cell_setting 'monoclinic'
loop_
_space_group_symop_operation_xyz
x,y,z
-x,y,-z
-x,-y,-z
x,-y,z
1/2+x,1/2+y,z
1/2-x,1/2+y,-z
1/2-x,1/2-y,-z
1/2+x,1/2-y,z
loop_
_atom_site_type_symbol
_atom_site_label
_atom_site_fract_x
_atom_site_fract_y
_atom_site_fract_z
Si Si1 0.186707 0.672104 0.232626
Si Si2 0.330106 0.828344 0.265858
Si Si3 0.942179 0.828071 0.689724
Si Si4 0.915616 0.333211 0.530581
Si Si5 0.680643 0.831385 0.483077
Si Si6 0.464851 0.327698 0.293530
Si Si7 0.667924 0.829510 0.877057
Si Si8 0.999364 0.331230 0.132539
O O1 0.195305 0.500000 0.211027
O O2 0.143769 0.746779 0.222640
O O3 0.132113 0.712325 0.353955
O O4 0.275649 0.738306 0.141133
O O5 0.269010 0.742755 0.381252
O O6 0.320363 0.774900 0.206507
O O7 0.420500 0.790339 0.183562
O O8 0.310952 0.000000 0.293197
O O9 0.007061 0.771659 0.565015
O O10 0.973999 0.787293 0.721181
O O11 0.929638 0.000000 0.695263
O O12 0.948196 0.500000 0.496793
O O13 0.854290 0.312521 0.544944
O O14 0.621874 0.751772 0.599080
O O15 0.689079 0.000000 0.493694
O O16 0.448449 0.500000 0.309464
O O17 0.506837 0.271843 0.183436
O O18 0.690846 0.000000 0.856797
O O19 0.575334 0.800321 0.001605
O O20 0.996935 0.500000 0.157422
#
# Coordination Sequence:
#
# PCOD8091801 Si02
#       8
#     8   8   8   8   8   8   8   8
#     4  11  21  34  54  83 116 148 185 228 280 337
#     4  10  20  36  60  88 117 146 183 232 286 341
#     4  10  21  35  54  81 111 146 189 231 277 334
#     4   9  18  32  50  78 116 150 180 221 276 336
#     4  10  19  34  57  85 118 153 186 228 281 337
#     4  10  22  40  59  82 114 151 193 238 281 330
#     4  10  21  38  60  85 116 149 186 233 283 336
#     4  10  22  40  61  84 110 149 194 235 283 337
#
# _framework density 19.672552
#
# number of rings (size 3 to 8) (size 9 to 14) (size 15 to 20)
#    0.000    2.000    1.250    2.250    0.000    7.500 
#    0.000    0.625    0.000    2.250    0.000    0.000 
#    0.000    0.000    0.000    0.000    0.000    0.000 
#
# Total GULP energy -396938.064258 kJ/mol
# GULP energy per Si atom -12404.314508 kJ/mol
# Density = 1.962778 g / cm^3
# Si number density = 19.672552 Si / 1000 Ang^3
#
#
#
# Elastic Constant Matrix: (Units=GPa)
#
#
# Indices 1 2 3 4 5 6 
#
# 1 62.3738 38.6863 36.2147 -0.0044 -16.9518 0.0026
# 2 38.6863 81.2666 31.5072 -0.0224 -10.6995 -0.0149
# 3 36.2147 31.5072 51.0835 -0.0220 -11.7953 -0.0233
# 4 -0.0044 -0.0224 -0.0220 33.2578 0.0017 -0.5330
# 5 -16.9518 -10.6995 -11.7953 0.0017 34.5846 0.0021
# 6 0.0026 -0.0149 -0.0233 -0.5330 0.0021 23.7190
#
#
#
# Elastic Compliance Matrix: (Units=1/GPa)
#
#
# Indices 1 2 3 4 5 6 
#
# 1 0.032773 -0.008226 -0.016325 -0.000013 0.007952 -0.000026
# 2 -0.008226 0.018334 -0.005534 0.000008 -0.000247 0.000007
# 3 -0.016325 -0.005534 0.035082 0.000018 0.002251 0.000033
# 4 -0.000013 0.000008 0.000018 0.030079 0.000001 0.000676
# 5 0.007952 -0.000247 0.002251 0.000001 0.033504 -0.000002
# 6 -0.000026 0.000007 0.000033 0.000676 -0.000002 0.042176
#
#
# Mechanical properties :
#
#
# Convention : Reuss Voigt Hill
#
# Bulk Modulus (GPa) = 38.43011 45.28225 41.85618
# Shear Modulus (GPa) = 19.17264 24.20000 21.68632
#
# Velocity S-wave (km/s) = 3.12523 3.51114 3.32379
# Velocity P-wave (km/s) = 5.70964 6.28533 6.00439
#
# Compressibility (1/GPa) = 0.02602127
#
# Stress axis : x y z
#
# Youngs Moduli (GPa) = 30.51248 54.54439 28.50489
#
# Poissons Ratio (x) = 0.44865 0.46534
# Poissons Ratio (y) = 0.25098 0.15773
# Poissons Ratio (z) = 0.49811 0.30182
#
# Static dielectric constant tensor:
#      x y z
#    x 3.608670 -0.000020 -0.105110 
#    y -0.000020 3.537560 0.000050 
#    z -0.105110 0.000050 3.436260 
# 
# 
# High freq. dielectric constant tensor:
#      x y z
#    x 1.769090 0.000000 -0.011660 
#    y 0.000000 1.765870 0.000000 
#    z -0.011660 0.000000 1.755020 
# 
# From -- ./inp_files/353397.got.cif
#   From: 2010.06.25/outbox.cif.g09.slc.cpg/sg12_177_cif.got.tgz:353397.got - 2010.06.28 00:19:55.
