data_PCOD8091967
_publ_section_title
;
Structure prediction by ZEFSAII (Michael W. Deem and Ramdas Pophale) SiO2 
 PCOD8091967
Probable space group: C 2/M
;
_chemical_formula_sum "Si O2"
_cell_formula_units_Z 64
_cell_length_a 29.339509
_cell_length_b 8.967402
_cell_length_c 18.395307
_cell_angle_alpha 90.000000
_cell_angle_beta 139.915202
_cell_angle_gamma 90.000000
_cell_volume 3116.440766
_symmetry_space_group_name_H-M "C 2/M"
_symmetry_group_IT_number 12
_symmetry_cell_setting 'monoclinic'
loop_
_space_group_symop_operation_xyz
x,y,z
-x,y,-z
-x,-y,-z
x,-y,z
1/2+x,1/2+y,z
1/2-x,1/2+y,-z
1/2-x,1/2-y,-z
1/2+x,1/2-y,z
loop_
_atom_site_type_symbol
_atom_site_label
_atom_site_fract_x
_atom_site_fract_y
_atom_site_fract_z
Si Si1 0.352147 0.177091 0.487028
Si Si2 0.444528 0.826695 0.870226
Si Si3 0.287687 0.826244 0.735663
Si Si4 0.062864 0.829176 0.290047
Si Si5 0.923959 0.824249 0.440067
Si Si6 0.908652 0.830443 0.145799
Si Si7 0.811149 0.327446 0.925405
Si Si8 0.836442 0.173935 0.199163
O O1 0.272063 0.233750 0.379155
O O2 0.376707 0.233046 0.596627
O O3 0.406747 0.239722 0.493672
O O4 0.353300 0.000000 0.486898
O O5 0.364154 0.796256 0.795287
O O6 0.457276 0.732762 0.813420
O O7 0.457706 0.000000 0.869398
O O8 0.500000 0.773415 0.000000
O O9 0.289674 0.766032 0.820479
O O10 0.266470 0.000000 0.706842
O O11 0.992733 0.818168 0.254073
O O12 0.088216 0.000000 0.313892
O O13 0.867748 0.763872 0.312585
O O14 0.000000 0.782863 0.500000
O O15 0.917478 0.000000 0.448344
O O16 0.873977 0.752412 0.174833
O O17 0.882872 0.000000 0.108721
O O18 0.881578 0.749993 0.040216
O O19 0.829205 0.500000 0.939545
O O20 0.747403 0.295487 0.904214
O O21 0.855052 0.000000 0.220918
#
# Coordination Sequence:
#
# PCOD8091967 Si02
#       8
#     8   8   8   8   8   8   8   8
#     4  12  25  40  61  90 125 160 203 258 308 359
#     4  10  22  42  69  98 125 155 197 252 310 365
#     4  10  21  40  65  90 121 161 203 246 303 374
#     4  11  24  42  63  87 121 162 204 249 302 367
#     4  10  19  36  62  85 116 165 213 254 301 363
#     4  10  21  36  56  85 118 155 200 248 297 354
#     4  10  19  34  58  85 117 157 197 244 300 361
#     4   9  17  32  54  82 115 153 200 242 289 355
#
# _framework density 20.536248000000001
#
# number of rings (size 3 to 8) (size 9 to 14) (size 15 to 20)
#    0.000    1.750    1.250    3.375    0.000    6.000 
#    0.000    0.625    0.000    0.000    0.000    0.000 
#    0.000    0.000    0.000    0.000    0.000    0.000 
#
# Total GULP energy -396834.518390 kJ/mol
# GULP energy per Si atom -12401.078700 kJ/mol
# Density = 2.048951 g / cm^3
# Si number density = 20.536248 Si / 1000 Ang^3
#
#
#
# Elastic Constant Matrix: (Units=GPa)
#
#
# Indices 1 2 3 4 5 6 
#
# 1 79.7514 32.7448 27.1276 0.0000 -5.2201 0.0000
# 2 32.7448 82.8901 51.0407 0.0000 -3.2390 0.0000
# 3 27.1276 51.0407 133.5536 0.0000 -8.4421 0.0000
# 4 0.0000 0.0000 0.0000 32.6745 0.0000 -2.1493
# 5 -5.2201 -3.2390 -8.4421 0.0000 32.7749 0.0000
# 6 0.0000 0.0000 0.0000 -2.1493 0.0000 25.7999
#
#
#
# Elastic Compliance Matrix: (Units=1/GPa)
#
#
# Indices 1 2 3 4 5 6 
#
# 1 0.015161 -0.005352 -0.000930 0.000000 0.001646 0.000000
# 2 -0.005352 0.017666 -0.005701 0.000000 -0.000575 0.000000
# 3 -0.000930 -0.005701 0.009973 0.000000 0.001857 0.000000
# 4 0.000000 0.000000 0.000000 0.030774 0.000000 0.002564
# 5 0.001646 -0.000575 0.001857 0.000000 0.031195 0.000000
# 6 0.000000 0.000000 0.000000 0.002564 0.000000 0.038973
#
#
# Mechanical properties :
#
#
# Convention : Reuss Voigt Hill
#
# Bulk Modulus (GPa) = 53.09597 57.55792 55.32694
# Shear Modulus (GPa) = 28.73813 30.60200 29.67006
#
# Velocity S-wave (km/s) = 3.74489 3.86443 3.80513
# Velocity P-wave (km/s) = 6.67906 6.92821 6.80477
#
# Compressibility (1/GPa) = 0.01883382
#
# Stress axis : x y z
#
# Youngs Moduli (GPa) = 65.96084 56.60488 100.27436
#
# Poissons Ratio (x) = 0.30295 0.09325
# Poissons Ratio (y) = 0.35302 0.57165
# Poissons Ratio (z) = 0.06134 0.32270
#
# Static dielectric constant tensor:
#      x y z
#    x 3.763990 0.000000 -0.029290 
#    y 0.000000 3.428360 0.000000 
#    z -0.029290 0.000000 3.796970 
# 
# 
# High freq. dielectric constant tensor:
#      x y z
#    x 1.809300 0.000000 0.001200 
#    y 0.000000 1.772700 0.000000 
#    z 0.001200 0.000000 1.815940 
# 
# From -- ./inp_files/295714.got.cif
#   From: 2010.06.25/outbox.cif.g09.slc.cpg/sg12_148_cif.got.tgz:295714.got - 2010.06.28 00:19:55.
