data_PCOD8091818
_publ_section_title
;
Structure prediction by ZEFSAII (Michael W. Deem and Ramdas Pophale) SiO2 
 PCOD8091818
Probable space group: C 2/M
;
_chemical_formula_sum "Si O2"
_cell_formula_units_Z 64
_cell_length_a 14.941019
_cell_length_b 9.031948
_cell_length_c 23.909690
_cell_angle_alpha 90.000000
_cell_angle_beta 88.644798
_cell_angle_gamma 90.000000
_cell_volume 3225.626639
_symmetry_space_group_name_H-M "C 2/M"
_symmetry_group_IT_number 12
_symmetry_cell_setting 'monoclinic'
loop_
_space_group_symop_operation_xyz
x,y,z
-x,y,-z
-x,-y,-z
x,-y,z
1/2+x,1/2+y,z
1/2-x,1/2+y,-z
1/2-x,1/2-y,-z
1/2+x,1/2-y,z
loop_
_atom_site_type_symbol
_atom_site_label
_atom_site_fract_x
_atom_site_fract_y
_atom_site_fract_z
Si Si1 0.476394 0.675511 0.938921
Si Si2 0.632169 0.330126 0.855329
Si Si3 0.828401 0.330372 0.876521
Si Si4 0.403127 0.830823 0.254234
Si Si5 0.768767 0.676045 0.440947
Si Si6 0.585755 0.675499 0.633307
Si Si7 0.113749 0.332202 0.243797
Si Si8 0.380722 0.672551 0.645473
O O1 0.471520 0.500000 0.939433
O O2 0.551680 0.732208 0.894429
O O3 0.380241 0.738185 0.922642
O O4 0.500000 0.736396 0.000000
O O5 0.614167 0.500000 0.838199
O O6 0.722801 0.316880 0.890330
O O7 0.645414 0.234795 0.799263
O O8 0.861451 0.500000 0.878705
O O9 0.848073 0.264947 0.814344
O O10 0.375465 0.735381 0.308597
O O11 0.507881 0.817595 0.242429
O O12 0.372691 0.000000 0.264211
O O13 0.778134 0.500000 0.446741
O O14 0.750000 0.750000 0.500000
O O15 0.861155 0.743944 0.416934
O O16 0.686126 0.721315 0.402420
O O17 0.599646 0.500000 0.629473
O O18 0.481594 0.721374 0.627843
O O19 0.146249 0.500000 0.250236
O O20 0.152484 0.245122 0.296302
O O21 0.377599 0.500000 0.656326
#
# Coordination Sequence:
#
# PCOD8091818 Si02
#       8
#     8   8   8   8   8   8   8   8
#     4  10  22  40  59  81 114 155 197 242 290 345
#     4  10  21  36  56  83 115 151 191 237 290 347
#     4  10  21  37  56  84 114 148 191 238 289 345
#     4  10  19  34  57  86 118 149 187 236 286 345
#     4  11  24  42  61  87 119 156 200 244 288 345
#     4  10  21  39  61  86 116 154 193 237 290 343
#     4   9  18  33  55  83 116 146 183 234 289 344
#     4   9  21  39  59  84 116 153 194 235 286 345
#
# _framework density 19.841104999999999
#
# number of rings (size 3 to 8) (size 9 to 14) (size 15 to 20)
#    0.000    2.125    1.250    1.125    1.750    4.250 
#    0.000    2.500    0.000    0.000    0.000    0.000 
#    0.000    0.000    0.000    0.000    0.000    0.000 
#
# Total GULP energy -396900.843833 kJ/mol
# GULP energy per Si atom -12403.151370 kJ/mol
# Density = 1.979595 g / cm^3
# Si number density = 19.841105 Si / 1000 Ang^3
#
#
#
# Elastic Constant Matrix: (Units=GPa)
#
#
# Indices 1 2 3 4 5 6 
#
# 1 58.0116 22.3373 21.7416 0.0000 13.4507 0.0000
# 2 22.3373 54.5410 30.6421 0.0000 8.3512 0.0000
# 3 21.7416 30.6421 100.4183 0.0000 17.4342 0.0000
# 4 0.0000 0.0000 0.0000 33.1344 0.0000 3.9739
# 5 13.4507 8.3512 17.4342 0.0000 30.4605 0.0000
# 6 0.0000 0.0000 0.0000 3.9739 0.0000 27.9876
#
#
#
# Elastic Compliance Matrix: (Units=1/GPa)
#
#
# Indices 1 2 3 4 5 6 
#
# 1 0.022164 -0.007231 -0.001374 0.000000 -0.007019 0.000000
# 2 -0.007231 0.024653 -0.005927 0.000000 -0.000174 0.000000
# 3 -0.001374 -0.005927 0.012965 0.000000 -0.005189 0.000000
# 4 0.000000 0.000000 0.000000 0.030703 0.000000 -0.004359
# 5 -0.007019 -0.000174 -0.005189 0.000000 0.038946 0.000000
# 6 0.000000 0.000000 0.000000 -0.004359 0.000000 0.036349
#
#
# Mechanical properties :
#
#
# Convention : Reuss Voigt Hill
#
# Bulk Modulus (GPa) = 32.55314 40.26810 36.41062
# Shear Modulus (GPa) = 24.38028 27.53316 25.95672
#
# Velocity S-wave (km/s) = 3.50919 3.72920 3.62087
# Velocity P-wave (km/s) = 5.73252 6.23554 5.98931
#
# Compressibility (1/GPa) = 0.03071901
#
# Stress axis : x y z
#
# Youngs Moduli (GPa) = 45.11729 40.56343 77.12917
#
# Poissons Ratio (x) = 0.29331 0.10596
# Poissons Ratio (y) = 0.32624 0.45714
# Poissons Ratio (z) = 0.06198 0.24042
#
# Static dielectric constant tensor:
#      x y z
#    x 3.690560 0.000000 -0.029660 
#    y 0.000000 3.535010 0.000000 
#    z -0.029660 0.000000 3.609700 
# 
# 
# High freq. dielectric constant tensor:
#      x y z
#    x 1.778580 0.000000 -0.001280 
#    y 0.000000 1.767300 0.000000 
#    z -0.001280 0.000000 1.769580 
# 
# From -- ./inp_files/338806.got.cif
#   From: 2010.06.25/outbox.cif.g09.slc.cpg/sg12_170_cif.got.tgz:338806.got - 2010.06.28 00:19:55.
