data_PCOD8091895
_publ_section_title
;
Structure prediction by ZEFSAII (Michael W. Deem and Ramdas Pophale) SiO2 
 PCOD8091895
Probable space group: C 2/M
;
_chemical_formula_sum "Si O2"
_cell_formula_units_Z 48
_cell_length_a 31.421529
_cell_length_b 8.664136
_cell_length_c 9.637158
_cell_angle_alpha 90.000000
_cell_angle_beta 103.103321
_cell_angle_gamma 90.000000
_cell_volume 2555.312012
_symmetry_space_group_name_H-M "C 2/M"
_symmetry_group_IT_number 12
_symmetry_cell_setting 'monoclinic'
loop_
_space_group_symop_operation_xyz
x,y,z
-x,y,-z
-x,-y,-z
x,-y,z
1/2+x,1/2+y,z
1/2-x,1/2+y,-z
1/2-x,1/2-y,-z
1/2+x,1/2-y,z
loop_
_atom_site_type_symbol
_atom_site_label
_atom_site_fract_x
_atom_site_fract_y
_atom_site_fract_z
Si Si1 0.549769 0.817723 0.048567
Si Si2 0.379221 0.680210 0.091805
Si Si3 0.237680 0.680738 0.638549
Si Si4 0.646249 0.322663 0.622888
Si Si5 0.182917 0.682750 0.167348
Si Si6 0.888836 0.820510 0.693879
O O1 0.568554 0.760791 0.210135
O O2 0.554359 0.000000 0.043189
O O3 0.500000 0.762476 0.000000
O O4 0.576362 0.745481 0.940542
O O5 0.376366 0.500000 0.057931
O O6 0.379613 0.716289 0.255519
O O7 0.336902 0.760944 0.993019
O O8 0.246155 0.500000 0.639850
O O9 0.250000 0.750000 0.500000
O O10 0.187851 0.713161 0.640588
O O11 0.267874 0.755685 0.780301
O O12 0.662452 0.500000 0.632624
O O13 0.612439 0.292114 0.472156
O O14 0.182287 0.500000 0.172553
O O15 0.154841 0.748405 0.274123
O O16 0.890411 0.000000 0.733235
#
# Coordination Sequence:
#
# PCOD8091895 Si02
#       6
#     8   8   8   8   8   8
#     4  10  21  38  60  85 112 143 182 227 275 337
#     4  10  21  38  59  83 113 147 183 230 283 334
#     4  12  23  35  55  81 111 150 194 236 275 322
#     4  10  22  38  56  82 115 148 185 231 282 331
#     4  11  21  35  55  80 111 150 192 234 275 326
#     4  10  19  34  58  83 110 144 184 230 277 332
#
# _framework density 18.784400000000002
#
# number of rings (size 3 to 8) (size 9 to 14) (size 15 to 20)
#    0.000    1.500    1.667    6.500    0.000    4.000 
#    0.000    0.833    0.000    5.000    0.000    0.000 
#    0.000    0.000    0.000    0.000    0.000    0.000 
#
# Total GULP energy -297678.926762 kJ/mol
# GULP energy per Si atom -12403.288615 kJ/mol
# Density = 1.874165 g / cm^3
# Si number density = 18.784400 Si / 1000 Ang^3
#
#
#
# Elastic Constant Matrix: (Units=GPa)
#
#
# Indices 1 2 3 4 5 6 
#
# 1 122.2276 60.6476 65.9385 0.0000 18.1153 0.0000
# 2 60.6476 153.3182 62.0784 0.0000 8.5361 0.0000
# 3 65.9385 62.0784 156.7116 0.0000 3.7864 0.0000
# 4 0.0000 0.0000 0.0000 21.5131 0.0000 3.0983
# 5 18.1153 8.5361 3.7864 0.0000 23.7091 0.0000
# 6 0.0000 0.0000 0.0000 3.0983 0.0000 31.0812
#
#
#
# Elastic Compliance Matrix: (Units=1/GPa)
#
#
# Indices 1 2 3 4 5 6 
#
# 1 0.013157 -0.003076 -0.004117 0.000000 -0.008288 0.000000
# 2 -0.003076 0.008616 -0.002109 0.000000 -0.000415 0.000000
# 3 -0.004117 -0.002109 0.008889 0.000000 0.002486 0.000000
# 4 0.000000 0.000000 0.000000 0.047160 0.000000 -0.004701
# 5 -0.008288 -0.000415 0.002486 0.000000 0.048263 0.000000
# 6 0.000000 0.000000 0.000000 -0.004701 0.000000 0.032642
#
#
# Mechanical properties :
#
#
# Convention : Reuss Voigt Hill
#
# Bulk Modulus (GPa) = 82.93298 89.95404 86.44351
# Shear Modulus (GPa) = 27.57074 31.50020 29.53547
#
# Velocity S-wave (km/s) = 3.83527 4.09948 3.96958
# Velocity P-wave (km/s) = 7.99113 8.39043 8.19321
#
# Compressibility (1/GPa) = 0.01205793
#
# Stress axis : x y z
#
# Youngs Moduli (GPa) = 76.00346 116.06146 112.50006
#
# Poissons Ratio (x) = 0.35701 0.46320
# Poissons Ratio (y) = 0.23379 0.23724
# Poissons Ratio (z) = 0.31293 0.24475
#
# Static dielectric constant tensor:
#      x y z
#    x 3.322090 0.000000 0.148100 
#    y 0.000000 3.570890 0.000000 
#    z 0.148100 0.000000 3.573320 
# 
# 
# High freq. dielectric constant tensor:
#      x y z
#    x 1.709130 0.000000 0.012910 
#    y 0.000000 1.746430 0.000000 
#    z 0.012910 0.000000 1.733540 
# 
# From -- ./inp_files/108782.got.cif
#   From: 2010.06.25/outbox.cif.g09.slc.cpg/sg12_55_cif.got.tgz:108782.got - 2010.06.28 00:19:55.
