data_PCOD8091506
_publ_section_title
;
Structure prediction by ZEFSAII (Michael W. Deem and Ramdas Pophale) SiO2 
 PCOD8091506
Probable space group: C 2/M
;
_chemical_formula_sum "Si O2"
_cell_formula_units_Z 48
_cell_length_a 20.374505
_cell_length_b 8.834706
_cell_length_c 14.020827
_cell_angle_alpha 90.000000
_cell_angle_beta 90.855137
_cell_angle_gamma 90.000000
_cell_volume 2523.506492
_symmetry_space_group_name_H-M "C 2/M"
_symmetry_group_IT_number 12
_symmetry_cell_setting 'monoclinic'
loop_
_space_group_symop_operation_xyz
x,y,z
-x,y,-z
-x,-y,-z
x,-y,z
1/2+x,1/2+y,z
1/2-x,1/2+y,-z
1/2-x,1/2-y,-z
1/2+x,1/2-y,z
loop_
_atom_site_type_symbol
_atom_site_label
_atom_site_fract_x
_atom_site_fract_y
_atom_site_fract_z
Si Si1 0.389323 0.179360 0.744108
Si Si2 0.192896 0.322072 0.939908
Si Si3 0.751165 0.672313 0.256027
Si Si4 0.434302 0.678400 0.553910
Si Si5 0.933047 0.680104 0.953592
Si Si6 0.312086 0.173414 0.455418
O O1 0.313248 0.225909 0.731891
O O2 0.432122 0.247779 0.658857
O O3 0.419612 0.238113 0.845244
O O4 0.393115 0.000000 0.737793
O O5 0.195271 0.500000 0.954576
O O6 0.204513 0.273701 0.831357
O O7 0.250000 0.250000 0.000000
O O8 0.123950 0.259233 0.977634
O O9 0.726159 0.500000 0.243311
O O10 0.802622 0.685972 0.342526
O O11 0.500000 0.726088 0.500000
O O12 0.428367 0.500000 0.567092
O O13 0.375882 0.735495 0.486457
O O14 0.935644 0.500000 0.952412
O O15 0.000000 0.746762 0.000000
O O16 0.250000 0.250000 0.500000
O O17 0.318356 0.000000 0.489901
#
# Coordination Sequence:
#
# PCOD8091506 Si02
#       6
#     8   8   8   8   8   8
#     4  11  21  35  61  89 113 152 197 244 297 357
#     4  10  19  34  56  83 113 150 190 235 286 337
#     4  10  21  35  57  86 119 155 192 242 297 349
#     4  11  25  43  61  84 120 161 197 246 305 357
#     4   9  19  35  56  85 119 151 190 239 291 345
#     4  11  22  37  60  90 119 154 199 246 295 351
#
# _framework density 19.021152000000001
#
# number of rings (size 3 to 8) (size 9 to 14) (size 15 to 20)
#    0.000    1.667    3.333    1.500    0.000    3.333 
#    0.000    3.333    0.000    4.500    0.000    0.000 
#    0.000    0.000    0.000    0.000    0.000    0.000 
#
# Total GULP energy -297590.842782 kJ/mol
# GULP energy per Si atom -12399.618449 kJ/mol
# Density = 1.897786 g / cm^3
# Si number density = 19.021152 Si / 1000 Ang^3
#
#
#
# Elastic Constant Matrix: (Units=GPa)
#
#
# Indices 1 2 3 4 5 6 
#
# 1 150.8529 33.0742 68.2809 0.0000 -15.6223 0.0000
# 2 33.0742 48.8134 35.0352 0.0000 -14.0028 0.0000
# 3 68.2809 35.0352 150.8445 0.0000 -21.0564 0.0000
# 4 0.0000 0.0000 0.0000 24.1052 0.0000 1.6182
# 5 -15.6223 -14.0028 -21.0564 0.0000 36.9854 0.0000
# 6 0.0000 0.0000 0.0000 1.6182 0.0000 26.3337
#
#
#
# Elastic Compliance Matrix: (Units=1/GPa)
#
#
# Indices 1 2 3 4 5 6 
#
# 1 0.008889 -0.003623 -0.003095 0.000000 0.000621 0.000000
# 2 -0.003623 0.027629 -0.003835 0.000000 0.006747 0.000000
# 3 -0.003095 -0.003835 0.009273 0.000000 0.002520 0.000000
# 4 0.000000 0.000000 0.000000 0.041657 0.000000 -0.002560
# 5 0.000621 0.006747 0.002520 0.000000 0.031289 0.000000
# 6 0.000000 0.000000 0.000000 -0.002560 0.000000 0.038131
#
#
# Mechanical properties :
#
#
# Convention : Reuss Voigt Hill
#
# Bulk Modulus (GPa) = 40.51327 69.25459 54.88393
# Shear Modulus (GPa) = 26.85242 31.75955 29.30599
#
# Velocity S-wave (km/s) = 3.76135 4.09063 3.92944
# Velocity P-wave (km/s) = 6.34106 7.66807 7.03592
#
# Compressibility (1/GPa) = 0.02468327
#
# Stress axis : x y z
#
# Youngs Moduli (GPa) = 112.50309 36.19368 107.83927
#
# Poissons Ratio (x) = 0.13113 0.33381
# Poissons Ratio (y) = 0.40759 0.41361
# Poissons Ratio (z) = 0.34825 0.13882
#
# Static dielectric constant tensor:
#      x y z
#    x 3.383810 0.000000 -0.236790 
#    y 0.000000 3.404480 0.000000 
#    z -0.236790 0.000000 3.549540 
# 
# 
# High freq. dielectric constant tensor:
#      x y z
#    x 1.736880 0.000000 -0.002970 
#    y 0.000000 1.727260 0.000000 
#    z -0.002970 0.000000 1.759830 
# 
# From -- ./inp_files/229320.got.cif
#   From: 2010.06.25/outbox.cif.g09.slc.cpg/sg12_115_cif.got.tgz:229320.got - 2010.06.28 00:19:55.
