data_PCOD8091994
_publ_section_title
;
Structure prediction by ZEFSAII (Michael W. Deem and Ramdas Pophale) SiO2 
 PCOD8091994
Probable space group: C 2/M
;
_chemical_formula_sum "Si O2"
_cell_formula_units_Z 56
_cell_length_a 28.211880
_cell_length_b 13.467411
_cell_length_c 9.907447
_cell_angle_alpha 90.000000
_cell_angle_beta 128.445886
_cell_angle_gamma 90.000000
_cell_volume 2948.140815
_symmetry_space_group_name_H-M "C 2/M"
_symmetry_group_IT_number 12
_symmetry_cell_setting 'monoclinic'
loop_
_space_group_symop_operation_xyz
x,y,z
-x,y,-z
-x,-y,-z
x,-y,z
1/2+x,1/2+y,z
1/2-x,1/2+y,-z
1/2-x,1/2-y,-z
1/2+x,1/2-y,z
loop_
_atom_site_type_symbol
_atom_site_label
_atom_site_fract_x
_atom_site_fract_y
_atom_site_fract_z
Si Si1 0.488969 0.386886 0.133656
Si Si2 0.137014 0.615185 0.556730
Si Si3 0.738566 0.615777 0.086139
Si Si4 0.552259 0.719879 0.483331
Si Si5 0.146543 0.885937 0.143722
Si Si6 0.812952 0.231819 0.540795
Si Si7 0.825153 0.883176 0.291244
O O1 0.511113 0.500000 0.195813
O O2 0.527239 0.314558 0.295180
O O3 0.500000 0.354259 0.000000
O O4 0.418111 0.376741 0.043916
O O5 0.123207 0.500000 0.508702
O O6 0.190841 0.633908 0.759983
O O7 0.077498 0.668168 0.511084
O O8 0.156002 0.663880 0.446939
O O9 0.722580 0.500000 0.054644
O O10 0.697511 0.660411 0.134740
O O11 0.719217 0.658766 0.905616
O O12 0.500000 0.717560 0.500000
O O13 0.606068 0.646487 0.623679
O O14 0.143778 0.825334 0.278561
O O15 0.161136 0.000000 0.206957
O O16 0.750000 0.250000 0.500000
O O17 0.803175 0.166954 0.389639
O O18 0.820100 0.000000 0.299344
#
# Coordination Sequence:
#
# PCOD8091994 Si02
#       7
#     8   8   8   8   8   8   8
#     4  10  20  35  56  83 118 152 180 222 280 346
#     4  10  22  40  59  78 112 153 196 237 280 334
#     4   9  18  35  57  82 111 149 182 222 286 344
#     4  11  23  37  57  87 109 146 195 237 281 328
#     4  10  19  34  58  86 117 148 181 225 286 348
#     4  11  21  34  56  90 115 151 185 228 280 334
#     4  10  21  36  57  87 122 146 178 232 290 345
#
# _framework density 18.995021999999999
#
# number of rings (size 3 to 8) (size 9 to 14) (size 15 to 20)
#    0.000    1.857    1.429    3.429    0.000    6.571 
#    2.571    0.000    0.000    3.857    0.000    0.000 
#    0.000    0.000    0.000    0.000    0.000    0.000 
#
# Total GULP energy -347216.384486 kJ/mol
# GULP energy per Si atom -12400.585160 kJ/mol
# Density = 1.895179 g / cm^3
# Si number density = 18.995022 Si / 1000 Ang^3
#
#
#
# Elastic Constant Matrix: (Units=GPa)
#
#
# Indices 1 2 3 4 5 6 
#
# 1 122.8516 36.5219 44.6764 0.0000 -6.6902 0.0000
# 2 36.5219 102.5551 57.0311 0.0000 -5.0999 0.0000
# 3 44.6764 57.0311 129.2222 0.0000 -8.9779 0.0000
# 4 0.0000 0.0000 0.0000 28.6304 0.0000 5.9666
# 5 -6.6902 -5.0999 -8.9779 0.0000 28.8199 0.0000
# 6 0.0000 0.0000 0.0000 5.9666 0.0000 22.8561
#
#
#
# Elastic Compliance Matrix: (Units=1/GPa)
#
#
# Indices 1 2 3 4 5 6 
#
# 1 0.009675 -0.002084 -0.002345 0.000000 0.001146 0.000000
# 2 -0.002084 0.013379 -0.005165 0.000000 0.000275 0.000000
# 3 -0.002345 -0.005165 0.010965 0.000000 0.001957 0.000000
# 4 0.000000 0.000000 0.000000 0.036937 0.000000 -0.009643
# 5 0.001146 0.000275 0.001957 0.000000 0.035623 0.000000
# 6 0.000000 0.000000 0.000000 -0.009643 0.000000 0.046269
#
#
# Mechanical properties :
#
#
# Convention : Reuss Voigt Hill
#
# Bulk Modulus (GPa) = 67.43245 70.12086 68.77666
# Shear Modulus (GPa) = 28.25165 30.48791 29.36978
#
# Velocity S-wave (km/s) = 3.86076 4.01065 3.93642
# Velocity P-wave (km/s) = 7.44655 7.64478 7.54631
#
# Compressibility (1/GPa) = 0.01482966
#
# Stress axis : x y z
#
# Youngs Moduli (GPa) = 103.36065 74.74392 91.19863
#
# Poissons Ratio (x) = 0.15577 0.21390
# Poissons Ratio (y) = 0.21541 0.47105
# Poissons Ratio (z) = 0.24243 0.38606
#
# Static dielectric constant tensor:
#      x y z
#    x 3.484830 0.000000 -0.037380 
#    y 0.000000 3.490430 0.000000 
#    z -0.037380 0.000000 3.640330 
# 
# 
# High freq. dielectric constant tensor:
#      x y z
#    x 1.740110 0.000000 -0.000530 
#    y 0.000000 1.727650 0.000000 
#    z -0.000530 0.000000 1.742520 
# 
# From -- ./inp_files/111562.got.cif
#   From: 2010.06.25/outbox.cif.g09.slc.cpg/sg12_56_cif.got.tgz:111562.got - 2010.06.28 00:19:55.
