data_PCOD8091319
_publ_section_title
;
Structure prediction by ZEFSAII (Michael W. Deem and Ramdas Pophale) SiO2 
 PCOD8091319
Probable space group: C 2/M
;
_chemical_formula_sum "Si O2"
_cell_formula_units_Z 64
_cell_length_a 21.418730
_cell_length_b 20.202441
_cell_length_c 9.335194
_cell_angle_alpha 90.000000
_cell_angle_beta 64.769387
_cell_angle_gamma 90.000000
_cell_volume 3654.073014
_symmetry_space_group_name_H-M "C 2/M"
_symmetry_group_IT_number 12
_symmetry_cell_setting 'monoclinic'
loop_
_space_group_symop_operation_xyz
x,y,z
-x,y,-z
-x,-y,-z
x,-y,z
1/2+x,1/2+y,z
1/2-x,1/2+y,-z
1/2-x,1/2-y,-z
1/2+x,1/2-y,z
loop_
_atom_site_type_symbol
_atom_site_label
_atom_site_fract_x
_atom_site_fract_y
_atom_site_fract_z
Si Si1 0.685916 0.077295 0.374108
Si Si2 0.421737 0.812157 0.527942
Si Si3 0.070492 0.824041 0.998733
Si Si4 0.259860 0.649417 0.551522
Si Si5 0.140680 0.249872 0.683428
Si Si6 0.334998 0.425329 0.718032
Si Si7 0.566141 0.309814 0.333836
Si Si8 0.188361 0.073627 0.936671
O O1 0.617263 0.118947 0.411068
O O2 0.722178 0.098559 0.484448
O O3 0.738864 0.096305 0.197142
O O4 0.666426 0.000000 0.397350
O O5 0.500000 0.826296 0.500000
O O6 0.412170 0.786822 0.373081
O O7 0.388057 0.753922 0.661786
O O8 0.052847 0.801200 0.177675
O O9 0.099520 0.764514 0.871095
O O10 0.126289 0.881668 0.942868
O O11 0.000000 0.851936 0.000000
O O12 0.206649 0.705149 0.656833
O O13 0.328705 0.682100 0.415286
O O14 0.279782 0.604420 0.665144
O O15 0.356420 0.500000 0.652952
O O16 0.403268 0.380780 0.656939
O O17 0.299533 0.423551 0.906544
O O18 0.500000 0.301851 0.500000
O O19 0.169640 0.000000 0.901880
#
# Coordination Sequence:
#
# PCOD8091319 Si02
#       8
#     8   8   8   8   8   8   8   8
#     4  10  20  35  57  81 107 143 183 226 273 322
#     4  10  20  36  56  78 111 143 178 228 271 324
#     4  11  21  33  54  77 108 144 180 224 273 319
#     4  10  19  34  56  77 106 136 177 226 262 322
#     4  10  20  35  53  80 106 137 178 219 273 318
#     4  10  20  34  53  75 103 141 180 225 270 316
#     4  10  21  35  52  75 107 145 182 221 267 323
#     4   9  20  36  50  74 109 141 182 226 267 320
#
# _framework density 17.514702
#
# number of rings (size 3 to 8) (size 9 to 14) (size 15 to 20)
#    0.000    2.000    2.500    1.875    0.000    1.750 
#    0.000    2.500    0.000    0.000    0.000    0.000 
#    0.000   19.000    0.000    0.000    0.000    0.000 
#
# Total GULP energy -396629.903133 kJ/mol
# GULP energy per Si atom -12394.684473 kJ/mol
# Density = 1.747484 g / cm^3
# Si number density = 17.514702 Si / 1000 Ang^3
#
#
#
# Elastic Constant Matrix: (Units=GPa)
#
#
# Indices 1 2 3 4 5 6 
#
# 1 103.8381 60.3937 54.9963 0.0000 5.2425 0.0000
# 2 60.3937 118.5321 55.5607 0.0000 1.7616 0.0000
# 3 54.9963 55.5607 111.8561 0.0000 0.8311 0.0000
# 4 0.0000 0.0000 0.0000 20.2314 0.0000 7.2781
# 5 5.2425 1.7616 0.8311 0.0000 24.9449 0.0000
# 6 0.0000 0.0000 0.0000 7.2781 0.0000 17.1688
#
#
#
# Elastic Compliance Matrix: (Units=1/GPa)
#
#
# Indices 1 2 3 4 5 6 
#
# 1 0.015623 -0.005642 -0.004858 0.000000 -0.002723 0.000000
# 2 -0.005642 0.013043 -0.003708 0.000000 0.000388 0.000000
# 3 -0.004858 -0.003708 0.013164 0.000000 0.000844 0.000000
# 4 0.000000 0.000000 0.000000 0.058322 0.000000 -0.024724
# 5 -0.002723 0.000388 0.000844 0.000000 0.040605 0.000000
# 6 0.000000 0.000000 0.000000 -0.024724 0.000000 0.068726
#
#
# Mechanical properties :
#
#
# Convention : Reuss Voigt Hill
#
# Bulk Modulus (GPa) = 74.55024 75.12528 74.83776
# Shear Modulus (GPa) = 20.62950 23.35405 21.99178
#
# Velocity S-wave (km/s) = 3.43569 3.65553 3.54731
# Velocity P-wave (km/s) = 7.64169 7.79763 7.72005
#
# Compressibility (1/GPa) = 0.01341377
#
# Stress axis : x y z
#
# Youngs Moduli (GPa) = 64.00994 76.66681 75.96370
#
# Poissons Ratio (x) = 0.43256 0.36906
# Poissons Ratio (y) = 0.36115 0.28165
# Poissons Ratio (z) = 0.31098 0.28426
#
# Static dielectric constant tensor:
#      x y z
#    x 3.170650 0.000000 0.089860 
#    y 0.000000 3.484140 0.000000 
#    z 0.089860 0.000000 3.316830 
# 
# 
# High freq. dielectric constant tensor:
#      x y z
#    x 1.672790 0.000000 0.011380 
#    y 0.000000 1.678280 0.000000 
#    z 0.011380 0.000000 1.676950 
# 
# From -- ./inp_files/89122.got.cif
#   From: 2010.06.25/outbox.cif.g09.slc.cpg/sg12_45_cif.got.tgz:89122.got - 2010.06.28 00:19:55.
