data_PCOD8091928
_publ_section_title
;
Structure prediction by ZEFSAII (Michael W. Deem and Ramdas Pophale) SiO2 
 PCOD8091928
Probable space group: C 2/M
;
_chemical_formula_sum "Si O2"
_cell_formula_units_Z 56
_cell_length_a 24.922295
_cell_length_b 9.165107
_cell_length_c 18.142432
_cell_angle_alpha 90.000000
_cell_angle_beta 43.445084
_cell_angle_gamma 90.000000
_cell_volume 2849.667674
_symmetry_space_group_name_H-M "C 2/M"
_symmetry_group_IT_number 12
_symmetry_cell_setting 'monoclinic'
loop_
_space_group_symop_operation_xyz
x,y,z
-x,y,-z
-x,-y,-z
x,-y,z
1/2+x,1/2+y,z
1/2-x,1/2+y,-z
1/2-x,1/2-y,-z
1/2+x,1/2-y,z
loop_
_atom_site_type_symbol
_atom_site_label
_atom_site_fract_x
_atom_site_fract_y
_atom_site_fract_z
Si Si1 0.591176 0.828284 0.233358
Si Si2 0.930545 0.166575 0.382004
Si Si3 0.148162 0.829560 0.692749
Si Si4 0.210658 0.172869 0.211434
Si Si5 0.360782 0.171497 0.975232
Si Si6 0.213110 0.832468 0.378114
Si Si7 0.486229 0.835212 0.099615
O O1 0.502781 0.774831 0.315410
O O2 0.632556 0.748731 0.259893
O O3 0.638851 0.788554 0.111403
O O4 0.590120 0.000000 0.248441
O O5 0.879279 0.208466 0.362104
O O6 0.876513 0.187698 0.507676
O O7 0.960872 0.000000 0.346067
O O8 0.232974 0.762383 0.622191
O O9 0.088635 0.762339 0.810697
O O10 0.153435 0.000000 0.701434
O O11 0.221677 0.218632 0.285176
O O12 0.200621 0.000000 0.212846
O O13 0.283983 0.235421 0.091542
O O14 0.439014 0.236215 0.934227
O O15 0.361434 0.000000 0.988698
O O16 0.239273 0.000000 0.360411
O O17 0.471219 0.000000 0.143450
O O18 0.500000 0.835976 0.000000
#
# Coordination Sequence:
#
# PCOD8091928 Si02
#       7
#     8   8   8   8   8   8   8
#     4  11  22  37  59  86 116 151 190 237 291 346
#     4  10  22  40  60  85 115 153 197 237 285 345
#     4  11  22  36  57  87 121 150 186 239 294 344
#     4  10  21  39  61  84 112 148 193 242 286 338
#     4   9  18  34  56  84 113 145 189 232 280 340
#     4  10  22  40  62  84 112 154 199 239 285 344
#     4  10  19  34  58  84 115 155 195 233 277 341
#
# _framework density 19.651413999999999
#
# number of rings (size 3 to 8) (size 9 to 14) (size 15 to 20)
#    0.000    1.857    1.429    2.571    0.000    4.857 
#    0.000    4.286    0.000    0.000    0.000    0.000 
#    0.000    0.000    0.000    0.000    0.000    0.000 
#
# Total GULP energy -347309.385110 kJ/mol
# GULP energy per Si atom -12403.906611 kJ/mol
# Density = 1.960669 g / cm^3
# Si number density = 19.651414 Si / 1000 Ang^3
#
#
#
# Elastic Constant Matrix: (Units=GPa)
#
#
# Indices 1 2 3 4 5 6 
#
# 1 100.5926 46.5044 31.8977 0.0056 -6.2014 -0.0056
# 2 46.5044 62.4733 34.8940 0.0086 -4.2329 -0.0103
# 3 31.8977 34.8940 104.5414 0.0035 -3.9560 -0.0041
# 4 0.0056 0.0086 0.0035 17.6224 -0.0035 -3.8799
# 5 -6.2014 -4.2329 -3.9560 -0.0035 20.1179 0.0060
# 6 -0.0056 -0.0103 -0.0041 -3.8799 0.0060 33.8830
#
#
#
# Elastic Compliance Matrix: (Units=1/GPa)
#
#
# Indices 1 2 3 4 5 6 
#
# 1 0.015355 -0.010702 -0.001027 0.000001 0.002279 -0.000001
# 2 -0.010702 0.027300 -0.005797 -0.000008 0.001305 0.000005
# 3 -0.001027 -0.005797 0.011844 0.000001 0.000793 -0.000001
# 4 0.000001 -0.000008 0.000001 0.058214 0.000007 0.006666
# 5 0.002279 0.001305 0.000793 0.000007 0.050840 -0.000007
# 6 -0.000001 0.000005 -0.000001 0.006666 -0.000007 0.030277
#
#
# Mechanical properties :
#
#
# Convention : Reuss Voigt Hill
#
# Bulk Modulus (GPa) = 51.42351 54.91105 53.16728
# Shear Modulus (GPa) = 21.24377 24.61206 22.92792
#
# Velocity S-wave (km/s) = 3.29147 3.54281 3.41945
# Velocity P-wave (km/s) = 6.37728 6.68869 6.53484
#
# Compressibility (1/GPa) = 0.01944636
#
# Stress axis : x y z
#
# Youngs Moduli (GPa) = 65.12645 36.63028 84.43163
#
# Poissons Ratio (x) = 0.39202 0.08668
# Poissons Ratio (y) = 0.69698 0.48948
# Poissons Ratio (z) = 0.06686 0.21236
#
# Static dielectric constant tensor:
#      x y z
#    x 3.567330 0.000000 0.012590 
#    y 0.000000 3.424440 0.000000 
#    z 0.012590 0.000000 3.658580 
# 
# 
# High freq. dielectric constant tensor:
#      x y z
#    x 1.771470 0.000000 -0.000370 
#    y 0.000000 1.745620 0.000000 
#    z -0.000370 0.000000 1.773590 
# 
# From -- ./inp_files/288225.got.cif
#   From: 2010.06.25/outbox.cif.g09.slc.cpg/sg12_145_cif.got.tgz:288225.got - 2010.06.28 00:19:55.
