data_PCOD8091992
_publ_section_title
;
Structure prediction by ZEFSAII (Michael W. Deem and Ramdas Pophale) SiO2 
 PCOD8091992
Probable space group: C 2/M
;
_chemical_formula_sum "Si O2"
_cell_formula_units_Z 40
_cell_length_a 27.438466
_cell_length_b 8.250404
_cell_length_c 8.993293
_cell_angle_alpha 90.000000
_cell_angle_beta 71.211159
_cell_angle_gamma 90.000000
_cell_volume 1927.399185
_symmetry_space_group_name_H-M "C 2/M"
_symmetry_group_IT_number 12
_symmetry_cell_setting 'monoclinic'
loop_
_space_group_symop_operation_xyz
x,y,z
-x,y,-z
-x,-y,-z
x,-y,z
1/2+x,1/2+y,z
1/2-x,1/2+y,-z
1/2-x,1/2-y,-z
1/2+x,1/2-y,z
loop_
_atom_site_type_symbol
_atom_site_label
_atom_site_fract_x
_atom_site_fract_y
_atom_site_fract_z
Si Si1 0.000251 0.806461 0.831984
Si Si2 0.201460 0.807732 0.955637
Si Si3 0.400369 0.689388 0.434464
Si Si4 0.898532 0.192753 0.768293
Si Si5 0.301043 0.187906 0.372231
O O1 0.050454 0.735540 0.699126
O O2 0.949737 0.740795 0.797676
O O3 0.000981 0.000000 0.832758
O O4 0.000000 0.738913 0.000000
O O5 0.202859 0.718197 0.798046
O O6 0.201964 0.000000 0.931322
O O7 0.250000 0.750000 0.000000
O O8 0.150878 0.747401 0.091937
O O9 0.409691 0.500000 0.441976
O O10 0.395768 0.765458 0.604075
O O11 0.349311 0.717418 0.390689
O O12 0.899039 0.000000 0.762830
O O13 0.250000 0.250000 0.500000
O O14 0.308219 0.000000 0.398995
#
# Coordination Sequence:
#
# PCOD8091992 Si02
#       5
#     8   8   8   8   8
#     4   9  16  28  51  84 118 151 189 233 281 337
#     4  11  22  38  60  86 118 154 195 240 289 343
#     4  10  19  34  58  86 116 149 189 237 288 342
#     4   9  18  32  54  85 116 149 190 235 282 339
#     4  12  25  41  60  83 113 149 193 241 294 352
#
# _framework density 20.753354999999999
#
# number of rings (size 3 to 8) (size 9 to 14) (size 15 to 20)
#    0.000    1.800    0.000    5.400    0.000    7.200 
#    0.000    1.000    0.000    9.000    0.000    0.000 
#    0.000    0.000    0.000    0.000    0.000    0.000 
#
# Total GULP energy -248054.615025 kJ/mol
# GULP energy per Si atom -12402.730751 kJ/mol
# Density = 2.070612 g / cm^3
# Si number density = 20.753355 Si / 1000 Ang^3
#
#
#
# Elastic Constant Matrix: (Units=GPa)
#
#
# Indices 1 2 3 4 5 6 
#
# 1 189.9502 -9.4410 92.0818 0.0000 -9.5816 0.0000
# 2 -9.4410 21.8979 4.4827 0.0000 -8.5048 0.0000
# 3 92.0818 4.4827 199.9428 0.0000 -7.7966 0.0000
# 4 0.0000 0.0000 0.0000 20.6631 0.0000 1.8268
# 5 -9.5816 -8.5048 -7.7966 0.0000 52.3433 0.0000
# 6 0.0000 0.0000 0.0000 1.8268 0.0000 22.3564
#
#
#
# Elastic Compliance Matrix: (Units=1/GPa)
#
#
# Indices 1 2 3 4 5 6 
#
# 1 0.007181 0.004374 -0.003346 0.000000 0.001527 0.000000
# 2 0.004374 0.051530 -0.002828 0.000000 0.008752 0.000000
# 3 -0.003346 -0.002828 0.006602 0.000000 -0.000089 0.000000
# 4 0.000000 0.000000 0.000000 0.048748 0.000000 -0.003983
# 5 0.001527 0.008752 -0.000089 0.000000 0.020793 0.000000
# 6 0.000000 0.000000 0.000000 -0.003983 0.000000 0.045055
#
#
# Mechanical properties :
#
#
# Convention : Reuss Voigt Hill
#
# Bulk Modulus (GPa) = 16.20407 65.11532 40.65969
# Shear Modulus (GPa) = 24.50015 40.71706 32.60861
#
# Velocity S-wave (km/s) = 3.43963 4.43420 3.96819
# Velocity P-wave (km/s) = 4.85794 7.59342 6.37415
#
# Compressibility (1/GPa) = 0.06171291
#
# Stress axis : x y z
#
# Youngs Moduli (GPa) = 139.26121 19.40607 151.46587
#
# Poissons Ratio (x) = -0.08488 0.50674
# Poissons Ratio (y) = -0.60909 0.42839
# Poissons Ratio (z) = 0.46591 0.05489
#
# Static dielectric constant tensor:
#      x y z
#    x 3.899590 0.000000 -0.061220 
#    y 0.000000 3.433940 0.000000 
#    z -0.061220 0.000000 4.189400 
# 
# 
# High freq. dielectric constant tensor:
#      x y z
#    x 1.831210 0.000000 -0.001700 
#    y 0.000000 1.767810 0.000000 
#    z -0.001700 0.000000 1.835900 
# 
# From -- ./inp_files/92713.got.cif
#   From: 2010.06.25/outbox.cif.g09.slc.cpg/sg12_47_cif.got.tgz:92713.got - 2010.06.28 00:19:55.
