data_PCOD8091405
_publ_section_title
;
Structure prediction by ZEFSAII (Michael W. Deem and Ramdas Pophale) SiO2 
 PCOD8091405
Probable space group: C 2/M
;
_chemical_formula_sum "Si O2"
_cell_formula_units_Z 48
_cell_length_a 19.105730
_cell_length_b 8.608224
_cell_length_c 21.829599
_cell_angle_alpha 90.000000
_cell_angle_beta 44.234001
_cell_angle_gamma 90.000000
_cell_volume 2504.513972
_symmetry_space_group_name_H-M "C 2/M"
_symmetry_group_IT_number 12
_symmetry_cell_setting 'monoclinic'
loop_
_space_group_symop_operation_xyz
x,y,z
-x,y,-z
-x,-y,-z
x,-y,z
1/2+x,1/2+y,z
1/2-x,1/2+y,-z
1/2-x,1/2-y,-z
1/2+x,1/2-y,z
loop_
_atom_site_type_symbol
_atom_site_label
_atom_site_fract_x
_atom_site_fract_y
_atom_site_fract_z
Si Si1 0.318153 0.319229 0.775149
Si Si2 0.469687 0.820876 0.358753
Si Si3 0.711207 0.821681 0.719567
Si Si4 0.104626 0.320165 0.463640
Si Si5 0.969118 0.820238 0.233469
Si Si6 0.184331 0.317405 0.095221
O O1 0.345479 0.500000 0.763416
O O2 0.417864 0.227459 0.693233
O O3 0.234442 0.288817 0.776189
O O4 0.276766 0.258112 0.865865
O O5 0.397757 0.793335 0.461772
O O6 0.429459 0.721280 0.326546
O O7 0.471278 0.000000 0.338048
O O8 0.806866 0.783728 0.618037
O O9 0.616708 0.716244 0.761694
O O10 0.682708 0.000000 0.726208
O O11 0.124473 0.500000 0.434864
O O12 0.000000 0.264596 0.500000
O O13 0.067981 0.721459 0.156574
O O14 0.997295 0.000000 0.212260
O O15 0.199278 0.500000 0.089445
O O16 0.250000 0.250000 0.000000
#
# Coordination Sequence:
#
# PCOD8091405 Si02
#       6
#     8   8   8   8   8   8
#     4  10  20  35  57  85 115 148 189 232 280 337
#     4  10  19  34  56  80 111 151 195 239 283 334
#     4  11  23  37  56  83 117 154 192 237 287 334
#     4  10  20  34  54  81 113 151 198 242 282 332
#     4  11  23  39  59  83 116 151 189 235 286 339
#     4  11  22  40  66  91 116 145 183 227 276 339
#
# _framework density 19.165395
#
# number of rings (size 3 to 8) (size 9 to 14) (size 15 to 20)
#    0.000    1.500    1.667    6.500    0.000    4.333 
#    0.000    0.833    0.000    5.000    0.000    0.000 
#    0.000    0.000    0.000    0.000    0.000    0.000 
#
# Total GULP energy -297697.377067 kJ/mol
# GULP energy per Si atom -12404.057378 kJ/mol
# Density = 1.912177 g / cm^3
# Si number density = 19.165395 Si / 1000 Ang^3
#
#
#
# Elastic Constant Matrix: (Units=GPa)
#
#
# Indices 1 2 3 4 5 6 
#
# 1 111.5405 24.8855 39.5023 -0.0001 8.5920 0.0002
# 2 24.8855 62.6987 25.0066 -0.0002 12.9907 0.0007
# 3 39.5023 25.0066 105.8663 0.0000 16.6441 0.0001
# 4 -0.0001 -0.0002 0.0000 32.3506 0.0000 0.1008
# 5 8.5920 12.9907 16.6441 0.0000 19.4220 0.0000
# 6 0.0002 0.0007 0.0001 0.1008 0.0000 32.3772
#
#
#
# Elastic Compliance Matrix: (Units=1/GPa)
#
#
# Indices 1 2 3 4 5 6 
#
# 1 0.010806 -0.002971 -0.003341 0.000000 0.000070 0.000000
# 2 -0.002971 0.020081 -0.001999 0.000000 -0.010404 0.000000
# 3 -0.003341 -0.001999 0.012392 0.000000 -0.007804 0.000000
# 4 0.000000 0.000000 0.000000 0.030912 0.000000 -0.000096
# 5 0.000070 -0.010404 -0.007804 0.000000 0.065104 0.000000
# 6 0.000000 0.000000 0.000000 -0.000096 0.000000 0.030886
#
#
# Mechanical properties :
#
#
# Convention : Reuss Voigt Hill
#
# Bulk Modulus (GPa) = 37.51421 50.98824 44.25122
# Shear Modulus (GPa) = 25.55068 29.54404 27.54736
#
# Velocity S-wave (km/s) = 3.65522 3.93049 3.79535
# Velocity P-wave (km/s) = 6.11805 6.87462 6.50734
#
# Compressibility (1/GPa) = 0.02665657
#
# Stress axis : x y z
#
# Youngs Moduli (GPa) = 92.53993 49.79710 80.69825
#
# Poissons Ratio (x) = 0.14794 0.26965
# Poissons Ratio (y) = 0.27492 0.16133
# Poissons Ratio (z) = 0.30922 0.09955
#
# Static dielectric constant tensor:
#      x y z
#    x 3.510180 0.000000 0.206790 
#    y 0.000000 3.603530 0.000000 
#    z 0.206790 0.000000 3.393700 
# 
# 
# High freq. dielectric constant tensor:
#      x y z
#    x 1.743790 0.000000 0.015970 
#    y 0.000000 1.759580 0.000000 
#    z 0.015970 0.000000 1.731460 
# 
# From -- ./inp_files/313583.got.cif
#   From: 2010.06.25/outbox.cif.g09.slc.cpg/sg12_157_cif.got.tgz:313583.got - 2010.06.28 00:19:55.
