data_PCOD8091906
_publ_section_title
;
Structure prediction by ZEFSAII (Michael W. Deem and Ramdas Pophale) SiO2 
 PCOD8091906
Probable space group: C 2/M
;
_chemical_formula_sum "Si O2"
_cell_formula_units_Z 40
_cell_length_a 17.734979
_cell_length_b 7.719547
_cell_length_c 19.831226
_cell_angle_alpha 90.000000
_cell_angle_beta 47.899784
_cell_angle_gamma 90.000000
_cell_volume 2014.467863
_symmetry_space_group_name_H-M "C 2/M"
_symmetry_group_IT_number 12
_symmetry_cell_setting 'monoclinic'
loop_
_space_group_symop_operation_xyz
x,y,z
-x,y,-z
-x,-y,-z
x,-y,z
1/2+x,1/2+y,z
1/2-x,1/2+y,-z
1/2-x,1/2-y,-z
1/2+x,1/2-y,z
loop_
_atom_site_type_symbol
_atom_site_label
_atom_site_fract_x
_atom_site_fract_y
_atom_site_fract_z
Si Si1 0.269140 0.198338 0.412210
Si Si2 0.665625 0.500000 0.901736
Si Si3 0.495351 0.500000 0.891479
Si Si4 0.144307 0.308485 0.239936
Si Si5 0.990104 0.295638 0.224304
Si Si6 0.397251 0.198285 0.590275
O O1 0.250000 0.250000 0.500000
O O2 0.384531 0.241622 0.324905
O O3 0.194507 0.299260 0.407368
O O4 0.243187 0.000000 0.416839
O O5 0.586090 0.500000 0.889698
O O6 0.736538 0.327363 0.852100
O O7 0.612884 0.500000 0.005951
O O8 0.504081 0.678352 0.845372
O O9 0.095004 0.500000 0.275906
O O10 0.133465 0.213125 0.319321
O O11 0.078831 0.219886 0.220039
O O12 0.002878 0.500000 0.197472
O O13 0.500000 0.288699 0.500000
O O14 0.421785 0.000000 0.590849
#
# Coordination Sequence:
#
# PCOD8091906 Si02
#       6
#     8   4   4   8   8   8
#     4  11  23  36  55  84 117 155 200 248 289 349
#     4   9  20  38  61  90 121 157 199 249 310 363
#     4  11  22  38  68  90 114 163 203 247 307 361
#     4   8  17  36  57  79 122 155 186 249 297 353
#     4  10  22  40  60  90 121 155 203 250 297 356
#     4  10  19  34  58  83 115 161 194 234 300 354
#
# _framework density 19.856359999999999
#
# number of rings (size 3 to 8) (size 9 to 14) (size 15 to 20)
#    0.600    1.600    0.000    3.000    2.800    4.400 
#    1.800    2.000    2.200    0.000    0.000    0.000 
#    0.000    0.000    0.000    0.000    0.000    0.000 
#
# Total GULP energy -247833.292669 kJ/mol
# GULP energy per Si atom -12391.664633 kJ/mol
# Density = 1.981117 g / cm^3
# Si number density = 19.856360 Si / 1000 Ang^3
#
#
#
# Elastic Constant Matrix: (Units=GPa)
#
#
# Indices 1 2 3 4 5 6 
#
# 1 120.2778 20.9220 64.1585 0.0001 -3.4789 0.0001
# 2 20.9220 49.5753 45.5917 0.0001 4.2013 0.0002
# 3 64.1585 45.5917 175.8294 0.0000 -4.5108 0.0000
# 4 0.0001 0.0001 0.0000 11.2407 0.0000 3.7030
# 5 -3.4789 4.2013 -4.5108 0.0000 37.7387 0.0000
# 6 0.0001 0.0002 0.0000 3.7030 0.0000 20.4925
#
#
#
# Elastic Compliance Matrix: (Units=1/GPa)
#
#
# Indices 1 2 3 4 5 6 
#
# 1 0.010393 -0.001278 -0.003443 0.000000 0.000689 0.000000
# 2 -0.001278 0.027194 -0.006686 0.000000 -0.003944 0.000000
# 3 -0.003443 -0.006686 0.008715 0.000000 0.001469 0.000000
# 4 0.000000 0.000000 0.000000 0.094593 0.000000 -0.017093
# 5 0.000689 -0.003944 0.001469 0.000000 0.027176 0.000000
# 6 0.000000 0.000000 0.000000 -0.017093 0.000000 0.051887
#
#
# Mechanical properties :
#
#
# Convention : Reuss Voigt Hill
#
# Bulk Modulus (GPa) = 42.57620 67.44743 55.01182
# Shear Modulus (GPa) = 19.95196 28.22840 24.09018
#
# Velocity S-wave (km/s) = 3.17332 3.77454 3.48691
# Velocity P-wave (km/s) = 5.90891 7.28269 6.63147
#
# Compressibility (1/GPa) = 0.02348730
#
# Stress axis : x y z
#
# Youngs Moduli (GPa) = 96.21846 36.77322 114.74331
#
# Poissons Ratio (x) = 0.04699 0.39510
# Poissons Ratio (y) = 0.12295 0.76718
# Poissons Ratio (z) = 0.33131 0.24587
#
# Static dielectric constant tensor:
#      x y z
#    x 3.635010 0.000000 0.028580 
#    y 0.000000 3.300580 0.000000 
#    z 0.028580 0.000000 3.784390 
# 
# 
# High freq. dielectric constant tensor:
#      x y z
#    x 1.790870 0.000000 0.002740 
#    y 0.000000 1.739040 0.000000 
#    z 0.002740 0.000000 1.775860 
# 
# From -- ./inp_files/266951.got.cif
#   From: 2010.06.25/outbox.cif.g09.slc.cpg/sg12_134_cif.got.tgz:266951.got - 2010.06.28 00:19:55.
