data_PCOD8091209
_publ_section_title
;
Structure prediction by ZEFSAII (Michael W. Deem and Ramdas Pophale) SiO2 
 PCOD8091209
Probable space group: C 2/M
;
_chemical_formula_sum "Si O2"
_cell_formula_units_Z 48
_cell_length_a 16.300105
_cell_length_b 26.614040
_cell_length_c 13.095094
_cell_angle_alpha 90.000000
_cell_angle_beta 154.543221
_cell_angle_gamma 90.000000
_cell_volume 2441.780734
_symmetry_space_group_name_H-M "C 2/M"
_symmetry_group_IT_number 12
_symmetry_cell_setting 'monoclinic'
loop_
_space_group_symop_operation_xyz
x,y,z
-x,y,-z
-x,-y,-z
x,-y,z
1/2+x,1/2+y,z
1/2-x,1/2+y,-z
1/2-x,1/2-y,-z
1/2+x,1/2-y,z
loop_
_atom_site_type_symbol
_atom_site_label
_atom_site_fract_x
_atom_site_fract_y
_atom_site_fract_z
Si Si1 0.590707 0.402633 0.207236
Si Si2 0.168796 0.942518 0.924933
Si Si3 0.550358 0.691468 0.283260
Si Si4 0.486034 0.193813 0.784141
Si Si5 0.348411 0.356514 0.240549
Si Si6 0.503605 0.876858 0.621702
O O1 0.520609 0.345592 0.153362
O O2 0.816825 0.406317 0.449434
O O3 0.500000 0.421312 0.000000
O O4 0.528075 0.438174 0.231681
O O5 0.327347 0.916441 0.173630
O O6 0.218848 0.000000 0.958588
O O7 0.156753 0.914616 0.801622
O O8 0.489140 0.746602 0.179471
O O9 0.766518 0.683731 0.567864
O O10 0.409963 0.677858 0.215895
O O11 0.527848 0.173646 0.716132
O O12 0.634798 0.164712 0.027698
O O13 0.500000 0.350164 0.500000
O O14 0.500000 0.859906 0.500000
#
# Coordination Sequence:
#
# PCOD8091209 Si02
#       6
#     8   8   8   8   8   8
#     4  10  19  35  54  78 112 142 173 219 273 326
#     4  10  22  38  56  78 106 141 183 229 277 331
#     4   9  19  36  54  79 111 144 181 221 261 321
#     4   9  19  36  54  79 113 145 183 220 263 320
#     4  10  21  37  56  79 109 143 183 231 271 312
#     4  10  19  34  55  80 110 142 175 225 278 325
#
# _framework density 19.657783999999999
#
# number of rings (size 3 to 8) (size 9 to 14) (size 15 to 20)
#    0.000    2.333    1.667    0.500    0.000    3.000 
#    9.000    0.000    0.000    0.000    0.000    9.333 
#    0.000    0.000    0.000    0.000    0.000    0.000 
#
# Total GULP energy -297481.495034 kJ/mol
# GULP energy per Si atom -12395.062293 kJ/mol
# Density = 1.961304 g / cm^3
# Si number density = 19.657784 Si / 1000 Ang^3
#
#
#
# Elastic Constant Matrix: (Units=GPa)
#
#
# Indices 1 2 3 4 5 6 
#
# 1 39.9165 6.3827 19.1075 0.0000 15.1049 0.0000
# 2 6.3827 98.1023 18.0473 0.0000 6.7750 0.0000
# 3 19.1075 18.0473 100.6338 0.0001 -1.8188 0.0000
# 4 0.0000 0.0000 0.0001 14.6519 0.0000 1.6865
# 5 15.1049 6.7750 -1.8188 0.0000 25.8218 0.0000
# 6 0.0000 0.0000 0.0000 1.6865 0.0000 11.4680
#
#
#
# Elastic Compliance Matrix: (Units=1/GPa)
#
#
# Indices 1 2 3 4 5 6 
#
# 1 0.037018 0.000517 -0.007525 0.000000 -0.022320 0.000000
# 2 0.000517 0.010770 -0.002089 0.000000 -0.003276 0.000000
# 3 -0.007525 -0.002089 0.011845 0.000000 0.005784 0.000000
# 4 0.000000 0.000000 0.000000 0.069426 0.000000 -0.010210
# 5 -0.022320 -0.003276 0.005784 0.000000 0.053050 0.000000
# 6 0.000000 0.000000 0.000000 -0.010210 0.000000 0.088701
#
#
# Mechanical properties :
#
#
# Convention : Reuss Voigt Hill
#
# Bulk Modulus (GPa) = 24.13128 36.19195 30.16162
# Shear Modulus (GPa) = 16.51169 23.39602 19.95386
#
# Velocity S-wave (km/s) = 2.90135 3.45362 3.18946
# Velocity P-wave (km/s) = 4.85037 5.86125 5.37961
#
# Compressibility (1/GPa) = 0.04143999
#
# Stress axis : x y z
#
# Youngs Moduli (GPa) = 27.01416 92.84809 84.42440
#
# Poissons Ratio (x) = -0.04803 0.63527
# Poissons Ratio (y) = -0.01397 0.17636
# Poissons Ratio (z) = 0.20327 0.19395
#
# Static dielectric constant tensor:
#      x y z
#    x 3.591260 0.000000 0.243800 
#    y 0.000000 3.399350 0.000000 
#    z 0.243800 0.000000 3.839230 
# 
# 
# High freq. dielectric constant tensor:
#      x y z
#    x 1.754150 0.000000 0.025500 
#    y 0.000000 1.747700 0.000000 
#    z 0.025500 0.000000 1.771900 
# 
# From -- ./inp_files/149650.got.cif
#   From: 2010.06.25/outbox.cif.g09.slc.cpg/sg12_75_cif.got.tgz:149650.got - 2010.06.28 00:19:55.
