data_PCOD8091152
_publ_section_title
;
Structure prediction by ZEFSAII (Michael W. Deem and Ramdas Pophale) SiO2 
 PCOD8091152
Probable space group: C 2/M
;
_chemical_formula_sum "Si O2"
_cell_formula_units_Z 64
_cell_length_a 20.266816
_cell_length_b 8.815931
_cell_length_c 25.404690
_cell_angle_alpha 90.000000
_cell_angle_beta 128.503198
_cell_angle_gamma 90.000000
_cell_volume 3552.161428
_symmetry_space_group_name_H-M "C 2/M"
_symmetry_group_IT_number 12
_symmetry_cell_setting 'monoclinic'
loop_
_space_group_symop_operation_xyz
x,y,z
-x,y,-z
-x,-y,-z
x,-y,z
1/2+x,1/2+y,z
1/2-x,1/2+y,-z
1/2-x,1/2-y,-z
1/2+x,1/2-y,z
loop_
_atom_site_type_symbol
_atom_site_label
_atom_site_fract_x
_atom_site_fract_y
_atom_site_fract_z
Si Si1 0.001885 0.320862 0.353525
Si Si2 0.937045 0.819792 0.923752
Si Si3 0.189826 0.821737 0.317675
Si Si4 0.675121 0.678870 0.430202
Si Si5 0.957540 0.320127 0.821905
Si Si6 0.249829 0.319556 0.832843
Si Si7 0.168461 0.677596 0.686951
Si Si8 0.418115 0.820580 0.203686
O O1 0.019403 0.500000 0.364739
O O2 0.087081 0.234075 0.411066
O O3 0.929090 0.267589 0.358975
O O4 0.972506 0.266758 0.280997
O O5 0.967219 0.752469 0.883646
O O6 0.843432 0.759032 0.892530
O O7 0.938836 0.000000 0.919581
O O8 0.000000 0.761188 0.000000
O O9 0.182400 0.764369 0.373561
O O10 0.126688 0.732037 0.249026
O O11 0.285199 0.783857 0.344946
O O12 0.170419 0.000000 0.302755
O O13 0.682090 0.500000 0.437184
O O14 0.750000 0.750000 0.500000
O O15 0.956132 0.500000 0.826306
O O16 0.038063 0.261564 0.827828
O O17 0.252368 0.500000 0.833557
O O18 0.223148 0.254462 0.762415
O O19 0.179157 0.262370 0.839959
O O20 0.164942 0.500000 0.695586
O O21 0.417930 0.000000 0.204403
#
# Coordination Sequence:
#
# PCOD8091152 Si02
#       8
#     8   8   8   8   8   8   8   8
#     4   9  16  31  54  77 101 130 168 209 254 307
#     4  10  20  34  53  75 102 138 177 216 255 300
#     4  10  19  34  55  79 102 130 174 217 251 293
#     4  11  23  36  53  76 107 142 171 209 257 306
#     4  11  20  31  51  78 105 132 166 212 260 306
#     4   8  13  26  49  73  98 130 169 209 247 297
#     4   8  14  27  53  79  97 125 167 216 254 293
#     4   8  15  27  48  76 100 129 167 206 252 303
#
# _framework density 18.017199999999999
#
# number of rings (size 3 to 8) (size 9 to 14) (size 15 to 20)
#    0.000    2.625    2.500    2.250    0.000    0.750 
#    0.000    1.875    0.000    5.250    0.000    0.000 
#    0.000    0.000    0.000    0.000    0.000    0.000 
#
# Total GULP energy -396567.180555 kJ/mol
# GULP energy per Si atom -12392.724392 kJ/mol
# Density = 1.797619 g / cm^3
# Si number density = 18.017200 Si / 1000 Ang^3
#
#
#
# Elastic Constant Matrix: (Units=GPa)
#
#
# Indices 1 2 3 4 5 6 
#
# 1 138.1822 17.6735 45.7746 0.0000 18.7854 0.0000
# 2 17.6735 26.6191 20.0103 0.0000 1.0703 0.0000
# 3 45.7746 20.0103 84.3797 0.0000 13.0431 0.0000
# 4 0.0000 0.0000 0.0000 20.7016 0.0000 -1.0765
# 5 18.7854 1.0703 13.0431 0.0000 29.9397 0.0000
# 6 0.0000 0.0000 0.0000 -1.0765 0.0000 22.0841
#
#
#
# Elastic Compliance Matrix: (Units=1/GPa)
#
#
# Indices 1 2 3 4 5 6 
#
# 1 0.009458 -0.003337 -0.003689 0.000000 -0.004208 0.000000
# 2 -0.003337 0.047203 -0.010128 0.000000 0.004819 0.000000
# 3 -0.003689 -0.010128 0.016984 0.000000 -0.004723 0.000000
# 4 0.000000 0.000000 0.000000 0.048428 0.000000 0.002361
# 5 -0.004208 0.004819 -0.004723 0.000000 0.037926 0.000000
# 6 0.000000 0.000000 0.000000 0.002361 0.000000 0.045396
#
#
# Mechanical properties :
#
#
# Convention : Reuss Voigt Hill
#
# Bulk Modulus (GPa) = 25.42219 46.23310 35.82765
# Shear Modulus (GPa) = 19.77725 25.59327 22.68526
#
# Velocity S-wave (km/s) = 3.31673 3.77303 3.55221
# Velocity P-wave (km/s) = 5.36733 6.68560 6.06240
#
# Compressibility (1/GPa) = 0.03933571
#
# Stress axis : x y z
#
# Youngs Moduli (GPa) = 105.73462 21.18521 58.87819
#
# Poissons Ratio (x) = 0.07070 0.21719
# Poissons Ratio (y) = 0.35285 0.59635
# Poissons Ratio (z) = 0.39003 0.21457
#
# Static dielectric constant tensor:
#      x y z
#    x 3.995040 0.000000 0.120790 
#    y 0.000000 2.950320 0.000000 
#    z 0.120790 0.000000 3.182520 
# 
# 
# High freq. dielectric constant tensor:
#      x y z
#    x 1.720790 0.000000 0.011280 
#    y 0.000000 1.659520 0.000000 
#    z 0.011280 0.000000 1.668740 
# 
# From -- ./inp_files/365235.got.cif
#   From: 2010.06.25/outbox.cif.g09.slc.cpg/sg12_183_cif.got.tgz:365235.got - 2010.06.28 00:19:55.
