data_PCOD8091769
_publ_section_title
;
Structure prediction by ZEFSAII (Michael W. Deem and Ramdas Pophale) SiO2 
 PCOD8091769
Probable space group: C 2/M
;
_chemical_formula_sum "Si O2"
_cell_formula_units_Z 48
_cell_length_a 29.634262
_cell_length_b 18.974226
_cell_length_c 9.328728
_cell_angle_alpha 90.000000
_cell_angle_beta 151.073628
_cell_angle_gamma 90.000000
_cell_volume 2537.134523
_symmetry_space_group_name_H-M "C 2/M"
_symmetry_group_IT_number 12
_symmetry_cell_setting 'monoclinic'
loop_
_space_group_symop_operation_xyz
x,y,z
-x,y,-z
-x,-y,-z
x,-y,z
1/2+x,1/2+y,z
1/2-x,1/2+y,-z
1/2-x,1/2-y,-z
1/2+x,1/2-y,z
loop_
_atom_site_type_symbol
_atom_site_label
_atom_site_fract_x
_atom_site_fract_y
_atom_site_fract_z
Si Si1 0.484161 0.824489 0.116598
Si Si2 0.252357 0.920694 0.934329
Si Si3 0.390485 0.420650 0.690733
Si Si4 0.590243 0.919400 0.847120
Si Si5 0.170733 0.224930 0.382245
Si Si6 0.690198 0.798946 0.733425
O O1 0.421264 0.876668 0.037048
O O2 0.580522 0.806329 0.465690
O O3 0.500000 0.857155 0.000000
O O4 0.430217 0.750725 0.950899
O O5 0.147070 0.915905 0.578118
O O6 0.280209 0.000000 0.053479
O O7 0.320993 0.892365 0.998083
O O8 0.264055 0.876231 0.113248
O O9 0.368530 0.500000 0.689847
O O10 0.336315 0.360084 0.628704
O O11 0.500000 0.405623 0.000000
O O12 0.500000 0.909508 0.500000
O O13 0.605878 0.000000 0.935758
O O14 0.250000 0.250000 0.500000
O O15 0.200299 0.266273 0.606636
O O16 0.750000 0.750000 0.000000
#
# Coordination Sequence:
#
# PCOD8091769 Si02
#       6
#     8   8   8   8   8   8
#     4  10  22  35  53  82 118 152 186 234 290 345
#     4  10  20  35  59  87 114 148 194 239 286 346
#     4  10  20  37  62  86 112 152 200 244 285 338
#     4  10  19  34  57  84 115 151 191 231 277 346
#     4  11  23  39  57  86 119 150 191 241 291 350
#     4  11  21  36  57  81 112 149 189 238 286 341
#
# _framework density 18.918980999999999
#
# number of rings (size 3 to 8) (size 9 to 14) (size 15 to 20)
#    0.000    1.667    3.333    2.500    0.000    0.333 
#    0.000    3.333    0.000    0.000    0.000    3.500 
#    0.000    0.000    0.000    0.000    0.000    0.000 
#
# Total GULP energy -297372.594568 kJ/mol
# GULP energy per Si atom -12390.524774 kJ/mol
# Density = 1.887592 g / cm^3
# Si number density = 18.918981 Si / 1000 Ang^3
#
#
#
# Elastic Constant Matrix: (Units=GPa)
#
#
# Indices 1 2 3 4 5 6 
#
# 1 72.2748 57.1596 23.2956 0.0000 0.8056 0.0000
# 2 57.1596 146.1919 46.9803 0.0000 -7.1314 0.0000
# 3 23.2956 46.9803 128.0391 0.0000 7.4713 0.0000
# 4 0.0000 0.0000 0.0000 32.0666 0.0000 -3.2354
# 5 0.8056 -7.1314 7.4713 0.0000 15.7783 0.0000
# 6 0.0000 0.0000 0.0000 -3.2354 0.0000 26.4108
#
#
#
# Elastic Compliance Matrix: (Units=1/GPa)
#
#
# Indices 1 2 3 4 5 6 
#
# 1 0.020399 -0.008029 -0.000507 0.000000 -0.004430 0.000000
# 2 -0.008029 0.011317 -0.003100 0.000000 0.006992 0.000000
# 3 -0.000507 -0.003100 0.009379 0.000000 -0.005816 0.000000
# 4 0.000000 0.000000 0.000000 0.031575 0.000000 0.003868
# 5 -0.004430 0.006992 -0.005816 0.000000 0.069519 0.000000
# 6 0.000000 0.000000 0.000000 0.003868 0.000000 0.038337
#
#
# Mechanical properties :
#
#
# Convention : Reuss Voigt Hill
#
# Bulk Modulus (GPa) = 56.10512 66.81965 61.46238
# Shear Modulus (GPa) = 23.83933 29.45582 26.64757
#
# Velocity S-wave (km/s) = 3.55360 3.95010 3.75708
# Velocity P-wave (km/s) = 6.82329 7.49666 7.16789
#
# Compressibility (1/GPa) = 0.01782368
#
# Stress axis : x y z
#
# Youngs Moduli (GPa) = 49.02295 88.36481 106.62094
#
# Poissons Ratio (x) = 0.70947 0.05404
# Poissons Ratio (y) = 0.39360 0.33048
# Poissons Ratio (z) = 0.02485 0.27389
#
# Static dielectric constant tensor:
#      x y z
#    x 2.860320 0.000000 0.206380 
#    y 0.000000 3.696410 0.000000 
#    z 0.206380 0.000000 3.668270 
# 
# 
# High freq. dielectric constant tensor:
#      x y z
#    x 1.694970 0.000000 0.009740 
#    y 0.000000 1.743690 0.000000 
#    z 0.009740 0.000000 1.758820 
# 
# From -- ./inp_files/76716.got.cif
#   From: 2010.06.25/outbox.cif.g09.slc.cpg/sg12_39_cif.got.tgz:76716.got - 2010.06.28 00:19:55.
