data_PCOD8091570
_publ_section_title
;
Structure prediction by ZEFSAII (Michael W. Deem and Ramdas Pophale) SiO2 
 PCOD8091570
Probable space group: C 2/M
;
_chemical_formula_sum "Si O2"
_cell_formula_units_Z 64
_cell_length_a 20.725186
_cell_length_b 9.224431
_cell_length_c 17.309686
_cell_angle_alpha 90.000000
_cell_angle_beta 90.618519
_cell_angle_gamma 90.000000
_cell_volume 3309.039164
_symmetry_space_group_name_H-M "C 2/M"
_symmetry_group_IT_number 12
_symmetry_cell_setting 'monoclinic'
loop_
_space_group_symop_operation_xyz
x,y,z
-x,y,-z
-x,-y,-z
x,-y,z
1/2+x,1/2+y,z
1/2-x,1/2+y,-z
1/2-x,1/2-y,-z
1/2+x,1/2-y,z
loop_
_atom_site_type_symbol
_atom_site_label
_atom_site_fract_x
_atom_site_fract_y
_atom_site_fract_z
Si Si1 0.180478 0.831036 0.909883
Si Si2 0.919961 0.328967 0.200980
Si Si3 0.889493 0.829349 0.657036
Si Si4 0.929683 0.343823 0.521056
Si Si5 0.742034 0.666796 0.419985
Si Si6 0.623379 0.167593 0.635046
Si Si7 0.174444 0.666319 0.066584
Si Si8 0.932285 0.332973 0.807349
O O1 0.133530 0.749060 0.850957
O O2 0.256405 0.803794 0.890432
O O3 0.163456 0.000000 0.906541
O O4 0.166116 0.773507 0.995162
O O5 0.905752 0.500000 0.196943
O O6 0.910816 0.268821 0.288739
O O7 0.992784 0.293341 0.173289
O O8 0.936566 0.762429 0.593861
O O9 0.819138 0.777467 0.628493
O O10 0.905084 0.767008 0.740282
O O11 0.897847 0.000000 0.661040
O O12 0.894322 0.500000 0.539638
O O13 0.897592 0.260763 0.447061
O O14 0.000000 0.388127 0.500000
O O15 0.734448 0.500000 0.442965
O O16 0.750000 0.750000 0.500000
O O17 0.799911 0.691021 0.359878
O O18 0.603445 0.000000 0.628905
O O19 0.173194 0.500000 0.037286
O O20 0.113254 0.697265 0.120195
O O21 0.928166 0.500000 0.781062
#
# Coordination Sequence:
#
# PCOD8091570 Si02
#       8
#     8   8   8   8   8   8   8   8
#     4  10  21  38  61  90 120 150 185 229 285 341
#     4  10  21  38  61  86 113 149 191 236 281 334
#     4  11  23  35  52  82 116 146 182 234 294 343
#     4  10  19  34  57  77 100 145 197 236 275 331
#     4  10  20  35  53  77 106 142 188 234 284 341
#     4   9  18  33  53  77 106 141 185 232 275 326
#     4   9  20  40  63  87 116 152 192 232 274 332
#     4  10  22  40  61  85 114 151 197 236 275 336
#
# _framework density 19.340962999999999
#
# number of rings (size 3 to 8) (size 9 to 14) (size 15 to 20)
#    0.000    2.125    1.250    1.500    1.750    4.750 
#    0.000    3.750    0.000    0.000    0.000    0.000 
#    0.000    0.000    0.000    0.000    0.000    0.000 
#
# Total GULP energy -396599.451669 kJ/mol
# GULP energy per Si atom -12393.732865 kJ/mol
# Density = 1.929694 g / cm^3
# Si number density = 19.340963 Si / 1000 Ang^3
#
#
#
# Elastic Constant Matrix: (Units=GPa)
#
#
# Indices 1 2 3 4 5 6 
#
# 1 86.7685 29.9219 30.6300 0.0000 -11.6377 0.0000
# 2 29.9219 64.0344 36.8840 0.0000 1.9736 0.0000
# 3 30.6300 36.8840 80.7905 0.0000 -4.1493 0.0000
# 4 0.0000 0.0000 0.0000 34.3890 0.0000 4.2857
# 5 -11.6377 1.9736 -4.1493 0.0000 35.5264 0.0000
# 6 0.0000 0.0000 0.0000 4.2857 0.0000 28.3992
#
#
#
# Elastic Compliance Matrix: (Units=1/GPa)
#
#
# Indices 1 2 3 4 5 6 
#
# 1 0.015133 -0.005514 -0.002968 0.000000 0.004917 0.000000
# 2 -0.005514 0.023389 -0.008800 0.000000 -0.004133 0.000000
# 3 -0.002968 -0.008800 0.017601 0.000000 0.001572 0.000000
# 4 0.000000 0.000000 0.000000 0.029636 0.000000 -0.004472
# 5 0.004917 -0.004133 0.001572 0.000000 0.030172 0.000000
# 6 0.000000 0.000000 0.000000 -0.004472 0.000000 0.035887
#
#
# Mechanical properties :
#
#
# Convention : Reuss Voigt Hill
#
# Bulk Modulus (GPa) = 46.38009 47.38504 46.88257
# Shear Modulus (GPa) = 25.83054 28.60675 27.21865
#
# Velocity S-wave (km/s) = 3.65846 3.85005 3.75548
# Velocity P-wave (km/s) = 6.47133 6.65709 6.56487
#
# Compressibility (1/GPa) = 0.02156098
#
# Stress axis : x y z
#
# Youngs Moduli (GPa) = 66.07890 42.75470 56.81438
#
# Poissons Ratio (x) = 0.23573 0.16861
# Poissons Ratio (y) = 0.36433 0.49997
# Poissons Ratio (z) = 0.19611 0.37624
#
# Static dielectric constant tensor:
#      x y z
#    x 3.841650 0.000000 -0.006880 
#    y 0.000000 3.361250 0.000000 
#    z -0.006880 0.000000 3.469060 
# 
# 
# High freq. dielectric constant tensor:
#      x y z
#    x 1.766710 0.000000 0.000490 
#    y 0.000000 1.736080 0.000000 
#    z 0.000490 0.000000 1.745930 
# 
# From -- ./inp_files/281401.got.cif
#   From: 2010.06.25/outbox.cif.g09.slc.cpg/sg12_141_cif.got.tgz:281401.got - 2010.06.28 00:19:55.
