data_PCOD8091528
_publ_section_title
;
Structure prediction by ZEFSAII (Michael W. Deem and Ramdas Pophale) SiO2 
 PCOD8091528
Probable space group: C 2/M
;
_chemical_formula_sum "Si O2"
_cell_formula_units_Z 48
_cell_length_a 28.365704
_cell_length_b 8.652403
_cell_length_c 17.366450
_cell_angle_alpha 90.000000
_cell_angle_beta 35.420946
_cell_angle_gamma 90.000000
_cell_volume 2470.324987
_symmetry_space_group_name_H-M "C 2/M"
_symmetry_group_IT_number 12
_symmetry_cell_setting 'monoclinic'
loop_
_space_group_symop_operation_xyz
x,y,z
-x,y,-z
-x,-y,-z
x,-y,z
1/2+x,1/2+y,z
1/2-x,1/2+y,-z
1/2-x,1/2-y,-z
1/2+x,1/2-y,z
loop_
_atom_site_type_symbol
_atom_site_label
_atom_site_fract_x
_atom_site_fract_y
_atom_site_fract_z
Si Si1 0.160286 0.681383 0.624739
Si Si2 0.518615 0.316581 0.714517
Si Si3 0.962402 0.682752 0.630702
Si Si4 0.631092 0.683675 0.982615
Si Si5 0.720364 0.817586 0.117832
Si Si6 0.095585 0.825492 0.863040
O O1 0.164833 0.500000 0.605580
O O2 0.250000 0.750000 0.500000
O O3 0.103479 0.752435 0.633886
O O4 0.122716 0.716015 0.758106
O O5 0.521621 0.500000 0.713936
O O6 0.508337 0.263705 0.640128
O O7 0.443442 0.251438 0.866164
O O8 0.968565 0.500000 0.635192
O O9 0.000000 0.735064 0.500000
O O10 0.870068 0.742320 0.746804
O O11 0.623047 0.500000 0.992643
O O12 0.717564 0.741777 0.899631
O O13 0.629818 0.745202 0.897041
O O14 0.722938 0.000000 0.109956
O O15 0.750000 0.750000 0.000000
O O16 0.127529 0.000000 0.804524
O O17 0.000000 0.828324 0.000000
#
# Coordination Sequence:
#
# PCOD8091528 Si02
#       6
#     8   8   8   8   8   8
#     4  12  26  43  63  91 126 162 204 254 311 370
#     4  11  21  39  64  89 119 159 206 251 310 371
#     4  10  22  38  57  87 126 163 203 252 308 366
#     4   9  18  33  58  88 120 160 203 247 302 361
#     4  10  19  34  56  84 115 154 200 246 293 349
#     4  10  19  37  63  91 122 161 205 250 304 363
#
# _framework density 19.430641999999999
#
# number of rings (size 3 to 8) (size 9 to 14) (size 15 to 20)
#    0.000    1.667    3.333    2.000    0.000    2.000 
#    0.000    4.167    0.000    0.000    0.000    0.000 
#    0.000    0.000    0.000    0.000    0.000    0.000 
#
# Total GULP energy -297593.873759 kJ/mol
# GULP energy per Si atom -12399.744740 kJ/mol
# Density = 1.938642 g / cm^3
# Si number density = 19.430642 Si / 1000 Ang^3
#
#
#
# Elastic Constant Matrix: (Units=GPa)
#
#
# Indices 1 2 3 4 5 6 
#
# 1 201.6440 44.5896 77.7670 -0.0046 -6.9736 0.0018
# 2 44.5896 60.5396 37.7971 0.0061 -1.3562 -0.0011
# 3 77.7670 37.7971 129.3114 -0.0053 -7.1690 0.0046
# 4 -0.0046 0.0061 -0.0053 15.3621 0.0019 3.3322
# 5 -6.9736 -1.3562 -7.1690 0.0019 37.6212 -0.0004
# 6 0.0018 -0.0011 0.0046 3.3322 -0.0004 31.6416
#
#
#
# Elastic Compliance Matrix: (Units=1/GPa)
#
#
# Indices 1 2 3 4 5 6 
#
# 1 0.006897 -0.003055 -0.003225 0.000002 0.000554 0.000000
# 2 -0.003055 0.021564 -0.004502 -0.000012 -0.000647 0.000003
# 3 -0.003225 -0.004502 0.011063 0.000005 0.001348 -0.000002
# 4 0.000002 -0.000012 0.000005 0.066617 -0.000003 -0.007015
# 5 0.000554 -0.000647 0.001348 -0.000003 0.026917 0.000000
# 6 0.000000 0.000003 -0.000002 -0.007015 0.000000 0.032343
#
#
# Mechanical properties :
#
#
# Convention : Reuss Voigt Hill
#
# Bulk Modulus (GPa) = 55.67125 79.08916 67.38021
# Shear Modulus (GPa) = 25.91327 32.34771 29.13049
#
# Velocity S-wave (km/s) = 3.65585 4.08460 3.87616
# Velocity P-wave (km/s) = 6.82157 7.93958 7.40171
#
# Compressibility (1/GPa) = 0.01796259
#
# Stress axis : x y z
#
# Youngs Moduli (GPa) = 144.98120 46.37320 90.39047
#
# Poissons Ratio (x) = 0.14165 0.29147
# Poissons Ratio (y) = 0.44286 0.40693
# Poissons Ratio (z) = 0.46749 0.20877
#
# Static dielectric constant tensor:
#      x y z
#    x 3.816430 -0.000140 -0.156480 
#    y -0.000140 3.459290 0.000000 
#    z -0.156480 0.000000 3.560230 
# 
# 
# High freq. dielectric constant tensor:
#      x y z
#    x 1.778370 0.000000 -0.003190 
#    y 0.000000 1.734250 0.000000 
#    z -0.003190 0.000000 1.755810 
# 
# From -- ./inp_files/295367.got.cif
#   From: 2010.06.25/outbox.cif.g09.slc.cpg/sg12_148_cif.got.tgz:295367.got - 2010.06.28 00:19:55.
