data_PCOD8091586
_publ_section_title
;
Structure prediction by ZEFSAII (Michael W. Deem and Ramdas Pophale) SiO2 
 PCOD8091586
Probable space group: C 2/M
;
_chemical_formula_sum "Si O2"
_cell_formula_units_Z 56
_cell_length_a 12.403822
_cell_length_b 13.563148
_cell_length_c 21.645767
_cell_angle_alpha 90.000000
_cell_angle_beta 124.893380
_cell_angle_gamma 90.000000
_cell_volume 2986.883534
_symmetry_space_group_name_H-M "C 2/M"
_symmetry_group_IT_number 12
_symmetry_cell_setting 'monoclinic'
loop_
_space_group_symop_operation_xyz
x,y,z
-x,y,-z
-x,-y,-z
x,-y,z
1/2+x,1/2+y,z
1/2-x,1/2+y,-z
1/2-x,1/2-y,-z
1/2+x,1/2-y,z
loop_
_atom_site_type_symbol
_atom_site_label
_atom_site_fract_x
_atom_site_fract_y
_atom_site_fract_z
Si Si1 0.212004 0.204267 0.888633
Si Si2 0.568167 0.750054 0.250105
Si Si3 0.094490 0.387069 0.145762
Si Si4 0.564738 0.795447 0.388866
Si Si5 0.697019 0.112872 0.644869
Si Si6 0.291701 0.889917 0.036977
Si Si7 0.283390 0.389864 0.536306
O O1 0.316792 0.171332 0.873053
O O2 0.248357 0.315864 0.921196
O O3 0.067722 0.197989 0.812540
O O4 0.213322 0.133791 0.948771
O O5 0.608552 0.837050 0.217040
O O6 0.553624 0.800975 0.311714
O O7 0.676199 0.664264 0.283945
O O8 0.141780 0.500000 0.166558
O O9 0.946079 0.380179 0.072528
O O10 0.431024 0.830211 0.375297
O O11 0.592597 0.683798 0.421319
O O12 0.685818 0.864890 0.448283
O O13 0.700192 0.119471 0.571982
O O14 0.692937 0.000000 0.666387
O O15 0.256000 0.000000 0.047475
O O16 0.339423 0.500000 0.546003
#
# Coordination Sequence:
#
# PCOD8091586 Si02
#       7
#     8   8   8   8   8   8   8
#     4  10  19  34  57  79 108 140 177 224 267 315
#     4  10  22  36  50  78 112 142 178 218 262 314
#     4  10  20  35  55  78 106 142 181 219 265 321
#     4  10  19  34  57  79 108 140 177 224 267 315
#     4  10  20  35  55  78 106 142 181 219 265 321
#     4   9  19  35  57  82 104 135 180 225 270 318
#     4   9  19  35  57  82 104 135 180 225 270 318
#
# _framework density 18.748639000000001
#
# number of rings (size 3 to 8) (size 9 to 14) (size 15 to 20)
#    0.000    2.286    0.000    2.571    0.000    4.571 
#    0.000    7.143    0.000   24.000    0.000    0.000 
#    0.000    0.000    0.000    0.000    0.000    0.000 
#
# Total GULP energy -347270.794824 kJ/mol
# GULP energy per Si atom -12402.528387 kJ/mol
# Density = 1.870597 g / cm^3
# Si number density = 18.748639 Si / 1000 Ang^3
#
#
#
# Elastic Constant Matrix: (Units=GPa)
#
#
# Indices 1 2 3 4 5 6 
#
# 1 77.3267 69.0829 37.9342 0.0000 4.7496 0.0000
# 2 69.0829 162.4756 53.4489 0.0000 5.2277 0.0000
# 3 37.9342 53.4489 123.0051 0.0000 13.7799 0.0000
# 4 0.0000 0.0000 0.0000 22.5793 0.0000 -0.7356
# 5 4.7496 5.2277 13.7799 0.0000 6.3516 0.0000
# 6 0.0000 0.0000 0.0000 -0.7356 0.0000 29.7589
#
#
#
# Elastic Compliance Matrix: (Units=1/GPa)
#
#
# Indices 1 2 3 4 5 6 
#
# 1 0.021915 -0.008298 -0.002751 0.000000 -0.003590 0.000000
# 2 -0.008298 0.010329 -0.002209 0.000000 0.002496 0.000000
# 3 -0.002751 -0.002209 0.012555 0.000000 -0.023364 0.000000
# 4 0.000000 0.000000 0.000000 0.044324 0.000000 0.001096
# 5 -0.003590 0.002496 -0.023364 0.000000 0.208761 0.000000
# 6 0.000000 0.000000 0.000000 0.001096 0.000000 0.033630
#
#
# Mechanical properties :
#
#
# Convention : Reuss Voigt Hill
#
# Bulk Modulus (GPa) = 54.68974 75.97105 65.33040
# Shear Modulus (GPa) = 13.73157 25.22738 19.47947
#
# Velocity S-wave (km/s) = 2.70923 3.67216 3.22682
# Velocity P-wave (km/s) = 6.24659 7.65431 6.98600
#
# Compressibility (1/GPa) = 0.01828496
#
# Stress axis : x y z
#
# Youngs Moduli (GPa) = 45.63052 96.81282 79.64766
#
# Poissons Ratio (x) = 0.80332 0.21909
# Poissons Ratio (y) = 0.37863 0.17594
# Poissons Ratio (z) = 0.12552 0.21385
#
# Static dielectric constant tensor:
#      x y z
#    x 3.242100 0.000000 0.034370 
#    y 0.000000 3.660400 0.000000 
#    z 0.034370 0.000000 3.591380 
# 
# 
# High freq. dielectric constant tensor:
#      x y z
#    x 1.712580 0.000000 0.002570 
#    y 0.000000 1.736590 0.000000 
#    z 0.002570 0.000000 1.738460 
# 
# From -- ./inp_files/263428.got.cif
#   From: 2010.06.25/outbox.cif.g09.slc.cpg/sg12_132_cif.got.tgz:263428.got - 2010.06.28 00:19:55.
