data_PCOD8091658
_publ_section_title
;
Structure prediction by ZEFSAII (Michael W. Deem and Ramdas Pophale) SiO2 
 PCOD8091658
Probable space group: C 2/M
;
_chemical_formula_sum "Si O2"
_cell_formula_units_Z 56
_cell_length_a 20.358234
_cell_length_b 9.059224
_cell_length_c 17.624656
_cell_angle_alpha 90.000000
_cell_angle_beta 64.040835
_cell_angle_gamma 90.000000
_cell_volume 2922.555482
_symmetry_space_group_name_H-M "C 2/M"
_symmetry_group_IT_number 12
_symmetry_cell_setting 'monoclinic'
loop_
_space_group_symop_operation_xyz
x,y,z
-x,y,-z
-x,-y,-z
x,-y,z
1/2+x,1/2+y,z
1/2-x,1/2+y,-z
1/2-x,1/2-y,-z
1/2+x,1/2-y,z
loop_
_atom_site_type_symbol
_atom_site_label
_atom_site_fract_x
_atom_site_fract_y
_atom_site_fract_z
Si Si1 0.157581 0.825412 0.761097
Si Si2 0.689065 0.671462 0.309094
Si Si3 0.172583 0.328102 0.036575
Si Si4 0.408020 0.328134 0.788722
Si Si5 0.580492 0.170722 0.934610
Si Si6 0.077236 0.175865 0.490623
Si Si7 0.567745 0.674837 0.663774
O O1 0.237099 0.761455 0.733986
O O2 0.101823 0.768589 0.852289
O O3 0.127736 0.772778 0.694209
O O4 0.161180 0.000000 0.764650
O O5 0.708168 0.500000 0.309677
O O6 0.645033 0.699312 0.254769
O O7 0.642243 0.732742 0.403771
O O8 0.184089 0.500000 0.046606
O O9 0.118655 0.263754 0.126350
O O10 0.250000 0.250000 0.000000
O O11 0.137820 0.299473 0.972301
O O12 0.410139 0.500000 0.809979
O O13 0.487807 0.266134 0.726949
O O14 0.580931 0.000000 0.909944
O O15 0.500000 0.220784 0.000000
O O16 0.090759 0.235264 0.569158
O O17 0.000000 0.238720 0.500000
O O18 0.074952 0.000000 0.488260
O O19 0.562657 0.500000 0.662236
#
# Coordination Sequence:
#
# PCOD8091658 Si02
#       7
#     8   8   8   8   8   8   8
#     4  11  23  36  53  81 117 149 176 218 278 333
#     4  10  20  34  57  84 110 144 186 228 267 316
#     4  11  23  37  55  80 108 140 179 224 273 324
#     4  10  19  34  57  82 106 136 180 231 273 313
#     4  10  22  41  61  79 105 143 188 231 268 319
#     4   9  15  30  57  85 108 138 185 231 267 310
#     4   9  18  33  54  82 111 139 180 228 268 315
#
# _framework density 19.161311999999999
#
# number of rings (size 3 to 8) (size 9 to 14) (size 15 to 20)
#    0.000    2.000    1.429    2.571    0.000    6.000 
#    0.000    0.714    0.000    2.143    0.000    0.000 
#    0.000    0.000    0.000    0.000    0.000    0.000 
#
# Total GULP energy -347263.430300 kJ/mol
# GULP energy per Si atom -12402.265368 kJ/mol
# Density = 1.911770 g / cm^3
# Si number density = 19.161312 Si / 1000 Ang^3
#
#
#
# Elastic Constant Matrix: (Units=GPa)
#
#
# Indices 1 2 3 4 5 6 
#
# 1 75.9077 31.3244 7.3790 0.0000 -7.0676 -0.0001
# 2 31.3244 51.4576 29.7518 0.0001 5.3282 -0.0001
# 3 7.3790 29.7518 96.3622 0.0000 1.7865 -0.0001
# 4 0.0000 0.0001 0.0000 20.6015 0.0000 1.0522
# 5 -7.0676 5.3282 1.7865 0.0000 33.2040 0.0000
# 6 -0.0001 -0.0001 -0.0001 1.0522 0.0000 15.6558
#
#
#
# Elastic Compliance Matrix: (Units=1/GPa)
#
#
# Indices 1 2 3 4 5 6 
#
# 1 0.019226 -0.013909 0.002708 0.000000 0.006178 0.000000
# 2 -0.013909 0.034110 -0.009319 0.000000 -0.007933 0.000000
# 3 0.002708 -0.009319 0.013022 0.000000 0.001371 0.000000
# 4 0.000000 0.000000 0.000000 0.048707 0.000000 -0.003274
# 5 0.006178 -0.007933 0.001371 0.000000 0.032631 0.000000
# 6 0.000000 0.000000 0.000000 -0.003274 0.000000 0.064094
#
#
# Mechanical properties :
#
#
# Convention : Reuss Voigt Hill
#
# Bulk Modulus (GPa) = 39.49948 40.07086 39.78517
# Shear Modulus (GPa) = 19.13734 24.24376 21.69055
#
# Velocity S-wave (km/s) = 3.16373 3.56089 3.36817
# Velocity P-wave (km/s) = 5.83134 6.15340 5.99453
#
# Compressibility (1/GPa) = 0.02531679
#
# Stress axis : x y z
#
# Youngs Moduli (GPa) = 52.01424 29.31710 76.79261
#
# Poissons Ratio (x) = 0.40776 -0.20792
# Poissons Ratio (y) = 0.72344 0.71565
# Poissons Ratio (z) = -0.14083 0.27321
#
# Static dielectric constant tensor:
#      x y z
#    x 3.619580 0.000000 0.057910 
#    y 0.000000 3.199990 0.000000 
#    z 0.057910 0.000000 3.804320 
# 
# 
# High freq. dielectric constant tensor:
#      x y z
#    x 1.757680 0.000000 0.000880 
#    y 0.000000 1.711800 0.000000 
#    z 0.000880 0.000000 1.762570 
# 
# From -- ./inp_files/275290.got.cif
#   From: 2010.06.25/outbox.cif.g09.slc.cpg/sg12_138_cif.got.tgz:275290.got - 2010.06.28 00:19:55.
