data_PCOD8091186
_publ_section_title
;
Structure prediction by ZEFSAII (Michael W. Deem and Ramdas Pophale) SiO2 
 PCOD8091186
Probable space group: C 2/M
;
_chemical_formula_sum "Si O2"
_cell_formula_units_Z 48
_cell_length_a 24.912099
_cell_length_b 9.089635
_cell_length_c 20.318547
_cell_angle_alpha 90.000000
_cell_angle_beta 144.413411
_cell_angle_gamma 90.000000
_cell_volume 2677.454667
_symmetry_space_group_name_H-M "C 2/M"
_symmetry_group_IT_number 12
_symmetry_cell_setting 'monoclinic'
loop_
_space_group_symop_operation_xyz
x,y,z
-x,y,-z
-x,-y,-z
x,-y,z
1/2+x,1/2+y,z
1/2-x,1/2+y,-z
1/2-x,1/2-y,-z
1/2+x,1/2-y,z
loop_
_atom_site_type_symbol
_atom_site_label
_atom_site_fract_x
_atom_site_fract_y
_atom_site_fract_z
Si Si1 0.953272 0.672132 0.388184
Si Si2 0.245152 0.825647 0.623891
Si Si3 0.240921 0.671407 0.756805
Si Si4 0.077552 0.326590 0.394604
Si Si5 0.553737 0.171523 0.222085
Si Si6 0.940656 0.827146 0.002588
O O1 0.972664 0.500000 0.408700
O O2 0.843879 0.705429 0.278377
O O3 0.000000 0.742868 0.500000
O O4 0.001349 0.734660 0.370288
O O5 0.224481 0.765858 0.675575
O O6 0.173679 0.756203 0.501359
O O7 0.346582 0.774380 0.703198
O O8 0.234701 0.000000 0.612357
O O9 0.243264 0.500000 0.738678
O O10 0.334472 0.718200 0.886423
O O11 0.095976 0.500000 0.420257
O O12 0.040562 0.288519 0.285321
O O13 0.474008 0.253732 0.102895
O O14 0.541911 0.000000 0.197097
O O15 0.953551 0.000000 0.022805
O O16 0.000000 0.767725 0.000000
#
# Coordination Sequence:
#
# PCOD8091186 Si02
#       6
#     8   8   8   8   8   8
#     4   9  16  30  56  80  98 132 177 216 251 298
#     4  11  21  32  50  80 110 136 166 212 268 310
#     4  10  19  34  55  80 104 132 175 218 255 303
#     4  10  20  36  55  76 104 140 178 211 253 312
#     4  10  22  36  52  76 108 142 172 210 261 313
#     4  10  20  34  55  79 103 136 176 217 256 300
#
# _framework density 17.927475000000001
#
# number of rings (size 3 to 8) (size 9 to 14) (size 15 to 20)
#    0.000    2.000    3.333    1.000    0.000    2.333 
#    0.000    2.500    0.000    0.000    0.000    0.000 
#    0.000    0.000    0.000    0.000    0.000    0.000 
#
# Total GULP energy -297636.805470 kJ/mol
# GULP energy per Si atom -12401.533561 kJ/mol
# Density = 1.788667 g / cm^3
# Si number density = 17.927475 Si / 1000 Ang^3
#
#
#
# Elastic Constant Matrix: (Units=GPa)
#
#
# Indices 1 2 3 4 5 6 
#
# 1 89.2775 15.2324 47.9622 0.0000 -3.0994 0.0000
# 2 15.2324 33.6341 33.5079 0.0000 -4.5201 0.0000
# 3 47.9622 33.5079 137.1961 0.0000 -0.0038 0.0000
# 4 0.0000 0.0000 0.0000 30.0253 0.0000 -6.3762
# 5 -3.0994 -4.5201 -0.0038 0.0000 31.8990 0.0000
# 6 0.0000 0.0000 0.0000 -6.3762 0.0000 15.9182
#
#
#
# Elastic Compliance Matrix: (Units=1/GPa)
#
#
# Indices 1 2 3 4 5 6 
#
# 1 0.013922 -0.001728 -0.004445 0.000000 0.001107 0.000000
# 2 -0.001728 0.040521 -0.009292 0.000000 0.005573 0.000000
# 3 -0.004445 -0.009292 0.011112 0.000000 -0.001747 0.000000
# 4 0.000000 0.000000 0.000000 0.036402 0.000000 0.014581
# 5 0.001107 0.005573 -0.001747 0.000000 0.032246 0.000000
# 6 0.000000 0.000000 0.000000 0.014581 0.000000 0.068662
#
#
# Mechanical properties :
#
#
# Convention : Reuss Voigt Hill
#
# Bulk Modulus (GPa) = 28.88123 50.39029 39.63576
# Shear Modulus (GPa) = 20.38018 26.46220 23.42119
#
# Velocity S-wave (km/s) = 3.37532 3.84613 3.61839
# Velocity P-wave (km/s) = 5.59780 6.92044 6.29396
#
# Compressibility (1/GPa) = 0.03462457
#
# Stress axis : x y z
#
# Youngs Moduli (GPa) = 71.82733 24.67874 89.99129
#
# Poissons Ratio (x) = 0.04265 0.40001
# Poissons Ratio (y) = 0.12412 0.83622
# Poissons Ratio (z) = 0.31927 0.22932
#
# Static dielectric constant tensor:
#      x y z
#    x 3.479500 0.000000 0.084170 
#    y 0.000000 3.075740 0.000000 
#    z 0.084170 0.000000 3.336490 
# 
# 
# High freq. dielectric constant tensor:
#      x y z
#    x 1.695290 0.000000 0.004650 
#    y 0.000000 1.670320 0.000000 
#    z 0.004650 0.000000 1.695420 
# 
# From -- ./inp_files/327199.got.cif
#   From: 2010.06.25/outbox.cif.g09.slc.cpg/sg12_164_cif.got.tgz:327199.got - 2010.06.28 00:19:55.
