data_PCOD8091699
_publ_section_title
;
Structure prediction by ZEFSAII (Michael W. Deem and Ramdas Pophale) SiO2 
 PCOD8091699
Probable space group: C 2/M
;
_chemical_formula_sum "Si O2"
_cell_formula_units_Z 32
_cell_length_a 9.122965
_cell_length_b 22.212529
_cell_length_c 12.951321
_cell_angle_alpha 90.000000
_cell_angle_beta 148.851103
_cell_angle_gamma 90.000000
_cell_volume 1357.563792
_symmetry_space_group_name_H-M "C 2/M"
_symmetry_group_IT_number 12
_symmetry_cell_setting 'monoclinic'
loop_
_space_group_symop_operation_xyz
x,y,z
-x,y,-z
-x,-y,-z
x,-y,z
1/2+x,1/2+y,z
1/2-x,1/2+y,-z
1/2-x,1/2-y,-z
1/2+x,1/2-y,z
loop_
_atom_site_type_symbol
_atom_site_label
_atom_site_fract_x
_atom_site_fract_y
_atom_site_fract_z
Si Si1 0.942297 0.734283 0.776434
Si Si2 0.292854 0.829716 0.240453
Si Si3 0.290243 0.112860 0.782499
Si Si4 0.171615 0.430906 0.418925
O O1 0.759537 0.795918 0.681306
O O2 0.800109 0.684098 0.764950
O O3 0.967231 0.709524 0.675712
O O4 0.250000 0.750000 0.000000
O O5 0.426980 0.895870 0.336016
O O6 0.000000 0.834550 0.000000
O O7 0.381925 0.075855 0.736110
O O8 0.977789 0.095681 0.631968
O O9 0.500000 0.094513 0.000000
O O10 0.151788 0.500000 0.439790
#
# Coordination Sequence:
#
# PCOD8091699 Si02
#       4
#     8   8   8   8
#     4   9  17  32  56  87 115 143 186 233 288 348
#     4   9  18  34  57  83 115 149 183 234 288 336
#     4  10  19  34  57  82 112 149 187 236 285 330
#     4  10  22  36  53  83 114 149 198 230 268 342
#
# _framework density 23.571638
#
# number of rings (size 3 to 8) (size 9 to 14) (size 15 to 20)
#    0.000    2.500    0.000    3.750    0.000    3.500 
#    0.000    5.000    0.000   15.000    0.000   31.500 
#    0.000    1.000    0.000    0.000    0.000    0.000 
#
# Total GULP energy -198319.976438 kJ/mol
# GULP energy per Si atom -12394.998527 kJ/mol
# Density = 2.351799 g / cm^3
# Si number density = 23.571638 Si / 1000 Ang^3
#
#
#
# Elastic Constant Matrix: (Units=GPa)
#
#
# Indices 1 2 3 4 5 6 
#
# 1 63.9254 45.5179 39.4577 0.0000 19.8873 0.0000
# 2 45.5179 179.0315 49.9557 0.0000 45.4588 0.0000
# 3 39.4577 49.9557 100.0899 0.0000 13.9720 0.0000
# 4 0.0000 0.0000 0.0000 29.9685 0.0000 6.4648
# 5 19.8873 45.4588 13.9720 0.0000 35.9052 0.0000
# 6 0.0000 0.0000 0.0000 6.4648 0.0000 24.5500
#
#
#
# Elastic Compliance Matrix: (Units=1/GPa)
#
#
# Indices 1 2 3 4 5 6 
#
# 1 0.024120 -0.002080 -0.007374 0.000000 -0.007857 0.000000
# 2 -0.002080 0.009231 -0.002450 0.000000 -0.009582 0.000000
# 3 -0.007374 -0.002450 0.013871 0.000000 0.001788 0.000000
# 4 0.000000 0.000000 0.000000 0.035378 0.000000 -0.009316
# 5 -0.007857 -0.009582 0.001788 0.000000 0.043638 0.000000
# 6 0.000000 0.000000 0.000000 -0.009316 0.000000 0.043187
#
#
# Mechanical properties :
#
#
# Convention : Reuss Voigt Hill
#
# Bulk Modulus (GPa) = 42.70741 68.10106 55.40423
# Shear Modulus (GPa) = 24.87110 31.95911 28.41511
#
# Velocity S-wave (km/s) = 3.25180 3.68615 3.47577
# Velocity P-wave (km/s) = 5.67947 6.86082 6.29790
#
# Compressibility (1/GPa) = 0.02341514
#
# Stress axis : x y z
#
# Youngs Moduli (GPa) = 41.45954 108.33160 72.09291
#
# Poissons Ratio (x) = 0.22531 0.53159
# Poissons Ratio (y) = 0.08623 0.17661
# Poissons Ratio (z) = 0.30571 0.26538
#
# Static dielectric constant tensor:
#      x y z
#    x 4.350440 0.000000 0.361610 
#    y 0.000000 4.353480 0.000000 
#    z 0.361610 0.000000 4.220670 
# 
# 
# High freq. dielectric constant tensor:
#      x y z
#    x 1.916210 0.000000 0.015580 
#    y 0.000000 1.921900 0.000000 
#    z 0.015580 0.000000 1.939670 
# 
# From -- ./inp_files/199032.got.cif
#   From: 2010.06.25/outbox.cif.g09.slc.cpg/sg12_100_cif.got.tgz:199032.got - 2010.06.28 00:19:55.
