data_PCOD8091785
_publ_section_title
;
Structure prediction by ZEFSAII (Michael W. Deem and Ramdas Pophale) SiO2 
 PCOD8091785
Probable space group: C 2/M
;
_chemical_formula_sum "Si O2"
_cell_formula_units_Z 64
_cell_length_a 20.691927
_cell_length_b 8.682864
_cell_length_c 21.730632
_cell_angle_alpha 90.000000
_cell_angle_beta 118.145317
_cell_angle_gamma 90.000000
_cell_volume 3442.577752
_symmetry_space_group_name_H-M "C 2/M"
_symmetry_group_IT_number 12
_symmetry_cell_setting 'monoclinic'
loop_
_space_group_symop_operation_xyz
x,y,z
-x,y,-z
-x,-y,-z
x,-y,z
1/2+x,1/2+y,z
1/2-x,1/2+y,-z
1/2-x,1/2-y,-z
1/2+x,1/2-y,z
loop_
_atom_site_type_symbol
_atom_site_label
_atom_site_fract_x
_atom_site_fract_y
_atom_site_fract_z
Si Si1 0.829448 0.676745 0.034646
Si Si2 0.074676 0.818341 0.676373
Si Si3 0.702466 0.681673 0.532792
Si Si4 0.583869 0.318759 0.036639
Si Si5 0.297370 0.817576 0.829329
Si Si6 0.720891 0.318094 0.675548
Si Si7 0.456455 0.180371 0.541642
Si Si8 0.654813 0.823468 0.819347
O O1 0.823117 0.500000 0.010203
O O2 0.865524 0.689328 0.118169
O O3 0.750000 0.750000 0.000000
O O4 0.881395 0.767846 0.011877
O O5 0.142134 0.760562 0.664464
O O6 0.093064 0.771357 0.754650
O O7 0.002786 0.728444 0.622193
O O8 0.061262 0.000000 0.666029
O O9 0.708984 0.500000 0.532718
O O10 0.750000 0.750000 0.500000
O O11 0.733989 0.745848 0.612485
O O12 0.618571 0.727704 0.488520
O O13 0.591678 0.500000 0.047445
O O14 0.623811 0.240546 0.112931
O O15 0.500000 0.264419 0.000000
O O16 0.283674 0.764536 0.752055
O O17 0.235590 0.746217 0.845649
O O18 0.291804 0.000000 0.832461
O O19 0.718414 0.500000 0.672061
O O20 0.500000 0.230169 0.500000
O O21 0.439689 0.000000 0.535330
O O22 0.655125 0.000000 0.797279
#
# Coordination Sequence:
#
# PCOD8091785 Si02
#       8
#     8   8   8   8   8   8   8   8
#     4  11  22  36  59  86 115 149 189 234 284 342
#     4  10  19  34  57  85 114 151 192 234 289 345
#     4  11  22  39  59  83 117 155 195 237 288 346
#     4  11  24  40  57  82 117 155 194 241 291 340
#     4  10  19  34  58  85 110 146 192 236 288 347
#     4   8  17  33  55  82 111 145 186 232 283 342
#     4  11  22  36  57  87 117 147 190 240 289 340
#     4  10  20  34  54  85 119 149 185 237 292 339
#
# _framework density 18.590719
#
# number of rings (size 3 to 8) (size 9 to 14) (size 15 to 20)
#    0.000    1.750    2.500    3.375    0.000    3.000 
#    0.000    3.125    0.000    4.500    0.000    0.000 
#    0.000    0.000    0.000    0.000    0.000    0.000 
#
# Total GULP energy -396820.965853 kJ/mol
# GULP energy per Si atom -12400.655183 kJ/mol
# Density = 1.854841 g / cm^3
# Si number density = 18.590719 Si / 1000 Ang^3
#
#
#
# Elastic Constant Matrix: (Units=GPa)
#
#
# Indices 1 2 3 4 5 6 
#
# 1 98.3352 22.3957 58.6835 0.0000 -2.8807 0.0000
# 2 22.3957 55.2975 25.5703 0.0000 -1.9200 0.0000
# 3 58.6835 25.5703 143.7374 0.0000 0.2626 0.0000
# 4 0.0000 0.0000 0.0000 31.4415 0.0000 2.3595
# 5 -2.8807 -1.9200 0.2626 0.0000 26.0699 0.0000
# 6 0.0000 0.0000 0.0000 2.3595 0.0000 28.7745
#
#
#
# Elastic Compliance Matrix: (Units=1/GPa)
#
#
# Indices 1 2 3 4 5 6 
#
# 1 0.014022 -0.003251 -0.005149 0.000000 0.001362 0.000000
# 2 -0.003251 0.020516 -0.002325 0.000000 0.001175 0.000000
# 3 -0.005149 -0.002325 0.009474 0.000000 -0.000836 0.000000
# 4 0.000000 0.000000 0.000000 0.032002 0.000000 -0.002624
# 5 0.001362 0.001175 -0.000836 0.000000 0.038604 0.000000
# 6 0.000000 0.000000 0.000000 -0.002624 0.000000 0.034968
#
#
# Mechanical properties :
#
#
# Convention : Reuss Voigt Hill
#
# Bulk Modulus (GPa) = 44.31851 56.74102 50.52976
# Shear Modulus (GPa) = 28.00212 29.97187 28.98700
#
# Velocity S-wave (km/s) = 3.88524 4.01957 3.95298
# Velocity P-wave (km/s) = 6.63458 7.22011 6.93353
#
# Compressibility (1/GPa) = 0.02256393
#
# Stress axis : x y z
#
# Youngs Moduli (GPa) = 71.31457 48.74154 105.54727
#
# Poissons Ratio (x) = 0.15845 0.54347
# Poissons Ratio (y) = 0.23183 0.24537
# Poissons Ratio (z) = 0.36720 0.11331
#
# Static dielectric constant tensor:
#      x y z
#    x 3.155600 0.000000 -0.121160 
#    y 0.000000 3.441320 0.000000 
#    z -0.121160 0.000000 3.851330 
# 
# 
# High freq. dielectric constant tensor:
#      x y z
#    x 1.688120 0.000000 0.000140 
#    y 0.000000 1.727530 0.000000 
#    z 0.000140 0.000000 1.742080 
# 
# From -- ./inp_files/319994.got.cif
#   From: 2010.06.25/outbox.cif.g09.slc.cpg/sg12_160_cif.got.tgz:319994.got - 2010.06.28 00:19:55.
