data_PCOD8091460
_publ_section_title
;
Structure prediction by ZEFSAII (Michael W. Deem and Ramdas Pophale) SiO2 
 PCOD8091460
Probable space group: C 2/M
;
_chemical_formula_sum "Si O2"
_cell_formula_units_Z 60
_cell_length_a 23.451417
_cell_length_b 22.117532
_cell_length_c 11.448090
_cell_angle_alpha 90.000000
_cell_angle_beta 146.533382
_cell_angle_gamma 90.000000
_cell_volume 3274.505732
_symmetry_space_group_name_H-M "C 2/M"
_symmetry_group_IT_number 12
_symmetry_cell_setting 'monoclinic'
loop_
_space_group_symop_operation_xyz
x,y,z
-x,y,-z
-x,-y,-z
x,-y,z
1/2+x,1/2+y,z
1/2-x,1/2+y,-z
1/2-x,1/2-y,-z
1/2+x,1/2-y,z
loop_
_atom_site_type_symbol
_atom_site_label
_atom_site_fract_x
_atom_site_fract_y
_atom_site_fract_z
Si Si1 0.824412 0.140954 0.203153
Si Si2 0.077627 0.931337 0.421018
Si Si3 0.237632 0.832933 0.295482
Si Si4 0.831762 0.169507 0.564442
Si Si5 0.549629 0.780379 0.337264
Si Si6 0.174974 0.292823 0.114664
Si Si7 0.500000 0.732918 0.500000
Si Si8 0.332446 0.430839 0.993611
O O1 0.884510 0.097439 0.394219
O O2 0.724731 0.171457 0.091473
O O3 0.785227 0.101484 0.027154
O O4 0.902506 0.192783 0.294091
O O5 0.128127 0.897381 0.397093
O O6 0.955176 0.926501 0.206588
O O7 0.115784 0.000000 0.480378
O O8 0.176439 0.824179 0.311665
O O9 0.360764 0.829956 0.528273
O O10 0.202225 0.778461 0.149454
O O11 0.210156 0.897404 0.193875
O O12 0.915378 0.215957 0.654805
O O13 0.720404 0.182196 0.314587
O O14 0.528356 0.774456 0.438656
O O15 0.447823 0.803143 0.096085
O O16 0.294482 0.500000 0.924227
#
# Coordination Sequence:
#
# PCOD8091460 Si02
#       8
#     8   8   8   8   8   8   4   8
#     4  11  19  35  56  86 118 142 181 229 280 333
#     4  10  19  34  56  82 109 145 186 230 277 328
#     4  11  23  37  56  79 118 148 184 233 273 331
#     4  10  21  39  53  83 116 147 185 230 276 329
#     4  11  22  35  55  86 113 148 181 227 280 336
#     4  10  21  35  58  84 109 148 186 223 280 337
#     4  12  18  32  57  86 121 136 178 226 284 328
#     4  11  23  36  55  83 113 152 187 224 282 333
#
# _framework density 18.323376
#
# number of rings (size 3 to 8) (size 9 to 14) (size 15 to 20)
#    0.000    1.333    5.333    3.600    1.867    6.400 
#    0.000    1.333    0.000    4.800    0.000    4.667 
#    0.000    0.000    0.000    0.000    0.000    0.000 
#
# Total GULP energy -372105.228733 kJ/mol
# GULP energy per Si atom -12403.507624 kJ/mol
# Density = 1.828167 g / cm^3
# Si number density = 18.323376 Si / 1000 Ang^3
#
#
#
# Elastic Constant Matrix: (Units=GPa)
#
#
# Indices 1 2 3 4 5 6 
#
# 1 92.6545 36.2146 36.2820 0.0000 -10.7091 0.0000
# 2 36.2146 77.2913 23.2796 0.0000 -8.9201 0.0000
# 3 36.2820 23.2796 79.7147 0.0000 7.7018 0.0000
# 4 0.0000 0.0000 0.0000 23.3442 0.0000 0.8522
# 5 -10.7091 -8.9201 7.7018 0.0000 24.4343 0.0000
# 6 0.0000 0.0000 0.0000 0.8522 0.0000 18.2690
#
#
#
# Elastic Compliance Matrix: (Units=1/GPa)
#
#
# Indices 1 2 3 4 5 6 
#
# 1 0.016096 -0.004668 -0.006683 0.000000 0.007457 0.000000
# 2 -0.004668 0.016685 -0.003237 0.000000 0.005066 0.000000
# 3 -0.006683 -0.003237 0.017461 0.000000 -0.009615 0.000000
# 4 0.000000 0.000000 0.000000 0.042910 0.000000 -0.002002
# 5 0.007457 0.005066 -0.009615 0.000000 0.049074 0.000000
# 6 0.000000 0.000000 0.000000 -0.002002 0.000000 0.054831
#
#
# Mechanical properties :
#
#
# Convention : Reuss Voigt Hill
#
# Bulk Modulus (GPa) = 47.47330 49.02367 48.24848
# Shear Modulus (GPa) = 21.43549 23.46844 22.45197
#
# Velocity S-wave (km/s) = 3.42401 3.58270 3.50425
# Velocity P-wave (km/s) = 6.44954 6.62775 6.53926
#
# Compressibility (1/GPa) = 0.02106447
#
# Stress axis : x y z
#
# Youngs Moduli (GPa) = 62.12539 59.93392 57.27021
#
# Poissons Ratio (x) = 0.27979 0.38276
# Poissons Ratio (y) = 0.29002 0.18540
# Poissons Ratio (z) = 0.41521 0.19402
#
# Static dielectric constant tensor:
#      x y z
#    x 3.349060 0.000000 0.005350 
#    y 0.000000 3.381210 0.000000 
#    z 0.005350 0.000000 3.347060 
# 
# 
# High freq. dielectric constant tensor:
#      x y z
#    x 1.713860 0.000000 -0.004850 
#    y 0.000000 1.691760 0.000000 
#    z -0.004850 0.000000 1.701820 
# 
# From -- ./inp_files/178050.got.cif
#   From: 2010.06.25/outbox.cif.g09.slc.cpg/sg12_90_cif.got.tgz:178050.got - 2010.06.28 00:19:55.
