data_PCOD8091698
_publ_section_title
;
Structure prediction by ZEFSAII (Michael W. Deem and Ramdas Pophale) SiO2 
 PCOD8091698
Probable space group: C 2/M
;
_chemical_formula_sum "Si O2"
_cell_formula_units_Z 56
_cell_length_a 18.196530
_cell_length_b 7.756545
_cell_length_c 29.962841
_cell_angle_alpha 90.000000
_cell_angle_beta 41.207135
_cell_angle_gamma 90.000000
_cell_volume 2786.008058
_symmetry_space_group_name_H-M "C 2/M"
_symmetry_group_IT_number 12
_symmetry_cell_setting 'monoclinic'
loop_
_space_group_symop_operation_xyz
x,y,z
-x,y,-z
-x,-y,-z
x,-y,z
1/2+x,1/2+y,z
1/2-x,1/2+y,-z
1/2-x,1/2-y,-z
1/2+x,1/2-y,z
loop_
_atom_site_type_symbol
_atom_site_label
_atom_site_fract_x
_atom_site_fract_y
_atom_site_fract_z
Si Si1 0.485915 0.500000 0.078791
Si Si2 0.288699 0.303125 0.299389
Si Si3 0.304118 0.301034 0.830664
Si Si4 0.180125 0.000000 0.927911
Si Si5 0.445842 0.703941 0.305404
Si Si6 0.876095 0.202695 0.432722
Si Si7 0.042587 0.795970 0.432179
Si Si8 0.364003 0.809302 0.171396
O O1 0.408675 0.500000 0.070990
O O2 0.462118 0.670677 0.118962
O O3 0.615295 0.500000 0.004782
O O4 0.323242 0.500000 0.274591
O O5 0.360187 0.224173 0.307584
O O6 0.159441 0.294498 0.370095
O O7 0.316227 0.194880 0.242936
O O8 0.296168 0.500000 0.850732
O O9 0.430003 0.240841 0.764681
O O10 0.239518 0.272893 0.813915
O O11 0.253938 0.174288 0.891318
O O12 0.435734 0.500000 0.313017
O O13 0.413697 0.784494 0.368176
O O14 0.750000 0.250000 0.500000
O O15 0.954694 0.275740 0.436029
O O16 0.890624 0.000000 0.424467
O O17 0.000000 0.738394 0.500000
O O18 0.058332 0.000000 0.421861
O O19 0.413605 0.000000 0.139621
#
# Coordination Sequence:
#
# PCOD8091698 Si02
#       8
#     4   8   8   4   8   8   8   8
#     4   9  18  34  54  86 121 142 179 231 277 335
#     4  11  21  34  54  79 107 143 187 239 279 331
#     4   9  18  35  56  80 112 147 183 230 282 332
#     4   9  18  32  56  88 116 142 182 231 275 335
#     4   9  19  35  53  75 106 146 183 232 284 329
#     4  10  20  36  54  75 107 144 184 232 283 336
#     4  10  21  36  53  76 110 146 184 235 285 337
#     4  10  19  34  57  82 112 149 185 229 283 334
#
# _framework density 20.100445000000001
#
# number of rings (size 3 to 8) (size 9 to 14) (size 15 to 20)
#    0.000    2.286    0.714    2.143    0.000    3.714 
#    3.857    2.857    0.000    0.857    0.000    0.000 
#    0.000    0.000    0.000    0.000    0.000    0.000 
#
# Total GULP energy -347224.086679 kJ/mol
# GULP energy per Si atom -12400.860239 kJ/mol
# Density = 2.005470 g / cm^3
# Si number density = 20.100445 Si / 1000 Ang^3
#
#
#
# Elastic Constant Matrix: (Units=GPa)
#
#
# Indices 1 2 3 4 5 6 
#
# 1 121.3674 30.3017 65.3569 -0.0109 -5.7119 -0.0098
# 2 30.3017 79.9872 50.8010 -0.0749 -2.1764 0.0178
# 3 65.3569 50.8010 170.5395 -0.0056 -9.7659 0.0010
# 4 -0.0109 -0.0749 -0.0056 28.1550 -0.0050 -4.7687
# 5 -5.7119 -2.1764 -9.7659 -0.0050 24.6144 -0.0008
# 6 -0.0098 0.0178 0.0010 -4.7687 -0.0008 12.6693
#
#
#
# Elastic Compliance Matrix: (Units=1/GPa)
#
#
# Indices 1 2 3 4 5 6 
#
# 1 0.010601 -0.001781 -0.003479 0.000001 0.000922 0.000011
# 2 -0.001781 0.015724 -0.004037 0.000039 -0.000625 -0.000009
# 3 -0.003479 -0.004037 0.008527 -0.000010 0.002219 -0.000001
# 4 0.000001 0.000039 -0.000010 0.037936 0.000008 0.014279
# 5 0.000922 -0.000625 0.002219 0.000008 0.041666 0.000007
# 6 0.000011 -0.000009 -0.000001 0.014279 0.000007 0.084306
#
#
# Mechanical properties :
#
#
# Convention : Reuss Voigt Hill
#
# Bulk Modulus (GPa) = 61.51348 73.86815 67.69081
# Shear Modulus (GPa) = 22.44433 28.11669 25.28051
#
# Velocity S-wave (km/s) = 3.34519 3.74412 3.55027
# Velocity P-wave (km/s) = 6.75203 7.45121 7.11022
#
# Compressibility (1/GPa) = 0.01625660
#
# Stress axis : x y z
#
# Youngs Moduli (GPa) = 94.32885 63.59800 117.27752
#
# Poissons Ratio (x) = 0.11328 0.40805
# Poissons Ratio (y) = 0.16802 0.47345
# Poissons Ratio (z) = 0.32821 0.25675
#
# Static dielectric constant tensor:
#      x y z
#    x 3.693190 -0.000010 0.081540 
#    y -0.000010 3.583760 -0.000010 
#    z 0.081540 -0.000010 3.707980 
# 
# 
# High freq. dielectric constant tensor:
#      x y z
#    x 1.772060 0.000000 0.000600 
#    y 0.000000 1.779530 0.000000 
#    z 0.000600 0.000000 1.782300 
# 
# From -- ./inp_files/377703.got.cif
#   From: 2010.06.25/outbox.cif.g09.slc.cpg/sg12_189_cif.got.tgz:377703.got - 2010.06.28 00:19:55.
