data_PCOD8091965
_publ_section_title
;
Structure prediction by ZEFSAII (Michael W. Deem and Ramdas Pophale) SiO2 
 PCOD8091965
Probable space group: C 2/M
;
_chemical_formula_sum "Si O2"
_cell_formula_units_Z 64
_cell_length_a 23.175885
_cell_length_b 17.354735
_cell_length_c 20.634189
_cell_angle_alpha 90.000000
_cell_angle_beta 23.635075
_cell_angle_gamma 90.000000
_cell_volume 3327.273740
_symmetry_space_group_name_H-M "C 2/M"
_symmetry_group_IT_number 12
_symmetry_cell_setting 'monoclinic'
loop_
_space_group_symop_operation_xyz
x,y,z
-x,y,-z
-x,-y,-z
x,-y,z
1/2+x,1/2+y,z
1/2-x,1/2+y,-z
1/2-x,1/2-y,-z
1/2+x,1/2-y,z
loop_
_atom_site_type_symbol
_atom_site_label
_atom_site_fract_x
_atom_site_fract_y
_atom_site_fract_z
Si Si1 0.337424 0.271743 0.227630
Si Si2 0.793834 0.138997 0.569962
Si Si3 0.159424 0.914360 0.342229
Si Si4 0.345655 0.411720 0.309081
Si Si5 0.088234 0.588997 0.671105
Si Si6 0.696315 0.179593 0.014248
Si Si7 0.533295 0.588920 0.235734
Si Si8 0.148102 0.708905 0.917635
O O1 0.220362 0.227684 0.391653
O O2 0.358608 0.358096 0.232192
O O3 0.294857 0.273197 0.194282
O O4 0.476053 0.215743 0.092764
O O5 0.800957 0.082069 0.623266
O O6 0.665434 0.106370 0.658950
O O7 0.941493 0.140848 0.378644
O O8 0.287043 0.872066 0.172657
O O9 0.000000 0.875459 0.500000
O O10 0.153311 0.000000 0.319066
O O11 0.350490 0.500000 0.280133
O O12 0.197123 0.395011 0.499740
O O13 0.482893 0.393070 0.213827
O O14 0.036551 0.500000 0.722990
O O15 0.956568 0.648563 0.803356
O O16 0.750000 0.250000 0.000000
O O17 0.802106 0.107961 0.918734
O O18 0.698396 0.215318 0.939845
O O19 0.501057 0.500000 0.283731
#
# Coordination Sequence:
#
# PCOD8091965 Si02
#       8
#     8   8   8   8   8   8   8   8
#     4  10  20  38  59  81 122 144 193 250 282 344
#     4  10  19  34  58  85 116 156 193 229 285 345
#     4  10  20  35  55  81 120 162 196 230 281 350
#     4   9  20  39  65  89 111 150 199 249 306 351
#     4  10  21  37  59  89 119 151 198 246 292 353
#     4  12  24  37  57  84 119 155 196 239 307 357
#     4  10  21  35  56  87 120 150 192 242 295 359
#     4  10  22  38  52  86 113 154 194 239 287 348
#
# _framework density 19.234967000000001
#
# number of rings (size 3 to 8) (size 9 to 14) (size 15 to 20)
#    0.000    1.875    1.250    3.750    1.750    3.000 
#    0.000    3.125    0.000    1.500    0.000    1.750 
#    0.000    0.000    0.000    0.000    0.000    0.000 
#
# Total GULP energy -396534.554082 kJ/mol
# GULP energy per Si atom -12391.704815 kJ/mol
# Density = 1.919119 g / cm^3
# Si number density = 19.234967 Si / 1000 Ang^3
#
#
#
# Elastic Constant Matrix: (Units=GPa)
#
#
# Indices 1 2 3 4 5 6 
#
# 1 106.9122 49.1985 35.1640 -0.0052 4.4738 0.0018
# 2 49.1985 82.7279 37.3784 -0.0112 4.7149 0.0088
# 3 35.1640 37.3784 83.6184 -0.0118 -13.6037 0.0085
# 4 -0.0052 -0.0112 -0.0118 23.3871 0.0075 -2.0732
# 5 4.4738 4.7149 -13.6037 0.0075 27.6370 -0.0029
# 6 0.0018 0.0088 0.0085 -2.0732 -0.0029 23.5222
#
#
#
# Elastic Compliance Matrix: (Units=1/GPa)
#
#
# Indices 1 2 3 4 5 6 
#
# 1 0.013476 -0.006394 -0.003246 -0.000001 -0.002688 0.000002
# 2 -0.006394 0.019312 -0.006860 0.000006 -0.005636 -0.000004
# 3 -0.003246 -0.006860 0.018118 0.000002 0.010614 -0.000002
# 4 -0.000001 0.000006 0.000002 0.043095 -0.000011 0.003798
# 5 -0.002688 -0.005636 0.010614 -0.000011 0.042804 0.000003
# 6 0.000002 -0.000004 -0.000002 0.003798 0.000003 0.042848
#
#
# Mechanical properties :
#
#
# Convention : Reuss Voigt Hill
#
# Bulk Modulus (GPa) = 55.85523 57.41558 56.63541
# Shear Modulus (GPa) = 22.87047 25.01044 23.94045
#
# Velocity S-wave (km/s) = 3.45194 3.60982 3.53176
# Velocity P-wave (km/s) = 6.70740 6.87669 6.79257
#
# Compressibility (1/GPa) = 0.01790343
#
# Stress axis : x y z
#
# Youngs Moduli (GPa) = 74.20487 51.78255 55.19502
#
# Poissons Ratio (x) = 0.33112 0.17917
# Poissons Ratio (y) = 0.47450 0.37866
# Poissons Ratio (z) = 0.24088 0.35525
#
# Static dielectric constant tensor:
#      x y z
#    x 3.839160 0.002030 -0.318180 
#    y 0.002030 1.894840 -0.003020 
#    z -0.318180 -0.003020 4.138870 
# 
# 
# High freq. dielectric constant tensor:
#      x y z
#    x 1.747190 0.000000 0.000910 
#    y 0.000000 1.732680 0.000000 
#    z 0.000910 0.000000 1.747150 
# 
# From -- ./inp_files/326082.got.cif
#   From: 2010.06.25/outbox.cif.g09.slc.cpg/sg12_164_cif.got.tgz:326082.got - 2010.06.28 00:19:55.
