data_PCOD8091309
_publ_section_title
;
Structure prediction by ZEFSAII (Michael W. Deem and Ramdas Pophale) SiO2 
 PCOD8091309
Probable space group: C 2/M
;
_chemical_formula_sum "Si O2"
_cell_formula_units_Z 64
_cell_length_a 20.251203
_cell_length_b 9.042741
_cell_length_c 21.267283
_cell_angle_alpha 90.000000
_cell_angle_beta 64.267377
_cell_angle_gamma 90.000000
_cell_volume 3508.372922
_symmetry_space_group_name_H-M "C 2/M"
_symmetry_group_IT_number 12
_symmetry_cell_setting 'monoclinic'
loop_
_space_group_symop_operation_xyz
x,y,z
-x,y,-z
-x,-y,-z
x,-y,z
1/2+x,1/2+y,z
1/2-x,1/2+y,-z
1/2-x,1/2-y,-z
1/2+x,1/2-y,z
loop_
_atom_site_type_symbol
_atom_site_label
_atom_site_fract_x
_atom_site_fract_y
_atom_site_fract_z
Si Si1 0.422652 0.676359 0.058211
Si Si2 0.976064 0.324814 0.409775
Si Si3 0.103577 0.175741 0.790786
Si Si4 0.776687 0.172035 0.051400
Si Si5 0.262753 0.824295 0.697981
Si Si6 0.339879 0.172198 0.792741
Si Si7 0.507240 0.324930 0.269709
Si Si8 0.888767 0.324953 0.562188
O O1 0.422271 0.500000 0.059934
O O2 0.411783 0.739077 0.133205
O O3 0.356106 0.732527 0.041367
O O4 0.500000 0.736920 0.000000
O O5 0.975452 0.500000 0.397976
O O6 0.908805 0.273131 0.483153
O O7 0.968523 0.241673 0.347202
O O8 0.050965 0.271879 0.412158
O O9 0.180621 0.240704 0.732427
O O10 0.039776 0.227380 0.770740
O O11 0.108515 0.000000 0.792349
O O12 0.718033 0.205330 0.129268
O O13 0.782750 0.000000 0.034155
O O14 0.750000 0.250000 0.000000
O O15 0.305089 0.770954 0.742429
O O16 0.308661 0.767301 0.617837
O O17 0.259080 0.000000 0.699422
O O18 0.412057 0.265388 0.776195
O O19 0.361096 0.000000 0.780161
O O20 0.508972 0.500000 0.275681
O O21 0.891775 0.500000 0.561411
#
# Coordination Sequence:
#
# PCOD8091309 Si02
#       8
#     8   8   8   8   8   8   8   8
#     4   9  17  31  51  74 101 135 172 205 243 296
#     4   9  16  30  50  75 102 129 170 213 250 299
#     4   9  18  31  47  72 103 133 170 212 250 297
#     4  10  21  35  55  82 107 133 167 212 259 299
#     4   9  14  28  53  75  93 124 177 224 245 277
#     4  10  19  34  56  76  98 133 178 217 246 290
#     4  11  22  32  48  78 110 136 162 206 267 308
#     4   8  14  25  50  78  95 124 173 220 250 285
#
# _framework density 18.242075
#
# number of rings (size 3 to 8) (size 9 to 14) (size 15 to 20)
#    0.000    2.625    2.500    1.125    1.750    0.500 
#    0.000    1.875    0.000    3.375    0.000    0.000 
#    0.000    0.000    0.000    0.000    0.000    0.000 
#
# Total GULP energy -396635.806549 kJ/mol
# GULP energy per Si atom -12394.868955 kJ/mol
# Density = 1.820056 g / cm^3
# Si number density = 18.242075 Si / 1000 Ang^3
#
#
#
# Elastic Constant Matrix: (Units=GPa)
#
#
# Indices 1 2 3 4 5 6 
#
# 1 147.8677 32.5251 79.3454 0.0001 -7.1824 0.0003
# 2 32.5251 27.6712 31.0173 0.0002 -0.1528 0.0009
# 3 79.3454 31.0173 134.6115 0.0000 -8.8586 0.0001
# 4 0.0001 0.0002 0.0000 20.0529 0.0000 4.5178
# 5 -7.1824 -0.1528 -8.8586 0.0000 30.8706 0.0001
# 6 0.0003 0.0009 0.0001 4.5178 0.0001 20.3463
#
#
#
# Elastic Compliance Matrix: (Units=1/GPa)
#
#
# Indices 1 2 3 4 5 6 
#
# 1 0.011006 -0.007747 -0.004624 0.000000 0.001196 0.000000
# 2 -0.007747 0.054458 -0.008238 0.000000 -0.003897 -0.000002
# 3 -0.004624 -0.008238 0.012209 0.000000 0.002387 0.000000
# 4 0.000000 0.000000 0.000000 0.052494 0.000000 -0.011656
# 5 0.001196 -0.003897 0.002387 0.000000 0.033337 0.000000
# 6 0.000000 -0.000002 0.000000 -0.011656 0.000000 0.051737
#
#
# Mechanical properties :
#
#
# Convention : Reuss Voigt Hill
#
# Bulk Modulus (GPa) = 27.43095 66.21402 46.82248
# Shear Modulus (GPa) = 18.61427 25.40480 22.00954
#
# Velocity S-wave (km/s) = 3.19784 3.73587 3.47728
# Velocity P-wave (km/s) = 5.35768 7.41520 6.46877
#
# Compressibility (1/GPa) = 0.03645517
#
# Stress axis : x y z
#
# Youngs Moduli (GPa) = 90.85993 18.36288 81.90413
#
# Poissons Ratio (x) = 0.14226 0.37869
# Poissons Ratio (y) = 0.70392 0.67473
# Poissons Ratio (z) = 0.42009 0.15127
#
# Static dielectric constant tensor:
#      x y z
#    x 3.451240 0.000000 -0.210690 
#    y 0.000000 2.822300 0.000000 
#    z -0.210690 0.000000 3.527070 
# 
# 
# High freq. dielectric constant tensor:
#      x y z
#    x 1.702710 0.000000 -0.009520 
#    y 0.000000 1.647770 0.000000 
#    z -0.009520 0.000000 1.727570 
# 
# From -- ./inp_files/319817.got.cif
#   From: 2010.06.25/outbox.cif.g09.slc.cpg/sg12_160_cif.got.tgz:319817.got - 2010.06.28 00:19:55.
