data_PCOD8091667
_publ_section_title
;
Structure prediction by ZEFSAII (Michael W. Deem and Ramdas Pophale) SiO2 
 PCOD8091667
Probable space group: C 2/M
;
_chemical_formula_sum "Si O2"
_cell_formula_units_Z 48
_cell_length_a 30.018911
_cell_length_b 8.875419
_cell_length_c 14.837880
_cell_angle_alpha 90.000000
_cell_angle_beta 38.006968
_cell_angle_gamma 90.000000
_cell_volume 2434.250259
_symmetry_space_group_name_H-M "C 2/M"
_symmetry_group_IT_number 12
_symmetry_cell_setting 'monoclinic'
loop_
_space_group_symop_operation_xyz
x,y,z
-x,y,-z
-x,-y,-z
x,-y,z
1/2+x,1/2+y,z
1/2-x,1/2+y,-z
1/2-x,1/2-y,-z
1/2+x,1/2-y,z
loop_
_atom_site_type_symbol
_atom_site_label
_atom_site_fract_x
_atom_site_fract_y
_atom_site_fract_z
Si Si1 0.793487 0.822920 0.512829
Si Si2 0.936526 0.330550 0.337612
Si Si3 0.814529 0.320548 0.952973
Si Si4 0.545352 0.830096 0.005978
Si Si5 0.693472 0.178540 0.831618
Si Si6 0.973484 0.679409 0.639198
O O1 0.750000 0.750000 0.500000
O O2 0.876135 0.770813 0.386078
O O3 0.760729 0.774732 0.662104
O O4 0.789538 0.000000 0.504292
O O5 0.905868 0.500000 0.398699
O O6 0.005876 0.331168 0.163799
O O7 0.966306 0.263708 0.384716
O O8 0.810623 0.500000 0.952999
O O9 0.892590 0.261883 0.791916
O O10 0.750000 0.250000 0.000000
O O11 0.800250 0.259778 0.077062
O O12 0.559908 0.000000 0.947923
O O13 0.500000 0.744450 0.000000
O O14 0.622420 0.749585 0.897477
O O15 0.683699 0.000000 0.853076
O O16 0.972226 0.500000 0.643662
O O17 0.000000 0.740927 0.500000
#
# Coordination Sequence:
#
# PCOD8091667 Si02
#       6
#     8   8   8   8   8   8
#     4  11  23  38  56  80 112 147 184 226 273 326
#     4  10  19  34  57  82 108 139 180 228 273 321
#     4  10  20  36  57  82 111 143 182 225 270 322
#     4   9  15  27  52  79  98 128 177 222 259 310
#     4   9  18  34  54  78 108 142 182 223 262 318
#     4   9  18  33  55  83 111 141 180 224 270 323
#
# _framework density 19.718596000000002
#
# number of rings (size 3 to 8) (size 9 to 14) (size 15 to 20)
#    0.000    2.333    1.667    1.500    2.333    2.667 
#    0.000    1.667    0.000    6.500    0.000    0.000 
#    0.000    0.000    0.000    0.000    0.000    0.000 
#
# Total GULP energy -297475.945933 kJ/mol
# GULP energy per Si atom -12394.831081 kJ/mol
# Density = 1.967372 g / cm^3
# Si number density = 19.718596 Si / 1000 Ang^3
#
#
#
# Elastic Constant Matrix: (Units=GPa)
#
#
# Indices 1 2 3 4 5 6 
#
# 1 140.8853 21.8117 24.0148 0.0000 -1.1062 0.0000
# 2 21.8117 33.3238 20.6592 -0.0004 -2.6520 0.0000
# 3 24.0148 20.6592 73.0474 0.0000 0.5115 0.0000
# 4 0.0000 -0.0004 0.0000 12.4366 0.0001 -2.5049
# 5 -1.1062 -2.6520 0.5115 0.0001 41.2933 0.0000
# 6 0.0000 0.0000 0.0000 -2.5049 0.0000 27.6637
#
#
#
# Elastic Compliance Matrix: (Units=1/GPa)
#
#
# Indices 1 2 3 4 5 6 
#
# 1 0.008014 -0.004385 -0.001394 0.000000 -0.000050 0.000000
# 2 -0.004385 0.039041 -0.009617 0.000001 0.002509 0.000000
# 3 -0.001394 -0.009617 0.016874 0.000000 -0.000864 0.000000
# 4 0.000000 0.000001 0.000000 0.081901 0.000000 0.007416
# 5 -0.000050 0.002509 -0.000864 0.000000 0.024388 0.000000
# 6 0.000000 0.000000 0.000000 0.007416 0.000000 0.036820
#
#
# Mechanical properties :
#
#
# Convention : Reuss Voigt Hill
#
# Bulk Modulus (GPa) = 30.17899 42.24754 36.21326
# Shear Modulus (GPa) = 20.09026 28.33010 24.21018
#
# Velocity S-wave (km/s) = 3.19540 3.79452 3.50778
# Velocity P-wave (km/s) = 5.38072 6.37727 5.90008
#
# Compressibility (1/GPa) = 0.03313564
#
# Stress axis : x y z
#
# Youngs Moduli (GPa) = 124.77954 25.61413 59.26232
#
# Poissons Ratio (x) = 0.11232 0.08262
# Poissons Ratio (y) = 0.54718 0.56995
# Poissons Ratio (z) = 0.17396 0.24634
#
# Static dielectric constant tensor:
#      x y z
#    x 3.853710 0.000000 0.116090 
#    y 0.000000 3.014590 0.000000 
#    z 0.116090 0.000000 3.770160 
# 
# 
# High freq. dielectric constant tensor:
#      x y z
#    x 1.790960 0.000000 0.002240 
#    y 0.000000 1.703000 0.000000 
#    z 0.002240 0.000000 1.778110 
# 
# From -- ./inp_files/230447.got.cif
#   From: 2010.06.25/outbox.cif.g09.slc.cpg/sg12_116_cif.got.tgz:230447.got - 2010.06.28 00:19:55.
