data_PCOD8091572
_publ_section_title
;
Structure prediction by ZEFSAII (Michael W. Deem and Ramdas Pophale) SiO2 
 PCOD8091572
Probable space group: C 2/M
;
_chemical_formula_sum "Si O2"
_cell_formula_units_Z 48
_cell_length_a 18.337224
_cell_length_b 8.616017
_cell_length_c 20.716233
_cell_angle_alpha 90.000000
_cell_angle_beta 131.673675
_cell_angle_gamma 90.000000
_cell_volume 2444.774580
_symmetry_space_group_name_H-M "C 2/M"
_symmetry_group_IT_number 12
_symmetry_cell_setting 'monoclinic'
loop_
_space_group_symop_operation_xyz
x,y,z
-x,y,-z
-x,-y,-z
x,-y,z
1/2+x,1/2+y,z
1/2-x,1/2+y,-z
1/2-x,1/2-y,-z
1/2+x,1/2-y,z
loop_
_atom_site_type_symbol
_atom_site_label
_atom_site_fract_x
_atom_site_fract_y
_atom_site_fract_z
Si Si1 0.230532 0.815461 0.918524
Si Si2 0.516873 0.683039 0.412818
Si Si3 0.480577 0.684433 0.248004
Si Si4 0.359651 0.318483 0.758453
Si Si5 0.357246 0.819346 0.407442
Si Si6 0.894737 0.316480 0.917805
O O1 0.313460 0.750825 0.919093
O O2 0.126501 0.751743 0.832536
O O3 0.231203 0.000000 0.921533
O O4 0.250000 0.750000 0.000000
O O5 0.534848 0.500000 0.426422
O O6 0.511557 0.745742 0.336635
O O7 0.414995 0.721556 0.387812
O O8 0.606845 0.769521 0.500367
O O9 0.480117 0.500000 0.248546
O O10 0.557180 0.746739 0.240326
O O11 0.373204 0.500000 0.779389
O O12 0.256544 0.280962 0.664758
O O13 0.366954 0.230781 0.829782
O O14 0.379135 0.000000 0.409145
O O15 0.897161 0.500000 0.923437
O O16 0.000000 0.246873 0.000000
#
# Coordination Sequence:
#
# PCOD8091572 Si02
#       6
#     8   8   8   8   8   8
#     4  10  20  35  55  77 104 136 170 212 257 303
#     4  10  19  34  57  78 100 137 178 211 253 312
#     4   9  19  35  53  75 103 135 174 215 253 301
#     4  10  21  36  54  76 104 139 175 212 257 309
#     4  10  20  34  52  77 108 135 167 217 265 303
#     4  10  21  36  54  79 109 137 170 216 263 304
#
# _framework density 19.633713
#
# number of rings (size 3 to 8) (size 9 to 14) (size 15 to 20)
#    0.000    2.167    0.000    4.000    0.000    4.333 
#    0.000    3.333    0.000    0.000    0.000    0.000 
#    0.000    0.000    0.000    0.000    0.000    0.000 
#
# Total GULP energy -297657.656936 kJ/mol
# GULP energy per Si atom -12402.402372 kJ/mol
# Density = 1.958903 g / cm^3
# Si number density = 19.633713 Si / 1000 Ang^3
#
#
#
# Elastic Constant Matrix: (Units=GPa)
#
#
# Indices 1 2 3 4 5 6 
#
# 1 167.9169 11.4267 95.5809 0.0000 -0.2023 0.0000
# 2 11.4267 17.9654 16.6966 0.0000 3.0080 0.0000
# 3 95.5809 16.6966 159.8210 0.0000 -3.0522 0.0000
# 4 0.0000 0.0000 0.0000 29.1905 0.0000 -4.7399
# 5 -0.2023 3.0080 -3.0522 0.0000 46.6599 0.0000
# 6 0.0000 0.0000 0.0000 -4.7399 0.0000 16.4246
#
#
#
# Elastic Compliance Matrix: (Units=1/GPa)
#
#
# Indices 1 2 3 4 5 6 
#
# 1 0.009043 -0.000750 -0.005335 0.000000 -0.000261 0.000000
# 2 -0.000750 0.062626 -0.006179 0.000000 -0.004445 0.000000
# 3 -0.005335 -0.006179 0.010113 0.000000 0.001037 0.000000
# 4 0.000000 0.000000 0.000000 0.035942 0.000000 0.010372
# 5 -0.000261 -0.004445 0.001037 0.000000 0.021785 0.000000
# 6 0.000000 0.000000 0.000000 0.010372 0.000000 0.063878
#
#
# Mechanical properties :
#
#
# Convention : Reuss Voigt Hill
#
# Bulk Modulus (GPa) = 17.46582 65.90130 41.68356
# Shear Modulus (GPa) = 20.24309 33.25494 26.74901
#
# Velocity S-wave (km/s) = 3.21446 4.12001 3.69508
# Velocity P-wave (km/s) = 4.76363 7.50139 6.28343
#
# Compressibility (1/GPa) = 0.05725467
#
# Stress axis : x y z
#
# Youngs Moduli (GPa) = 110.58834 15.96771 98.88598
#
# Poissons Ratio (x) = 0.01197 0.52751
# Poissons Ratio (y) = 0.08292 0.61102
# Poissons Ratio (z) = 0.58994 0.09867
#
# Static dielectric constant tensor:
#      x y z
#    x 3.836040 0.000000 0.122600 
#    y 0.000000 3.319910 0.000000 
#    z 0.122600 0.000000 3.797410 
# 
# 
# High freq. dielectric constant tensor:
#      x y z
#    x 1.772050 0.000000 0.001730 
#    y 0.000000 1.741940 0.000000 
#    z 0.001730 0.000000 1.782140 
# 
# From -- ./inp_files/314489.got.cif
#   From: 2010.06.25/outbox.cif.g09.slc.cpg/sg12_158_cif.got.tgz:314489.got - 2010.06.28 00:19:55.
