data_PCOD8091406
_publ_section_title
;
Structure prediction by ZEFSAII (Michael W. Deem and Ramdas Pophale) SiO2 
 PCOD8091406
Probable space group: C 2/M
;
_chemical_formula_sum "Si O2"
_cell_formula_units_Z 56
_cell_length_a 30.514283
_cell_length_b 8.951193
_cell_length_c 12.030765
_cell_angle_alpha 90.000000
_cell_angle_beta 60.696038
_cell_angle_gamma 90.000000
_cell_volume 2865.572922
_symmetry_space_group_name_H-M "C 2/M"
_symmetry_group_IT_number 12
_symmetry_cell_setting 'monoclinic'
loop_
_space_group_symop_operation_xyz
x,y,z
-x,y,-z
-x,-y,-z
x,-y,z
1/2+x,1/2+y,z
1/2-x,1/2+y,-z
1/2-x,1/2-y,-z
1/2+x,1/2-y,z
loop_
_atom_site_type_symbol
_atom_site_label
_atom_site_fract_x
_atom_site_fract_y
_atom_site_fract_z
Si Si1 0.998538 0.826475 0.876516
Si Si2 0.834742 0.829476 0.639555
Si Si3 0.195207 0.174146 0.077648
Si Si4 0.151903 0.675784 0.758522
Si Si5 0.903048 0.173097 0.363270
Si Si6 0.388217 0.673956 0.992122
Si Si7 0.249501 0.175102 0.619412
O O1 0.945423 0.800765 0.878366
O O2 0.042116 0.762337 0.739939
O O3 0.009542 0.000000 0.877762
O O4 0.000000 0.755167 0.000000
O O5 0.834122 0.793783 0.770884
O O6 0.889620 0.806775 0.511866
O O7 0.798077 0.711188 0.629867
O O8 0.816417 0.000000 0.641853
O O9 0.154793 0.234325 0.037893
O O10 0.205203 0.000000 0.048065
O O11 0.250000 0.250000 0.000000
O O12 0.158772 0.500000 0.746107
O O13 0.138953 0.734580 0.651888
O O14 0.202235 0.754557 0.742627
O O15 0.110221 0.728308 0.897592
O O16 0.898003 0.000000 0.336177
O O17 0.379136 0.500000 0.030459
O O18 0.250000 0.250000 0.500000
O O19 0.243412 0.000000 0.613270
#
# Coordination Sequence:
#
# PCOD8091406 Si02
#       7
#     8   8   8   8   8   8   8
#     4   9  16  30  56  86 112 147 193 236 283 345
#     4  10  21  37  56  81 115 150 190 237 286 338
#     4  10  22  39  59  83 111 149 195 244 285 339
#     4  12  23  34  52  82 116 147 187 235 285 343
#     4  10  19  34  56  80 112 151 185 229 290 345
#     4  10  20  37  59  82 112 151 196 239 288 341
#     4  12  23  35  53  80 112 147 186 228 284 345
#
# _framework density 19.542339999999999
#
# number of rings (size 3 to 8) (size 9 to 14) (size 15 to 20)
#    0.000    1.571    2.857    3.429    0.000    3.429 
#    0.000    2.143    0.000    4.286    0.000    0.000 
#    0.000    4.571    0.000    0.000    0.000    0.000 
#
# Total GULP energy -346965.994855 kJ/mol
# GULP energy per Si atom -12391.642673 kJ/mol
# Density = 1.949786 g / cm^3
# Si number density = 19.542340 Si / 1000 Ang^3
#
#
#
# Elastic Constant Matrix: (Units=GPa)
#
#
# Indices 1 2 3 4 5 6 
#
# 1 98.5198 22.4799 44.8395 0.0000 -11.2321 0.0000
# 2 22.4799 86.7481 28.9327 0.0000 -2.8969 0.0000
# 3 44.8395 28.9327 137.1961 0.0000 -12.7871 0.0000
# 4 0.0000 0.0000 0.0000 18.1219 0.0000 -0.2340
# 5 -11.2321 -2.8969 -12.7871 0.0000 32.3416 0.0000
# 6 0.0000 0.0000 0.0000 -0.2340 0.0000 19.6823
#
#
#
# Elastic Compliance Matrix: (Units=1/GPa)
#
#
# Indices 1 2 3 4 5 6 
#
# 1 0.012472 -0.002007 -0.003391 0.000000 0.002811 0.000000
# 2 -0.002007 0.012723 -0.002062 0.000000 -0.000373 0.000000
# 3 -0.003391 -0.002062 0.009038 0.000000 0.002211 0.000000
# 4 0.000000 0.000000 0.000000 0.055190 0.000000 0.000656
# 5 0.002811 -0.000373 0.002211 0.000000 0.032737 0.000000
# 6 0.000000 0.000000 0.000000 0.000656 0.000000 0.050815
#
#
# Mechanical properties :
#
#
# Convention : Reuss Voigt Hill
#
# Bulk Modulus (GPa) = 51.77823 57.21869 54.49846
# Shear Modulus (GPa) = 25.72906 29.10995 27.41950
#
# Velocity S-wave (km/s) = 3.63241 3.86370 3.74984
# Velocity P-wave (km/s) = 6.64420 7.01763 6.83347
#
# Compressibility (1/GPa) = 0.01931314
#
# Stress axis : x y z
#
# Youngs Moduli (GPa) = 80.17935 78.59783 110.64421
#
# Poissons Ratio (x) = 0.15776 0.37519
# Poissons Ratio (y) = 0.16093 0.22813
# Poissons Ratio (z) = 0.27188 0.16206
#
# Static dielectric constant tensor:
#      x y z
#    x 3.631930 0.000000 -0.220510 
#    y 0.000000 3.315940 0.000000 
#    z -0.220510 0.000000 3.881510 
# 
# 
# High freq. dielectric constant tensor:
#      x y z
#    x 1.742760 0.000000 -0.019460 
#    y 0.000000 1.734680 0.000000 
#    z -0.019460 0.000000 1.773050 
# 
# From -- ./inp_files/187245.got.cif
#   From: 2010.06.25/outbox.cif.g09.slc.cpg/sg12_94_cif.got.tgz:187245.got - 2010.06.28 00:19:55.
