data_PCOD8091445
_publ_section_title
;
Structure prediction by ZEFSAII (Michael W. Deem and Ramdas Pophale) SiO2 
 PCOD8091445
Probable space group: C 2/M
;
_chemical_formula_sum "Si O2"
_cell_formula_units_Z 64
_cell_length_a 25.500443
_cell_length_b 8.902447
_cell_length_c 14.563279
_cell_angle_alpha 90.000000
_cell_angle_beta 89.181141
_cell_angle_gamma 90.000000
_cell_volume 3305.764692
_symmetry_space_group_name_H-M "C 2/M"
_symmetry_group_IT_number 12
_symmetry_cell_setting 'monoclinic'
loop_
_space_group_symop_operation_xyz
x,y,z
-x,y,-z
-x,-y,-z
x,-y,z
1/2+x,1/2+y,z
1/2-x,1/2+y,-z
1/2-x,1/2-y,-z
1/2+x,1/2-y,z
loop_
_atom_site_type_symbol
_atom_site_label
_atom_site_fract_x
_atom_site_fract_y
_atom_site_fract_z
Si Si1 0.698179 0.332389 0.974044
Si Si2 0.907374 0.677285 0.017000
Si Si3 0.305499 0.323816 0.527200
Si Si4 0.659997 0.178968 0.285587
Si Si5 0.059603 0.322576 0.179086
Si Si6 0.139044 0.824768 0.657122
Si Si7 0.769768 0.166694 0.228451
Si Si8 0.055817 0.678021 0.785699
O O1 0.696110 0.500000 0.015819
O O2 0.649599 0.236487 0.009469
O O3 0.697961 0.336935 0.865078
O O4 0.750000 0.250000 0.000000
O O5 0.905296 0.500000 0.025438
O O6 0.926410 0.743076 0.114637
O O7 0.942489 0.728067 0.928604
O O8 0.295115 0.500000 0.543514
O O9 0.250000 0.250000 0.500000
O O10 0.331605 0.248129 0.614704
O O11 0.351703 0.299207 0.450823
O O12 0.608275 0.246253 0.236248
O O13 0.710944 0.234504 0.224498
O O14 0.654675 0.000000 0.293559
O O15 0.066204 0.500000 0.179214
O O16 0.004849 0.274060 0.226939
O O17 0.191246 0.750449 0.701937
O O18 0.087652 0.744257 0.698906
O O19 0.133662 0.000000 0.682484
O O20 0.760709 0.000000 0.268394
O O21 0.062494 0.500000 0.784546
#
# Coordination Sequence:
#
# PCOD8091445 Si02
#       8
#     8   8   8   8   8   8   8   8
#     4  11  21  33  50  75 111 148 185 224 270 330
#     4  10  19  34  56  81 111 147 188 230 273 320
#     4  11  22  37  59  85 112 142 181 226 279 336
#     4  10  19  36  59  81 109 148 186 224 275 333
#     4   9  19  36  58  82 113 151 186 225 280 331
#     4  10  20  37  57  79 109 145 179 218 278 338
#     4   9  17  32  53  75 105 144 179 213 270 335
#     4  10  20  35  58  87 112 142 192 239 266 310
#
# _framework density 19.360119000000001
#
# number of rings (size 3 to 8) (size 9 to 14) (size 15 to 20)
#    0.000    2.000    2.500    1.875    0.000    4.500 
#    0.000    5.000    0.000    5.250    0.000    0.000 
#    0.000    0.000    0.000    0.000    0.000    0.000 
#
# Total GULP energy -396493.094212 kJ/mol
# GULP energy per Si atom -12390.409194 kJ/mol
# Density = 1.931605 g / cm^3
# Si number density = 19.360119 Si / 1000 Ang^3
#
#
#
# Elastic Constant Matrix: (Units=GPa)
#
#
# Indices 1 2 3 4 5 6 
#
# 1 124.8713 16.4455 39.2082 0.0000 -16.7842 0.0000
# 2 16.4455 26.8435 26.5359 0.0000 -2.9606 0.0000
# 3 39.2082 26.5359 77.0964 0.0000 -13.2543 0.0000
# 4 0.0000 0.0000 0.0000 26.3150 0.0000 -1.9037
# 5 -16.7842 -2.9606 -13.2543 0.0000 33.3098 0.0000
# 6 0.0000 0.0000 0.0000 -1.9037 0.0000 25.4509
#
#
#
# Elastic Compliance Matrix: (Units=1/GPa)
#
#
# Indices 1 2 3 4 5 6 
#
# 1 0.009901 -0.001948 -0.003797 0.000000 0.003305 0.000000
# 2 -0.001948 0.057113 -0.019282 0.000000 -0.003578 0.000000
# 3 -0.003797 -0.019282 0.022451 0.000000 0.005307 0.000000
# 4 0.000000 0.000000 0.000000 0.038208 0.000000 0.002858
# 5 0.003305 -0.003578 0.005307 0.000000 0.033480 0.000000
# 6 0.000000 0.000000 0.000000 0.002858 0.000000 0.039505
#
#
# Mechanical properties :
#
#
# Convention : Reuss Voigt Hill
#
# Bulk Modulus (GPa) = 25.37370 43.68782 34.53076
# Shear Modulus (GPa) = 18.95024 26.78993 22.87009
#
# Velocity S-wave (km/s) = 3.13202 3.72394 3.44073
# Velocity P-wave (km/s) = 5.11996 6.41133 5.80169
#
# Compressibility (1/GPa) = 0.03941089
#
# Stress axis : x y z
#
# Youngs Moduli (GPa) = 100.99831 17.50910 44.54228
#
# Poissons Ratio (x) = 0.03411 0.16911
# Poissons Ratio (y) = 0.19678 0.85887
# Poissons Ratio (z) = 0.38344 0.33761
#
# Static dielectric constant tensor:
#      x y z
#    x 3.757650 0.000000 -0.235510 
#    y 0.000000 3.186850 0.000000 
#    z -0.235510 0.000000 4.110400 
# 
# 
# High freq. dielectric constant tensor:
#      x y z
#    x 1.757480 0.000000 -0.006660 
#    y 0.000000 1.719890 0.000000 
#    z -0.006660 0.000000 1.754470 
# 
# From -- ./inp_files/238683.got.cif
#   From: 2010.06.25/outbox.cif.g09.slc.cpg/sg12_120_cif.got.tgz:238683.got - 2010.06.28 00:19:55.
