data_PCOD8091037
_publ_section_title
;
Structure prediction by ZEFSAII (Michael W. Deem and Ramdas Pophale) SiO2 
 PCOD8091037
Probable space group: C 2/M
;
_chemical_formula_sum "Si O2"
_cell_formula_units_Z 56
_cell_length_a 20.505620
_cell_length_b 8.902541
_cell_length_c 31.052218
_cell_angle_alpha 90.000000
_cell_angle_beta 32.364438
_cell_angle_gamma 90.000000
_cell_volume 3034.442404
_symmetry_space_group_name_H-M "C 2/M"
_symmetry_group_IT_number 12
_symmetry_cell_setting 'monoclinic'
loop_
_space_group_symop_operation_xyz
x,y,z
-x,y,-z
-x,-y,-z
x,-y,z
1/2+x,1/2+y,z
1/2-x,1/2+y,-z
1/2-x,1/2-y,-z
1/2+x,1/2-y,z
loop_
_atom_site_type_symbol
_atom_site_label
_atom_site_fract_x
_atom_site_fract_y
_atom_site_fract_z
Si Si1 0.163793 0.822080 0.661527
Si Si2 0.327372 0.823312 0.494151
Si Si3 0.325457 0.324112 0.247782
Si Si4 0.905149 0.822124 0.771292
Si Si5 0.432796 0.823789 0.911732
Si Si6 0.768352 0.676403 0.922897
Si Si7 0.405399 0.825406 0.680649
O O1 0.275086 0.766738 0.569297
O O2 0.183454 0.759751 0.698653
O O3 0.037173 0.760942 0.712529
O O4 0.160116 0.000000 0.665076
O O5 0.250000 0.750000 0.500000
O O6 0.467932 0.775828 0.412028
O O7 0.310207 0.000000 0.499381
O O8 0.357543 0.500000 0.229541
O O9 0.430097 0.236423 0.163891
O O10 0.197931 0.289911 0.296387
O O11 0.802169 0.750508 0.858786
O O12 0.879684 0.772287 0.736993
O O13 0.896741 0.000000 0.779417
O O14 0.372009 0.782036 0.899903
O O15 0.430603 0.000000 0.921617
O O16 0.360560 0.743119 0.990396
O O17 0.754213 0.500000 0.924674
O O18 0.407528 0.000000 0.692567
#
# Coordination Sequence:
#
# PCOD8091037 Si02
#       7
#     8   8   8   8   8   8   8
#     4   9  18  32  55  81 106 142 186 228 272 321
#     4  10  19  34  54  81 110 142 186 232 277 324
#     4  10  20  37  56  79 113 150 185 226 278 333
#     4  11  20  34  57  83 111 145 187 231 273 327
#     4  10  20  34  55  84 114 145 181 226 276 327
#     4  10  20  34  56  85 114 143 182 229 274 325
#     4  10  22  36  55  81 113 149 185 229 280 332
#
# _framework density 18.454789999999999
#
# number of rings (size 3 to 8) (size 9 to 14) (size 15 to 20)
#    0.000    2.000    2.857    1.286    0.000    2.286 
#    0.000    4.286    0.000    4.286    0.000    3.000 
#    0.000    0.000    0.000    0.000    0.000    0.000 
#
# Total GULP energy -347289.180403 kJ/mol
# GULP energy per Si atom -12403.185014 kJ/mol
# Density = 1.841279 g / cm^3
# Si number density = 18.454790 Si / 1000 Ang^3
#
#
#
# Elastic Constant Matrix: (Units=GPa)
#
#
# Indices 1 2 3 4 5 6 
#
# 1 97.6249 31.7098 59.8202 -0.0001 2.2027 0.0013
# 2 31.7098 57.0292 46.8114 0.0011 2.8918 0.0025
# 3 59.8202 46.8114 164.2695 -0.0002 8.3398 0.0024
# 4 -0.0001 0.0011 -0.0002 25.9429 0.0000 0.5876
# 5 2.2027 2.8918 8.3398 0.0000 32.5498 -0.0017
# 6 0.0013 0.0025 0.0024 0.5876 -0.0017 25.9459
#
#
#
# Elastic Compliance Matrix: (Units=1/GPa)
#
#
# Indices 1 2 3 4 5 6 
#
# 1 0.014107 -0.004740 -0.003809 0.000000 0.000442 0.000000
# 2 -0.004740 0.024486 -0.005225 -0.000001 -0.000516 -0.000002
# 3 -0.003809 -0.005225 0.009045 0.000000 -0.001595 0.000000
# 4 0.000000 -0.000001 0.000000 0.038566 0.000000 -0.000873
# 5 0.000442 -0.000516 -0.001595 0.000000 0.031147 0.000002
# 6 0.000000 -0.000002 0.000000 -0.000873 0.000002 0.038562
#
#
# Mechanical properties :
#
#
# Convention : Reuss Voigt Hill
#
# Bulk Modulus (GPa) = 49.77841 66.17848 57.97844
# Shear Modulus (GPa) = 26.29423 28.92652 27.61038
#
# Velocity S-wave (km/s) = 3.77874 3.96337 3.87215
# Velocity P-wave (km/s) = 6.78750 7.54202 7.17468
#
# Compressibility (1/GPa) = 0.02008903
#
# Stress axis : x y z
#
# Youngs Moduli (GPa) = 70.88804 40.84027 110.56233
#
# Poissons Ratio (x) = 0.19357 0.42112
# Poissons Ratio (y) = 0.33599 0.57773
# Poissons Ratio (z) = 0.27001 0.21341
#
# Static dielectric constant tensor:
#      x y z
#    x 3.186670 0.000010 0.054490 
#    y 0.000010 3.237500 0.000010 
#    z 0.054490 0.000010 3.622290 
# 
# 
# High freq. dielectric constant tensor:
#      x y z
#    x 1.698330 0.000000 0.006230 
#    y 0.000000 1.703620 0.000000 
#    z 0.006230 0.000000 1.732110 
# 
# From -- ./inp_files/275149.got.cif
#   From: 2010.06.25/outbox.cif.g09.slc.cpg/sg12_138_cif.got.tgz:275149.got - 2010.06.28 00:19:55.
