data_PCOD8091576
_publ_section_title
;
Structure prediction by ZEFSAII (Michael W. Deem and Ramdas Pophale) SiO2 
 PCOD8091576
Probable space group: C 2/M
;
_chemical_formula_sum "Si O2"
_cell_formula_units_Z 56
_cell_length_a 13.312806
_cell_length_b 13.799049
_cell_length_c 26.833999
_cell_angle_alpha 90.000000
_cell_angle_beta 147.087316
_cell_angle_gamma 90.000000
_cell_volume 2678.502593
_symmetry_space_group_name_H-M "C 2/M"
_symmetry_group_IT_number 12
_symmetry_cell_setting 'monoclinic'
loop_
_space_group_symop_operation_xyz
x,y,z
-x,y,-z
-x,-y,-z
x,-y,z
1/2+x,1/2+y,z
1/2-x,1/2+y,-z
1/2-x,1/2-y,-z
1/2+x,1/2-y,z
loop_
_atom_site_type_symbol
_atom_site_label
_atom_site_fract_x
_atom_site_fract_y
_atom_site_fract_z
Si Si1 0.402371 0.390589 0.907269
Si Si2 0.951610 0.716007 0.364327
Si Si3 0.334913 0.110971 0.893390
Si Si4 0.290465 0.387308 0.535422
Si Si5 0.695469 0.219832 0.594462
Si Si6 0.597756 0.766141 0.166626
Si Si7 0.054459 0.720271 0.788054
O O1 0.423417 0.500000 0.897024
O O2 0.497302 0.320495 0.905221
O O3 0.187613 0.366333 0.827272
O O4 0.500000 0.371850 0.000000
O O5 0.834751 0.675522 0.362939
O O6 0.809372 0.725043 0.259496
O O7 0.124157 0.642809 0.427990
O O8 0.032115 0.824806 0.407161
O O9 0.405447 0.135748 0.867142
O O10 0.155828 0.175844 0.829820
O O11 0.272717 0.000000 0.870663
O O12 0.500000 0.134969 0.000000
O O13 0.337748 0.500000 0.550335
O O14 0.230480 0.362159 0.567308
O O15 0.500000 0.274981 0.500000
O O16 0.879993 0.285204 0.676869
O O17 0.507144 0.794302 0.180594
#
# Coordination Sequence:
#
# PCOD8091576 Si02
#       7
#     8   8   8   8   8   8   8
#     4  10  22  38  55  79 109 141 181 225 270 325
#     4   9  20  34  51  81 112 136 180 233 270 316
#     4  10  22  38  57  85 114 139 179 232 278 325
#     4  10  19  34  57  78 104 146 186 224 274 323
#     4   9  19  35  54  79 112 142 177 224 267 314
#     4  10  20  36  56  78 109 145 178 221 273 324
#     4  10  20  36  59  81 107 146 184 219 270 328
#
# _framework density 20.907204
#
# number of rings (size 3 to 8) (size 9 to 14) (size 15 to 20)
#    0.000    2.286    0.000    3.429    0.000    8.857 
#    0.000    9.286    0.000   11.143    0.000    0.000 
#    0.000    0.000    0.000    0.000    0.000    0.000 
#
# Total GULP energy -346872.434701 kJ/mol
# GULP energy per Si atom -12388.301239 kJ/mol
# Density = 2.085962 g / cm^3
# Si number density = 20.907204 Si / 1000 Ang^3
#
#
#
# Elastic Constant Matrix: (Units=GPa)
#
#
# Indices 1 2 3 4 5 6 
#
# 1 52.2648 14.0629 8.1350 -0.0003 -4.7247 0.0000
# 2 14.0629 69.6319 9.5141 0.0000 -10.2130 0.0000
# 3 8.1350 9.5141 102.0013 0.0004 -8.9325 0.0001
# 4 -0.0003 0.0000 0.0004 11.6567 0.0000 1.4185
# 5 -4.7247 -10.2130 -8.9325 0.0000 29.4501 0.0000
# 6 0.0000 0.0000 0.0001 1.4185 0.0000 14.3101
#
#
#
# Elastic Compliance Matrix: (Units=1/GPa)
#
#
# Indices 1 2 3 4 5 6 
#
# 1 0.020465 -0.003737 -0.001140 0.000001 0.001642 0.000000
# 2 -0.003737 0.015909 -0.000776 0.000000 0.004682 0.000000
# 3 -0.001140 -0.000776 0.010198 0.000000 0.002641 0.000000
# 4 0.000001 0.000000 0.000000 0.086835 0.000000 -0.008607
# 5 0.001642 0.004682 0.002641 0.000000 0.036644 0.000000
# 6 0.000000 0.000000 0.000000 -0.008607 0.000000 0.070734
#
#
# Mechanical properties :
#
#
# Convention : Reuss Voigt Hill
#
# Bulk Modulus (GPa) = 28.35498 31.92465 30.13982
# Shear Modulus (GPa) = 18.95052 23.89576 21.42314
#
# Velocity S-wave (km/s) = 3.01393 3.38441 3.20453
# Velocity P-wave (km/s) = 5.06986 5.52948 5.30465
#
# Compressibility (1/GPa) = 0.03526718
#
# Stress axis : x y z
#
# Youngs Moduli (GPa) = 48.86500 62.85903 98.05480
#
# Poissons Ratio (x) = 0.23487 0.11177
# Poissons Ratio (y) = 0.18258 0.07607
# Poissons Ratio (z) = 0.05570 0.04877
#
# Static dielectric constant tensor:
#      x y z
#    x 3.868060 0.000000 -0.131500 
#    y 0.000000 3.378120 0.000000 
#    z -0.131500 0.000000 4.211490 
# 
# 
# High freq. dielectric constant tensor:
#      x y z
#    x 1.826120 0.000000 -0.011940 
#    y 0.000000 1.773070 0.000000 
#    z -0.011940 0.000000 1.840850 
# 
# From -- ./inp_files/376388.got.cif
#   From: 2010.06.25/outbox.cif.g09.slc.cpg/sg12_189_cif.got.tgz:376388.got - 2010.06.28 00:19:55.
