data_PCOD8091551
_publ_section_title
;
Structure prediction by ZEFSAII (Michael W. Deem and Ramdas Pophale) SiO2 
 PCOD8091551
Probable space group: C 2/M
;
_chemical_formula_sum "Si O2"
_cell_formula_units_Z 44
_cell_length_a 5.152145
_cell_length_b 24.337560
_cell_length_c 18.349787
_cell_angle_alpha 90.000000
_cell_angle_beta 79.595312
_cell_angle_gamma 90.000000
_cell_volume 2263.057245
_symmetry_space_group_name_H-M "C 2/M"
_symmetry_group_IT_number 12
_symmetry_cell_setting 'monoclinic'
loop_
_space_group_symop_operation_xyz
x,y,z
-x,y,-z
-x,-y,-z
x,-y,z
1/2+x,1/2+y,z
1/2-x,1/2+y,-z
1/2-x,1/2-y,-z
1/2+x,1/2-y,z
loop_
_atom_site_type_symbol
_atom_site_label
_atom_site_fract_x
_atom_site_fract_y
_atom_site_fract_z
Si Si1 0.256379 0.561875 0.201103
Si Si2 0.500000 0.287043 0.500000
Si Si3 0.730012 0.938042 0.033354
Si Si4 0.431855 0.214046 0.086027
Si Si5 0.272838 0.128093 0.212791
Si Si6 0.593146 0.712266 0.340043
O O1 0.253387 0.500000 0.233216
O O2 0.176026 0.561384 0.120838
O O3 0.546910 0.585999 0.198241
O O4 0.011675 0.597641 0.244881
O O5 0.750000 0.250000 0.500000
O O6 0.450892 0.319259 0.579007
O O7 0.754307 0.000000 0.000302
O O8 0.500000 0.907516 0.000000
O O9 0.000000 0.905791 0.000000
O O10 0.673500 0.248666 0.106131
O O11 0.392762 0.159969 0.137067
O O12 0.500000 0.196371 0.000000
O O13 0.132669 0.167530 0.276719
O O14 0.338549 0.746892 0.330685
#
# Coordination Sequence:
#
# PCOD8091551 Si02
#       6
#     8   4   8   8   8   8
#     4  11  24  38  51  74 106 139 183 232 274 314
#     4   8  16  30  52  82 117 144 159 200 266 324
#     4   9  17  31  49  65  86 120 162 216 275 315
#     4  10  21  37  54  75 105 137 172 216 262 316
#     4  12  22  35  57  79 103 144 184 219 268 320
#     4  10  19  34  56  86 117 140 170 211 262 327
#
# _framework density 19.442724999999999
#
# number of rings (size 3 to 8) (size 9 to 14) (size 15 to 20)
#    0.000    1.818    0.000    4.909    0.000    5.091 
#    0.000    0.000    0.000    0.545    0.000    3.818 
#    0.000    0.000    0.000    0.000    0.000    0.000 
#
# Total GULP energy -272628.565110 kJ/mol
# GULP energy per Si atom -12392.207505 kJ/mol
# Density = 1.939847 g / cm^3
# Si number density = 19.442725 Si / 1000 Ang^3
#
#
#
# Elastic Constant Matrix: (Units=GPa)
#
#
# Indices 1 2 3 4 5 6 
#
# 1 170.0262 47.4957 13.6222 0.0000 -7.2230 0.0000
# 2 47.4957 100.7314 33.0114 0.0000 -7.3659 0.0000
# 3 13.6222 33.0114 87.2997 0.0000 -10.6929 0.0000
# 4 0.0000 0.0000 0.0000 3.7759 0.0000 1.9694
# 5 -7.2230 -7.3659 -10.6929 0.0000 26.3700 0.0000
# 6 0.0000 0.0000 0.0000 1.9694 0.0000 24.5202
#
#
#
# Elastic Compliance Matrix: (Units=1/GPa)
#
#
# Indices 1 2 3 4 5 6 
#
# 1 0.006805 -0.003225 0.000290 0.000000 0.001081 0.000000
# 2 -0.003225 0.012916 -0.004259 0.000000 0.000998 0.000000
# 3 0.000290 -0.004259 0.013557 0.000000 0.004387 0.000000
# 4 0.000000 0.000000 0.000000 0.276417 0.000000 -0.022201
# 5 0.001081 0.000998 0.004387 0.000000 0.040276 0.000000
# 6 0.000000 0.000000 0.000000 -0.022201 0.000000 0.042566
#
#
# Mechanical properties :
#
#
# Convention : Reuss Voigt Hill
#
# Bulk Modulus (GPa) = 52.93333 60.70176 56.81755
# Shear Modulus (GPa) = 12.10004 28.52840 20.31422
#
# Velocity S-wave (km/s) = 2.49739 3.83470 3.23588
# Velocity P-wave (km/s) = 5.96660 7.13408 6.57630
#
# Compressibility (1/GPa) = 0.01889169
#
# Stress axis : x y z
#
# Youngs Moduli (GPa) = 146.95328 77.42073 73.76062
#
# Poissons Ratio (x) = 0.24964 -0.02138
# Poissons Ratio (y) = 0.47385 0.31413
# Poissons Ratio (z) = -0.04260 0.32972
#
# Static dielectric constant tensor:
#      x y z
#    x 4.185760 0.000000 0.062100 
#    y 0.000000 3.454240 0.000000 
#    z 0.062100 0.000000 3.682320 
# 
# 
# High freq. dielectric constant tensor:
#      x y z
#    x 1.793720 0.000000 -0.004000 
#    y 0.000000 1.732180 0.000000 
#    z -0.004000 0.000000 1.731250 
# 
# From -- ./inp_files/252901.got.cif
#   From: 2010.06.25/outbox.cif.g09.slc.cpg/sg12_127_cif.got.tgz:252901.got - 2010.06.28 00:19:55.
