data_PCOD8091118
_publ_section_title
;
Structure prediction by ZEFSAII (Michael W. Deem and Ramdas Pophale) SiO2 
 PCOD8091118
Probable space group: C 2/M
;
_chemical_formula_sum "Si O2"
_cell_formula_units_Z 48
_cell_length_a 19.175129
_cell_length_b 9.015369
_cell_length_c 21.828369
_cell_angle_alpha 90.000000
_cell_angle_beta 44.438114
_cell_angle_gamma 90.000000
_cell_volume 2641.964790
_symmetry_space_group_name_H-M "C 2/M"
_symmetry_group_IT_number 12
_symmetry_cell_setting 'monoclinic'
loop_
_space_group_symop_operation_xyz
x,y,z
-x,y,-z
-x,-y,-z
x,-y,z
1/2+x,1/2+y,z
1/2-x,1/2+y,-z
1/2-x,1/2-y,-z
1/2+x,1/2-y,z
loop_
_atom_site_type_symbol
_atom_site_label
_atom_site_fract_x
_atom_site_fract_y
_atom_site_fract_z
Si Si1 0.324817 0.329156 0.768555
Si Si2 0.905008 0.827446 0.519759
Si Si3 0.788017 0.670591 0.279876
Si Si4 0.820519 0.829727 0.908591
Si Si5 0.531553 0.175534 0.637442
Si Si6 0.954799 0.175200 0.245573
O O1 0.361429 0.500000 0.739214
O O2 0.237820 0.295187 0.774740
O O3 0.282652 0.299320 0.863037
O O4 0.418707 0.225990 0.695683
O O5 0.806692 0.789980 0.619456
O O6 0.899877 0.731440 0.461215
O O7 0.000000 0.778743 0.500000
O O8 0.912071 0.000000 0.497987
O O9 0.819509 0.500000 0.268894
O O10 0.879843 0.775215 0.239509
O O11 0.934294 0.774114 0.843511
O O12 0.814200 0.000000 0.929756
O O13 0.750000 0.750000 0.000000
O O14 0.575005 0.245161 0.672497
O O15 0.537308 0.000000 0.638783
O O16 0.950173 0.000000 0.258800
#
# Coordination Sequence:
#
# PCOD8091118 Si02
#       6
#     8   8   8   8   8   8
#     4   9  18  36  57  79 109 145 180 218 270 325
#     4  10  19  34  55  77 107 148 186 225 270 314
#     4  10  20  35  57  81 107 143 185 224 268 317
#     4   9  19  36  60  83 105 137 176 218 267 325
#     4  11  21  33  53  80 108 143 189 231 264 312
#     4  10  22  39  56  77 111 146 177 220 277 325
#
# _framework density 18.168296000000002
#
# number of rings (size 3 to 8) (size 9 to 14) (size 15 to 20)
#    0.000    2.167    1.667    3.000    0.000    5.667 
#    0.000    0.833    0.000    5.000    0.000    0.000 
#    0.000    0.000    0.000    0.000    0.000    0.000 
#
# Total GULP energy -297651.211469 kJ/mol
# GULP energy per Si atom -12402.133811 kJ/mol
# Density = 1.812694 g / cm^3
# Si number density = 18.168296 Si / 1000 Ang^3
#
#
#
# Elastic Constant Matrix: (Units=GPa)
#
#
# Indices 1 2 3 4 5 6 
#
# 1 132.1888 47.4201 56.6821 0.0000 6.5685 0.0000
# 2 47.4201 78.3922 42.4895 0.0000 4.2750 0.0001
# 3 56.6821 42.4895 108.5562 0.0000 11.1279 0.0000
# 4 0.0000 0.0000 0.0000 31.6784 0.0000 0.9021
# 5 6.5685 4.2750 11.1279 0.0000 20.3784 0.0000
# 6 0.0000 0.0001 0.0000 0.9021 0.0000 32.0808
#
#
#
# Elastic Compliance Matrix: (Units=1/GPa)
#
#
# Indices 1 2 3 4 5 6 
#
# 1 0.010840 -0.004430 -0.003881 0.000000 -0.000446 0.000000
# 2 -0.004430 0.018001 -0.004759 0.000000 0.000250 0.000000
# 3 -0.003881 -0.004759 0.013633 0.000000 -0.005196 0.000000
# 4 0.000000 0.000000 0.000000 0.031593 0.000000 -0.000888
# 5 -0.000446 0.000250 -0.005196 0.000000 0.052000 0.000000
# 6 0.000000 0.000000 0.000000 -0.000888 0.000000 0.031196
#
#
# Mechanical properties :
#
#
# Convention : Reuss Voigt Hill
#
# Bulk Modulus (GPa) = 61.21044 68.03561 64.62302
# Shear Modulus (GPa) = 26.47647 28.33055 27.40351
#
# Velocity S-wave (km/s) = 3.82159 3.95313 3.88792
# Velocity P-wave (km/s) = 7.29634 7.63970 7.47000
#
# Compressibility (1/GPa) = 0.01633708
#
# Stress axis : x y z
#
# Youngs Moduli (GPa) = 92.24973 55.55099 73.35030
#
# Poissons Ratio (x) = 0.24607 0.28465
# Poissons Ratio (y) = 0.40863 0.34904
# Poissons Ratio (z) = 0.35799 0.26434
#
# Static dielectric constant tensor:
#      x y z
#    x 3.456980 0.000000 0.149320 
#    y 0.000000 3.257700 0.000000 
#    z 0.149320 0.000000 3.247870 
# 
# 
# High freq. dielectric constant tensor:
#      x y z
#    x 1.704540 0.000000 0.013390 
#    y 0.000000 1.699400 0.000000 
#    z 0.013390 0.000000 1.690970 
# 
# From -- ./inp_files/230368.got.cif
#   From: 2010.06.25/outbox.cif.g09.slc.cpg/sg12_116_cif.got.tgz:230368.got - 2010.06.28 00:19:55.
