data_PCOD8091590
_publ_section_title
;
Structure prediction by ZEFSAII (Michael W. Deem and Ramdas Pophale) SiO2 
 PCOD8091590
Probable space group: C 2/M
;
_chemical_formula_sum "Si O2"
_cell_formula_units_Z 64
_cell_length_a 20.365231
_cell_length_b 9.582555
_cell_length_c 22.091881
_cell_angle_alpha 90.000000
_cell_angle_beta 123.757396
_cell_angle_gamma 90.000000
_cell_volume 3584.365382
_symmetry_space_group_name_H-M "C 2/M"
_symmetry_group_IT_number 12
_symmetry_cell_setting 'monoclinic'
loop_
_space_group_symop_operation_xyz
x,y,z
-x,y,-z
-x,-y,-z
x,-y,z
1/2+x,1/2+y,z
1/2-x,1/2+y,-z
1/2-x,1/2-y,-z
1/2+x,1/2-y,z
loop_
_atom_site_type_symbol
_atom_site_label
_atom_site_fract_x
_atom_site_fract_y
_atom_site_fract_z
Si Si1 0.962228 0.163990 0.815513
Si Si2 0.542383 0.160966 0.960207
Si Si3 0.191836 0.163951 0.790231
Si Si4 0.013736 0.165140 0.711317
Si Si5 0.723532 0.840027 0.573866
Si Si6 0.775023 0.339964 0.956041
Si Si7 0.868613 0.161611 0.561119
Si Si8 0.778792 0.838129 0.734092
O O1 0.870466 0.198254 0.775446
O O2 0.011957 0.243314 0.891047
O O3 0.991000 0.223660 0.765640
O O4 0.979369 0.000000 0.830866
O O5 0.523375 0.000000 0.935337
O O6 0.500000 0.207851 0.000000
O O7 0.634972 0.187072 0.016449
O O8 0.101186 0.212762 0.737463
O O9 0.220767 0.203833 0.871912
O O10 0.243395 0.245360 0.768540
O O11 0.202128 0.000000 0.783342
O O12 0.952356 0.218594 0.628986
O O13 0.006383 0.000000 0.711567
O O14 0.805463 0.811702 0.581614
O O15 0.653612 0.746509 0.510483
O O16 0.734957 0.799051 0.649399
O O17 0.698069 0.000000 0.553665
O O18 0.760523 0.500000 0.966244
O O19 0.750000 0.250000 0.000000
O O20 0.872877 0.000000 0.545065
O O21 0.766468 0.000000 0.743542
#
# Coordination Sequence:
#
# PCOD8091590 Si02
#       8
#     8   8   8   8   8   8   8   8
#     4  10  19  34  57  79  99 130 176 219 256 304
#     4  10  21  36  52  74 107 138 166 211 267 311
#     4  10  21  36  55  77 104 139 176 213 256 310
#     4   9  17  33  55  78 102 132 172 218 258 295
#     4   9  17  31  51  77 107 135 166 209 260 307
#     4  10  21  37  56  78 104 138 177 217 261 310
#     4   9  16  30  53  78 103 132 170 214 256 299
#     4  10  20  35  54  78 108 140 171 212 264 310
#
# _framework density 17.855322999999999
#
# number of rings (size 3 to 8) (size 9 to 14) (size 15 to 20)
#    0.000    2.375    1.250    1.500    0.000    4.250 
#    0.000    2.500    0.000    3.750    0.000    0.000 
#    0.000    0.000    0.000    0.000    0.000    0.000 
#
# Total GULP energy -396862.270023 kJ/mol
# GULP energy per Si atom -12401.945938 kJ/mol
# Density = 1.781468 g / cm^3
# Si number density = 17.855323 Si / 1000 Ang^3
#
#
#
# Elastic Constant Matrix: (Units=GPa)
#
#
# Indices 1 2 3 4 5 6 
#
# 1 68.5769 29.6893 21.4841 0.0000 2.7516 0.0000
# 2 29.6893 48.8880 42.6537 0.0000 1.5127 0.0000
# 3 21.4841 42.6537 100.3542 0.0000 15.3639 0.0000
# 4 0.0000 0.0000 0.0000 34.9178 0.0000 -2.3056
# 5 2.7516 1.5127 15.3639 0.0000 28.2030 0.0000
# 6 0.0000 0.0000 0.0000 -2.3056 0.0000 27.8334
#
#
#
# Elastic Compliance Matrix: (Units=1/GPa)
#
#
# Indices 1 2 3 4 5 6 
#
# 1 0.020032 -0.013756 0.001903 0.000000 -0.002253 0.000000
# 2 -0.013756 0.043020 -0.016575 0.000000 0.008064 0.000000
# 3 0.001903 -0.016575 0.017995 0.000000 -0.009100 0.000000
# 4 0.000000 0.000000 0.000000 0.028796 0.000000 0.002385
# 5 -0.002253 0.008064 -0.009100 0.000000 0.040202 0.000000
# 6 0.000000 0.000000 0.000000 0.002385 0.000000 0.036126
#
#
# Mechanical properties :
#
#
# Convention : Reuss Voigt Hill
#
# Bulk Modulus (GPa) = 41.33506 45.05256 43.19381
# Shear Modulus (GPa) = 19.91325 26.45697 23.18511
#
# Velocity S-wave (km/s) = 3.34317 3.85352 3.60738
# Velocity P-wave (km/s) = 6.17273 6.71463 6.44937
#
# Compressibility (1/GPa) = 0.02419254
#
# Stress axis : x y z
#
# Youngs Moduli (GPa) = 49.92082 23.24493 55.57070
#
# Poissons Ratio (x) = 0.31975 -0.10576
# Poissons Ratio (y) = 0.68670 0.92106
# Poissons Ratio (z) = -0.09501 0.38527
#
# Static dielectric constant tensor:
#      x y z
#    x 3.330290 0.000000 0.122440 
#    y 0.000000 3.176380 0.000000 
#    z 0.122440 0.000000 3.487710 
# 
# 
# High freq. dielectric constant tensor:
#      x y z
#    x 1.688030 0.000000 0.007160 
#    y 0.000000 1.673110 0.000000 
#    z 0.007160 0.000000 1.703830 
# 
# From -- ./inp_files/319878.got.cif
#   From: 2010.06.25/outbox.cif.g09.slc.cpg/sg12_160_cif.got.tgz:319878.got - 2010.06.28 00:19:55.
