data_PCOD8091924
_publ_section_title
;
Structure prediction by ZEFSAII (Michael W. Deem and Ramdas Pophale) SiO2 
 PCOD8091924
Probable space group: C 2/M
;
_chemical_formula_sum "Si O2"
_cell_formula_units_Z 56
_cell_length_a 28.678322
_cell_length_b 18.114368
_cell_length_c 9.157290
_cell_angle_alpha 90.000000
_cell_angle_beta 36.694285
_cell_angle_gamma 90.000000
_cell_volume 2842.592669
_symmetry_space_group_name_H-M "C 2/M"
_symmetry_group_IT_number 12
_symmetry_cell_setting 'monoclinic'
loop_
_space_group_symop_operation_xyz
x,y,z
-x,y,-z
-x,-y,-z
x,-y,z
1/2+x,1/2+y,z
1/2-x,1/2+y,-z
1/2-x,1/2-y,-z
1/2+x,1/2-y,z
loop_
_atom_site_type_symbol
_atom_site_label
_atom_site_fract_x
_atom_site_fract_y
_atom_site_fract_z
Si Si1 0.989259 0.351220 0.858179
Si Si2 0.722329 0.700192 0.297844
Si Si3 0.219475 0.164226 0.971191
Si Si4 0.949369 0.807506 0.261361
Si Si5 0.653425 0.087357 0.946636
Si Si6 0.574407 0.416841 0.413252
Si Si7 0.127825 0.416361 0.341382
O O1 0.008612 0.265459 0.778928
O O2 0.045377 0.402415 0.622463
O O3 0.000000 0.370459 0.000000
O O4 0.901662 0.373572 0.033508
O O5 0.704019 0.693773 0.172214
O O6 0.637291 0.712665 0.584089
O O7 0.762554 0.628609 0.270103
O O8 0.779299 0.772343 0.158714
O O9 0.146903 0.109390 0.129129
O O10 0.304388 0.127816 0.747991
O O11 0.941989 0.869646 0.401665
O O12 0.000000 0.838873 0.000000
O O13 0.664436 0.000000 0.886947
O O14 0.618589 0.103330 0.194123
O O15 0.500000 0.412319 0.500000
O O16 0.592156 0.500000 0.420723
O O17 0.152794 0.500000 0.295959
#
# Coordination Sequence:
#
# PCOD8091924 Si02
#       7
#     8   8   8   8   8   8   8
#     4  11  23  38  55  85 121 158 197 237 297 363
#     4   9  18  35  59  86 112 148 202 239 290 351
#     4   9  17  33  57  86 113 148 189 247 299 345
#     4  10  22  40  60  86 117 161 202 241 293 358
#     4  10  22  37  59  89 117 151 198 251 300 355
#     4  10  22  37  58  89 118 149 196 250 303 353
#     4  10  19  34  58  84 113 149 195 247 298 358
#
# _framework density 19.700326
#
# number of rings (size 3 to 8) (size 9 to 14) (size 15 to 20)
#    0.000    2.143    1.429    1.286    4.000    6.000 
#    0.000    4.286    0.000    1.714    0.000    0.000 
#    0.000    0.000    0.000    0.000    0.000    0.000 
#
# Total GULP energy -347067.509503 kJ/mol
# GULP energy per Si atom -12395.268197 kJ/mol
# Density = 1.965549 g / cm^3
# Si number density = 19.700326 Si / 1000 Ang^3
#
#
#
# Elastic Constant Matrix: (Units=GPa)
#
#
# Indices 1 2 3 4 5 6 
#
# 1 75.0495 57.8992 35.4407 0.0000 -15.0642 0.0000
# 2 57.8992 128.0056 41.1577 0.0000 -10.9714 0.0000
# 3 35.4407 41.1577 94.7131 0.0000 -14.8471 0.0000
# 4 0.0000 0.0000 0.0000 19.4725 0.0000 -5.7027
# 5 -15.0642 -10.9714 -14.8471 0.0000 25.2276 0.0000
# 6 0.0000 0.0000 0.0000 -5.7027 0.0000 30.6727
#
#
#
# Elastic Compliance Matrix: (Units=1/GPa)
#
#
# Indices 1 2 3 4 5 6 
#
# 1 0.023401 -0.008703 -0.003721 0.000000 0.007999 0.000000
# 2 -0.008703 0.012392 -0.002311 0.000000 -0.001168 0.000000
# 3 -0.003721 -0.002311 0.013714 0.000000 0.004844 0.000000
# 4 0.000000 0.000000 0.000000 0.054312 0.000000 0.010098
# 5 0.007999 -0.001168 0.004844 0.000000 0.046759 0.000000
# 6 0.000000 0.000000 0.000000 0.010098 0.000000 0.034480
#
#
# Mechanical properties :
#
#
# Convention : Reuss Voigt Hill
#
# Bulk Modulus (GPa) = 49.90718 62.97370 56.44044
# Shear Modulus (GPa) = 22.60333 25.95926 24.28129
#
# Velocity S-wave (km/s) = 3.39094 3.63396 3.51455
# Velocity P-wave (km/s) = 6.38118 7.04576 6.72169
#
# Compressibility (1/GPa) = 0.02003720
#
# Stress axis : x y z
#
# Youngs Moduli (GPa) = 42.73266 80.69920 72.91686
#
# Poissons Ratio (x) = 0.70232 0.27131
# Poissons Ratio (y) = 0.37190 0.16854
# Poissons Ratio (z) = 0.15900 0.18653
#
# Static dielectric constant tensor:
#      x y z
#    x 3.358100 0.000000 -0.288380 
#    y 0.000000 3.819570 0.000000 
#    z -0.288380 0.000000 3.758670 
# 
# 
# High freq. dielectric constant tensor:
#      x y z
#    x 1.742980 0.000000 -0.022310 
#    y 0.000000 1.776670 0.000000 
#    z -0.022310 0.000000 1.766040 
# 
# From -- ./inp_files/105929.got.cif
#   From: 2010.06.25/outbox.cif.g09.slc.cpg/sg12_53_cif.got.tgz:105929.got - 2010.06.28 00:19:55.
