data_PCOD8091154
_publ_section_title
;
Structure prediction by ZEFSAII (Michael W. Deem and Ramdas Pophale) SiO2 
 PCOD8091154
Probable space group: C 2/M
;
_chemical_formula_sum "Si O2"
_cell_formula_units_Z 56
_cell_length_a 28.584282
_cell_length_b 8.826361
_cell_length_c 14.192932
_cell_angle_alpha 90.000000
_cell_angle_beta 61.907820
_cell_angle_gamma 90.000000
_cell_volume 3158.957548
_symmetry_space_group_name_H-M "C 2/M"
_symmetry_group_IT_number 12
_symmetry_cell_setting 'monoclinic'
loop_
_space_group_symop_operation_xyz
x,y,z
-x,y,-z
-x,-y,-z
x,-y,z
1/2+x,1/2+y,z
1/2-x,1/2+y,-z
1/2-x,1/2-y,-z
1/2+x,1/2-y,z
loop_
_atom_site_type_symbol
_atom_site_label
_atom_site_fract_x
_atom_site_fract_y
_atom_site_fract_z
Si Si1 0.667779 0.669237 0.838105
Si Si2 0.494704 0.680440 0.897944
Si Si3 0.796176 0.323051 0.893065
Si Si4 0.226623 0.824779 0.279855
Si Si5 0.612525 0.173895 0.055638
Si Si6 0.196621 0.824308 0.512546
Si Si7 0.399076 0.668708 0.280073
O O1 0.678529 0.500000 0.867458
O O2 0.720130 0.737178 0.741394
O O3 0.621347 0.663557 0.807145
O O4 0.652909 0.781065 0.935705
O O5 0.498170 0.500000 0.898046
O O6 0.440397 0.726825 0.898924
O O7 0.542821 0.745986 0.786271
O O8 0.500000 0.744488 0.000000
O O9 0.783109 0.500000 0.897523
O O10 0.799517 0.249516 0.786855
O O11 0.854926 0.296573 0.879437
O O12 0.750000 0.250000 0.000000
O O13 0.189274 0.806160 0.407000
O O14 0.238786 0.000000 0.247340
O O15 0.596051 0.000000 0.059941
O O16 0.250000 0.750000 0.500000
O O17 0.143947 0.748618 0.611078
O O18 0.199910 0.000000 0.539703
O O19 0.406771 0.500000 0.313382
#
# Coordination Sequence:
#
# PCOD8091154 Si02
#       7
#     8   8   8   8   8   8   8
#     4  11  19  31  54  78 108 147 180 212 259 320
#     4  10  19  34  55  79 105 141 182 215 260 325
#     4  11  23  37  55  77 107 143 180 221 271 327
#     4  11  22  34  51  80 113 142 181 224 266 318
#     4  11  23  36  51  78 111 139 175 224 271 317
#     4  10  20  34  53  79 110 144 179 221 266 316
#     4   9  18  33  52  77 109 143 180 216 257 316
#
# _framework density 17.727367000000001
#
# number of rings (size 3 to 8) (size 9 to 14) (size 15 to 20)
#    0.000    1.571    4.286    1.714    0.000    2.571 
#    0.000    0.714    0.000    0.857    0.000    6.000 
#    0.000    0.000    0.000    0.000    0.000    0.000 
#
# Total GULP energy -347051.837311 kJ/mol
# GULP energy per Si atom -12394.708475 kJ/mol
# Density = 1.768702 g / cm^3
# Si number density = 17.727367 Si / 1000 Ang^3
#
#
#
# Elastic Constant Matrix: (Units=GPa)
#
#
# Indices 1 2 3 4 5 6 
#
# 1 91.8319 34.0258 46.9932 0.0000 -8.9053 0.0000
# 2 34.0258 46.5964 29.3652 0.0000 -0.8743 0.0000
# 3 46.9932 29.3652 114.7580 0.0000 -11.6559 0.0000
# 4 0.0000 0.0000 0.0000 19.3250 0.0000 -0.0787
# 5 -8.9053 -0.8743 -11.6559 0.0000 31.8045 0.0000
# 6 0.0000 0.0000 0.0000 -0.0787 0.0000 27.8759
#
#
#
# Elastic Compliance Matrix: (Units=1/GPa)
#
#
# Indices 1 2 3 4 5 6 
#
# 1 0.016870 -0.009656 -0.004139 0.000000 0.002941 0.000000
# 2 -0.009656 0.031209 -0.004383 0.000000 -0.003452 0.000000
# 3 -0.004139 -0.004383 0.011841 0.000000 0.003060 0.000000
# 4 0.000000 0.000000 0.000000 0.051747 0.000000 0.000146
# 5 0.002941 -0.003452 0.003060 0.000000 0.033292 0.000000
# 6 0.000000 0.000000 0.000000 0.000146 0.000000 0.035874
#
#
# Mechanical properties :
#
#
# Convention : Reuss Voigt Hill
#
# Bulk Modulus (GPa) = 42.43382 52.66165 47.54773
# Shear Modulus (GPa) = 22.21800 25.32122 23.76961
#
# Velocity S-wave (km/s) = 3.54406 3.78348 3.66572
# Velocity P-wave (km/s) = 6.38248 6.98979 6.69303
#
# Compressibility (1/GPa) = 0.02356611
#
# Stress axis : x y z
#
# Youngs Moduli (GPa) = 59.27580 32.04227 84.45148
#
# Poissons Ratio (x) = 0.30939 0.34953
# Poissons Ratio (y) = 0.57234 0.37012
# Poissons Ratio (z) = 0.24533 0.14043
#
# Static dielectric constant tensor:
#      x y z
#    x 3.297970 0.000000 -0.067470 
#    y 0.000000 3.251090 0.000000 
#    z -0.067470 0.000000 3.442460 
# 
# 
# High freq. dielectric constant tensor:
#      x y z
#    x 1.675170 0.000000 -0.006030 
#    y 0.000000 1.677120 0.000000 
#    z -0.006030 0.000000 1.680380 
# 
# From -- ./inp_files/243639.got.cif
#   From: 2010.06.25/outbox.cif.g09.slc.cpg/sg12_122_cif.got.tgz:243639.got - 2010.06.28 00:19:55.
