data_PCOD8091860
_publ_section_title
;
Structure prediction by ZEFSAII (Michael W. Deem and Ramdas Pophale) SiO2 
 PCOD8091860
Probable space group: C 2/M
;
_chemical_formula_sum "Si O2"
_cell_formula_units_Z 56
_cell_length_a 30.708571
_cell_length_b 10.361758
_cell_length_c 28.095457
_cell_angle_alpha 90.000000
_cell_angle_beta 160.492786
_cell_angle_gamma 90.000000
_cell_volume 2985.236848
_symmetry_space_group_name_H-M "C 2/M"
_symmetry_group_IT_number 12
_symmetry_cell_setting 'monoclinic'
loop_
_space_group_symop_operation_xyz
x,y,z
-x,y,-z
-x,-y,-z
x,-y,z
1/2+x,1/2+y,z
1/2-x,1/2+y,-z
1/2-x,1/2-y,-z
1/2+x,1/2-y,z
loop_
_atom_site_type_symbol
_atom_site_label
_atom_site_fract_x
_atom_site_fract_y
_atom_site_fract_z
Si Si1 0.775717 0.141770 0.679084
Si Si2 0.982250 0.356353 0.535504
Si Si3 0.477822 0.150652 0.922463
Si Si4 0.130891 0.351135 0.990886
Si Si5 0.421112 0.353725 0.293607
Si Si6 0.085967 0.644283 0.301168
Si Si7 0.149300 0.772946 0.463857
O O1 0.671424 0.141688 0.613742
O O2 0.869171 0.260532 0.786459
O O3 0.699474 0.160016 0.550557
O O4 0.845498 0.000000 0.749246
O O5 0.041219 0.500000 0.606521
O O6 0.000000 0.314662 0.500000
O O7 0.052727 0.247384 0.638258
O O8 0.605556 0.177148 0.021276
O O9 0.434207 0.000000 0.875320
O O10 0.500000 0.192535 0.000000
O O11 0.105117 0.500000 0.955787
O O12 0.022009 0.285230 0.844236
O O13 0.277380 0.313353 0.126219
O O14 0.415080 0.500000 0.307891
O O15 0.531244 0.351287 0.366491
O O16 0.044457 0.500000 0.271372
O O17 0.089952 0.720796 0.354157
O O18 0.226130 0.638441 0.419353
#
# Coordination Sequence:
#
# PCOD8091860 Si02
#       7
#     8   8   8   8   8   8   8
#     4  10  20  35  55  81 112 144 184 233 279 330
#     4   9  20  37  55  78 112 149 185 229 282 334
#     4  10  21  36  56  80 111 150 189 228 276 332
#     4   9  19  36  55  80 115 147 183 230 280 327
#     4  10  21  36  57  83 113 146 187 235 276 327
#     4  10  19  34  58  81 108 148 186 225 281 338
#     4  10  20  34  56  83 112 144 185 232 278 332
#
# _framework density 18.758980999999999
#
# number of rings (size 3 to 8) (size 9 to 14) (size 15 to 20)
#    0.000    2.286    1.429    0.857    2.000    4.000 
#    0.000    0.714    0.000    0.000    0.000    0.000 
#    0.000    0.000    0.000    0.000    0.000    0.000 
#
# Total GULP energy -346936.141725 kJ/mol
# GULP energy per Si atom -12390.576490 kJ/mol
# Density = 1.871628 g / cm^3
# Si number density = 18.758981 Si / 1000 Ang^3
#
#
#
# Elastic Constant Matrix: (Units=GPa)
#
#
# Indices 1 2 3 4 5 6 
#
# 1 108.7984 32.1134 54.2469 0.0001 -7.6848 -0.0002
# 2 32.1134 84.3013 43.4497 0.0007 -6.1878 0.0002
# 3 54.2469 43.4497 115.6807 0.0024 0.2488 0.0007
# 4 0.0001 0.0007 0.0024 24.7272 0.0012 -2.7222
# 5 -7.6848 -6.1878 0.2488 0.0012 23.3882 0.0004
# 6 -0.0002 0.0002 0.0007 -2.7222 0.0004 5.5912
#
#
#
# Elastic Compliance Matrix: (Units=1/GPa)
#
#
# Indices 1 2 3 4 5 6 
#
# 1 0.012602 -0.001833 -0.005229 0.000000 0.003711 0.000001
# 2 -0.001833 0.015351 -0.004914 0.000000 0.003511 0.000000
# 3 -0.005229 -0.004914 0.012949 -0.000001 -0.003156 -0.000002
# 4 0.000000 0.000000 -0.000001 0.042732 -0.000002 0.020805
# 5 0.003711 0.003511 -0.003156 -0.000002 0.044939 -0.000004
# 6 0.000001 0.000000 -0.000002 0.020805 -0.000004 0.188982
#
#
# Mechanical properties :
#
#
# Convention : Reuss Voigt Hill
#
# Bulk Modulus (GPa) = 58.99680 63.15558 61.07619
# Shear Modulus (GPa) = 14.40278 22.67266 18.53772
#
# Velocity S-wave (km/s) = 2.77389 3.48031 3.14698
# Velocity P-wave (km/s) = 6.46355 7.06328 6.77006
#
# Compressibility (1/GPa) = 0.01695007
#
# Stress axis : x y z
#
# Youngs Moduli (GPa) = 79.35505 65.14314 77.22674
#
# Poissons Ratio (x) = 0.11941 0.40381
# Poissons Ratio (y) = 0.14546 0.37947
# Poissons Ratio (z) = 0.41494 0.32010
#
# Static dielectric constant tensor:
#      x y z
#    x 3.624390 0.000000 0.088840 
#    y 0.000000 3.356810 0.000000 
#    z 0.088840 0.000000 3.442480 
# 
# 
# High freq. dielectric constant tensor:
#      x y z
#    x 1.736940 0.000000 0.002440 
#    y 0.000000 1.716180 0.000000 
#    z 0.002440 0.000000 1.717640 
# 
# From -- ./inp_files/370783.got.cif
#   From: 2010.06.25/outbox.cif.g09.slc.cpg/sg12_186_cif.got.tgz:370783.got - 2010.06.28 00:19:55.
