data_PCOD8091524
_publ_section_title
;
Structure prediction by ZEFSAII (Michael W. Deem and Ramdas Pophale) SiO2 
 PCOD8091524
Probable space group: C 2/M
;
_chemical_formula_sum "Si O2"
_cell_formula_units_Z 64
_cell_length_a 20.834019
_cell_length_b 8.733682
_cell_length_c 24.291032
_cell_angle_alpha 90.000000
_cell_angle_beta 47.922144
_cell_angle_gamma 90.000000
_cell_volume 3280.633879
_symmetry_space_group_name_H-M "C 2/M"
_symmetry_group_IT_number 12
_symmetry_cell_setting 'monoclinic'
loop_
_space_group_symop_operation_xyz
x,y,z
-x,y,-z
-x,-y,-z
x,-y,z
1/2+x,1/2+y,z
1/2-x,1/2+y,-z
1/2-x,1/2-y,-z
1/2+x,1/2-y,z
loop_
_atom_site_type_symbol
_atom_site_label
_atom_site_fract_x
_atom_site_fract_y
_atom_site_fract_z
Si Si1 0.258440 0.677580 0.844126
Si Si2 0.064756 0.679222 0.700672
Si Si3 0.261324 0.819515 0.347571
Si Si4 0.425704 0.181592 0.697070
Si Si5 0.831784 0.172924 0.199621
Si Si6 0.684752 0.318529 0.995106
Si Si7 0.589938 0.180122 0.420292
Si Si8 0.509855 0.673436 0.148665
O O1 0.272190 0.500000 0.848630
O O2 0.351396 0.751853 0.778942
O O3 0.195837 0.702538 0.828734
O O4 0.208213 0.756276 0.922326
O O5 0.056507 0.500000 0.707604
O O6 0.167643 0.723932 0.645482
O O7 0.018087 0.736240 0.670918
O O8 0.011506 0.735628 0.783938
O O9 0.284485 0.715770 0.282630
O O10 0.162518 0.768250 0.415670
O O11 0.265866 0.000000 0.332177
O O12 0.414578 0.240094 0.640605
O O13 0.419303 0.000000 0.701005
O O14 0.933930 0.183262 0.147762
O O15 0.802935 0.000000 0.199678
O O16 0.688688 0.500000 0.991358
O O17 0.750000 0.250000 0.000000
O O18 0.591543 0.258880 0.069186
O O19 0.500000 0.222648 0.500000
O O20 0.608454 0.000000 0.412326
O O21 0.527078 0.500000 0.157643
#
# Coordination Sequence:
#
# PCOD8091524 Si02
#       8
#     8   8   8   8   8   8   8   8
#     4  12  24  36  54  82 112 144 186 235 283 333
#     4   9  19  34  56  83 111 147 187 230 280 333
#     4  10  19  34  56  84 115 145 182 228 280 335
#     4  10  20  37  59  82 111 148 190 233 279 335
#     4  10  19  35  57  80 106 142 184 228 278 332
#     4  11  23  39  55  76 108 147 188 234 287 338
#     4  10  21  37  59  85 113 149 191 231 276 335
#     4   9  20  36  55  78 107 143 186 232 278 331
#
# _framework density 19.508426
#
# number of rings (size 3 to 8) (size 9 to 14) (size 15 to 20)
#    0.000    1.875    1.250    3.000    0.000    5.250 
#    0.000    3.125    0.000    0.000    0.000    0.000 
#    0.000    0.000    0.000    0.000    0.000    0.000 
#
# Total GULP energy -396608.698346 kJ/mol
# GULP energy per Si atom -12394.021823 kJ/mol
# Density = 1.946402 g / cm^3
# Si number density = 19.508426 Si / 1000 Ang^3
#
#
#
# Elastic Constant Matrix: (Units=GPa)
#
#
# Indices 1 2 3 4 5 6 
#
# 1 135.7046 29.2978 39.8007 -0.0002 -18.7398 0.0010
# 2 29.2978 29.7190 9.8902 -0.0006 -5.7338 0.0024
# 3 39.8007 9.8902 71.3206 0.0000 -25.5297 0.0003
# 4 -0.0002 -0.0006 0.0000 21.9664 0.0001 -1.0522
# 5 -18.7398 -5.7338 -25.5297 0.0001 26.5601 -0.0002
# 6 0.0010 0.0024 0.0003 -1.0522 -0.0002 25.6206
#
#
#
# Elastic Compliance Matrix: (Units=1/GPa)
#
#
# Indices 1 2 3 4 5 6 
#
# 1 0.010737 -0.008878 -0.004169 0.000000 0.001651 0.000000
# 2 -0.008878 0.042965 0.000113 0.000001 0.003120 -0.000004
# 3 -0.004169 0.000113 0.023307 0.000000 0.019486 0.000000
# 4 0.000000 0.000001 0.000000 0.045614 0.000000 0.001873
# 5 0.001651 0.003120 0.019486 0.000000 0.058219 0.000000
# 6 0.000000 -0.000004 0.000000 0.001873 0.000000 0.039108
#
#
# Mechanical properties :
#
#
# Convention : Reuss Voigt Hill
#
# Bulk Modulus (GPa) = 19.55406 43.85795 31.70600
# Shear Modulus (GPa) = 19.02115 25.34646 22.18381
#
# Velocity S-wave (km/s) = 3.12592 3.60843 3.37581
# Velocity P-wave (km/s) = 4.80351 6.31596 5.61093
#
# Compressibility (1/GPa) = 0.05114029
#
# Stress axis : x y z
#
# Youngs Moduli (GPa) = 93.13974 23.27462 42.90502
#
# Poissons Ratio (x) = 0.20664 0.17889
# Poissons Ratio (y) = 0.82693 -0.00486
# Poissons Ratio (z) = 0.38834 -0.00264
#
# Static dielectric constant tensor:
#      x y z
#    x 4.338040 0.000000 -0.218860 
#    y 0.000000 3.509470 0.000000 
#    z -0.218860 0.000000 3.412490 
# 
# 
# High freq. dielectric constant tensor:
#      x y z
#    x 1.779300 0.000000 -0.013840 
#    y 0.000000 1.755310 0.000000 
#    z -0.013840 0.000000 1.739630 
# 
# From -- ./inp_files/346044.got.cif
#   From: 2010.06.25/outbox.cif.g09.slc.cpg/sg12_174_cif.got.tgz:346044.got - 2010.06.28 00:19:55.
