data_PCOD8091579
_publ_section_title
;
Structure prediction by ZEFSAII (Michael W. Deem and Ramdas Pophale) SiO2 
 PCOD8091579
Probable space group: C 2/M
;
_chemical_formula_sum "Si O2"
_cell_formula_units_Z 48
_cell_length_a 18.821896
_cell_length_b 8.517095
_cell_length_c 17.887362
_cell_angle_alpha 90.000000
_cell_angle_beta 59.114223
_cell_angle_gamma 90.000000
_cell_volume 2460.853732
_symmetry_space_group_name_H-M "C 2/M"
_symmetry_group_IT_number 12
_symmetry_cell_setting 'monoclinic'
loop_
_space_group_symop_operation_xyz
x,y,z
-x,y,-z
-x,-y,-z
x,-y,z
1/2+x,1/2+y,z
1/2-x,1/2+y,-z
1/2-x,1/2-y,-z
1/2+x,1/2-y,z
loop_
_atom_site_type_symbol
_atom_site_label
_atom_site_fract_x
_atom_site_fract_y
_atom_site_fract_z
Si Si1 0.457487 0.315482 0.743889
Si Si2 0.279658 0.685400 0.594828
Si Si3 0.619925 0.817276 0.589188
Si Si4 0.707207 0.686759 0.243492
Si Si5 0.876297 0.684729 0.080465
Si Si6 0.981518 0.185047 0.898175
O O1 0.446557 0.500000 0.753678
O O2 0.536634 0.275215 0.651778
O O3 0.375491 0.243142 0.749655
O O4 0.465981 0.249760 0.823321
O O5 0.294013 0.500000 0.580797
O O6 0.351099 0.771273 0.509369
O O7 0.189801 0.732471 0.611315
O O8 0.285592 0.749771 0.675788
O O9 0.600498 0.000000 0.603858
O O10 0.706124 0.500000 0.246841
O O11 0.785674 0.744514 0.153143
O O12 0.878209 0.500000 0.063630
O O13 0.939394 0.723084 0.113190
O O14 0.901217 0.776512 0.991745
O O15 0.999289 0.000000 0.890411
#
# Coordination Sequence:
#
# PCOD8091579 Si02
#       6
#     8   8   8   8   8   8
#     4  10  21  36  53  74 104 140 172 206 253 307
#     4   9  18  35  57  76  99 134 173 212 253 300
#     4  10  20  34  54  80 105 130 169 216 257 300
#     4   9  19  35  54  76 101 135 177 211 246 302
#     4  10  19  34  57  79 101 133 174 215 251 295
#     4  10  20  34  53  78 106 134 168 211 258 305
#
# _framework density 19.505426
#
# number of rings (size 3 to 8) (size 9 to 14) (size 15 to 20)
#    0.000    2.333    0.000    3.500    0.000    4.667 
#    0.000    7.500    0.000    0.000    0.000    0.000 
#    0.000    0.000    0.000    0.000    0.000    0.000 
#
# Total GULP energy -297654.340022 kJ/mol
# GULP energy per Si atom -12402.264168 kJ/mol
# Density = 1.946103 g / cm^3
# Si number density = 19.505426 Si / 1000 Ang^3
#
#
#
# Elastic Constant Matrix: (Units=GPa)
#
#
# Indices 1 2 3 4 5 6 
#
# 1 102.8882 2.8420 65.0791 0.0000 -20.3239 0.0001
# 2 2.8420 16.6242 0.7271 0.0003 1.6100 0.0004
# 3 65.0791 0.7271 115.2911 -0.0001 -20.0992 -0.0002
# 4 0.0000 0.0003 -0.0001 28.4512 -0.0001 -3.8908
# 5 -20.3239 1.6100 -20.0992 -0.0001 22.2723 0.0001
# 6 0.0001 0.0004 -0.0002 -3.8908 0.0001 19.9688
#
#
#
# Elastic Compliance Matrix: (Units=1/GPa)
#
#
# Indices 1 2 3 4 5 6 
#
# 1 0.016337 -0.003238 -0.007787 0.000000 0.008115 0.000000
# 2 -0.003238 0.061399 0.000180 -0.000001 -0.007231 -0.000001
# 3 -0.007787 0.000180 0.014035 0.000000 0.005547 0.000000
# 4 0.000000 -0.000001 0.000000 0.036110 0.000000 0.007036
# 5 0.008115 -0.007231 0.005547 0.000000 0.057832 0.000000
# 6 0.000000 -0.000001 0.000000 0.007036 0.000000 0.051449
#
#
# Mechanical properties :
#
#
# Convention : Reuss Voigt Hill
#
# Bulk Modulus (GPa) = 14.26906 41.34443 27.80674
# Shear Modulus (GPa) = 17.71714 25.21549 21.46631
#
# Velocity S-wave (km/s) = 3.01710 3.59937 3.32102
# Velocity P-wave (km/s) = 4.41231 6.20616 5.38446
#
# Compressibility (1/GPa) = 0.07008170
#
# Stress axis : x y z
#
# Youngs Moduli (GPa) = 61.21090 16.28683 71.25030
#
# Poissons Ratio (x) = 0.05274 0.55481
# Poissons Ratio (y) = 0.19821 -0.01283
# Poissons Ratio (z) = 0.47663 -0.00293
#
# Static dielectric constant tensor:
#      x y z
#    x 3.701490 0.000000 0.062010 
#    y 0.000000 3.294950 0.000000 
#    z 0.062010 0.000000 3.719270 
# 
# 
# High freq. dielectric constant tensor:
#      x y z
#    x 1.754610 0.000000 -0.001600 
#    y 0.000000 1.740550 0.000000 
#    z -0.001600 0.000000 1.773030 
# 
# From -- ./inp_files/274028.got.cif
#   From: 2010.06.25/outbox.cif.g09.slc.cpg/sg12_138_cif.got.tgz:274028.got - 2010.06.28 00:19:55.
