data_PCOD8091434
_publ_section_title
;
Structure prediction by ZEFSAII (Michael W. Deem and Ramdas Pophale) SiO2 
 PCOD8091434
Probable space group: C 2/M
;
_chemical_formula_sum "Si O2"
_cell_formula_units_Z 64
_cell_length_a 28.069501
_cell_length_b 8.635881
_cell_length_c 18.370507
_cell_angle_alpha 90.000000
_cell_angle_beta 45.133212
_cell_angle_gamma 90.000000
_cell_volume 3156.129913
_symmetry_space_group_name_H-M "C 2/M"
_symmetry_group_IT_number 12
_symmetry_cell_setting 'monoclinic'
loop_
_space_group_symop_operation_xyz
x,y,z
-x,y,-z
-x,-y,-z
x,-y,z
1/2+x,1/2+y,z
1/2-x,1/2+y,-z
1/2-x,1/2-y,-z
1/2+x,1/2-y,z
loop_
_atom_site_type_symbol
_atom_site_label
_atom_site_fract_x
_atom_site_fract_y
_atom_site_fract_z
Si Si1 0.070384 0.181955 0.038609
Si Si2 0.403378 0.171976 0.839795
Si Si3 0.660624 0.820412 0.817417
Si Si4 0.211473 0.682093 0.261213
Si Si5 0.929485 0.681446 0.217907
Si Si6 0.933726 0.684895 0.529392
Si Si7 0.442172 0.171141 0.361026
Si Si8 0.789055 0.819685 0.890240
O O1 0.105080 0.263473 0.069924
O O2 0.993293 0.235241 0.112505
O O3 0.072435 0.000000 0.048855
O O4 0.112440 0.224240 0.922157
O O5 0.478635 0.163542 0.732787
O O6 0.367095 0.283418 0.820942
O O7 0.370901 0.000000 0.872783
O O8 0.737511 0.762091 0.736965
O O9 0.635464 0.792032 0.762020
O O10 0.656052 0.000000 0.843641
O O11 0.218090 0.500000 0.263396
O O12 0.134586 0.736840 0.356659
O O13 0.235405 0.733265 0.155768
O O14 0.948434 0.500000 0.205069
O O15 0.913943 0.749413 0.316540
O O16 0.940241 0.500000 0.517755
O O17 0.927898 0.756496 0.453378
O O18 0.000000 0.750099 0.500000
O O19 0.410489 0.000000 0.400913
O O20 0.775776 0.000000 0.894878
O O21 0.750000 0.750000 0.000000
#
# Coordination Sequence:
#
# PCOD8091434 Si02
#       8
#     8   8   8   8   8   8   8   8
#     4  11  21  33  53  83 116 147 184 230 279 329
#     4  10  19  34  56  81 110 143 181 223 269 326
#     4  11  22  37  54  74 108 151 192 232 277 330
#     4  11  23  38  57  83 112 143 184 230 278 333
#     4   9  19  35  56  80 108 148 193 232 273 327
#     4   9  17  32  58  88 112 137 176 227 278 331
#     4   8  15  31  56  83 107 135 178 227 271 320
#     4  12  24  38  55  77 109 146 183 222 269 325
#
# _framework density 20.277998
#
# number of rings (size 3 to 8) (size 9 to 14) (size 15 to 20)
#    0.000    1.875    0.000    6.000    0.000    4.500 
#    0.000    0.625    0.000   12.750    0.000    0.000 
#    0.000    0.000    0.000    0.000    0.000    0.000 
#
# Total GULP energy -396689.127115 kJ/mol
# GULP energy per Si atom -12396.535222 kJ/mol
# Density = 2.023184 g / cm^3
# Si number density = 20.277998 Si / 1000 Ang^3
#
#
#
# Elastic Constant Matrix: (Units=GPa)
#
#
# Indices 1 2 3 4 5 6 
#
# 1 128.3687 15.6483 49.0044 -0.0006 0.3816 0.0027
# 2 15.6483 50.6364 18.1078 -0.0135 -1.0200 0.0146
# 3 49.0044 18.1078 98.7600 -0.0065 11.6978 0.0077
# 4 -0.0006 -0.0135 -0.0065 15.9759 0.0038 -4.5302
# 5 0.3816 -1.0200 11.6978 0.0038 27.1009 -0.0037
# 6 0.0027 0.0146 0.0077 -4.5302 -0.0037 29.7961
#
#
#
# Elastic Compliance Matrix: (Units=1/GPa)
#
#
# Indices 1 2 3 4 5 6 
#
# 1 0.009790 -0.001251 -0.004855 -0.000003 0.001911 0.000001
# 2 -0.001251 0.021470 -0.003598 0.000014 0.002378 -0.000007
# 3 -0.004855 -0.003598 0.013913 0.000003 -0.006073 -0.000002
# 4 -0.000003 0.000014 0.000003 0.065414 -0.000009 0.009946
# 5 0.001911 0.002378 -0.006073 -0.000009 0.039583 0.000004
# 6 0.000001 -0.000007 -0.000002 0.009946 0.000004 0.035074
#
#
# Mechanical properties :
#
#
# Convention : Reuss Voigt Hill
#
# Bulk Modulus (GPa) = 38.80975 49.25403 44.03189
# Shear Modulus (GPa) = 23.44782 27.57490 25.51136
#
# Velocity S-wave (km/s) = 3.40416 3.69161 3.55079
# Velocity P-wave (km/s) = 5.88485 6.52018 6.21064
#
# Compressibility (1/GPa) = 0.02576672
#
# Stress axis : x y z
#
# Youngs Moduli (GPa) = 102.14323 46.57749 71.87322
#
# Poissons Ratio (x) = 0.05826 0.34893
# Poissons Ratio (y) = 0.12777 0.25856
# Poissons Ratio (z) = 0.49589 0.16756
#
# Static dielectric constant tensor:
#      x y z
#    x 4.127420 -0.000050 0.182360 
#    y -0.000050 3.630850 0.000020 
#    z 0.182360 0.000020 3.633550 
# 
# 
# High freq. dielectric constant tensor:
#      x y z
#    x 1.805760 0.000000 0.010300 
#    y 0.000000 1.766570 0.000000 
#    z 0.010300 0.000000 1.777720 
# 
# From -- ./inp_files/295483.got.cif
#   From: 2010.06.25/outbox.cif.g09.slc.cpg/sg12_148_cif.got.tgz:295483.got - 2010.06.28 00:19:55.
