data_PCOD8091710
_publ_section_title
;
Structure prediction by ZEFSAII (Michael W. Deem and Ramdas Pophale) SiO2 
 PCOD8091710
Probable space group: C 2/M
;
_chemical_formula_sum "Si O2"
_cell_formula_units_Z 48
_cell_length_a 30.021462
_cell_length_b 9.241681
_cell_length_c 10.035084
_cell_angle_alpha 90.000000
_cell_angle_beta 69.751565
_cell_angle_gamma 90.000000
_cell_volume 2612.159056
_symmetry_space_group_name_H-M "C 2/M"
_symmetry_group_IT_number 12
_symmetry_cell_setting 'monoclinic'
loop_
_space_group_symop_operation_xyz
x,y,z
-x,y,-z
-x,-y,-z
x,-y,z
1/2+x,1/2+y,z
1/2-x,1/2+y,-z
1/2-x,1/2-y,-z
1/2+x,1/2-y,z
loop_
_atom_site_type_symbol
_atom_site_label
_atom_site_fract_x
_atom_site_fract_y
_atom_site_fract_z
Si Si1 0.949529 0.670593 0.900810
Si Si2 0.301092 0.831499 0.180179
Si Si3 0.856741 0.668411 0.857136
Si Si4 0.945353 0.670843 0.207424
Si Si5 0.693575 0.667695 0.320250
Si Si6 0.144697 0.169048 0.646042
O O1 0.944162 0.500000 0.915777
O O2 0.908322 0.731607 0.847482
O O3 0.001983 0.710742 0.791947
O O4 0.941996 0.727018 0.058713
O O5 0.247140 0.776342 0.245516
O O6 0.333004 0.740574 0.247037
O O7 0.305810 0.000000 0.214154
O O8 0.318669 0.802501 0.012588
O O9 0.860172 0.500000 0.819586
O O10 0.841747 0.748967 0.739787
O O11 0.935645 0.500000 0.230032
O O12 0.906369 0.758382 0.332133
O O13 0.689854 0.500000 0.287726
O O14 0.678987 0.699462 0.486585
O O15 0.137673 0.000000 0.678909
#
# Coordination Sequence:
#
# PCOD8091710 Si02
#       6
#     8   8   8   8   8   8
#     4   8  15  30  55  83 104 129 172 223 264 304
#     4  10  20  37  59  78 101 138 184 224 260 308
#     4  10  19  34  57  83 105 132 176 223 265 313
#     4   9  16  32  57  79 104 136 172 219 267 307
#     4  10  23  38  51  75 112 147 175 212 264 317
#     4  11  22  35  52  79 112 141 176 217 260 315
#
# _framework density 18.375603999999999
#
# number of rings (size 3 to 8) (size 9 to 14) (size 15 to 20)
#    0.000    2.333    1.667    2.500    0.000    2.667 
#    0.000    3.333    0.000    5.000    0.000    0.000 
#    0.000    0.000    0.000    0.000    0.000    0.000 
#
# Total GULP energy -297589.649942 kJ/mol
# GULP energy per Si atom -12399.568748 kJ/mol
# Density = 1.833378 g / cm^3
# Si number density = 18.375604 Si / 1000 Ang^3
#
#
#
# Elastic Constant Matrix: (Units=GPa)
#
#
# Indices 1 2 3 4 5 6 
#
# 1 109.8869 29.2184 17.8120 0.0000 -16.5864 0.0000
# 2 29.2184 49.9119 24.3421 0.0000 -0.9649 0.0000
# 3 17.8120 24.3421 33.5514 0.0000 -0.1399 0.0000
# 4 0.0000 0.0000 0.0000 28.6597 0.0000 1.3621
# 5 -16.5864 -0.9649 -0.1399 0.0000 22.9952 0.0000
# 6 0.0000 0.0000 0.0000 1.3621 0.0000 27.0219
#
#
#
# Elastic Compliance Matrix: (Units=1/GPa)
#
#
# Indices 1 2 3 4 5 6 
#
# 1 0.012354 -0.006011 -0.002162 0.000000 0.008645 0.000000
# 2 -0.006011 0.033962 -0.021462 0.000000 -0.003041 0.000000
# 3 -0.002162 -0.021462 0.046514 0.000000 -0.002177 0.000000
# 4 0.000000 0.000000 0.000000 0.034976 0.000000 -0.001763
# 5 0.008645 -0.003041 -0.002177 0.000000 0.049582 0.000000
# 6 0.000000 0.000000 0.000000 -0.001763 0.000000 0.037096
#
#
# Mechanical properties :
#
#
# Convention : Reuss Voigt Hill
#
# Bulk Modulus (GPa) = 29.79533 37.34388 33.56960
# Shear Modulus (GPa) = 17.54755 23.86720 20.70738
#
# Velocity S-wave (km/s) = 3.09356 3.60787 3.36057
# Velocity P-wave (km/s) = 5.38609 6.14185 5.77634
#
# Compressibility (1/GPa) = 0.03356231
#
# Stress axis : x y z
#
# Youngs Moduli (GPa) = 80.94688 29.44464 21.49868
#
# Poissons Ratio (x) = 0.17698 0.04647
# Poissons Ratio (y) = 0.48653 0.46140
# Poissons Ratio (z) = 0.17498 0.63194
#
# Static dielectric constant tensor:
#      x y z
#    x 3.791550 0.000000 -0.229410 
#    y 0.000000 3.148770 0.000000 
#    z -0.229410 0.000000 3.231710 
# 
# 
# High freq. dielectric constant tensor:
#      x y z
#    x 1.727890 0.000000 -0.014660 
#    y 0.000000 1.688320 0.000000 
#    z -0.014660 0.000000 1.698300 
# 
# From -- ./inp_files/185740.got.cif
#   From: 2010.06.25/outbox.cif.g09.slc.cpg/sg12_93_cif.got.tgz:185740.got - 2010.06.28 00:19:55.
