data_PCOD8091026
_publ_section_title
;
Structure prediction by ZEFSAII (Michael W. Deem and Ramdas Pophale) SiO2 
 PCOD8091026
Probable space group: C 2/M
;
_chemical_formula_sum "Si O2"
_cell_formula_units_Z 56
_cell_length_a 29.002408
_cell_length_b 9.407375
_cell_length_c 10.149612
_cell_angle_alpha 90.000000
_cell_angle_beta 108.631005
_cell_angle_gamma 90.000000
_cell_volume 2624.067618
_symmetry_space_group_name_H-M "C 2/M"
_symmetry_group_IT_number 12
_symmetry_cell_setting 'monoclinic'
loop_
_space_group_symop_operation_xyz
x,y,z
-x,y,-z
-x,-y,-z
x,-y,z
1/2+x,1/2+y,z
1/2-x,1/2+y,-z
1/2-x,1/2-y,-z
1/2+x,1/2-y,z
loop_
_atom_site_type_symbol
_atom_site_label
_atom_site_fract_x
_atom_site_fract_y
_atom_site_fract_z
Si Si1 0.145628 0.155428 0.602662
Si Si2 0.702841 0.665729 0.904065
Si Si3 0.859738 0.343505 0.785541
Si Si4 0.291673 0.656084 0.594205
Si Si5 0.012083 0.331650 0.858929
Si Si6 0.102692 0.833478 0.963250
Si Si7 0.576617 0.154459 0.403197
O O1 0.186280 0.217178 0.741688
O O2 0.167741 0.135597 0.479131
O O3 0.096139 0.248187 0.542067
O O4 0.129792 0.000000 0.644314
O O5 0.717036 0.500000 0.918305
O O6 0.750000 0.750000 0.000000
O O7 0.654964 0.696837 0.946874
O O8 0.848012 0.500000 0.835895
O O9 0.811947 0.243003 0.738326
O O10 0.899599 0.257639 0.904327
O O11 0.878774 0.365934 0.656183
O O12 0.273517 0.500000 0.624642
O O13 0.250000 0.750000 0.500000
O O14 0.022679 0.500000 0.857451
O O15 0.968955 0.284421 0.720216
O O16 0.057363 0.237312 0.844871
O O17 0.000000 0.292765 0.000000
O O18 0.093797 0.000000 0.980022
O O19 0.563354 0.000000 0.451276
#
# Coordination Sequence:
#
# PCOD8091026 Si02
#       7
#     8   8   8   8   8   8   8
#     4   9  20  39  58  78 110 150 192 235 288 347
#     4  10  24  44  62  83 113 154 201 247 291 344
#     4  10  19  34  54  79 114 153 186 230 289 346
#     4  10  20  33  52  81 111 142 186 240 293 352
#     4  10  19  36  59  87 122 158 192 233 289 353
#     4  11  23  37  56  87 120 150 196 247 289 346
#     4   9  18  34  58  86 115 148 187 231 282 341
#
# _framework density 21.340914000000001
#
# number of rings (size 3 to 8) (size 9 to 14) (size 15 to 20)
#    0.000    2.143    1.429    1.286    2.000    3.714 
#    0.000    0.714    0.000    4.286    0.000    0.000 
#    0.000    0.000    0.000    0.000    0.000    0.000 
#
# Total GULP energy -346865.714543 kJ/mol
# GULP energy per Si atom -12388.061234 kJ/mol
# Density = 2.129234 g / cm^3
# Si number density = 21.340914 Si / 1000 Ang^3
#
#
#
# Elastic Constant Matrix: (Units=GPa)
#
#
# Indices 1 2 3 4 5 6 
#
# 1 65.0661 48.5597 31.7620 0.0000 32.3855 0.0000
# 2 48.5597 157.6263 72.0622 0.0000 39.0129 0.0000
# 3 31.7620 72.0622 131.8213 0.0000 47.6012 0.0000
# 4 0.0000 0.0000 0.0000 36.4120 0.0000 14.1206
# 5 32.3855 39.0129 47.6012 0.0000 43.0207 0.0000
# 6 0.0000 0.0000 0.0000 14.1206 0.0000 27.2740
#
#
#
# Elastic Compliance Matrix: (Units=1/GPa)
#
#
# Indices 1 2 3 4 5 6 
#
# 1 0.027286 -0.005051 0.003248 0.000000 -0.019553 0.000000
# 2 -0.005051 0.009888 -0.003869 0.000000 -0.000883 0.000000
# 3 0.003248 -0.003869 0.014214 0.000000 -0.014663 0.000000
# 4 0.000000 0.000000 0.000000 0.034363 0.000000 -0.017791
# 5 -0.019553 -0.000883 -0.014663 0.000000 0.054988 0.000000
# 6 0.000000 0.000000 0.000000 -0.017791 0.000000 0.045876
#
#
# Mechanical properties :
#
#
# Convention : Reuss Voigt Hill
#
# Bulk Modulus (GPa) = 24.97447 73.25350 49.11398
# Shear Modulus (GPa) = 23.66233 34.81667 29.23950
#
# Velocity S-wave (km/s) = 3.33344 4.04350 3.70552
# Velocity P-wave (km/s) = 5.15207 7.49665 6.43209
#
# Compressibility (1/GPa) = 0.04004090
#
# Stress axis : x y z
#
# Youngs Moduli (GPa) = 36.64941 101.13611 70.35518
#
# Poissons Ratio (x) = 0.51084 -0.22848
# Poissons Ratio (y) = 0.18512 0.27224
# Poissons Ratio (z) = -0.11902 0.39134
#
# Static dielectric constant tensor:
#      x y z
#    x 3.083620 0.000000 0.337560 
#    y 0.000000 4.322030 0.000000 
#    z 0.337560 0.000000 3.074170 
# 
# 
# High freq. dielectric constant tensor:
#      x y z
#    x 1.804830 0.000000 0.026570 
#    y 0.000000 1.842210 0.000000 
#    z 0.026570 0.000000 1.839410 
# 
# From -- ./inp_files/187742.got.cif
#   From: 2010.06.25/outbox.cif.g09.slc.cpg/sg12_94_cif.got.tgz:187742.got - 2010.06.28 00:19:55.
