data_PCOD8091110
_publ_section_title
;
Structure prediction by ZEFSAII (Michael W. Deem and Ramdas Pophale) SiO2 
 PCOD8091110
Probable space group: C 2/M
;
_chemical_formula_sum "Si O2"
_cell_formula_units_Z 64
_cell_length_a 15.027381
_cell_length_b 8.926832
_cell_length_c 23.647527
_cell_angle_alpha 90.000000
_cell_angle_beta 90.052986
_cell_angle_gamma 90.000000
_cell_volume 3172.241215
_symmetry_space_group_name_H-M "C 2/M"
_symmetry_group_IT_number 12
_symmetry_cell_setting 'monoclinic'
loop_
_space_group_symop_operation_xyz
x,y,z
-x,y,-z
-x,-y,-z
x,-y,z
1/2+x,1/2+y,z
1/2-x,1/2+y,-z
1/2-x,1/2-y,-z
1/2+x,1/2-y,z
loop_
_atom_site_type_symbol
_atom_site_label
_atom_site_fract_x
_atom_site_fract_y
_atom_site_fract_z
Si Si1 0.867116 0.834328 0.543737
Si Si2 0.658069 0.165888 0.562940
Si Si3 0.325634 0.826428 0.925350
Si Si4 0.491671 0.321832 0.875661
Si Si5 0.121723 0.821193 0.332263
Si Si6 0.970076 0.823887 0.249953
Si Si7 0.691511 0.676041 0.674972
Si Si8 0.145732 0.326190 0.943152
O O1 0.761110 0.841540 0.547670
O O2 0.896327 0.732186 0.490726
O O3 0.902870 0.768810 0.603659
O O4 0.905729 0.000000 0.532990
O O5 0.643905 0.270029 0.617436
O O6 0.621268 0.000000 0.575801
O O7 0.391222 0.731777 0.885882
O O8 0.227094 0.762760 0.914754
O O9 0.327485 0.000000 0.907659
O O10 0.354414 0.803471 0.989873
O O11 0.498348 0.500000 0.882195
O O12 0.520464 0.264258 0.813695
O O13 0.554145 0.242521 0.921291
O O14 0.215812 0.756068 0.312395
O O15 0.047042 0.756048 0.290226
O O16 0.130365 0.000000 0.331570
O O17 0.873109 0.780682 0.273179
O O18 0.984023 0.000000 0.250764
O O19 0.707244 0.500000 0.670086
O O20 0.152763 0.500000 0.926743
#
# Coordination Sequence:
#
# PCOD8091110 Si02
#       8
#     8   8   8   8   8   8   8   8
#     4   8  14  25  46  73  97 127 169 214 261 317
#     4   9  16  27  46  73 103 133 167 210 264 324
#     4  10  21  38  60  87 118 150 187 230 276 329
#     4  11  22  37  58  84 116 152 189 231 279 328
#     4   9  18  36  57  75 101 138 178 219 266 319
#     4   9  21  39  56  77 107 144 185 225 264 316
#     4  10  19  34  55  77 103 136 176 221 268 317
#     4  10  21  38  60  87 118 151 187 228 276 329
#
# _framework density 20.175011000000001
#
# number of rings (size 3 to 8) (size 9 to 14) (size 15 to 20)
#    0.000    2.500    0.000    3.000    0.000    7.000 
#    0.000    8.125    0.000    3.750    0.000    0.000 
#    0.000    0.000    0.000    0.000    0.000    0.000 
#
# Total GULP energy -396801.134179 kJ/mol
# GULP energy per Si atom -12400.035443 kJ/mol
# Density = 2.012909 g / cm^3
# Si number density = 20.175011 Si / 1000 Ang^3
#
#
#
# Elastic Constant Matrix: (Units=GPa)
#
#
# Indices 1 2 3 4 5 6 
#
# 1 42.5210 7.7695 4.0614 0.0000 0.4252 0.0000
# 2 7.7695 65.7180 20.3376 0.0000 1.6228 0.0000
# 3 4.0614 20.3376 46.6242 0.0000 -7.0483 0.0000
# 4 0.0000 0.0000 0.0000 24.4114 0.0000 -2.8202
# 5 0.4252 1.6228 -7.0483 0.0000 25.7753 0.0000
# 6 0.0000 0.0000 0.0000 -2.8202 0.0000 28.7250
#
#
#
# Elastic Compliance Matrix: (Units=1/GPa)
#
#
# Indices 1 2 3 4 5 6 
#
# 1 0.024083 -0.002497 -0.001090 0.000000 -0.000538 0.000000
# 2 -0.002497 0.018131 -0.008196 0.000000 -0.003342 0.000000
# 3 -0.001090 -0.008196 0.026286 0.000000 0.007722 0.000000
# 4 0.000000 0.000000 0.000000 0.041434 0.000000 0.004068
# 5 -0.000538 -0.003342 0.007722 0.000000 0.041128 0.000000
# 6 0.000000 0.000000 0.000000 0.004068 0.000000 0.035212
#
#
# Mechanical properties :
#
#
# Convention : Reuss Voigt Hill
#
# Bulk Modulus (GPa) = 22.25512 24.35559 23.30535
# Shear Modulus (GPa) = 22.24018 23.96200 23.10109
#
# Velocity S-wave (km/s) = 3.32379 3.45005 3.38751
# Velocity P-wave (km/s) = 5.07790 5.28856 5.18430
#
# Compressibility (1/GPa) = 0.04493349
#
# Stress axis : x y z
#
# Youngs Moduli (GPa) = 41.52226 55.15508 38.04358
#
# Poissons Ratio (x) = 0.13770 0.04148
# Poissons Ratio (y) = 0.10366 0.31182
# Poissons Ratio (z) = 0.04527 0.45207
#
# Static dielectric constant tensor:
#      x y z
#    x 3.503570 0.000000 0.036480 
#    y 0.000000 3.633070 0.000000 
#    z 0.036480 0.000000 3.825760 
# 
# 
# High freq. dielectric constant tensor:
#      x y z
#    x 1.780390 0.000000 -0.000300 
#    y 0.000000 1.779940 0.000000 
#    z -0.000300 0.000000 1.784700 
# 
# From -- ./inp_files/338891.got.cif
#   From: 2010.06.25/outbox.cif.g09.slc.cpg/sg12_170_cif.got.tgz:338891.got - 2010.06.28 00:19:55.
