data_PCOD8091336
_publ_section_title
;
Structure prediction by ZEFSAII (Michael W. Deem and Ramdas Pophale) SiO2 
 PCOD8091336
Probable space group: C 2/M
;
_chemical_formula_sum "Si O2"
_cell_formula_units_Z 64
_cell_length_a 16.183207
_cell_length_b 9.189275
_cell_length_c 32.631314
_cell_angle_alpha 90.000000
_cell_angle_beta 42.363902
_cell_angle_gamma 90.000000
_cell_volume 3269.905922
_symmetry_space_group_name_H-M "C 2/M"
_symmetry_group_IT_number 12
_symmetry_cell_setting 'monoclinic'
loop_
_space_group_symop_operation_xyz
x,y,z
-x,y,-z
-x,-y,-z
x,-y,z
1/2+x,1/2+y,z
1/2-x,1/2+y,-z
1/2-x,1/2-y,-z
1/2+x,1/2-y,z
loop_
_atom_site_type_symbol
_atom_site_label
_atom_site_fract_x
_atom_site_fract_y
_atom_site_fract_z
Si Si1 0.726396 0.828596 0.625217
Si Si2 0.356915 0.327356 0.864045
Si Si3 0.546364 0.672334 0.861247
Si Si4 0.332575 0.672049 0.502042
Si Si5 0.468958 0.834817 0.750999
Si Si6 0.609287 0.669430 0.928687
Si Si7 0.699141 0.835493 0.261765
Si Si8 0.594055 0.670653 0.372832
O O1 0.790422 0.763487 0.561330
O O2 0.584488 0.783641 0.681148
O O3 0.794813 0.769917 0.640331
O O4 0.744097 0.000000 0.616245
O O5 0.340358 0.500000 0.867097
O O6 0.418561 0.282277 0.885569
O O7 0.452850 0.274076 0.794654
O O8 0.226340 0.252173 0.904594
O O9 0.552829 0.500000 0.861691
O O10 0.561742 0.732822 0.902144
O O11 0.661734 0.726191 0.791220
O O12 0.313065 0.500000 0.506562
O O13 0.250000 0.750000 0.500000
O O14 0.471504 0.716734 0.441522
O O15 0.348340 0.827556 0.767424
O O16 0.490083 0.000000 0.759383
O O17 0.645572 0.500000 0.911776
O O18 0.500000 0.695205 0.000000
O O19 0.608686 0.743005 0.323249
O O20 0.695590 0.000000 0.279544
O O21 0.597650 0.500000 0.364104
#
# Coordination Sequence:
#
# PCOD8091336 Si02
#       8
#     8   8   8   8   8   8   8   8
#     4   9  18  33  53  76 102 138 182 227 276 331
#     4  11  22  36  58  87 121 153 185 236 292 334
#     4   9  19  37  58  84 118 154 189 230 285 337
#     4  10  20  35  53  72  99 137 177 222 280 336
#     4  10  19  34  57  80 107 147 193 231 268 337
#     4  10  21  41  66  87 114 156 199 231 269 337
#     4  10  19  34  56  78 109 149 184 222 274 337
#     4  10  20  33  51  77 106 134 176 233 281 328
#
# _framework density 19.572427999999999
#
# number of rings (size 3 to 8) (size 9 to 14) (size 15 to 20)
#    0.000    2.125    1.250    2.250    0.000    4.250 
#    0.000    3.125    0.000    1.500    0.000    0.000 
#    0.000    0.000    0.000    0.000    0.000    0.000 
#
# Total GULP energy -396673.034015 kJ/mol
# GULP energy per Si atom -12396.032313 kJ/mol
# Density = 1.952788 g / cm^3
# Si number density = 19.572428 Si / 1000 Ang^3
#
#
#
# Elastic Constant Matrix: (Units=GPa)
#
#
# Indices 1 2 3 4 5 6 
#
# 1 136.9898 41.0220 56.9899 0.0010 -4.8810 0.0036
# 2 41.0220 43.6791 40.7115 0.0033 -3.6804 0.0053
# 3 56.9899 40.7115 116.5738 0.0011 0.5813 0.0015
# 4 0.0010 0.0033 0.0011 27.6014 0.0002 -1.6918
# 5 -4.8810 -3.6804 0.5813 0.0002 27.6078 0.0010
# 6 0.0036 0.0053 0.0015 -1.6918 0.0010 27.0967
#
#
#
# Elastic Compliance Matrix: (Units=1/GPa)
#
#
# Indices 1 2 3 4 5 6 
#
# 1 0.010663 -0.007520 -0.002591 0.000001 0.000937 0.000000
# 2 -0.007520 0.039888 -0.010275 -0.000004 0.004204 -0.000007
# 3 -0.002591 -0.010275 0.013444 0.000001 -0.002111 0.000002
# 4 0.000001 -0.000004 0.000001 0.036369 -0.000001 0.002271
# 5 0.000937 0.004204 -0.002111 -0.000001 0.036992 -0.000002
# 6 0.000000 -0.000007 0.000002 0.002271 -0.000002 0.037047
#
#
# Mechanical properties :
#
#
# Convention : Reuss Voigt Hill
#
# Bulk Modulus (GPa) = 43.06181 63.85438 53.45810
# Shear Modulus (GPa) = 22.42989 27.02913 24.72951
#
# Velocity S-wave (km/s) = 3.38893 3.72019 3.55841
# Velocity P-wave (km/s) = 6.11246 7.15182 6.65247
#
# Compressibility (1/GPa) = 0.02322244
#
# Stress axis : x y z
#
# Youngs Moduli (GPa) = 93.78033 25.07017 74.38332
#
# Poissons Ratio (x) = 0.18854 0.19275
# Poissons Ratio (y) = 0.70526 0.76427
# Poissons Ratio (z) = 0.24301 0.25759
#
# Static dielectric constant tensor:
#      x y z
#    x 3.730790 0.000000 0.066720 
#    y 0.000000 3.231360 0.000000 
#    z 0.066720 0.000000 3.622970 
# 
# 
# High freq. dielectric constant tensor:
#      x y z
#    x 1.775240 0.000000 -0.003270 
#    y 0.000000 1.724370 0.000000 
#    z -0.003270 0.000000 1.770060 
# 
# From -- ./inp_files/375364.got.cif
#   From: 2010.06.25/outbox.cif.g09.slc.cpg/sg12_188_cif.got.tgz:375364.got - 2010.06.28 00:19:55.
