data_PCOD8091631
_publ_section_title
;
Structure prediction by ZEFSAII (Michael W. Deem and Ramdas Pophale) SiO2 
 PCOD8091631
Probable space group: C 2/M
;
_chemical_formula_sum "Si O2"
_cell_formula_units_Z 48
_cell_length_a 30.506261
_cell_length_b 9.082107
_cell_length_c 8.864778
_cell_angle_alpha 90.000000
_cell_angle_beta 86.919680
_cell_angle_gamma 90.000000
_cell_volume 2452.536794
_symmetry_space_group_name_H-M "C 2/M"
_symmetry_group_IT_number 12
_symmetry_cell_setting 'monoclinic'
loop_
_space_group_symop_operation_xyz
x,y,z
-x,y,-z
-x,-y,-z
x,-y,z
1/2+x,1/2+y,z
1/2-x,1/2+y,-z
1/2-x,1/2-y,-z
1/2+x,1/2-y,z
loop_
_atom_site_type_symbol
_atom_site_label
_atom_site_fract_x
_atom_site_fract_y
_atom_site_fract_z
Si Si1 0.758039 0.328520 0.842371
Si Si2 0.323121 0.329081 0.343163
Si Si3 0.992584 0.666152 0.178964
Si Si4 0.921489 0.826686 0.791976
Si Si5 0.908817 0.169396 0.138492
Si Si6 0.656463 0.826738 0.354575
O O1 0.753446 0.500000 0.874564
O O2 0.721967 0.279680 0.726810
O O3 0.805776 0.285490 0.771683
O O4 0.750000 0.250000 0.000000
O O5 0.322386 0.500000 0.392894
O O6 0.361800 0.297891 0.217740
O O7 0.328542 0.225368 0.484805
O O8 0.993376 0.500000 0.241178
O O9 0.030715 0.759226 0.253079
O O10 0.945229 0.737141 0.222464
O O11 0.000000 0.671352 0.000000
O O12 0.887688 0.756945 0.681306
O O13 0.923452 0.000000 0.764751
O O14 0.906382 0.784914 0.963658
O O15 0.922855 0.000000 0.150283
O O16 0.647548 0.000000 0.359561
#
# Coordination Sequence:
#
# PCOD8091631 Si02
#       6
#     8   8   8   8   8   8
#     4  10  22  39  60  85 111 141 181 226 269 319
#     4  10  21  38  57  79 110 147 184 221 266 324
#     4   9  17  30  51  80 112 142 176 224 276 321
#     4  10  19  34  57  81 108 145 185 225 270 322
#     4   9  18  33  55  81 107 140 185 228 267 320
#     4  11  23  37  54  81 114 145 180 224 273 322
#
# _framework density 19.571573000000001
#
# number of rings (size 3 to 8) (size 9 to 14) (size 15 to 20)
#    0.000    2.167    0.000    3.000    0.000    6.667 
#    0.000    0.833    0.000    5.000    0.000    0.000 
#    0.000    0.000    0.000    0.000    0.000    0.000 
#
# Total GULP energy -297696.077368 kJ/mol
# GULP energy per Si atom -12404.003224 kJ/mol
# Density = 1.952703 g / cm^3
# Si number density = 19.571573 Si / 1000 Ang^3
#
#
#
# Elastic Constant Matrix: (Units=GPa)
#
#
# Indices 1 2 3 4 5 6 
#
# 1 99.2811 44.7123 11.1013 0.0000 31.6686 0.0000
# 2 44.7123 85.0419 26.9598 0.0000 15.2425 0.0000
# 3 11.1013 26.9598 57.2386 0.0000 20.3054 0.0000
# 4 0.0000 0.0000 0.0000 32.2096 0.0000 5.2504
# 5 31.6686 15.2425 20.3054 0.0000 27.4649 0.0000
# 6 0.0000 0.0000 0.0000 5.2504 0.0000 32.3624
#
#
#
# Elastic Compliance Matrix: (Units=1/GPa)
#
#
# Indices 1 2 3 4 5 6 
#
# 1 0.022241 -0.009969 0.010189 0.000000 -0.027646 0.000000
# 2 -0.009969 0.018602 -0.009819 0.000000 0.008430 0.000000
# 3 0.010189 -0.009819 0.030301 0.000000 -0.028702 0.000000
# 4 0.000000 0.000000 0.000000 0.031890 0.000000 -0.005174
# 5 -0.027646 0.008430 -0.028702 0.000000 0.084829 0.000000
# 6 0.000000 0.000000 0.000000 -0.005174 0.000000 0.031739
#
#
# Mechanical properties :
#
#
# Convention : Reuss Voigt Hill
#
# Bulk Modulus (GPa) = 19.25020 45.23427 32.24223
# Shear Modulus (GPa) = 19.52250 28.99326 24.25788
#
# Velocity S-wave (km/s) = 3.16174 3.85307 3.52439
# Velocity P-wave (km/s) = 4.81518 6.55418 5.75079
#
# Compressibility (1/GPa) = 0.05194752
#
# Stress axis : x y z
#
# Youngs Moduli (GPa) = 44.96191 53.75801 33.00194
#
# Poissons Ratio (x) = 0.53589 -0.33626
# Poissons Ratio (y) = 0.44821 0.32404
# Poissons Ratio (z) = -0.45812 0.52784
#
# Static dielectric constant tensor:
#      x y z
#    x 3.781730 0.000000 0.027970 
#    y 0.000000 3.602860 0.000000 
#    z 0.027970 0.000000 3.321360 
# 
# 
# High freq. dielectric constant tensor:
#      x y z
#    x 1.778710 0.000000 0.005980 
#    y 0.000000 1.765060 0.000000 
#    z 0.005980 0.000000 1.742300 
# 
# From -- ./inp_files/108562.got.cif
#   From: 2010.06.25/outbox.cif.g09.slc.cpg/sg12_55_cif.got.tgz:108562.got - 2010.06.28 00:19:55.
