data_PCOD8091407
_publ_section_title
;
Structure prediction by ZEFSAII (Michael W. Deem and Ramdas Pophale) SiO2 
 PCOD8091407
Probable space group: C 2/M
;
_chemical_formula_sum "Si O2"
_cell_formula_units_Z 64
_cell_length_a 12.019728
_cell_length_b 28.661226
_cell_length_c 13.730743
_cell_angle_alpha 90.000000
_cell_angle_beta 42.787461
_cell_angle_gamma 90.000000
_cell_volume 3213.162769
_symmetry_space_group_name_H-M "C 2/M"
_symmetry_group_IT_number 12
_symmetry_cell_setting 'monoclinic'
loop_
_space_group_symop_operation_xyz
x,y,z
-x,y,-z
-x,-y,-z
x,-y,z
1/2+x,1/2+y,z
1/2-x,1/2+y,-z
1/2-x,1/2-y,-z
1/2+x,1/2-y,z
loop_
_atom_site_type_symbol
_atom_site_label
_atom_site_fract_x
_atom_site_fract_y
_atom_site_fract_z
Si Si1 0.766827 0.678155 0.496794
Si Si2 0.061106 0.447733 0.124013
Si Si3 0.751004 0.552462 0.194432
Si Si4 0.107428 0.362383 0.225692
Si Si5 0.698805 0.696404 0.037480
Si Si6 0.336002 0.689804 0.217330
Si Si7 0.818784 0.225945 0.630294
Si Si8 0.915671 0.853804 0.695668
O O1 0.738153 0.693820 0.625690
O O2 0.774060 0.721350 0.414992
O O3 0.610747 0.646849 0.570425
O O4 0.932087 0.648205 0.384608
O O5 0.059396 0.500000 0.167584
O O6 0.108340 0.415266 0.185409
O O7 0.887782 0.435173 0.186652
O O8 0.190551 0.443661 0.954125
O O9 0.683320 0.500000 0.256404
O O10 0.612967 0.591171 0.293515
O O11 0.250423 0.352493 0.213985
O O12 0.146543 0.329670 0.108673
O O13 0.532388 0.686892 0.081430
O O14 0.666175 0.673843 0.162223
O O15 0.750000 0.750000 0.000000
O O16 0.276490 0.742374 0.226334
O O17 0.836465 0.172695 0.655517
O O18 0.000000 0.247997 0.500000
#
# Coordination Sequence:
#
# PCOD8091407 Si02
#       8
#     8   8   8   8   8   8   8   8
#     4  10  22  36  56  79 114 159 197 232 282 341
#     4   9  19  35  60  89 115 148 191 240 297 355
#     4   9  17  35  60  88 117 147 187 240 301 355
#     4  12  21  37  58  83 115 154 193 237 291 345
#     4  11  23  37  55  84 117 149 189 242 293 338
#     4  11  23  38  55  80 115 156 200 237 277 341
#     4  10  19  34  56  80 112 152 197 234 280 340
#     4  10  20  36  55  85 116 147 187 241 294 346
#
# _framework density 19.918071000000001
#
# number of rings (size 3 to 8) (size 9 to 14) (size 15 to 20)
#    0.000    1.750    1.250    4.875    0.000    2.000 
#    0.000    0.625    0.000   10.875    0.000    0.000 
#    0.000    0.000    0.000    0.000    0.000    0.000 
#
# Total GULP energy -396467.384467 kJ/mol
# GULP energy per Si atom -12389.605765 kJ/mol
# Density = 1.987274 g / cm^3
# Si number density = 19.918071 Si / 1000 Ang^3
#
#
#
# Elastic Constant Matrix: (Units=GPa)
#
#
# Indices 1 2 3 4 5 6 
#
# 1 88.6300 40.1897 15.4155 0.0000 -0.2232 0.0000
# 2 40.1897 123.4309 31.1250 0.0000 -9.6378 0.0000
# 3 15.4155 31.1250 72.6398 0.0000 -14.3782 0.0000
# 4 0.0000 0.0000 0.0000 30.2970 0.0000 3.5608
# 5 -0.2232 -9.6378 -14.3782 0.0000 24.3780 0.0000
# 6 0.0000 0.0000 0.0000 3.5608 0.0000 30.2727
#
#
#
# Elastic Compliance Matrix: (Units=1/GPa)
#
#
# Indices 1 2 3 4 5 6 
#
# 1 0.013439 -0.004177 -0.001545 0.000000 -0.002440 0.000000
# 2 -0.004177 0.010428 -0.003140 0.000000 0.002232 0.000000
# 3 -0.001545 -0.003140 0.017199 0.000000 0.008889 0.000000
# 4 0.000000 0.000000 0.000000 0.033469 0.000000 -0.003937
# 5 -0.002440 0.002232 0.008889 0.000000 0.047123 0.000000
# 6 0.000000 0.000000 0.000000 -0.003937 0.000000 0.033496
#
#
# Mechanical properties :
#
#
# Convention : Reuss Voigt Hill
#
# Bulk Modulus (GPa) = 42.84013 50.90679 46.87346
# Shear Modulus (GPa) = 27.67632 30.18760 28.93196
#
# Velocity S-wave (km/s) = 3.73165 3.89728 3.81537
# Velocity P-wave (km/s) = 6.33418 6.77239 6.55695
#
# Compressibility (1/GPa) = 0.02334260
#
# Stress axis : x y z
#
# Youngs Moduli (GPa) = 74.40768 95.89799 58.14199
#
# Poissons Ratio (x) = 0.40054 0.08985
# Poissons Ratio (y) = 0.31078 0.18256
# Poissons Ratio (z) = 0.11498 0.30111
#
# Static dielectric constant tensor:
#      x y z
#    x 3.669500 0.000000 0.044560 
#    y 0.000000 3.524670 0.000000 
#    z 0.044560 0.000000 3.710570 
# 
# 
# High freq. dielectric constant tensor:
#      x y z
#    x 1.772830 0.000000 0.005410 
#    y 0.000000 1.760200 0.000000 
#    z 0.005410 0.000000 1.781990 
# 
# From -- ./inp_files/209366.got.cif
#   From: 2010.06.25/outbox.cif.g09.slc.cpg/sg12_105_cif.got.tgz:209366.got - 2010.06.28 00:19:55.
