data_PCOD8091872
_publ_section_title
;
Structure prediction by ZEFSAII (Michael W. Deem and Ramdas Pophale) SiO2 
 PCOD8091872
Probable space group: C 2/M
;
_chemical_formula_sum "Si O2"
_cell_formula_units_Z 64
_cell_length_a 20.268481
_cell_length_b 19.347498
_cell_length_c 18.656906
_cell_angle_alpha 90.000000
_cell_angle_beta 28.529029
_cell_angle_gamma 90.000000
_cell_volume 3494.246580
_symmetry_space_group_name_H-M "C 2/M"
_symmetry_group_IT_number 12
_symmetry_cell_setting 'monoclinic'
loop_
_space_group_symop_operation_xyz
x,y,z
-x,y,-z
-x,-y,-z
x,-y,z
1/2+x,1/2+y,z
1/2-x,1/2+y,-z
1/2-x,1/2-y,-z
1/2+x,1/2-y,z
loop_
_atom_site_type_symbol
_atom_site_label
_atom_site_fract_x
_atom_site_fract_y
_atom_site_fract_z
Si Si1 0.557613 0.920947 0.119288
Si Si2 0.406357 0.077893 0.406454
Si Si3 0.722224 0.716580 0.446737
Si Si4 0.750904 0.771830 0.097802
Si Si5 0.982132 0.300010 0.102085
Si Si6 0.167712 0.138788 0.098809
Si Si7 0.001189 0.307554 0.415325
Si Si8 0.368379 0.420875 0.404777
O O1 0.478684 0.891485 0.265288
O O2 0.501410 0.880413 0.103632
O O3 0.518661 0.000000 0.144058
O O4 0.723133 0.911707 0.966565
O O5 0.454138 0.118299 0.430850
O O6 0.239441 0.082234 0.558708
O O7 0.457701 0.000000 0.367909
O O8 0.750000 0.750000 0.500000
O O9 0.589191 0.750586 0.538521
O O10 0.688032 0.634522 0.483587
O O11 0.843027 0.728314 0.272620
O O12 0.659393 0.714548 0.143008
O O13 0.662535 0.792442 0.250361
O O14 0.899174 0.743081 0.974092
O O15 0.773307 0.844584 0.035872
O O16 0.000000 0.290196 0.000000
O O17 0.020714 0.100931 0.234178
O O18 0.000000 0.305720 0.500000
O O19 0.370168 0.500000 0.434099
#
# Coordination Sequence:
#
# PCOD8091872 Si02
#       8
#     8   8   8   8   8   8   8   8
#     4  10  19  35  58  80 108 149 195 236 286 349
#     4  10  21  38  59  86 113 147 199 248 292 356
#     4  12  22  39  64  88 116 160 206 251 293 357
#     4  10  21  35  54  86 110 148 189 236 291 358
#     4  11  23  37  54  83 121 151 188 246 301 349
#     4  10  19  34  58  82 114 141 189 246 290 336
#     4  12  23  38  60  86 119 155 191 244 309 360
#     4  11  21  35  60  90 117 149 196 250 299 349
#
# _framework density 18.315821
#
# number of rings (size 3 to 8) (size 9 to 14) (size 15 to 20)
#    0.000    1.250    5.000    1.875    1.750    0.500 
#    0.000    0.000    0.000    0.375    0.000    1.750 
#    0.000    0.000    0.000    0.000    0.000    0.000 
#
# Total GULP energy -396542.996742 kJ/mol
# GULP energy per Si atom -12391.968648 kJ/mol
# Density = 1.827413 g / cm^3
# Si number density = 18.315821 Si / 1000 Ang^3
#
#
#
# Elastic Constant Matrix: (Units=GPa)
#
#
# Indices 1 2 3 4 5 6 
#
# 1 60.1673 19.0578 29.2430 -0.0044 11.4762 0.0018
# 2 19.0578 87.0684 24.2175 -0.0055 2.5617 0.0009
# 3 29.2430 24.2175 121.9920 -0.0123 -1.0200 0.0026
# 4 -0.0044 -0.0055 -0.0123 24.9822 0.0042 -1.3354
# 5 11.4762 2.5617 -1.0200 0.0042 36.0974 -0.0001
# 6 0.0018 0.0009 0.0026 -1.3354 -0.0001 11.0296
#
#
#
# Elastic Compliance Matrix: (Units=1/GPa)
#
#
# Indices 1 2 3 4 5 6 
#
# 1 0.021057 -0.003171 -0.004473 0.000002 -0.006596 -0.000002
# 2 -0.003171 0.012665 -0.001754 0.000001 0.000060 0.000000
# 3 -0.004473 -0.001754 0.009633 0.000003 0.001819 -0.000001
# 4 0.000002 0.000001 0.000003 0.040289 -0.000005 0.004878
# 5 -0.006596 0.000060 0.001819 -0.000005 0.029847 0.000000
# 6 -0.000002 0.000000 -0.000001 0.004878 0.000000 0.091256
#
#
# Mechanical properties :
#
#
# Convention : Reuss Voigt Hill
#
# Bulk Modulus (GPa) = 40.71730 46.02938 43.37334
# Shear Modulus (GPa) = 21.57690 27.53579 24.55634
#
# Velocity S-wave (km/s) = 3.43599 3.88156 3.66555
# Velocity P-wave (km/s) = 6.16606 6.72861 6.45347
#
# Compressibility (1/GPa) = 0.02455958
#
# Stress axis : x y z
#
# Youngs Moduli (GPa) = 47.49050 78.95612 103.81079
#
# Poissons Ratio (x) = 0.25035 0.46438
# Poissons Ratio (y) = 0.15058 0.18205
# Poissons Ratio (z) = 0.21244 0.13847
#
# Static dielectric constant tensor:
#      x y z
#    x 3.482210 -0.000010 -0.133940 
#    y -0.000010 3.479940 0.000030 
#    z -0.133940 0.000030 3.553180 
# 
# 
# High freq. dielectric constant tensor:
#      x y z
#    x 1.684770 0.000000 -0.022810 
#    y 0.000000 1.712980 0.000000 
#    z -0.022810 0.000000 1.721750 
# 
# From -- ./inp_files/285757.got.cif
#   From: 2010.06.25/outbox.cif.g09.slc.cpg/sg12_143_cif.got.tgz:285757.got - 2010.06.28 00:19:55.
