data_PCOD8091033
_publ_section_title
;
Structure prediction by ZEFSAII (Michael W. Deem and Ramdas Pophale) SiO2 
 PCOD8091033
Probable space group: C 2/M
;
_chemical_formula_sum "Si O2"
_cell_formula_units_Z 64
_cell_length_a 15.364723
_cell_length_b 8.837981
_cell_length_c 24.128340
_cell_angle_alpha 90.000000
_cell_angle_beta 99.030904
_cell_angle_gamma 90.000000
_cell_volume 3235.847186
_symmetry_space_group_name_H-M "C 2/M"
_symmetry_group_IT_number 12
_symmetry_cell_setting 'monoclinic'
loop_
_space_group_symop_operation_xyz
x,y,z
-x,y,-z
-x,-y,-z
x,-y,z
1/2+x,1/2+y,z
1/2-x,1/2+y,-z
1/2-x,1/2-y,-z
1/2+x,1/2-y,z
loop_
_atom_site_type_symbol
_atom_site_label
_atom_site_fract_x
_atom_site_fract_y
_atom_site_fract_z
Si Si1 0.169816 0.176679 0.826543
Si Si2 0.394120 0.679200 0.430138
Si Si3 0.408306 0.679179 0.556063
Si Si4 0.688274 0.821359 0.245518
Si Si5 0.039521 0.671710 0.061356
Si Si6 0.774659 0.820550 0.634974
Si Si7 0.024379 0.824550 0.172190
Si Si8 0.258232 0.169992 0.942743
O O1 0.228983 0.240939 0.782168
O O2 0.198136 0.248390 0.888884
O O3 0.066969 0.205564 0.803923
O O4 0.191991 0.000000 0.833481
O O5 0.382170 0.500000 0.423457
O O6 0.380046 0.734748 0.492064
O O7 0.491666 0.730564 0.420062
O O8 0.323697 0.760079 0.384003
O O9 0.406519 0.500000 0.556140
O O10 0.340110 0.745327 0.594124
O O11 0.688130 0.735570 0.303340
O O12 0.597894 0.782988 0.205315
O O13 0.693785 0.000000 0.256273
O O14 0.005859 0.500000 0.068304
O O15 0.006342 0.780975 0.106686
O O16 0.143919 0.676977 0.070713
O O17 0.000000 0.734720 0.000000
O O18 0.773795 0.000000 0.634017
O O19 0.052283 0.000000 0.179269
O O20 0.226827 0.000000 0.950479
O O21 0.250000 0.250000 0.000000
#
# Coordination Sequence:
#
# PCOD8091033 Si02
#       8
#     8   8   8   8   8   8   8   8
#     4   9  20  39  60  78 107 147 184 225 282 340
#     4   9  17  35  60  85 112 157 203 230 275 347
#     4   8  17  34  58  84 118 156 194 236 282 341
#     4  11  23  43  62  78 109 156 197 233 280 348
#     4  10  20  35  56  83 117 151 183 223 276 341
#     4  11  22  36  55  86 120 148 187 245 295 329
#     4  11  22  38  61  86 109 139 185 240 289 333
#     4  10  19  34  54  80 112 145 180 222 272 334
#
# _framework density 19.778435999999999
#
# number of rings (size 3 to 8) (size 9 to 14) (size 15 to 20)
#    0.000    2.125    1.250    3.000    0.000    1.750 
#    0.000   11.250    0.000    0.000    0.000    0.000 
#    0.000    0.000    0.000    0.000    0.000    0.000 
#
# Total GULP energy -396788.883293 kJ/mol
# GULP energy per Si atom -12399.652603 kJ/mol
# Density = 1.973342 g / cm^3
# Si number density = 19.778436 Si / 1000 Ang^3
#
#
#
# Elastic Constant Matrix: (Units=GPa)
#
#
# Indices 1 2 3 4 5 6 
#
# 1 99.1179 21.9217 33.0742 0.0000 1.4740 0.0000
# 2 21.9217 47.0739 19.7101 0.0000 -2.8275 0.0000
# 3 33.0742 19.7101 90.7488 0.0000 2.2759 0.0000
# 4 0.0000 0.0000 0.0000 31.9402 0.0000 4.7951
# 5 1.4740 -2.8275 2.2759 0.0000 28.5178 0.0000
# 6 0.0000 0.0000 0.0000 4.7951 0.0000 23.4245
#
#
#
# Elastic Compliance Matrix: (Units=1/GPa)
#
#
# Indices 1 2 3 4 5 6 
#
# 1 0.012214 -0.004267 -0.003505 0.000000 -0.000775 0.000000
# 2 -0.004267 0.025072 -0.003966 0.000000 0.003023 0.000000
# 3 -0.003505 -0.003966 0.013190 0.000000 -0.001265 0.000000
# 4 0.000000 0.000000 0.000000 0.032301 0.000000 -0.006612
# 5 -0.000775 0.003023 -0.001265 0.000000 0.035506 0.000000
# 6 0.000000 0.000000 0.000000 -0.006612 0.000000 0.044044
#
#
# Mechanical properties :
#
#
# Convention : Reuss Voigt Hill
#
# Bulk Modulus (GPa) = 37.03740 42.92809 39.98275
# Shear Modulus (GPa) = 25.66675 27.59215 26.62945
#
# Velocity S-wave (km/s) = 3.60629 3.73911 3.67330
# Velocity P-wave (km/s) = 6.00893 6.35554 6.18466
#
# Compressibility (1/GPa) = 0.02699973
#
# Stress axis : x y z
#
# Youngs Moduli (GPa) = 81.87437 39.88438 75.81406
#
# Poissons Ratio (x) = 0.17017 0.26575
# Poissons Ratio (y) = 0.34933 0.30071
# Poissons Ratio (z) = 0.28700 0.15820
#
# Static dielectric constant tensor:
#      x y z
#    x 3.872560 0.000000 -0.224340 
#    y 0.000000 3.318600 0.000000 
#    z -0.224340 0.000000 3.778150 
# 
# 
# High freq. dielectric constant tensor:
#      x y z
#    x 1.783130 0.000000 0.001030 
#    y 0.000000 1.742290 0.000000 
#    z 0.001030 0.000000 1.772170 
# 
# From -- ./inp_files/338831.got.cif
#   From: 2010.06.25/outbox.cif.g09.slc.cpg/sg12_170_cif.got.tgz:338831.got - 2010.06.28 00:19:55.
