data_PCOD8091898
_publ_section_title
;
Structure prediction by ZEFSAII (Michael W. Deem and Ramdas Pophale) SiO2 
 PCOD8091898
Probable space group: C 2/M
;
_chemical_formula_sum "Si O2"
_cell_formula_units_Z 48
_cell_length_a 30.929789
_cell_length_b 8.949792
_cell_length_c 19.708552
_cell_angle_alpha 90.000000
_cell_angle_beta 28.243756
_cell_angle_gamma 90.000000
_cell_volume 2581.731496
_symmetry_space_group_name_H-M "C 2/M"
_symmetry_group_IT_number 12
_symmetry_cell_setting 'monoclinic'
loop_
_space_group_symop_operation_xyz
x,y,z
-x,y,-z
-x,-y,-z
x,-y,z
1/2+x,1/2+y,z
1/2-x,1/2+y,-z
1/2-x,1/2-y,-z
1/2+x,1/2-y,z
loop_
_atom_site_type_symbol
_atom_site_label
_atom_site_fract_x
_atom_site_fract_y
_atom_site_fract_z
Si Si1 0.802143 0.825517 0.866926
Si Si2 0.802757 0.676837 0.121180
Si Si3 0.170680 0.674074 0.567624
Si Si4 0.517424 0.674381 0.175663
Si Si5 0.504564 0.327934 0.350205
Si Si6 0.679608 0.827532 0.396886
O O1 0.762227 0.769905 0.850670
O O2 0.909753 0.786112 0.720656
O O3 0.787091 0.000000 0.897395
O O4 0.750000 0.750000 0.000000
O O5 0.814403 0.500000 0.106749
O O6 0.758197 0.732531 0.252303
O O7 0.901429 0.751033 0.978465
O O8 0.165025 0.500000 0.593014
O O9 0.250000 0.750000 0.500000
O O10 0.190917 0.701671 0.460795
O O11 0.076088 0.750674 0.719851
O O12 0.513568 0.500000 0.164064
O O13 0.533812 0.704965 0.232481
O O14 0.475053 0.500000 0.399792
O O15 0.420049 0.226574 0.489944
O O16 0.690475 0.000000 0.362471
#
# Coordination Sequence:
#
# PCOD8091898 Si02
#       6
#     8   8   8   8   8   8
#     4  10  20  33  52  79 110 147 192 235 272 317
#     4  11  22  35  54  81 115 151 186 230 278 322
#     4  10  21  39  63  88 111 139 179 224 274 334
#     4  10  19  34  58  83 111 147 185 225 273 329
#     4   9  18  34  54  77 107 147 190 230 273 321
#     4  10  22  38  56  80 112 146 182 226 276 330
#
# _framework density 18.592172999999999
#
# number of rings (size 3 to 8) (size 9 to 14) (size 15 to 20)
#    0.000    2.000    1.667    2.000    0.000    4.667 
#    0.000    4.167    0.000    5.000    0.000    0.000 
#    0.000    0.000    0.000    0.000    0.000    0.000 
#
# Total GULP energy -297703.610605 kJ/mol
# GULP energy per Si atom -12404.317109 kJ/mol
# Density = 1.854986 g / cm^3
# Si number density = 18.592173 Si / 1000 Ang^3
#
#
#
# Elastic Constant Matrix: (Units=GPa)
#
#
# Indices 1 2 3 4 5 6 
#
# 1 92.8241 50.3386 54.6391 -0.0033 -27.9313 0.0008
# 2 50.3386 103.0238 70.2580 -0.0018 -11.5414 0.0020
# 3 54.6391 70.2580 141.6846 -0.0090 -16.3293 0.0018
# 4 -0.0033 -0.0018 -0.0090 40.9936 0.0034 -4.1431
# 5 -27.9313 -11.5414 -16.3293 0.0034 26.9208 -0.0009
# 6 0.0008 0.0020 0.0018 -4.1431 -0.0009 27.5432
#
#
#
# Elastic Compliance Matrix: (Units=1/GPa)
#
#
# Indices 1 2 3 4 5 6 
#
# 1 0.021279 -0.006370 -0.003030 -0.000001 0.017510 0.000001
# 2 -0.006370 0.016675 -0.006182 -0.000001 -0.003210 -0.000001
# 3 -0.003030 -0.006182 0.011423 0.000002 0.001135 0.000000
# 4 -0.000001 -0.000001 0.000002 0.024771 -0.000003 0.003726
# 5 0.017510 -0.003210 0.001135 -0.000003 0.054625 0.000001
# 6 0.000001 -0.000001 0.000000 0.003726 0.000001 0.036867
#
#
# Mechanical properties :
#
#
# Convention : Reuss Voigt Hill
#
# Bulk Modulus (GPa) = 54.90265 76.44488 65.67377
# Shear Modulus (GPa) = 24.64566 29.91130 27.27848
#
# Velocity S-wave (km/s) = 3.64482 4.01535 3.83456
# Velocity P-wave (km/s) = 6.87801 7.91854 7.41655
#
# Compressibility (1/GPa) = 0.01821406
#
# Stress axis : x y z
#
# Youngs Moduli (GPa) = 46.99367 59.96846 87.54447
#
# Poissons Ratio (x) = 0.38199 0.26522
# Poissons Ratio (y) = 0.29934 0.54124
# Poissons Ratio (z) = 0.14237 0.37075
#
# Static dielectric constant tensor:
#      x y z
#    x 3.383090 -0.000010 -0.113760 
#    y -0.000010 3.512120 0.000010 
#    z -0.113760 0.000010 3.342580 
# 
# 
# High freq. dielectric constant tensor:
#      x y z
#    x 1.707610 0.000000 -0.012210 
#    y 0.000000 1.731040 0.000000 
#    z -0.012210 0.000000 1.724230 
# 
# From -- ./inp_files/273591.got.cif
#   From: 2010.06.25/outbox.cif.g09.slc.cpg/sg12_137_cif.got.tgz:273591.got - 2010.06.28 00:19:55.
