data_PCOD8091902
_publ_section_title
;
Structure prediction by ZEFSAII (Michael W. Deem and Ramdas Pophale) SiO2 
 PCOD8091902
Probable space group: C 2/M
;
_chemical_formula_sum "Si O2"
_cell_formula_units_Z 64
_cell_length_a 10.694506
_cell_length_b 19.881956
_cell_length_c 25.473046
_cell_angle_alpha 90.000000
_cell_angle_beta 141.958576
_cell_angle_gamma 90.000000
_cell_volume 3337.676823
_symmetry_space_group_name_H-M "C 2/M"
_symmetry_group_IT_number 12
_symmetry_cell_setting 'monoclinic'
loop_
_space_group_symop_operation_xyz
x,y,z
-x,y,-z
-x,-y,-z
x,-y,z
1/2+x,1/2+y,z
1/2-x,1/2+y,-z
1/2-x,1/2-y,-z
1/2+x,1/2-y,z
loop_
_atom_site_type_symbol
_atom_site_label
_atom_site_fract_x
_atom_site_fract_y
_atom_site_fract_z
Si Si1 0.578280 0.672533 0.811823
Si Si2 0.970690 0.690788 0.890320
Si Si3 0.221500 0.576469 0.696593
Si Si4 0.729980 0.923313 0.823120
Si Si5 0.579851 0.842584 0.468277
Si Si6 0.919928 0.314690 0.754802
Si Si7 0.502156 0.311451 0.562888
Si Si8 0.093989 0.165816 0.940726
O O1 0.799072 0.649870 0.864655
O O2 0.413368 0.618254 0.738845
O O3 0.519019 0.745045 0.766331
O O4 0.600944 0.674360 0.881084
O O5 0.878887 0.698707 0.802118
O O6 0.005135 0.762648 0.931274
O O7 0.184253 0.650874 0.961729
O O8 0.254258 0.500000 0.689846
O O9 0.195507 0.583236 0.749933
O O10 0.017393 0.604967 0.603956
O O11 0.565584 0.878274 0.797666
O O12 0.952864 0.895735 0.912012
O O13 0.711648 0.000000 0.836351
O O14 0.500000 0.861956 0.500000
O O15 0.508440 0.767944 0.430926
O O16 0.822362 0.847270 0.537134
O O17 0.715269 0.335056 0.657011
O O18 0.500000 0.329288 0.500000
#
# Coordination Sequence:
#
# PCOD8091902 Si02
#       8
#     8   8   8   8   8   8   8   8
#     4  10  19  34  58  83 113 149 184 237 283 335
#     4  10  20  32  57  85 113 142 189 240 284 324
#     4  10  21  38  59  82 112 153 191 226 283 351
#     4  10  21  39  59  81 115 155 193 226 279 352
#     4  10  21  35  57  86 113 149 190 241 292 342
#     4  11  21  34  58  85 112 148 190 238 285 332
#     4  10  21  35  56  86 119 147 190 242 290 342
#     4   9  19  35  53  85 113 146 188 232 279 341
#
# _framework density 19.175014000000001
#
# number of rings (size 3 to 8) (size 9 to 14) (size 15 to 20)
#    0.000    2.000    2.500    1.125    1.750    1.750 
#    0.000    3.125    0.000    5.250    0.000    0.000 
#    0.000    0.000    0.000    0.000    0.000    0.000 
#
# Total GULP energy -396741.698660 kJ/mol
# GULP energy per Si atom -12398.178083 kJ/mol
# Density = 1.913137 g / cm^3
# Si number density = 19.175014 Si / 1000 Ang^3
#
#
#
# Elastic Constant Matrix: (Units=GPa)
#
#
# Indices 1 2 3 4 5 6 
#
# 1 72.2636 23.1545 27.9498 0.0000 22.7857 0.0000
# 2 23.1545 92.7972 26.4117 0.0000 9.1486 0.0000
# 3 27.9498 26.4117 111.7588 0.0002 11.6542 0.0000
# 4 0.0000 0.0000 0.0002 25.5311 0.0000 3.3263
# 5 22.7857 9.1486 11.6542 0.0000 22.7252 0.0000
# 6 0.0000 0.0000 0.0000 3.3263 0.0000 21.4624
#
#
#
# Elastic Compliance Matrix: (Units=1/GPa)
#
#
# Indices 1 2 3 4 5 6 
#
# 1 0.021940 -0.002758 -0.002807 0.000000 -0.019449 0.000000
# 2 -0.002758 0.012159 -0.002073 0.000000 -0.001067 0.000000
# 3 -0.002807 -0.002073 0.010311 0.000000 -0.001639 0.000000
# 4 0.000000 0.000000 0.000000 0.039975 0.000000 -0.006195
# 5 -0.019449 -0.001067 -0.001639 0.000000 0.064774 0.000000
# 6 0.000000 0.000000 0.000000 -0.006195 0.000000 0.047553
#
#
# Mechanical properties :
#
#
# Convention : Reuss Voigt Hill
#
# Bulk Modulus (GPa) = 34.32352 47.98352 41.15352
# Shear Modulus (GPa) = 22.55299 27.23063 24.89181
#
# Velocity S-wave (km/s) = 3.43325 3.77252 3.60688
# Velocity P-wave (km/s) = 5.80131 6.63733 6.23336
#
# Compressibility (1/GPa) = 0.02913454
#
# Stress axis : x y z
#
# Youngs Moduli (GPa) = 45.57853 82.24063 96.98792
#
# Poissons Ratio (x) = 0.22683 0.27226
# Poissons Ratio (y) = 0.12571 0.20102
# Poissons Ratio (z) = 0.12794 0.17045
#
# Static dielectric constant tensor:
#      x y z
#    x 3.428230 0.000000 0.111190 
#    y 0.000000 3.350030 0.000000 
#    z 0.111190 0.000000 3.568410 
# 
# 
# High freq. dielectric constant tensor:
#      x y z
#    x 1.742950 0.000000 0.006300 
#    y 0.000000 1.712660 0.000000 
#    z 0.006300 0.000000 1.755230 
# 
# From -- ./inp_files/374468.got.cif
#   From: 2010.06.25/outbox.cif.g09.slc.cpg/sg12_188_cif.got.tgz:374468.got - 2010.06.28 00:19:55.
