data_PCOD8091190
_publ_section_title
;
Structure prediction by ZEFSAII (Michael W. Deem and Ramdas Pophale) SiO2 
 PCOD8091190
Probable space group: C 2/M
;
_chemical_formula_sum "Si O2"
_cell_formula_units_Z 40
_cell_length_a 16.039399
_cell_length_b 13.708193
_cell_length_c 9.425000
_cell_angle_alpha 90.000000
_cell_angle_beta 91.902177
_cell_angle_gamma 90.000000
_cell_volume 2071.143922
_symmetry_space_group_name_H-M "C 2/M"
_symmetry_group_IT_number 12
_symmetry_cell_setting 'monoclinic'
loop_
_space_group_symop_operation_xyz
x,y,z
-x,y,-z
-x,-y,-z
x,-y,z
1/2+x,1/2+y,z
1/2-x,1/2+y,-z
1/2-x,1/2-y,-z
1/2+x,1/2-y,z
loop_
_atom_site_type_symbol
_atom_site_label
_atom_site_fract_x
_atom_site_fract_y
_atom_site_fract_z
Si Si1 0.302534 0.389528 0.214023
Si Si2 0.908441 0.782695 0.432506
Si Si3 0.408824 0.387934 0.942990
Si Si4 0.484477 0.893671 0.332481
Si Si5 0.139375 0.724162 0.275129
O O1 0.271234 0.500000 0.228319
O O2 0.369586 0.371676 0.343330
O O3 0.225212 0.317300 0.221356
O O4 0.343736 0.371298 0.065024
O O5 0.914420 0.691310 0.319884
O O6 0.848847 0.753965 0.559818
O O7 0.000000 0.810245 0.500000
O O8 0.408656 0.500000 0.891044
O O9 0.384155 0.321392 0.810095
O O10 0.500000 0.356785 0.000000
O O11 0.500000 0.904735 0.500000
O O12 0.567681 0.858395 0.255506
O O13 0.456610 0.000000 0.269189
#
# Coordination Sequence:
#
# PCOD8091190 Si02
#       5
#     8   8   8   8   8
#     4  11  22  35  53  77 106 140 175 215 265 311
#     4   9  19  34  54  79 105 137 174 214 259 310
#     4  10  21  37  56  76 103 142 178 210 257 312
#     4   8  15  30  52  75 100 132 167 205 252 306
#     4  10  19  34  55  80 107 133 171 218 260 306
#
# _framework density 19.312998
#
# number of rings (size 3 to 8) (size 9 to 14) (size 15 to 20)
#    0.000    2.800    0.000    4.200    0.000    2.000 
#    0.000    1.000    0.000   13.800    0.000    0.000 
#    0.000    0.000    0.000    0.000    0.000    0.000 
#
# Total GULP energy -247874.578733 kJ/mol
# GULP energy per Si atom -12393.728937 kJ/mol
# Density = 1.926904 g / cm^3
# Si number density = 19.312998 Si / 1000 Ang^3
#
#
#
# Elastic Constant Matrix: (Units=GPa)
#
#
# Indices 1 2 3 4 5 6 
#
# 1 90.1756 45.9834 29.9079 0.0000 -11.7815 0.0000
# 2 45.9834 92.1739 39.4369 0.0000 2.0703 0.0000
# 3 29.9079 39.4369 47.2257 0.0000 -6.3768 0.0000
# 4 0.0000 0.0000 0.0000 26.6984 0.0000 47.2554
# 5 -11.7815 2.0703 -6.3768 0.0000 23.3134 0.0000
# 6 0.0000 0.0000 0.0000 47.2554 0.0000 198.4921
#
#
#
# Elastic Compliance Matrix: (Units=1/GPa)
#
#
# Indices 1 2 3 4 5 6 
#
# 1 0.017008 -0.007054 -0.003775 0.000000 0.008189 0.000000
# 2 -0.007054 0.020529 -0.013918 0.000000 -0.009195 0.000000
# 3 -0.003775 -0.013918 0.036443 0.000000 0.009296 0.000000
# 4 0.000000 0.000000 0.000000 0.064733 0.000000 -0.015411
# 5 0.008189 -0.009195 0.009296 0.000000 0.050391 0.000000
# 6 0.000000 0.000000 0.000000 -0.015411 0.000000 0.008707
#
#
# Mechanical properties :
#
#
# Convention : Reuss Voigt Hill
#
# Bulk Modulus (GPa) = 40.83719 51.13683 45.98701
# Shear Modulus (GPa) = 19.57190 57.31725 38.44457
#
# Velocity S-wave (km/s) = 3.18686 5.45367 4.46646
# Velocity P-wave (km/s) = 5.89341 8.13585 7.10367
#
# Compressibility (1/GPa) = 0.02448748
#
# Stress axis : x y z
#
# Youngs Moduli (GPa) = 58.79435 48.71076 27.43976
#
# Poissons Ratio (x) = 0.34360 0.10359
# Poissons Ratio (y) = 0.41472 0.38190
# Poissons Ratio (z) = 0.22196 0.67795
#
# Static dielectric constant tensor:
#      x y z
#    x 3.394470 0.000000 -0.280550 
#    y 0.000000 4.125140 0.000000 
#    z -0.280550 0.000000 3.323610 
# 
# 
# High freq. dielectric constant tensor:
#      x y z
#    x 1.742030 0.000000 -0.030060 
#    y 0.000000 1.758700 0.000000 
#    z -0.030060 0.000000 1.732980 
# 
# From -- ./inp_files/59104.got.cif
#   From: 2010.06.25/outbox.cif.g09.slc.cpg/sg12_30_cif.got.tgz:59104.got - 2010.06.28 00:19:55.
