data_PCOD8091057
_publ_section_title
;
Structure prediction by ZEFSAII (Michael W. Deem and Ramdas Pophale) SiO2 
 PCOD8091057
Probable space group: C 2/M
;
_chemical_formula_sum "Si O2"
_cell_formula_units_Z 44
_cell_length_a 26.783578
_cell_length_b 12.156023
_cell_length_c 8.386838
_cell_angle_alpha 90.000000
_cell_angle_beta 55.821369
_cell_angle_gamma 90.000000
_cell_volume 2258.999918
_symmetry_space_group_name_H-M "C 2/M"
_symmetry_group_IT_number 12
_symmetry_cell_setting 'monoclinic'
loop_
_space_group_symop_operation_xyz
x,y,z
-x,y,-z
-x,-y,-z
x,-y,z
1/2+x,1/2+y,z
1/2-x,1/2+y,-z
1/2-x,1/2-y,-z
1/2+x,1/2-y,z
loop_
_atom_site_type_symbol
_atom_site_label
_atom_site_fract_x
_atom_site_fract_y
_atom_site_fract_z
Si Si1 0.239209 0.379318 0.388567
Si Si2 0.592530 0.127955 0.114804
Si Si3 0.602427 0.631347 0.505618
Si Si4 0.188143 0.708956 0.176525
Si Si5 0.000000 0.754673 0.500000
Si Si6 0.852168 0.762959 0.257236
O O1 0.239429 0.500000 0.458788
O O2 0.201624 0.375554 0.293358
O O3 0.201676 0.313799 0.586252
O O4 0.310285 0.348379 0.233829
O O5 0.653664 0.140118 0.104727
O O6 0.538193 0.175309 0.317263
O O7 0.580214 0.000000 0.096328
O O8 0.599966 0.197602 0.938141
O O9 0.608298 0.500000 0.496526
O O10 0.653130 0.683049 0.300964
O O11 0.538316 0.667126 0.547830
O O12 0.609593 0.678087 0.672095
O O13 0.250000 0.750000 0.000000
#
# Coordination Sequence:
#
# PCOD8091057 Si02
#       6
#     8   8   8   8   4   8
#     4  10  19  34  54  83 125 159 184 231 287 349
#     4  11  22  40  63  87 119 160 197 250 301 341
#     4  10  22  41  63  84 118 159 195 250 303 344
#     4  10  20  37  56  91 121 151 198 235 282 364
#     4  10  24  44  62  86 116 148 216 252 290 364
#     4  10  21  36  56  89 121 149 203 236 287 365
#
# _framework density 19.477646
#
# number of rings (size 3 to 8) (size 9 to 14) (size 15 to 20)
#    0.000    1.818    1.818    2.182    0.000    2.182 
#    0.000    7.273    0.000    0.000    0.000    0.000 
#    0.000    0.000    0.000    0.000    0.000    0.000 
#
# Total GULP energy -272679.192820 kJ/mol
# GULP energy per Si atom -12394.508765 kJ/mol
# Density = 1.943331 g / cm^3
# Si number density = 19.477646 Si / 1000 Ang^3
#
#
#
# Elastic Constant Matrix: (Units=GPa)
#
#
# Indices 1 2 3 4 5 6 
#
# 1 120.4222 51.4952 31.7616 0.0000 1.0986 0.0000
# 2 51.4952 132.5291 34.5486 0.0000 1.8122 0.0000
# 3 31.7616 34.5486 97.9921 0.0000 -5.3603 0.0000
# 4 0.0000 0.0000 0.0000 14.2809 0.0000 -4.7930
# 5 1.0986 1.8122 -5.3603 0.0000 30.3390 0.0000
# 6 0.0000 0.0000 0.0000 -4.7930 0.0000 15.1255
#
#
#
# Elastic Compliance Matrix: (Units=1/GPa)
#
#
# Indices 1 2 3 4 5 6 
#
# 1 0.010357 -0.003451 -0.002171 0.000000 -0.000552 0.000000
# 2 -0.003451 0.009491 -0.002274 0.000000 -0.000844 0.000000
# 3 -0.002171 -0.002274 0.011836 0.000000 0.002306 0.000000
# 4 0.000000 0.000000 0.000000 0.078357 0.000000 0.024830
# 5 -0.000552 -0.000844 0.002306 0.000000 0.033439 0.000000
# 6 0.000000 0.000000 0.000000 0.024830 0.000000 0.073981
#
#
# Mechanical properties :
#
#
# Convention : Reuss Voigt Hill
#
# Bulk Modulus (GPa) = 62.91810 65.17267 64.04538
# Shear Modulus (GPa) = 20.96000 27.49162 24.22581
#
# Velocity S-wave (km/s) = 3.28396 3.76100 3.53055
# Velocity P-wave (km/s) = 6.83755 7.23830 7.04078
#
# Compressibility (1/GPa) = 0.01589368
#
# Stress axis : x y z
#
# Youngs Moduli (GPa) = 96.54938 105.36636 84.48680
#
# Poissons Ratio (x) = 0.36362 0.18338
# Poissons Ratio (y) = 0.33320 0.19209
# Poissons Ratio (z) = 0.20957 0.23957
#
# Static dielectric constant tensor:
#      x y z
#    x 3.108430 0.000000 -0.156320 
#    y 0.000000 3.581350 0.000000 
#    z -0.156320 0.000000 3.436420 
# 
# 
# High freq. dielectric constant tensor:
#      x y z
#    x 1.767570 0.000000 0.004750 
#    y 0.000000 1.758280 0.000000 
#    z 0.004750 0.000000 1.753990 
# 
# From -- ./inp_files/84039.got.cif
#   From: 2010.06.25/outbox.cif.g09.slc.cpg/sg12_43_cif.got.tgz:84039.got - 2010.06.28 00:19:55.
