data_PCOD8091469
_publ_section_title
;
Structure prediction by ZEFSAII (Michael W. Deem and Ramdas Pophale) SiO2 
 PCOD8091469
Probable space group: C 2/M
;
_chemical_formula_sum "Si O2"
_cell_formula_units_Z 56
_cell_length_a 15.335879
_cell_length_b 8.465010
_cell_length_c 21.891103
_cell_angle_alpha 90.000000
_cell_angle_beta 79.898983
_cell_angle_gamma 90.000000
_cell_volume 2797.818537
_symmetry_space_group_name_H-M "C 2/M"
_symmetry_group_IT_number 12
_symmetry_cell_setting 'monoclinic'
loop_
_space_group_symop_operation_xyz
x,y,z
-x,y,-z
-x,-y,-z
x,-y,z
1/2+x,1/2+y,z
1/2-x,1/2+y,-z
1/2-x,1/2-y,-z
1/2+x,1/2-y,z
loop_
_atom_site_type_symbol
_atom_site_label
_atom_site_fract_x
_atom_site_fract_y
_atom_site_fract_z
Si Si1 0.192122 0.312732 0.868380
Si Si2 0.053258 0.687725 0.787322
Si Si3 0.598008 0.811957 0.000078
Si Si4 0.094270 0.314415 0.646412
Si Si5 0.625904 0.812730 0.131842
Si Si6 0.543447 0.685014 0.430309
Si Si7 0.232482 0.314524 0.435086
O O1 0.190774 0.500000 0.868247
O O2 0.128964 0.246152 0.822982
O O3 0.289524 0.249440 0.841929
O O4 0.160969 0.247410 0.938398
O O5 0.051695 0.500000 0.789608
O O6 0.071003 0.747201 0.716829
O O7 0.959698 0.754983 0.822669
O O8 0.629872 0.747348 0.061815
O O9 0.596710 0.000000 0.000016
O O10 0.500000 0.746507 0.000000
O O11 0.114774 0.500000 0.642077
O O12 0.181785 0.221130 0.615911
O O13 0.009877 0.278615 0.614688
O O14 0.623725 0.000000 0.131884
O O15 0.500000 0.731414 0.500000
O O16 0.534737 0.500000 0.418483
O O17 0.646267 0.733599 0.416162
O O18 0.215726 0.500000 0.440729
O O19 0.250000 0.250000 0.500000
#
# Coordination Sequence:
#
# PCOD8091469 Si02
#       7
#     8   8   8   8   8   8   8
#     4  10  19  34  56  82 112 148 193 238 287 340
#     4   9  20  38  58  80 112 155 196 232 277 346
#     4   9  15  28  55  82 105 146 194 237 283 340
#     4  11  23  40  62  89 121 157 198 243 293 350
#     4  10  19  34  56  82 112 147 193 240 286 338
#     4  11  23  40  64  92 121 153 192 239 292 347
#     4  12  24  40  64  93 122 154 191 237 292 349
#
# _framework density 20.015592999999999
#
# number of rings (size 3 to 8) (size 9 to 14) (size 15 to 20)
#    0.000    1.714    2.857    2.571    0.000    1.714 
#    0.000    6.429    0.000    0.857    0.000    0.000 
#    0.000    0.000    0.000    0.000    0.000    0.000 
#
# Total GULP energy -347254.716659 kJ/mol
# GULP energy per Si atom -12401.954166 kJ/mol
# Density = 1.997004 g / cm^3
# Si number density = 20.015593 Si / 1000 Ang^3
#
#
#
# Elastic Constant Matrix: (Units=GPa)
#
#
# Indices 1 2 3 4 5 6 
#
# 1 171.0949 5.5565 70.7081 0.0000 3.6969 0.0000
# 2 5.5565 31.1330 19.3927 0.0000 -1.4166 0.0000
# 3 70.7081 19.3927 154.3122 0.0000 -5.7910 0.0000
# 4 0.0000 0.0000 0.0000 14.1746 0.0000 -0.0515
# 5 3.6969 -1.4166 -5.7910 0.0000 21.1605 0.0000
# 6 0.0000 0.0000 0.0000 -0.0515 0.0000 32.9028
#
#
#
# Elastic Compliance Matrix: (Units=1/GPa)
#
#
# Indices 1 2 3 4 5 6 
#
# 1 0.007330 0.000798 -0.003541 0.000000 -0.002196 0.000000
# 2 0.000798 0.034963 -0.004725 0.000000 0.000908 0.000000
# 3 -0.003541 -0.004725 0.008799 0.000000 0.002710 0.000000
# 4 0.000000 0.000000 0.000000 0.070549 0.000000 0.000110
# 5 -0.002196 0.000908 0.002710 0.000000 0.048444 0.000000
# 6 0.000000 0.000000 0.000000 0.000110 0.000000 0.030393
#
#
# Mechanical properties :
#
#
# Convention : Reuss Voigt Hill
#
# Bulk Modulus (GPa) = 27.66002 60.87277 44.26640
# Shear Modulus (GPa) = 21.98137 31.03978 26.51057
#
# Velocity S-wave (km/s) = 3.31752 3.94227 3.64331
# Velocity P-wave (km/s) = 5.34077 7.15546 6.31366
#
# Compressibility (1/GPa) = 0.03615326
#
# Stress axis : x y z
#
# Youngs Moduli (GPa) = 136.43022 28.60202 113.65477
#
# Poissons Ratio (x) = -0.02282 0.40248
# Poissons Ratio (y) = -0.10883 0.53705
# Poissons Ratio (z) = 0.48314 0.13515
#
# Static dielectric constant tensor:
#      x y z
#    x 3.900860 0.000000 -0.027290 
#    y 0.000000 3.274960 0.000000 
#    z -0.027290 0.000000 3.852910 
# 
# 
# High freq. dielectric constant tensor:
#      x y z
#    x 1.798360 0.000000 0.001220 
#    y 0.000000 1.752040 0.000000 
#    z 0.001220 0.000000 1.782090 
# 
# From -- ./inp_files/309040.got.cif
#   From: 2010.06.25/outbox.cif.g09.slc.cpg/sg12_155_cif.got.tgz:309040.got - 2010.06.28 00:19:55.
