data_PCOD8091070
_publ_section_title
;
Structure prediction by ZEFSAII (Michael W. Deem and Ramdas Pophale) SiO2 
 PCOD8091070
Probable space group: C 2/M
;
_chemical_formula_sum "Si O2"
_cell_formula_units_Z 64
_cell_length_a 20.104765
_cell_length_b 9.493699
_cell_length_c 20.090485
_cell_angle_alpha 90.000000
_cell_angle_beta 72.301584
_cell_angle_gamma 90.000000
_cell_volume 3653.148426
_symmetry_space_group_name_H-M "C 2/M"
_symmetry_group_IT_number 12
_symmetry_cell_setting 'monoclinic'
loop_
_space_group_symop_operation_xyz
x,y,z
-x,y,-z
-x,-y,-z
x,-y,z
1/2+x,1/2+y,z
1/2-x,1/2+y,-z
1/2-x,1/2-y,-z
1/2+x,1/2-y,z
loop_
_atom_site_type_symbol
_atom_site_label
_atom_site_fract_x
_atom_site_fract_y
_atom_site_fract_z
Si Si1 0.130539 0.833775 0.718595
Si Si2 0.282346 0.166298 0.709284
Si Si3 0.877652 0.163070 0.933225
Si Si4 0.540097 0.336791 0.868213
Si Si5 0.182341 0.344004 0.445408
Si Si6 0.362129 0.164734 0.067839
Si Si7 0.210076 0.838360 0.168099
Si Si8 0.654938 0.656949 0.569569
O O1 0.203096 0.776212 0.726338
O O2 0.067882 0.791154 0.786808
O O3 0.117212 0.777053 0.647114
O O4 0.139106 0.000000 0.708180
O O5 0.325049 0.205821 0.629152
O O6 0.316078 0.245787 0.761716
O O7 0.284399 0.000000 0.721949
O O8 0.833881 0.208907 0.882403
O O9 0.958352 0.189444 0.893101
O O10 0.863607 0.000000 0.956536
O O11 0.851912 0.263887 0.999544
O O12 0.559005 0.500000 0.877355
O O13 0.574100 0.240711 0.914451
O O14 0.151336 0.500000 0.462460
O O15 0.263169 0.343844 0.440147
O O16 0.137921 0.246557 0.508813
O O17 0.291730 0.187767 0.130509
O O18 0.379491 0.000000 0.053591
O O19 0.194591 0.000000 0.189870
O O20 0.627746 0.500000 0.562972
#
# Coordination Sequence:
#
# PCOD8091070 Si02
#       8
#     8   8   8   8   8   8   8   8
#     4   8  14  26  45  68  91 118 156 195 229 274
#     4   9  16  28  47  68  92 124 160 194 231 280
#     4  10  22  37  52  71  95 125 161 197 236 285
#     4  10  19  34  55  73  93 126 162 196 235 282
#     4   8  14  23  36  60  92 121 150 186 227 273
#     4  11  22  35  52  73  97 124 154 197 245 285
#     4  10  21  35  49  71  99 124 157 199 240 281
#     4   8  13  22  37  59  89 121 149 182 227 275
#
# _framework density 17.519134000000001
#
# number of rings (size 3 to 8) (size 9 to 14) (size 15 to 20)
#    0.000    2.750    1.250    2.625    0.000    3.500 
#    0.000    2.500    0.000    0.000    0.000    0.875 
#    0.000    7.000    0.000    0.000    0.000    0.000 
#
# Total GULP energy -396676.429577 kJ/mol
# GULP energy per Si atom -12396.138424 kJ/mol
# Density = 1.747926 g / cm^3
# Si number density = 17.519134 Si / 1000 Ang^3
#
#
#
# Elastic Constant Matrix: (Units=GPa)
#
#
# Indices 1 2 3 4 5 6 
#
# 1 31.6751 17.3325 11.1799 0.0000 5.7545 0.0000
# 2 17.3325 72.6706 64.5166 0.0000 9.2833 0.0001
# 3 11.1799 64.5166 140.7694 0.0000 13.6200 0.0000
# 4 0.0000 0.0000 0.0000 35.3955 0.0000 5.1090
# 5 5.7545 9.2833 13.6200 0.0000 5.7624 0.0000
# 6 0.0000 0.0001 0.0000 5.1090 0.0000 14.9923
#
#
#
# Elastic Compliance Matrix: (Units=1/GPa)
#
#
# Indices 1 2 3 4 5 6 
#
# 1 0.041850 -0.009194 0.004538 0.000000 -0.037709 0.000000
# 2 -0.009194 0.026397 -0.010556 0.000000 -0.008396 0.000000
# 3 0.004538 -0.010556 0.013450 0.000000 -0.019318 0.000000
# 4 0.000000 0.000000 0.000000 0.029714 0.000000 -0.010126
# 5 -0.037709 -0.008396 -0.019318 0.000000 0.270384 0.000000
# 6 0.000000 0.000000 0.000000 -0.010126 0.000000 0.070151
#
#
# Mechanical properties :
#
#
# Convention : Reuss Voigt Hill
#
# Bulk Modulus (GPa) = 19.50240 47.90813 33.70527
# Shear Modulus (GPa) = 10.01079 21.36912 15.68995
#
# Velocity S-wave (km/s) = 2.39303 3.49629 2.99589
# Velocity P-wave (km/s) = 4.33494 6.61092 5.58999
#
# Compressibility (1/GPa) = 0.05127574
#
# Stress axis : x y z
#
# Youngs Moduli (GPa) = 23.89478 37.88254 74.34740
#
# Poissons Ratio (x) = 0.34828 -0.33741
# Poissons Ratio (y) = 0.21968 0.78480
# Poissons Ratio (z) = -0.10844 0.39988
#
# Static dielectric constant tensor:
#      x y z
#    x 2.843790 0.000000 0.009590 
#    y 0.000000 3.201600 0.000000 
#    z 0.009590 0.000000 3.576270 
# 
# 
# High freq. dielectric constant tensor:
#      x y z
#    x 1.628960 0.000000 0.003260 
#    y 0.000000 1.662530 0.000000 
#    z 0.003260 0.000000 1.695380 
# 
# From -- ./inp_files/319137.got.cif
#   From: 2010.06.25/outbox.cif.g09.slc.cpg/sg12_160_cif.got.tgz:319137.got - 2010.06.28 00:19:55.
