data_PCOD8091513
_publ_section_title
;
Structure prediction by ZEFSAII (Michael W. Deem and Ramdas Pophale) SiO2 
 PCOD8091513
Probable space group: C 2/M
;
_chemical_formula_sum "Si O2"
_cell_formula_units_Z 56
_cell_length_a 31.991118
_cell_length_b 8.812875
_cell_length_c 11.298045
_cell_angle_alpha 90.000000
_cell_angle_beta 118.858915
_cell_angle_gamma 90.000000
_cell_volume 2789.720209
_symmetry_space_group_name_H-M "C 2/M"
_symmetry_group_IT_number 12
_symmetry_cell_setting 'monoclinic'
loop_
_space_group_symop_operation_xyz
x,y,z
-x,y,-z
-x,-y,-z
x,-y,z
1/2+x,1/2+y,z
1/2-x,1/2+y,-z
1/2-x,1/2-y,-z
1/2+x,1/2-y,z
loop_
_atom_site_type_symbol
_atom_site_label
_atom_site_fract_x
_atom_site_fract_y
_atom_site_fract_z
Si Si1 0.810280 0.820450 0.833685
Si Si2 0.109406 0.320612 0.643162
Si Si3 0.294704 0.177772 0.342599
Si Si4 0.153621 0.322575 0.352691
Si Si5 0.431495 0.675412 0.630992
Si Si6 0.110907 0.322371 0.913886
Si Si7 0.522143 0.674780 0.906851
O O1 0.756477 0.750981 0.762569
O O2 0.836353 0.773383 0.749440
O O3 0.809548 0.000000 0.840780
O O4 0.839073 0.755156 0.984218
O O5 0.105056 0.500000 0.613993
O O6 0.162696 0.261237 0.682843
O O7 0.071252 0.235060 0.507756
O O8 0.098100 0.276078 0.762268
O O9 0.306193 0.217036 0.494786
O O10 0.291217 0.000000 0.320292
O O11 0.152935 0.500000 0.320549
O O12 0.102243 0.275650 0.332054
O O13 0.415928 0.500000 0.616749
O O14 0.485262 0.697804 0.749344
O O15 0.118180 0.500000 0.936199
O O16 0.069208 0.270655 0.944531
O O17 0.537568 0.500000 0.941146
O O18 0.500000 0.733356 0.000000
#
# Coordination Sequence:
#
# PCOD8091513 Si02
#       7
#     8   8   8   8   8   8   8
#     4  11  21  34  54  80 112 149 188 230 277 325
#     4   9  20  40  59  79 111 147 186 229 274 326
#     4   8  17  34  56  80 109 147 185 225 272 324
#     4  10  19  34  56  83 116 148 182 226 275 330
#     4  10  20  35  59  87 112 144 185 228 275 325
#     4  11  24  39  57  81 110 146 187 231 277 329
#     4  10  22  40  60  83 113 145 177 221 276 333
#
# _framework density 20.073699000000001
#
# number of rings (size 3 to 8) (size 9 to 14) (size 15 to 20)
#    0.000    2.143    0.000    3.857    0.000    4.857 
#    0.000    9.286    0.000    0.000    0.000    0.000 
#    0.000    0.000    0.000    0.000    0.000    0.000 
#
# Total GULP energy -347248.115880 kJ/mol
# GULP energy per Si atom -12401.718424 kJ/mol
# Density = 2.002801 g / cm^3
# Si number density = 20.073699 Si / 1000 Ang^3
#
#
#
# Elastic Constant Matrix: (Units=GPa)
#
#
# Indices 1 2 3 4 5 6 
#
# 1 51.6177 18.5049 32.0648 0.0000 -2.6544 0.0000
# 2 18.5049 60.5806 40.9794 0.0000 1.4174 0.0000
# 3 32.0648 40.9794 104.8587 0.0000 1.3502 0.0000
# 4 0.0000 0.0000 0.0000 34.5783 0.0000 -0.9059
# 5 -2.6544 1.4174 1.3502 0.0000 34.1402 0.0000
# 6 0.0000 0.0000 0.0000 -0.9059 0.0000 24.2164
#
#
#
# Elastic Compliance Matrix: (Units=1/GPa)
#
#
# Indices 1 2 3 4 5 6 
#
# 1 0.024561 -0.003338 -0.006236 0.000000 0.002295 0.000000
# 2 -0.003338 0.022904 -0.007919 0.000000 -0.000897 0.000000
# 3 -0.006236 -0.007919 0.014548 0.000000 -0.000731 0.000000
# 4 0.000000 0.000000 0.000000 0.028948 0.000000 0.001083
# 5 0.002295 -0.000897 -0.000731 0.000000 0.029536 0.000000
# 6 0.000000 0.000000 0.000000 0.001083 0.000000 0.041335
#
#
# Mechanical properties :
#
#
# Convention : Reuss Voigt Hill
#
# Bulk Modulus (GPa) = 36.99849 44.46168 40.73009
# Shear Modulus (GPa) = 24.29233 26.95419 25.62326
#
# Velocity S-wave (km/s) = 3.48250 3.66835 3.57663
# Velocity P-wave (km/s) = 5.88573 6.33559 6.11480
#
# Compressibility (1/GPa) = 0.02702813
#
# Stress axis : x y z
#
# Youngs Moduli (GPa) = 40.71416 43.66012 68.74007
#
# Poissons Ratio (x) = 0.14574 0.42864
# Poissons Ratio (y) = 0.13591 0.54434
# Poissons Ratio (z) = 0.25388 0.34573
#
# Static dielectric constant tensor:
#      x y z
#    x 3.656530 0.000000 0.111290 
#    y 0.000000 3.516500 0.000000 
#    z 0.111290 0.000000 3.892050 
# 
# 
# High freq. dielectric constant tensor:
#      x y z
#    x 1.776690 0.000000 0.004630 
#    y 0.000000 1.771760 0.000000 
#    z 0.004630 0.000000 1.793940 
# 
# From -- ./inp_files/187740.got.cif
#   From: 2010.06.25/outbox.cif.g09.slc.cpg/sg12_94_cif.got.tgz:187740.got - 2010.06.28 00:19:55.
