data_PCOD8091432
_publ_section_title
;
Structure prediction by ZEFSAII (Michael W. Deem and Ramdas Pophale) SiO2 
 PCOD8091432
Probable space group: C 2/M
;
_chemical_formula_sum "Si O2"
_cell_formula_units_Z 48
_cell_length_a 23.930754
_cell_length_b 11.485922
_cell_length_c 25.128590
_cell_angle_alpha 90.000000
_cell_angle_beta 22.608509
_cell_angle_gamma 90.000000
_cell_volume 2655.280316
_symmetry_space_group_name_H-M "C 2/M"
_symmetry_group_IT_number 12
_symmetry_cell_setting 'monoclinic'
loop_
_space_group_symop_operation_xyz
x,y,z
-x,y,-z
-x,-y,-z
x,-y,z
1/2+x,1/2+y,z
1/2-x,1/2+y,-z
1/2-x,1/2-y,-z
1/2+x,1/2-y,z
loop_
_atom_site_type_symbol
_atom_site_label
_atom_site_fract_x
_atom_site_fract_y
_atom_site_fract_z
Si Si1 0.577998 0.224857 0.590350
Si Si2 0.772774 0.500000 0.721483
Si Si3 0.131144 0.365364 0.657393
Si Si4 0.299496 0.362196 0.798396
Si Si5 0.005423 0.366532 0.113293
Si Si6 0.446223 0.000000 0.460080
Si Si7 0.352896 0.252134 0.159266
O O1 0.723887 0.297542 0.454318
O O2 0.558825 0.183737 0.667748
O O3 0.443494 0.306767 0.695515
O O4 0.587769 0.114129 0.543658
O O5 0.847508 0.500000 0.598789
O O6 0.670694 0.389090 0.817030
O O7 0.886121 0.500000 0.670257
O O8 0.172474 0.500000 0.613609
O O9 0.011355 0.347551 0.808885
O O10 0.319137 0.500000 0.778407
O O11 0.276757 0.312355 0.758529
O O12 0.165354 0.324192 0.954460
O O13 0.985547 0.500000 0.114323
O O14 0.873472 0.297594 0.200580
O O15 0.500000 0.221070 0.000000
#
# Coordination Sequence:
#
# PCOD8091432 Si02
#       7
#     8   4   8   8   8   4   8
#     4  11  21  37  57  78 108 142 183 219 267 319
#     4  11  21  34  54  80 111 143 178 214 266 323
#     4  10  21  37  58  79 105 141 180 225 266 315
#     4  10  20  35  57  81 108 141 177 221 269 318
#     4   9  19  36  56  81 109 139 178 221 267 313
#     4  11  22  36  54  78 110 146 176 218 269 318
#     4  10  19  34  56  81 110 142 176 218 268 320
#
# _framework density 18.077186999999999
#
# number of rings (size 3 to 8) (size 9 to 14) (size 15 to 20)
#    0.000    1.833    2.500    2.250    0.000    2.667 
#    0.000    0.000    0.000    4.000    0.000    0.000 
#    0.000    0.000    0.000    0.000    0.000    0.000 
#
# Total GULP energy -297639.126840 kJ/mol
# GULP energy per Si atom -12401.630285 kJ/mol
# Density = 1.803604 g / cm^3
# Si number density = 18.077187 Si / 1000 Ang^3
#
#
#
# Elastic Constant Matrix: (Units=GPa)
#
#
# Indices 1 2 3 4 5 6 
#
# 1 97.2280 43.7725 30.5592 -0.0010 -13.6672 -0.0008
# 2 43.7725 108.9660 22.2146 0.0063 -9.8666 0.0029
# 3 30.5592 22.2146 37.9004 0.0032 -7.1597 0.0038
# 4 -0.0010 0.0063 0.0032 38.4614 0.0012 -14.3687
# 5 -13.6672 -9.8666 -7.1597 0.0012 25.3525 0.0003
# 6 -0.0008 0.0029 0.0038 -14.3687 0.0003 30.2169
#
#
#
# Elastic Compliance Matrix: (Units=1/GPa)
#
#
# Indices 1 2 3 4 5 6 
#
# 1 0.015648 -0.003969 -0.009496 0.000003 0.004209 0.000003
# 2 -0.003969 0.011577 -0.003315 -0.000003 0.001430 -0.000002
# 3 -0.009496 -0.003315 0.036734 -0.000006 0.003965 -0.000007
# 4 0.000003 -0.000003 -0.000006 0.031617 -0.000003 0.015034
# 5 0.004209 0.001430 0.003965 -0.000003 0.043389 -0.000002
# 6 0.000003 -0.000002 -0.000007 0.015034 -0.000002 0.040243
#
#
# Mechanical properties :
#
#
# Convention : Reuss Voigt Hill
#
# Bulk Modulus (GPa) = 32.89617 48.57635 40.73626
# Shear Modulus (GPa) = 22.43157 28.64271 25.53714
#
# Velocity S-wave (km/s) = 3.52643 3.98486 3.76263
# Velocity P-wave (km/s) = 5.90068 6.93557 6.43895
#
# Compressibility (1/GPa) = 0.03039867
#
# Stress axis : x y z
#
# Youngs Moduli (GPa) = 63.90503 86.37911 27.22310
#
# Poissons Ratio (x) = 0.34284 0.25850
# Poissons Ratio (y) = 0.25364 0.09025
# Poissons Ratio (z) = 0.60682 0.28637
#
# Static dielectric constant tensor:
#      x y z
#    x 3.519390 0.000000 -0.007890 
#    y 0.000000 3.380960 0.000010 
#    z -0.007890 0.000010 3.199390 
# 
# 
# High freq. dielectric constant tensor:
#      x y z
#    x 1.710310 0.000000 -0.000500 
#    y 0.000000 1.712330 0.000000 
#    z -0.000500 0.000000 1.689590 
# 
# From -- ./inp_files/94481.got.cif
#   From: 2010.06.25/outbox.cif.g09.slc.cpg/sg12_48_cif.got.tgz:94481.got - 2010.06.28 00:19:55.
