data_PCOD8091677
_publ_section_title
;
Structure prediction by ZEFSAII (Michael W. Deem and Ramdas Pophale) SiO2 
 PCOD8091677
Probable space group: C 2/M
;
_chemical_formula_sum "Si O2"
_cell_formula_units_Z 44
_cell_length_a 16.752575
_cell_length_b 18.861818
_cell_length_c 16.518841
_cell_angle_alpha 90.000000
_cell_angle_beta 153.386926
_cell_angle_gamma 90.000000
_cell_volume 2338.228465
_symmetry_space_group_name_H-M "C 2/M"
_symmetry_group_IT_number 12
_symmetry_cell_setting 'monoclinic'
loop_
_space_group_symop_operation_xyz
x,y,z
-x,y,-z
-x,-y,-z
x,-y,z
1/2+x,1/2+y,z
1/2-x,1/2+y,-z
1/2-x,1/2-y,-z
1/2+x,1/2-y,z
loop_
_atom_site_type_symbol
_atom_site_label
_atom_site_fract_x
_atom_site_fract_y
_atom_site_fract_z
Si Si1 0.062145 0.812808 0.283738
Si Si2 0.242905 0.580613 0.992835
Si Si3 0.536380 0.173873 0.355297
Si Si4 0.526071 0.924476 0.118420
Si Si5 0.500000 0.785634 0.500000
Si Si6 0.634367 0.778113 0.195845
O O1 0.258754 0.841951 0.484647
O O2 0.993542 0.754266 0.286363
O O3 0.068516 0.779238 0.200332
O O4 0.928779 0.878425 0.159957
O O5 0.275625 0.500000 0.992542
O O6 0.095002 0.616563 0.801603
O O7 0.167985 0.582185 0.016092
O O8 0.511775 0.166921 0.429824
O O9 0.641805 0.855426 0.246570
O O10 0.614781 0.000000 0.226723
O O11 0.500000 0.925967 0.000000
O O12 0.671039 0.735786 0.661845
O O13 0.500000 0.777379 0.000000
#
# Coordination Sequence:
#
# PCOD8091677 Si02
#       6
#     8   8   8   8   4   8
#     4  10  21  36  58  84 110 143 190 233 271 328
#     4  11  22  37  59  82 113 153 183 223 282 331
#     4  10  21  38  57  84 112 143 188 237 273 322
#     4   9  19  33  50  80 116 148 180 219 269 329
#     4  10  22  34  58  84 108 140 192 228 280 322
#     4  10  19  34  57  82 109 144 180 231 275 325
#
# _framework density 18.817665000000002
#
# number of rings (size 3 to 8) (size 9 to 14) (size 15 to 20)
#    0.000    2.000    1.818    1.636    5.091    0.727 
#    0.000    0.909    0.000   10.364    0.000    0.000 
#    0.000    0.000    0.000    0.000    0.000    0.000 
#
# Total GULP energy -272671.159733 kJ/mol
# GULP energy per Si atom -12394.143624 kJ/mol
# Density = 1.877484 g / cm^3
# Si number density = 18.817665 Si / 1000 Ang^3
#
#
#
# Elastic Constant Matrix: (Units=GPa)
#
#
# Indices 1 2 3 4 5 6 
#
# 1 103.2006 46.5112 39.2803 0.0001 2.9055 0.0010
# 2 46.5112 138.8265 72.7929 0.0015 16.6038 0.0009
# 3 39.2803 72.7929 117.7558 -0.0152 9.5201 -0.0028
# 4 0.0001 0.0015 -0.0152 -71.7645 -0.0066 -21.1556
# 5 2.9055 16.6038 9.5201 -0.0066 25.0849 -0.0011
# 6 0.0010 0.0009 -0.0028 -21.1556 -0.0011 10.7769
#
#
#
# Elastic Compliance Matrix: (Units=1/GPa)
#
#
# Indices 1 2 3 4 5 6 
#
# 1 0.011836 -0.002969 -0.002229 0.000000 0.001440 0.000000
# 2 -0.002969 0.011968 -0.005979 0.000002 -0.005309 0.000001
# 3 -0.002229 -0.005979 0.012989 -0.000003 -0.000714 -0.000001
# 4 0.000000 0.000002 -0.000003 -0.008827 -0.000003 -0.017327
# 5 0.001440 -0.005309 -0.000714 -0.000003 0.043483 -0.000002
# 6 0.000000 0.000001 -0.000001 -0.017327 -0.000002 0.058777
#
#
# Mechanical properties :
#
#
# Convention : Reuss Voigt Hill
#
# Bulk Modulus (GPa) = 69.25453 75.21686 72.23569
# Shear Modulus (GPa) = 31.76776 6.23269 19.00022
#
# Velocity S-wave (km/s) = 4.11321 1.82191 3.18103
# Velocity P-wave (km/s) = 7.70979 6.66963 7.20850
#
# Compressibility (1/GPa) = 0.01443949
#
# Stress axis : x y z
#
# Youngs Moduli (GPa) = 84.48938 83.55942 76.98640
#
# Poissons Ratio (x) = 0.24806 0.17164
# Poissons Ratio (y) = 0.25082 0.46026
# Poissons Ratio (z) = 0.18836 0.49956
#
# Static dielectric constant tensor:
#      x y z
#    x 3.618000 -0.000010 0.004480 
#    y -0.000010 3.939640 -0.000010 
#    z 0.004480 -0.000010 3.412960 
# 
# 
# High freq. dielectric constant tensor:
#      x y z
#    x 1.745420 0.000000 -0.001800 
#    y 0.000000 1.721340 0.000000 
#    z -0.001800 0.000000 1.718120 
# 
# From -- ./inp_files/97997.got.cif
#   From: 2010.06.25/outbox.cif.g09.slc.cpg/sg12_49_cif.got.tgz:97997.got - 2010.06.28 00:19:55.
