data_PCOD8091880
_publ_section_title
;
Structure prediction by ZEFSAII (Michael W. Deem and Ramdas Pophale) SiO2 
 PCOD8091880
Probable space group: C 2/M
;
_chemical_formula_sum "Si O2"
_cell_formula_units_Z 56
_cell_length_a 14.659060
_cell_length_b 22.157276
_cell_length_c 13.987208
_cell_angle_alpha 90.000000
_cell_angle_beta 138.160497
_cell_angle_gamma 90.000000
_cell_volume 3030.466541
_symmetry_space_group_name_H-M "C 2/M"
_symmetry_group_IT_number 12
_symmetry_cell_setting 'monoclinic'
loop_
_space_group_symop_operation_xyz
x,y,z
-x,y,-z
-x,-y,-z
x,-y,z
1/2+x,1/2+y,z
1/2-x,1/2+y,-z
1/2-x,1/2-y,-z
1/2+x,1/2-y,z
loop_
_atom_site_type_symbol
_atom_site_label
_atom_site_fract_x
_atom_site_fract_y
_atom_site_fract_z
Si Si1 0.273090 0.820360 0.607897
Si Si2 0.408528 0.071722 0.643610
Si Si3 0.783495 0.933508 0.678605
Si Si4 0.468610 0.278433 0.695544
Si Si5 0.360999 0.242303 0.335691
Si Si6 0.032929 0.852164 0.918100
Si Si7 0.306551 0.884913 0.205618
O O1 0.331642 0.889009 0.667298
O O2 0.391042 0.785528 0.641048
O O3 0.137546 0.825384 0.435995
O O4 0.241484 0.784569 0.682244
O O5 0.329672 0.089314 0.484772
O O6 0.560696 0.098043 0.751141
O O7 0.408338 0.000000 0.667632
O O8 0.716005 0.935481 0.731310
O O9 0.922964 0.896858 0.787070
O O10 0.827128 0.000000 0.682262
O O11 0.603592 0.275574 0.735466
O O12 0.526008 0.294313 0.844659
O O13 0.500000 0.229840 0.500000
O O14 0.298326 0.177631 0.260205
O O15 0.182075 0.883382 0.032358
O O16 0.000000 0.831912 0.000000
#
# Coordination Sequence:
#
# PCOD8091880 Si02
#       7
#     8   8   8   8   8   8   8
#     4  10  19  34  58  83 107 149 188 233 286 328
#     4  11  21  35  56  82 114 147 190 236 275 329
#     4  10  20  34  53  75 108 150 188 224 272 335
#     4  10  19  35  57  80 112 143 188 234 281 335
#     4  10  20  33  57  82 109 144 185 238 278 333
#     4  10  21  34  53  80 118 147 179 226 280 347
#     4  11  21  33  51  85 116 142 182 226 287 343
#
# _framework density 18.479002999999999
#
# number of rings (size 3 to 8) (size 9 to 14) (size 15 to 20)
#    0.000    1.714    2.857    3.429    2.000    4.857 
#    0.000    0.000    0.000    4.714    0.000    1.000 
#    0.000    0.000    0.000    0.000    0.000    0.000 
#
# Total GULP energy -346984.174967 kJ/mol
# GULP energy per Si atom -12392.291963 kJ/mol
# Density = 1.843694 g / cm^3
# Si number density = 18.479003 Si / 1000 Ang^3
#
#
#
# Elastic Constant Matrix: (Units=GPa)
#
#
# Indices 1 2 3 4 5 6 
#
# 1 88.3514 47.1130 34.7852 0.0000 4.2167 0.0000
# 2 47.1130 85.8778 22.8556 0.0000 6.3374 0.0000
# 3 34.7852 22.8556 76.6568 0.0000 8.8664 0.0000
# 4 0.0000 0.0000 0.0000 17.7474 0.0000 -1.7530
# 5 4.2167 6.3374 8.8664 0.0000 24.4974 0.0000
# 6 0.0000 0.0000 0.0000 -1.7530 0.0000 25.6919
#
#
#
# Elastic Compliance Matrix: (Units=1/GPa)
#
#
# Indices 1 2 3 4 5 6 
#
# 1 0.018053 -0.008445 -0.005811 0.000000 0.001180 0.000000
# 2 -0.008445 0.016692 -0.000849 0.000000 -0.002557 0.000000
# 3 -0.005811 -0.000849 0.016484 0.000000 -0.004746 0.000000
# 4 0.000000 0.000000 0.000000 0.056729 0.000000 0.003871
# 5 0.001180 -0.002557 -0.004746 0.000000 0.042997 0.000000
# 6 0.000000 0.000000 0.000000 0.003871 0.000000 0.039187
#
#
# Mechanical properties :
#
#
# Convention : Reuss Voigt Hill
#
# Bulk Modulus (GPa) = 47.57327 51.15484 49.36405
# Shear Modulus (GPa) = 21.99189 23.32949 22.66069
#
# Velocity S-wave (km/s) = 3.45353 3.55700 3.50565
# Velocity P-wave (km/s) = 6.45777 6.67926 6.56945
#
# Compressibility (1/GPa) = 0.02102021
#
# Stress axis : x y z
#
# Youngs Moduli (GPa) = 55.39275 59.90947 60.66459
#
# Poissons Ratio (x) = 0.50591 0.35251
# Poissons Ratio (y) = 0.46777 0.05151
# Poissons Ratio (z) = 0.32187 0.05086
#
# Static dielectric constant tensor:
#      x y z
#    x 3.375230 0.000000 0.121790 
#    y 0.000000 3.331420 0.000000 
#    z 0.121790 0.000000 3.461100 
# 
# 
# High freq. dielectric constant tensor:
#      x y z
#    x 1.700680 0.000000 0.018510 
#    y 0.000000 1.703230 0.000000 
#    z 0.018510 0.000000 1.711530 
# 
# From -- ./inp_files/79163.got.cif
#   From: 2010.06.25/outbox.cif.g09.slc.cpg/sg12_40_cif.got.tgz:79163.got - 2010.06.28 00:19:55.
