data_PCOD8091529
_publ_section_title
;
Structure prediction by ZEFSAII (Michael W. Deem and Ramdas Pophale) SiO2 
 PCOD8091529
Probable space group: C 2/M
;
_chemical_formula_sum "Si O2"
_cell_formula_units_Z 64
_cell_length_a 32.374993
_cell_length_b 15.493656
_cell_length_c 9.238282
_cell_angle_alpha 90.000000
_cell_angle_beta 45.340496
_cell_angle_gamma 90.000000
_cell_volume 3296.138464
_symmetry_space_group_name_H-M "C 2/M"
_symmetry_group_IT_number 12
_symmetry_cell_setting 'monoclinic'
loop_
_space_group_symop_operation_xyz
x,y,z
-x,y,-z
-x,-y,-z
x,-y,z
1/2+x,1/2+y,z
1/2-x,1/2+y,-z
1/2-x,1/2-y,-z
1/2+x,1/2-y,z
loop_
_atom_site_type_symbol
_atom_site_label
_atom_site_fract_x
_atom_site_fract_y
_atom_site_fract_z
Si Si1 0.063250 0.902196 0.389657
Si Si2 0.378323 0.270550 0.956527
Si Si3 0.725842 0.637443 0.164883
Si Si4 0.254807 0.321128 0.199341
Si Si5 0.606673 0.405969 0.587772
Si Si6 0.432148 0.750368 0.127540
Si Si7 0.339483 0.906786 0.041424
Si Si8 0.155990 0.598694 0.636079
O O1 0.063433 0.890441 0.561028
O O2 0.000000 0.874763 0.500000
O O3 0.079031 0.000000 0.303498
O O4 0.106014 0.835647 0.208634
O O5 0.310842 0.294221 0.159611
O O6 0.422039 0.272719 0.984055
O O7 0.380250 0.172176 0.888702
O O8 0.721634 0.736815 0.223543
O O9 0.670905 0.589355 0.365168
O O10 0.781776 0.590088 0.089620
O O11 0.725600 0.626050 0.991529
O O12 0.210871 0.377297 0.402441
O O13 0.593936 0.500000 0.691106
O O14 0.597043 0.331067 0.724836
O O15 0.399156 0.838209 0.255960
O O16 0.500000 0.759986 0.000000
O O17 0.323540 0.891256 0.248991
O O18 0.371196 0.000000 0.944315
O O19 0.137065 0.500000 0.648073
#
# Coordination Sequence:
#
# PCOD8091529 Si02
#       8
#     8   8   8   8   8   8   8   8
#     4  10  21  38  57  78 108 147 192 236 282 340
#     4  10  21  37  60  82 113 154 187 237 288 339
#     4  10  19  34  56  84 116 147 180 227 282 347
#     4  10  20  35  58  86 116 146 185 234 287 344
#     4  11  22  36  57  82 112 148 189 234 284 340
#     4  11  24  40  59  84 116 153 198 243 283 336
#     4   9  20  35  55  83 115 150 186 227 282 342
#     4  10  22  39  60  86 117 153 193 238 289 343
#
# _framework density 19.41666
#
# number of rings (size 3 to 8) (size 9 to 14) (size 15 to 20)
#    0.000    1.875    2.500    1.125    1.750    4.000 
#    0.000    0.000    0.000    0.375    0.000    0.000 
#    0.000    0.000    0.000    0.000    0.000    0.000 
#
# Total GULP energy -396648.330036 kJ/mol
# GULP energy per Si atom -12395.260314 kJ/mol
# Density = 1.937247 g / cm^3
# Si number density = 19.416660 Si / 1000 Ang^3
#
#
#
# Elastic Constant Matrix: (Units=GPa)
#
#
# Indices 1 2 3 4 5 6 
#
# 1 105.8317 18.8512 13.2685 0.0000 -5.9369 0.0000
# 2 18.8512 136.2860 40.0762 0.0000 1.9211 0.0000
# 3 13.2685 40.0762 44.7761 0.0000 -5.6781 0.0000
# 4 0.0000 0.0000 0.0000 14.0563 0.0000 3.5028
# 5 -5.9369 1.9211 -5.6781 0.0000 18.4737 0.0000
# 6 0.0000 0.0000 0.0000 3.5028 0.0000 18.8745
#
#
#
# Elastic Compliance Matrix: (Units=1/GPa)
#
#
# Indices 1 2 3 4 5 6 
#
# 1 0.009989 -0.000885 -0.001820 0.000000 0.002743 0.000000
# 2 -0.000885 0.010319 -0.009516 0.000000 -0.004282 0.000000
# 3 -0.001820 -0.009516 0.032717 0.000000 0.010461 0.000000
# 4 0.000000 0.000000 0.000000 0.074592 0.000000 -0.013843
# 5 0.002743 -0.004282 0.010461 0.000000 0.058673 0.000000
# 6 0.000000 0.000000 0.000000 -0.013843 0.000000 0.055551
#
#
# Mechanical properties :
#
#
# Convention : Reuss Voigt Hill
#
# Bulk Modulus (GPa) = 34.98806 47.92062 41.45434
# Shear Modulus (GPa) = 18.12847 24.59409 21.36128
#
# Velocity S-wave (km/s) = 3.05889 3.56286 3.32045
# Velocity P-wave (km/s) = 5.52580 6.45438 6.00806
#
# Compressibility (1/GPa) = 0.02858118
#
# Stress axis : x y z
#
# Youngs Moduli (GPa) = 100.11351 96.91148 30.56549
#
# Poissons Ratio (x) = 0.08578 0.05563
# Poissons Ratio (y) = 0.08862 0.29087
# Poissons Ratio (z) = 0.18220 0.92225
#
# Static dielectric constant tensor:
#      x y z
#    x 3.633290 0.000000 0.057540 
#    y 0.000000 3.784370 0.000000 
#    z 0.057540 0.000000 3.249250 
# 
# 
# High freq. dielectric constant tensor:
#      x y z
#    x 1.763660 0.000000 0.005100 
#    y 0.000000 1.771950 0.000000 
#    z 0.005100 0.000000 1.723810 
# 
# From -- ./inp_files/111952.got.cif
#   From: 2010.06.25/outbox.cif.g09.slc.cpg/sg12_56_cif.got.tgz:111952.got - 2010.06.28 00:19:55.
