data_PCOD8091865
_publ_section_title
;
Structure prediction by ZEFSAII (Michael W. Deem and Ramdas Pophale) SiO2 
 PCOD8091865
Probable space group: C 2/M
;
_chemical_formula_sum "Si O2"
_cell_formula_units_Z 64
_cell_length_a 28.913297
_cell_length_b 9.186656
_cell_length_c 12.737692
_cell_angle_alpha 90.000000
_cell_angle_beta 100.731104
_cell_angle_gamma 90.000000
_cell_volume 3324.172988
_symmetry_space_group_name_H-M "C 2/M"
_symmetry_group_IT_number 12
_symmetry_cell_setting 'monoclinic'
loop_
_space_group_symop_operation_xyz
x,y,z
-x,y,-z
-x,-y,-z
x,-y,z
1/2+x,1/2+y,z
1/2-x,1/2+y,-z
1/2-x,1/2-y,-z
1/2+x,1/2-y,z
loop_
_atom_site_type_symbol
_atom_site_label
_atom_site_fract_x
_atom_site_fract_y
_atom_site_fract_z
Si Si1 0.053046 0.171711 0.039217
Si Si2 0.694536 0.169438 0.811304
Si Si3 0.351621 0.830677 0.428789
Si Si4 0.545461 0.171221 0.459533
Si Si5 0.072691 0.837158 0.278562
Si Si6 0.320175 0.665120 0.609682
Si Si7 0.786822 0.672321 0.795307
Si Si8 0.861150 0.330314 0.003655
O O1 0.067378 0.225359 0.160433
O O2 0.089045 0.247255 0.974219
O O3 0.057802 0.000000 0.025722
O O4 0.000000 0.225768 0.000000
O O5 0.663509 0.204230 0.695682
O O6 0.740409 0.269410 0.832636
O O7 0.709309 0.000000 0.820882
O O8 0.665163 0.214432 0.900998
O O9 0.406185 0.781298 0.462366
O O10 0.317804 0.742924 0.494989
O O11 0.346284 0.000000 0.454929
O O12 0.500000 0.234324 0.500000
O O13 0.542701 0.236025 0.342194
O O14 0.542101 0.000000 0.447805
O O15 0.126773 0.833490 0.330396
O O16 0.052101 0.000000 0.276872
O O17 0.300739 0.500000 0.591993
O O18 0.289860 0.751597 0.682836
O O19 0.783506 0.500000 0.777839
O O20 0.830368 0.714545 0.888951
O O21 0.872078 0.500000 0.007179
#
# Coordination Sequence:
#
# PCOD8091865 Si02
#       8
#     8   8   8   8   8   8   8   8
#     4  10  21  37  57  83 114 148 186 229 280 333
#     4  10  22  39  57  80 114 153 188 229 284 340
#     4   9  19  36  55  78 112 147 182 230 281 331
#     4   9  18  32  53  80 106 139 181 224 274 328
#     4   9  18  33  52  76 105 140 180 222 269 322
#     4  10  19  34  58  82 107 144 185 228 277 331
#     4  11  22  36  58  86 112 144 190 236 282 336
#     4  10  22  39  59  84 114 148 189 235 281 334
#
# _framework density 19.25291
#
# number of rings (size 3 to 8) (size 9 to 14) (size 15 to 20)
#    0.000    2.250    1.250    1.125    0.000    4.500 
#    0.000    1.250    0.000    0.000    0.000    0.000 
#    0.000    0.000    0.000    0.000    0.000    0.000 
#
# Total GULP energy -396851.855999 kJ/mol
# GULP energy per Si atom -12401.620500 kJ/mol
# Density = 1.920909 g / cm^3
# Si number density = 19.252910 Si / 1000 Ang^3
#
#
#
# Elastic Constant Matrix: (Units=GPa)
#
#
# Indices 1 2 3 4 5 6 
#
# 1 109.7820 49.7617 40.8245 0.0000 -23.7421 0.0000
# 2 49.7617 63.7121 40.2393 0.0000 -10.5566 0.0000
# 3 40.8245 40.2393 91.3420 0.0000 -18.0609 0.0000
# 4 0.0000 0.0000 0.0000 28.6776 0.0000 -7.2516
# 5 -23.7421 -10.5566 -18.0609 0.0000 29.8221 0.0000
# 6 0.0000 0.0000 0.0000 -7.2516 0.0000 30.5601
#
#
#
# Elastic Compliance Matrix: (Units=1/GPa)
#
#
# Indices 1 2 3 4 5 6 
#
# 1 0.016076 -0.010626 -0.000815 0.000000 0.008544 0.000000
# 2 -0.010626 0.028892 -0.008667 0.000000 -0.003481 0.000000
# 3 -0.000815 -0.008667 0.016354 0.000000 0.006187 0.000000
# 4 0.000000 0.000000 0.000000 0.037096 0.000000 0.008803
# 5 0.008544 -0.003481 0.006187 0.000000 0.042849 0.000000
# 6 0.000000 0.000000 0.000000 0.008803 0.000000 0.034811
#
#
# Mechanical properties :
#
#
# Convention : Reuss Voigt Hill
#
# Bulk Modulus (GPa) = 47.37906 58.49856 52.93881
# Shear Modulus (GPa) = 22.38849 26.74601 24.56725
#
# Velocity S-wave (km/s) = 3.41378 3.73123 3.57603
# Velocity P-wave (km/s) = 6.34040 7.00093 6.67884
#
# Compressibility (1/GPa) = 0.02110637
#
# Stress axis : x y z
#
# Youngs Moduli (GPa) = 62.20409 34.61164 61.14876
#
# Poissons Ratio (x) = 0.36778 0.04981
# Poissons Ratio (y) = 0.66098 0.52998
# Poissons Ratio (z) = 0.05067 0.29998
#
# Static dielectric constant tensor:
#      x y z
#    x 3.531690 0.000000 -0.062370 
#    y 0.000000 3.498460 0.000000 
#    z -0.062370 0.000000 3.615320 
# 
# 
# High freq. dielectric constant tensor:
#      x y z
#    x 1.747320 0.000000 -0.006030 
#    y 0.000000 1.742610 0.000000 
#    z -0.006030 0.000000 1.753760 
# 
# From -- ./inp_files/187608.got.cif
#   From: 2010.06.25/outbox.cif.g09.slc.cpg/sg12_94_cif.got.tgz:187608.got - 2010.06.28 00:19:55.
