data_PCOD8091094
_publ_section_title
;
Structure prediction by ZEFSAII (Michael W. Deem and Ramdas Pophale) SiO2 
 PCOD8091094
Probable space group: C 2/M
;
_chemical_formula_sum "Si O2"
_cell_formula_units_Z 48
_cell_length_a 15.647100
_cell_length_b 9.509427
_cell_length_c 16.886859
_cell_angle_alpha 90.000000
_cell_angle_beta 90.899124
_cell_angle_gamma 90.000000
_cell_volume 2512.370049
_symmetry_space_group_name_H-M "C 2/M"
_symmetry_group_IT_number 12
_symmetry_cell_setting 'monoclinic'
loop_
_space_group_symop_operation_xyz
x,y,z
-x,y,-z
-x,-y,-z
x,-y,z
1/2+x,1/2+y,z
1/2-x,1/2+y,-z
1/2-x,1/2-y,-z
1/2+x,1/2-y,z
loop_
_atom_site_type_symbol
_atom_site_label
_atom_site_fract_x
_atom_site_fract_y
_atom_site_fract_z
Si Si1 0.747341 0.164793 0.580176
Si Si2 0.079997 0.333447 0.677010
Si Si3 0.844825 0.338581 0.160683
Si Si4 0.649680 0.659462 0.154192
Si Si5 0.416322 0.335753 0.678459
Si Si6 0.600535 0.158751 0.004714
O O1 0.750000 0.250000 0.500000
O O2 0.660382 0.206344 0.623793
O O3 0.829530 0.208586 0.633091
O O4 0.749095 0.000000 0.561346
O O5 0.063546 0.500000 0.675337
O O6 0.099530 0.276758 0.766315
O O7 0.995518 0.253581 0.644711
O O8 0.871686 0.500000 0.151277
O O9 0.746818 0.322458 0.183629
O O10 0.864483 0.267585 0.075631
O O11 0.631405 0.500000 0.127406
O O12 0.592275 0.700894 0.228551
O O13 0.632828 0.757494 0.080177
O O14 0.435167 0.500000 0.666023
O O15 0.635686 0.000000 0.014009
O O16 0.500000 0.161717 0.000000
#
# Coordination Sequence:
#
# PCOD8091094 Si02
#       6
#     8   8   8   8   8   8
#     4  10  22  41  63  86 116 150 185 228 283 343
#     4  10  20  38  63  86 111 151 195 230 274 338
#     4   9  17  33  55  76 106 148 189 229 276 328
#     4  10  19  34  55  76 105 148 190 228 276 332
#     4  10  21  38  59  85 116 150 187 232 285 335
#     4  10  20  32  48  76 110 143 185 235 279 322
#
# _framework density 19.105464999999999
#
# number of rings (size 3 to 8) (size 9 to 14) (size 15 to 20)
#    0.000    2.167    1.667    1.500    0.000    4.333 
#    0.000    5.000    0.000    0.000    0.000    0.000 
#    0.000    0.000    0.000    0.000    0.000    0.000 
#
# Total GULP energy -297563.719804 kJ/mol
# GULP energy per Si atom -12398.488325 kJ/mol
# Density = 1.906198 g / cm^3
# Si number density = 19.105465 Si / 1000 Ang^3
#
#
#
# Elastic Constant Matrix: (Units=GPa)
#
#
# Indices 1 2 3 4 5 6 
#
# 1 124.3526 46.6133 56.7531 0.0000 -13.0222 0.0000
# 2 46.6133 52.6399 53.3422 0.0000 -4.5365 0.0000
# 3 56.7531 53.3422 124.3602 0.0000 -7.1340 0.0000
# 4 0.0000 0.0000 0.0000 168.1837 0.0000 -702.8379
# 5 -13.0222 -4.5365 -7.1340 0.0000 19.7415 0.0000
# 6 0.0000 0.0000 0.0000 -702.8379 0.0000 3614.2164
#
#
#
# Elastic Compliance Matrix: (Units=1/GPa)
#
#
# Indices 1 2 3 4 5 6 
#
# 1 0.012838 -0.009321 -0.001530 0.000000 0.005774 0.000000
# 2 -0.009321 0.040497 -0.013210 0.000000 -0.001616 0.000000
# 3 -0.001530 -0.013210 0.014473 0.000000 0.001186 0.000000
# 4 0.000000 0.000000 0.000000 0.031740 0.000000 0.006172
# 5 0.005774 -0.001616 0.001186 0.000000 0.054520 0.000000
# 6 0.000000 0.000000 0.000000 0.006172 0.000000 0.001477
#
#
# Mechanical properties :
#
#
# Convention : Reuss Voigt Hill
#
# Bulk Modulus (GPa) = 50.79065 68.30776 59.54920
# Shear Modulus (GPa) = 23.78358 770.07127 396.92742
#
# Velocity S-wave (km/s) = 3.53208 20.09822 14.42938
# Velocity P-wave (km/s) = 6.57847 23.96696 17.57400
#
# Compressibility (1/GPa) = 0.01968866
#
# Stress axis : x y z
#
# Youngs Moduli (GPa) = 77.89194 24.69299 69.09262
#
# Poissons Ratio (x) = 0.23016 0.10569
# Poissons Ratio (y) = 0.72601 0.91269
# Poissons Ratio (z) = 0.11915 0.32619
#
# Static dielectric constant tensor:
#      x y z
#    x 3.159830 0.000000 -0.380590 
#    y 0.000000 3.283390 0.000000 
#    z -0.380590 0.000000 3.327000 
# 
# 
# High freq. dielectric constant tensor:
#      x y z
#    x 1.753450 0.000000 -0.005460 
#    y 0.000000 1.713840 0.000000 
#    z -0.005460 0.000000 1.749700 
# 
# From -- ./inp_files/212626.got.cif
#   From: 2010.06.25/outbox.cif.g09.slc.cpg/sg12_107_cif.got.tgz:212626.got - 2010.06.28 00:19:55.
