data_PCOD8091945
_publ_section_title
;
Structure prediction by ZEFSAII (Michael W. Deem and Ramdas Pophale) SiO2 
 PCOD8091945
Probable space group: C 2/M
;
_chemical_formula_sum "Si O2"
_cell_formula_units_Z 48
_cell_length_a 13.983929
_cell_length_b 30.110265
_cell_length_c 8.881351
_cell_angle_alpha 90.000000
_cell_angle_beta 137.279755
_cell_angle_gamma 90.000000
_cell_volume 2537.003223
_symmetry_space_group_name_H-M "C 2/M"
_symmetry_group_IT_number 12
_symmetry_cell_setting 'monoclinic'
loop_
_space_group_symop_operation_xyz
x,y,z
-x,y,-z
-x,-y,-z
x,-y,z
1/2+x,1/2+y,z
1/2-x,1/2+y,-z
1/2-x,1/2-y,-z
1/2+x,1/2-y,z
loop_
_atom_site_type_symbol
_atom_site_label
_atom_site_fract_x
_atom_site_fract_y
_atom_site_fract_z
Si Si1 0.631638 0.451460 0.239368
Si Si2 0.344033 0.710502 0.664343
Si Si3 0.310156 0.620245 0.125910
Si Si4 0.638583 0.950711 0.742556
Si Si5 0.166822 0.787826 0.993517
Si Si6 0.857908 0.120025 0.522256
O O1 0.583435 0.500000 0.245706
O O2 0.752463 0.457955 0.261771
O O3 0.695741 0.422678 0.449134
O O4 0.500000 0.427988 0.000000
O O5 0.250000 0.750000 0.500000
O O6 0.312507 0.709301 0.804487
O O7 0.303104 0.663160 0.547652
O O8 0.500500 0.720254 0.782928
O O9 0.286209 0.622060 0.276955
O O10 0.474365 0.612107 0.285212
O O11 0.204534 0.582590 0.942176
O O12 0.272611 0.667151 0.008031
O O13 0.500000 0.930803 0.500000
O O14 0.607707 0.000000 0.778688
O O15 0.250000 0.750000 0.000000
#
# Coordination Sequence:
#
# PCOD8091945 Si02
#       6
#     8   8   8   8   8   8
#     4  10  19  34  58  85 112 145 190 235 280 340
#     4  10  21  37  59  84 113 150 188 235 288 340
#     4  10  20  36  57  86 115 149 190 236 289 340
#     4  10  21  38  58  82 116 154 191 234 288 346
#     4  10  21  38  59  82 115 150 190 235 283 341
#     4  10  20  34  60  86 115 147 188 242 287 335
#
# _framework density 18.919958999999999
#
# number of rings (size 3 to 8) (size 9 to 14) (size 15 to 20)
#    0.000    2.000    1.667    2.000    2.333    2.667 
#    6.000    2.500    0.000    3.000    0.000    0.000 
#    0.000    0.000    0.000    0.000    0.000    0.000 
#
# Total GULP energy -297380.884627 kJ/mol
# GULP energy per Si atom -12390.870193 kJ/mol
# Density = 1.887690 g / cm^3
# Si number density = 18.919959 Si / 1000 Ang^3
#
#
#
# Elastic Constant Matrix: (Units=GPa)
#
#
# Indices 1 2 3 4 5 6 
#
# 1 77.3379 51.7821 44.1920 0.0000 -20.6549 0.0000
# 2 51.7821 147.6368 76.4382 0.0000 -19.4912 0.0000
# 3 44.1920 76.4382 106.9931 0.0000 -6.1937 0.0000
# 4 0.0000 0.0000 0.0000 42.5983 0.0000 -6.3043
# 5 -20.6549 -19.4912 -6.1937 0.0000 26.9611 0.0000
# 6 0.0000 0.0000 0.0000 -6.3043 0.0000 35.1929
#
#
#
# Elastic Compliance Matrix: (Units=1/GPa)
#
#
# Indices 1 2 3 4 5 6 
#
# 1 0.021930 -0.002585 -0.006432 0.000000 0.013454 0.000000
# 2 -0.002585 0.012140 -0.007309 0.000000 0.005117 0.000000
# 3 -0.006432 -0.007309 0.016858 0.000000 -0.006339 0.000000
# 4 0.000000 0.000000 0.000000 0.024114 0.000000 0.004320
# 5 0.013454 0.005117 -0.006339 0.000000 0.049640 0.000000
# 6 0.000000 0.000000 0.000000 0.004320 0.000000 0.029189
#
#
# Mechanical properties :
#
#
# Convention : Reuss Voigt Hill
#
# Bulk Modulus (GPa) = 54.71985 75.19916 64.95950
# Shear Modulus (GPa) = 25.95861 31.58751 28.77306
#
# Velocity S-wave (km/s) = 3.70810 4.09043 3.90395
# Velocity P-wave (km/s) = 6.87880 7.88296 7.39794
#
# Compressibility (1/GPa) = 0.01827490
#
# Stress axis : x y z
#
# Youngs Moduli (GPa) = 45.60026 82.37351 59.32007
#
# Poissons Ratio (x) = 0.21297 0.38154
# Poissons Ratio (y) = 0.11789 0.43357
# Poissons Ratio (z) = 0.29330 0.60206
#
# Static dielectric constant tensor:
#      x y z
#    x 3.412100 0.000000 -0.129800 
#    y 0.000000 3.599080 0.000000 
#    z -0.129800 0.000000 3.341400 
# 
# 
# High freq. dielectric constant tensor:
#      x y z
#    x 1.728510 0.000000 -0.010310 
#    y 0.000000 1.745720 0.000000 
#    z -0.010310 0.000000 1.725840 
# 
# From -- ./inp_files/68380.got.cif
#   From: 2010.06.25/outbox.cif.g09.slc.cpg/sg12_35_cif.got.tgz:68380.got - 2010.06.28 00:19:55.
