data_PCOD8091497
_publ_section_title
;
Structure prediction by ZEFSAII (Michael W. Deem and Ramdas Pophale) SiO2 
 PCOD8091497
Probable space group: C 2/M
;
_chemical_formula_sum "Si O2"
_cell_formula_units_Z 40
_cell_length_a 26.511901
_cell_length_b 10.300638
_cell_length_c 19.033575
_cell_angle_alpha 90.000000
_cell_angle_beta 157.874375
_cell_angle_gamma 90.000000
_cell_volume 1957.718282
_symmetry_space_group_name_H-M "C 2/M"
_symmetry_group_IT_number 12
_symmetry_cell_setting 'monoclinic'
loop_
_space_group_symop_operation_xyz
x,y,z
-x,y,-z
-x,-y,-z
x,-y,z
1/2+x,1/2+y,z
1/2-x,1/2+y,-z
1/2-x,1/2-y,-z
1/2+x,1/2-y,z
loop_
_atom_site_type_symbol
_atom_site_label
_atom_site_fract_x
_atom_site_fract_y
_atom_site_fract_z
Si Si1 0.670654 0.000000 0.002603
Si Si2 0.040773 0.500000 0.682515
Si Si3 0.821075 0.000000 0.981630
Si Si4 0.972536 0.749572 0.146729
Si Si5 0.379535 0.850773 0.790689
Si Si6 0.943380 0.000000 0.293717
Si Si7 0.597984 0.744584 0.461986
O O1 0.830692 0.000000 0.208084
O O2 0.612268 0.000000 0.849439
O O3 0.623651 0.874282 0.984008
O O4 0.157801 0.500000 0.773827
O O5 0.944892 0.374924 0.552449
O O6 0.877926 0.125258 0.014111
O O7 0.874765 0.000000 0.129545
O O8 0.083359 0.735182 0.229335
O O9 0.050032 0.754764 0.319878
O O10 0.256751 0.776155 0.668738
O O11 0.340907 0.000000 0.720104
O O12 0.500000 0.851165 0.000000
O O13 0.031630 0.872880 0.418686
#
# Coordination Sequence:
#
# PCOD8091497 Si02
#       7
#     4   4   4   8   8   4   8
#     4   9  16  29  53  82 112 143 178 221 268 319
#     4   9  18  31  53  86 114 137 170 223 280 323
#     4   9  18  31  53  86 114 137 170 223 280 323
#     4  10  19  34  56  83 112 142 181 224 268 322
#     4  11  23  39  57  77 108 147 190 232 266 311
#     4   9  16  29  53  82 112 143 178 221 268 319
#     4  10  19  34  56  83 112 142 181 224 268 322
#
# _framework density 20.431950000000001
#
# number of rings (size 3 to 8) (size 9 to 14) (size 15 to 20)
#    0.000    2.200    2.000    1.800    0.000    5.600 
#    0.000    2.000    0.000    7.200    0.000    0.000 
#    0.000    0.000    0.000    0.000    0.000    0.000 
#
# Total GULP energy -248007.490185 kJ/mol
# GULP energy per Si atom -12400.374509 kJ/mol
# Density = 2.038545 g / cm^3
# Si number density = 20.431950 Si / 1000 Ang^3
#
#
#
# Elastic Constant Matrix: (Units=GPa)
#
#
# Indices 1 2 3 4 5 6 
#
# 1 38.8996 36.1913 37.3544 0.0000 34.1078 0.0000
# 2 36.1913 184.8666 56.7997 0.0000 36.9522 0.0000
# 3 37.3544 56.7997 88.8412 0.0000 47.0408 0.0000
# 4 0.0000 0.0000 0.0000 23.7936 0.0000 16.9144
# 5 34.1078 36.9522 47.0408 0.0000 43.1562 0.0000
# 6 0.0000 0.0000 0.0000 16.9144 0.0000 29.0959
#
#
#
# Elastic Compliance Matrix: (Units=1/GPa)
#
#
# Indices 1 2 3 4 5 6 
#
# 1 0.086094 -0.004075 0.001388 0.000000 -0.066067 0.000000
# 2 -0.004075 0.007044 -0.003079 0.000000 0.000545 0.000000
# 3 0.001388 -0.003079 0.027967 0.000000 -0.028946 0.000000
# 4 0.000000 0.000000 0.000000 0.071630 0.000000 -0.041641
# 5 -0.066067 0.000545 -0.028946 0.000000 0.106471 0.000000
# 6 0.000000 0.000000 0.000000 -0.041641 0.000000 0.058576
#
#
# Mechanical properties :
#
#
# Convention : Reuss Voigt Hill
#
# Bulk Modulus (GPa) = 9.12630 63.69980 36.41305
# Shear Modulus (GPa) = 12.32016 31.35991 21.84004
#
# Velocity S-wave (km/s) = 2.45824 3.92196 3.27297
# Velocity P-wave (km/s) = 3.54029 7.19398 5.66952
#
# Compressibility (1/GPa) = 0.10957344
#
# Stress axis : x y z
#
# Youngs Moduli (GPa) = 11.61517 141.96323 35.75602
#
# Poissons Ratio (x) = 0.57855 -0.04963
# Poissons Ratio (y) = 0.04734 0.11009
# Poissons Ratio (z) = -0.01612 0.43708
#
# Static dielectric constant tensor:
#      x y z
#    x 3.533110 0.000000 0.410710 
#    y 0.000000 3.939290 0.000000 
#    z 0.410710 0.000000 3.416090 
# 
# 
# High freq. dielectric constant tensor:
#      x y z
#    x 1.783510 0.000000 0.035070 
#    y 0.000000 1.808280 0.000000 
#    z 0.035070 0.000000 1.777990 
# 
# From -- ./inp_files/83619.got.cif
#   From: 2010.06.25/outbox.cif.g09.slc.cpg/sg12_42_cif.got.tgz:83619.got - 2010.06.28 00:19:55.
