data_PCOD8091393
_publ_section_title
;
Structure prediction by ZEFSAII (Michael W. Deem and Ramdas Pophale) SiO2 
 PCOD8091393
Probable space group: C 2/M
;
_chemical_formula_sum "Si O2"
_cell_formula_units_Z 48
_cell_length_a 28.601902
_cell_length_b 8.990297
_cell_length_c 18.745449
_cell_angle_alpha 90.000000
_cell_angle_beta 148.623499
_cell_angle_gamma 90.000000
_cell_volume 2509.681515
_symmetry_space_group_name_H-M "C 2/M"
_symmetry_group_IT_number 12
_symmetry_cell_setting 'monoclinic'
loop_
_space_group_symop_operation_xyz
x,y,z
-x,y,-z
-x,-y,-z
x,-y,z
1/2+x,1/2+y,z
1/2-x,1/2+y,-z
1/2-x,1/2-y,-z
1/2+x,1/2-y,z
loop_
_atom_site_type_symbol
_atom_site_label
_atom_site_fract_x
_atom_site_fract_y
_atom_site_fract_z
Si Si1 0.155452 0.674325 0.384851
Si Si2 0.253913 0.676485 0.266010
Si Si3 0.908989 0.675765 0.849540
Si Si4 0.587621 0.173880 0.449222
Si Si5 0.883790 0.328511 0.177970
Si Si6 0.227901 0.172668 0.082995
O O1 0.172460 0.500000 0.406966
O O2 0.250000 0.750000 0.500000
O O3 0.094467 0.721374 0.238012
O O4 0.106884 0.727012 0.393529
O O5 0.259086 0.500000 0.271572
O O6 0.178694 0.736455 0.223302
O O7 0.350565 0.738735 0.414768
O O8 0.227248 0.733215 0.153750
O O9 0.911453 0.500000 0.862802
O O10 0.000000 0.747145 0.000000
O O11 0.484643 0.213166 0.332309
O O12 0.607327 0.000000 0.484435
O O13 0.877530 0.500000 0.145081
O O14 0.821933 0.297689 0.165709
O O15 0.853993 0.227090 0.072972
O O16 0.214397 0.000000 0.083204
#
# Coordination Sequence:
#
# PCOD8091393 Si02
#       6
#     8   8   8   8   8   8
#     4  10  19  34  56  80 109 143 179 222 271 325
#     4  11  22  36  57  82 113 148 186 228 273 329
#     4   9  19  34  54  80 108 142 184 226 268 319
#     4  10  21  36  58  83 111 146 187 230 272 325
#     4   9  20  39  61  84 108 144 186 224 275 333
#     4  10  21  38  59  83 114 143 179 231 279 327
#
# _framework density 19.125933
#
# number of rings (size 3 to 8) (size 9 to 14) (size 15 to 20)
#    0.000    2.167    1.667    1.000    2.333    2.000 
#    0.000    3.333    0.000    2.500    0.000    0.000 
#    0.000    0.000    0.000    0.000    0.000    0.000 
#
# Total GULP energy -297652.835394 kJ/mol
# GULP energy per Si atom -12402.201475 kJ/mol
# Density = 1.908240 g / cm^3
# Si number density = 19.125933 Si / 1000 Ang^3
#
#
#
# Elastic Constant Matrix: (Units=GPa)
#
#
# Indices 1 2 3 4 5 6 
#
# 1 52.2032 19.7867 15.4153 0.0000 -1.8420 0.0000
# 2 19.7867 46.1515 26.0849 0.0000 -0.0586 0.0000
# 3 15.4153 26.0849 99.6763 0.0000 7.2153 0.0000
# 4 0.0000 0.0000 0.0000 33.7068 0.0000 -3.1156
# 5 -1.8420 -0.0586 7.2153 0.0000 34.6419 0.0000
# 6 0.0000 0.0000 0.0000 -3.1156 0.0000 26.1717
#
#
#
# Elastic Compliance Matrix: (Units=1/GPa)
#
#
# Indices 1 2 3 4 5 6 
#
# 1 0.023058 -0.009163 -0.001275 0.000000 0.001476 0.000000
# 2 -0.009163 0.029142 -0.006272 0.000000 0.000868 0.000000
# 3 -0.001275 -0.006272 0.012059 0.000000 -0.002590 0.000000
# 4 0.000000 0.000000 0.000000 0.029998 0.000000 0.003571
# 5 0.001476 0.000868 -0.002590 0.000000 0.029486 0.000000
# 6 0.000000 0.000000 0.000000 0.003571 0.000000 0.038634
#
#
# Mechanical properties :
#
#
# Convention : Reuss Voigt Hill
#
# Bulk Modulus (GPa) = 32.42733 35.62275 34.02504
# Shear Modulus (GPa) = 24.26283 28.02035 26.14159
#
# Velocity S-wave (km/s) = 3.56558 3.83174 3.70106
# Velocity P-wave (km/s) = 5.82603 6.18402 6.00769
#
# Compressibility (1/GPa) = 0.03083818
#
# Stress axis : x y z
#
# Youngs Moduli (GPa) = 43.36966 34.31419 82.92885
#
# Poissons Ratio (x) = 0.31443 0.10572
# Poissons Ratio (y) = 0.39740 0.52015
# Poissons Ratio (z) = 0.05529 0.21523
#
# Static dielectric constant tensor:
#      x y z
#    x 3.690220 0.000000 -0.055130 
#    y 0.000000 3.325350 0.000000 
#    z -0.055130 0.000000 3.579400 
# 
# 
# High freq. dielectric constant tensor:
#      x y z
#    x 1.747790 0.000000 -0.001400 
#    y 0.000000 1.725040 0.000000 
#    z -0.001400 0.000000 1.753190 
# 
# From -- ./inp_files/244723.got.cif
#   From: 2010.06.25/outbox.cif.g09.slc.cpg/sg12_123_cif.got.tgz:244723.got - 2010.06.28 00:19:55.
