data_PCOD8091778
_publ_section_title
;
Structure prediction by ZEFSAII (Michael W. Deem and Ramdas Pophale) SiO2 
 PCOD8091778
Probable space group: C 2/M
;
_chemical_formula_sum "Si O2"
_cell_formula_units_Z 64
_cell_length_a 12.651787
_cell_length_b 18.766654
_cell_length_c 13.888526
_cell_angle_alpha 90.000000
_cell_angle_beta 93.661009
_cell_angle_gamma 90.000000
_cell_volume 3290.847110
_symmetry_space_group_name_H-M "C 2/M"
_symmetry_group_IT_number 12
_symmetry_cell_setting 'monoclinic'
loop_
_space_group_symop_operation_xyz
x,y,z
-x,y,-z
-x,-y,-z
x,-y,z
1/2+x,1/2+y,z
1/2-x,1/2+y,-z
1/2-x,1/2-y,-z
1/2+x,1/2-y,z
loop_
_atom_site_type_symbol
_atom_site_label
_atom_site_fract_x
_atom_site_fract_y
_atom_site_fract_z
Si Si1 0.720522 0.154025 0.908456
Si Si2 0.105584 0.079339 0.566548
Si Si3 0.777423 0.084081 0.606819
Si Si4 0.037632 0.416399 0.607630
Si Si5 0.105401 0.916698 0.198728
Si Si6 0.014822 0.677073 0.780725
Si Si7 0.411569 0.664620 0.241291
Si Si8 0.203601 0.312917 0.120534
O O1 0.808516 0.097296 0.879372
O O2 0.609875 0.140860 0.846786
O O3 0.769288 0.231027 0.893224
O O4 0.699959 0.143752 0.020434
O O5 0.192134 0.112850 0.497633
O O6 0.089652 0.132169 0.653003
O O7 0.000000 0.072223 0.500000
O O8 0.138379 0.000000 0.605673
O O9 0.659175 0.105930 0.624566
O O10 0.850779 0.113922 0.696716
O O11 0.791767 0.000000 0.604163
O O12 0.016415 0.500000 0.623377
O O13 0.000000 0.392983 0.500000
O O14 0.980257 0.371410 0.687581
O O15 0.994659 0.875765 0.175644
O O16 0.081367 0.000000 0.201503
O O17 0.911411 0.682352 0.839752
O O18 0.054135 0.753685 0.747264
O O19 0.294701 0.653097 0.191866
#
# Coordination Sequence:
#
# PCOD8091778 Si02
#       8
#     8   8   8   8   8   8   8   8
#     4  10  21  41  64  86 113 159 208 245 293 369
#     4  10  19  34  57  84 118 162 197 231 287 360
#     4   9  18  34  58  82 110 156 202 235 285 352
#     4  10  22  39  58  84 116 157 201 244 297 354
#     4  11  20  38  65  90 122 159 204 252 295 359
#     4  11  22  40  63  88 119 158 200 250 300 360
#     4  11  23  37  58  92 125 152 199 253 303 353
#     4  10  23  40  61  87 120 157 198 249 310 357
#
# _framework density 19.447880999999999
#
# number of rings (size 3 to 8) (size 9 to 14) (size 15 to 20)
#    0.000    1.750    3.750    0.750    1.750    1.000 
#    0.000    3.750    0.000    1.500    0.000    0.000 
#    0.000    0.000    0.000    0.000    0.000    0.000 
#
# Total GULP energy -396776.749772 kJ/mol
# GULP energy per Si atom -12399.273430 kJ/mol
# Density = 1.940362 g / cm^3
# Si number density = 19.447881 Si / 1000 Ang^3
#
#
#
# Elastic Constant Matrix: (Units=GPa)
#
#
# Indices 1 2 3 4 5 6 
#
# 1 75.3816 11.3937 33.9435 0.0000 -8.5223 0.0000
# 2 11.3937 50.2031 35.3933 0.0000 3.9916 0.0000
# 3 33.9435 35.3933 120.7979 0.0000 -12.3229 0.0000
# 4 0.0000 0.0000 0.0000 21.8272 0.0000 -9.5445
# 5 -8.5223 3.9916 -12.3229 0.0000 32.7671 0.0000
# 6 0.0000 0.0000 0.0000 -9.5445 0.0000 24.7871
#
#
#
# Elastic Compliance Matrix: (Units=1/GPa)
#
#
# Indices 1 2 3 4 5 6 
#
# 1 0.015422 -0.001083 -0.003737 0.000000 0.002738 0.000000
# 2 -0.001083 0.026393 -0.008096 0.000000 -0.006541 0.000000
# 3 -0.003737 -0.008096 0.012169 0.000000 0.004591 0.000000
# 4 0.000000 0.000000 0.000000 0.055090 0.000000 0.021213
# 5 0.002738 -0.006541 0.004591 0.000000 0.033754 0.000000
# 6 0.000000 0.000000 0.000000 0.021213 0.000000 0.048512
#
#
# Mechanical properties :
#
#
# Convention : Reuss Voigt Hill
#
# Bulk Modulus (GPa) = 35.52233 45.31593 40.41913
# Shear Modulus (GPa) = 22.06975 26.91975 24.49475
#
# Velocity S-wave (km/s) = 3.37236 3.72452 3.55280
# Velocity P-wave (km/s) = 5.78522 6.46899 6.13664
#
# Compressibility (1/GPa) = 0.02815130
#
# Stress axis : x y z
#
# Youngs Moduli (GPa) = 64.84375 37.88931 82.17833
#
# Poissons Ratio (x) = 0.04104 0.30708
# Poissons Ratio (y) = 0.07024 0.66531
# Poissons Ratio (z) = 0.24230 0.30675
#
# Static dielectric constant tensor:
#      x y z
#    x 3.816780 0.000000 -0.150530 
#    y 0.000000 3.332540 0.000000 
#    z -0.150530 0.000000 3.760000 
# 
# 
# High freq. dielectric constant tensor:
#      x y z
#    x 1.768500 0.000000 -0.008420 
#    y 0.000000 1.732050 0.000000 
#    z -0.008420 0.000000 1.760490 
# 
# From -- ./inp_files/206685.got.cif
#   From: 2010.06.25/outbox.cif.g09.slc.cpg/sg12_104_cif.got.tgz:206685.got - 2010.06.28 00:19:55.
