data_PCOD8091290
_publ_section_title
;
Structure prediction by ZEFSAII (Michael W. Deem and Ramdas Pophale) SiO2 
 PCOD8091290
Probable space group: C 2/M
;
_chemical_formula_sum "Si O2"
_cell_formula_units_Z 44
_cell_length_a 11.279955
_cell_length_b 18.386286
_cell_length_c 11.054454
_cell_angle_alpha 90.000000
_cell_angle_beta 76.679951
_cell_angle_gamma 90.000000
_cell_volume 2230.978553
_symmetry_space_group_name_H-M "C 2/M"
_symmetry_group_IT_number 12
_symmetry_cell_setting 'monoclinic'
loop_
_space_group_symop_operation_xyz
x,y,z
-x,y,-z
-x,-y,-z
x,-y,z
1/2+x,1/2+y,z
1/2-x,1/2+y,-z
1/2-x,1/2-y,-z
1/2+x,1/2-y,z
loop_
_atom_site_type_symbol
_atom_site_label
_atom_site_fract_x
_atom_site_fract_y
_atom_site_fract_z
Si Si1 0.606483 0.782729 0.110282
Si Si2 0.500000 0.845189 0.500000
Si Si3 0.276364 0.865273 0.698154
Si Si4 0.767922 0.652039 0.123947
Si Si5 0.125267 0.000000 0.814061
Si Si6 0.870268 0.271884 0.310055
Si Si7 0.656234 0.500000 0.091043
O O1 0.677663 0.835074 0.185767
O O2 0.667613 0.703478 0.084754
O O3 0.472765 0.760872 0.184357
O O4 0.609797 0.827454 0.982297
O O5 0.395234 0.891792 0.592464
O O6 0.428961 0.795060 0.421733
O O7 0.204178 0.801533 0.644969
O O8 0.183542 0.930604 0.736273
O O9 0.783122 0.668324 0.264603
O O10 0.729919 0.568765 0.122755
O O11 0.980830 0.000000 0.824878
O O12 0.156689 0.000000 0.947031
#
# Coordination Sequence:
#
# PCOD8091290 Si02
#       7
#     8   4   8   8   4   8   4
#     4   9  18  33  55  84 115 149 185 229 284 340
#     4  10  22  39  62  81 108 152 202 240 278 323
#     4  10  20  37  58  85 115 150 191 233 279 337
#     4  10  19  34  55  85 118 148 186 232 282 341
#     4  11  22  37  58  85 120 152 177 228 292 349
#     4  10  20  36  60  84 112 148 194 240 279 325
#     4  11  22  36  57  87 121 150 182 224 290 359
#
# _framework density 19.722287000000001
#
# number of rings (size 3 to 8) (size 9 to 14) (size 15 to 20)
#    0.000    2.000    1.818    2.182    0.000    0.364 
#    0.000    6.364    0.000    1.636    0.000    0.000 
#    0.000    0.000    0.000    0.000    0.000    0.000 
#
# Total GULP energy -272628.660903 kJ/mol
# GULP energy per Si atom -12392.211859 kJ/mol
# Density = 1.967740 g / cm^3
# Si number density = 19.722287 Si / 1000 Ang^3
#
#
#
# Elastic Constant Matrix: (Units=GPa)
#
#
# Indices 1 2 3 4 5 6 
#
# 1 76.0898 40.5611 35.3369 0.0000 -4.7665 0.0000
# 2 40.5611 123.2160 38.3384 0.0000 -6.0754 0.0000
# 3 35.3369 38.3384 91.7083 0.0000 -4.7674 0.0000
# 4 0.0000 0.0000 0.0000 15.3399 0.0000 -2.4042
# 5 -4.7665 -6.0754 -4.7674 0.0000 48.2833 0.0000
# 6 0.0000 0.0000 0.0000 -2.4042 0.0000 -4.1226
#
#
#
# Elastic Compliance Matrix: (Units=1/GPa)
#
#
# Indices 1 2 3 4 5 6 
#
# 1 0.017797 -0.004254 -0.005041 0.000000 0.000724 0.000000
# 2 -0.004254 0.010377 -0.002666 0.000000 0.000622 0.000000
# 3 -0.005041 -0.002666 0.013990 0.000000 0.000548 0.000000
# 4 0.000000 0.000000 0.000000 0.059730 0.000000 -0.034833
# 5 0.000724 0.000622 0.000548 0.000000 0.020915 0.000000
# 6 0.000000 0.000000 0.000000 -0.034833 0.000000 -0.222252
#
#
# Mechanical properties :
#
#
# Convention : Reuss Voigt Hill
#
# Bulk Modulus (GPa) = 54.82626 57.72076 56.27351
# Shear Modulus (GPa) = -72.00416 23.68530 -24.15943
#
# Velocity S-wave (km/s) = -6.04883 3.46922 -3.50377
# Velocity P-wave (km/s) = 4.57437 6.73629 3.49662
#
# Compressibility (1/GPa) = 0.01823943
#
# Stress axis : x y z
#
# Youngs Moduli (GPa) = 56.19012 96.37105 71.48062
#
# Poissons Ratio (x) = 0.40998 0.36036
# Poissons Ratio (y) = 0.23904 0.19059
# Poissons Ratio (z) = 0.28327 0.25696
#
# Static dielectric constant tensor:
#      x y z
#    x 3.756330 0.000000 -0.229860 
#    y 0.000000 3.285010 0.000000 
#    z -0.229860 0.000000 3.719780 
# 
# 
# High freq. dielectric constant tensor:
#      x y z
#    x 1.782240 0.000000 -0.010040 
#    y 0.000000 1.739930 0.000000 
#    z -0.010040 0.000000 1.772010 
# 
# From -- ./inp_files/130998.got.cif
#   From: 2010.06.25/outbox.cif.g09.slc.cpg/sg12_66_cif.got.tgz:130998.got - 2010.06.28 00:19:55.
