data_PCOD8091235
_publ_section_title
;
Structure prediction by ZEFSAII (Michael W. Deem and Ramdas Pophale) SiO2 
 PCOD8091235
Probable space group: C 2/M
;
_chemical_formula_sum "Si O2"
_cell_formula_units_Z 64
_cell_length_a 16.277170
_cell_length_b 14.639336
_cell_length_c 26.676444
_cell_angle_alpha 90.000000
_cell_angle_beta 33.029418
_cell_angle_gamma 90.000000
_cell_volume 3464.815815
_symmetry_space_group_name_H-M "C 2/M"
_symmetry_group_IT_number 12
_symmetry_cell_setting 'monoclinic'
loop_
_space_group_symop_operation_xyz
x,y,z
-x,y,-z
-x,-y,-z
x,-y,z
1/2+x,1/2+y,z
1/2-x,1/2+y,-z
1/2-x,1/2-y,-z
1/2+x,1/2-y,z
loop_
_atom_site_type_symbol
_atom_site_label
_atom_site_fract_x
_atom_site_fract_y
_atom_site_fract_z
Si Si1 0.833061 0.279998 0.805062
Si Si2 0.712406 0.786145 0.964970
Si Si3 0.892659 0.105500 0.450745
Si Si4 0.488401 0.398177 0.825338
Si Si5 0.862302 0.606902 0.347904
Si Si6 0.721617 0.607220 0.312236
Si Si7 0.501024 0.602216 0.290161
Si Si8 0.605088 0.751524 0.842363
O O1 0.764407 0.286823 0.896047
O O2 0.711169 0.306988 0.825501
O O3 0.980028 0.341994 0.727391
O O4 0.865375 0.174678 0.774243
O O5 0.808680 0.879530 0.908411
O O6 0.750000 0.750000 0.000000
O O7 0.531910 0.795621 0.055234
O O8 0.746642 0.148198 0.552860
O O9 0.881872 0.122247 0.396089
O O10 0.049675 0.142728 0.393636
O O11 0.886235 0.000000 0.468361
O O12 0.508296 0.500000 0.837322
O O13 0.572533 0.390273 0.727896
O O14 0.556362 0.323084 0.826677
O O15 0.896957 0.500000 0.336207
O O16 0.780190 0.628496 0.337784
O O17 0.735103 0.500000 0.292547
O O18 0.821262 0.662629 0.222224
O O19 0.567754 0.500000 0.264136
#
# Coordination Sequence:
#
# PCOD8091235 Si02
#       8
#     8   8   8   8   8   8   8   8
#     4  11  21  35  54  80 109 142 178 218 269 323
#     4   9  19  36  55  75 102 134 178 222 264 308
#     4   9  17  32  55  81 107 137 179 228 275 316
#     4   9  19  35  56  78 106 144 180 218 266 319
#     4  10  21  35  54  79 109 145 180 221 268 321
#     4  10  19  34  55  81 111 141 178 224 274 318
#     4   9  17  33  54  76 102 135 177 222 267 311
#     4  11  21  35  55  80 110 144 175 221 269 323
#
# _framework density 18.471399999999999
#
# number of rings (size 3 to 8) (size 9 to 14) (size 15 to 20)
#    0.000    2.250    1.250    3.000    0.000    3.000 
#    0.000    3.750    0.000    7.500    0.000    3.500 
#    0.000    0.000    0.000    0.000    0.000    0.000 
#
# Total GULP energy -396463.468804 kJ/mol
# GULP energy per Si atom -12389.483400 kJ/mol
# Density = 1.842936 g / cm^3
# Si number density = 18.471400 Si / 1000 Ang^3
#
#
#
# Elastic Constant Matrix: (Units=GPa)
#
#
# Indices 1 2 3 4 5 6 
#
# 1 113.8850 40.9773 70.1722 0.0001 10.4416 0.0000
# 2 40.9773 62.4763 42.0145 0.0002 -0.3121 0.0002
# 3 70.1722 42.0145 160.5457 0.0013 9.3745 0.0006
# 4 0.0001 0.0002 0.0013 24.1364 -0.0004 1.8253
# 5 10.4416 -0.3121 9.3745 -0.0004 29.3594 -0.0001
# 6 0.0000 0.0002 0.0006 1.8253 -0.0001 20.6105
#
#
#
# Elastic Compliance Matrix: (Units=1/GPa)
#
#
# Indices 1 2 3 4 5 6 
#
# 1 0.014028 -0.006360 -0.004251 0.000000 -0.003699 0.000000
# 2 -0.006360 0.022409 -0.003292 0.000000 0.003551 0.000000
# 3 -0.004251 -0.003292 0.009030 0.000000 -0.001407 0.000000
# 4 0.000000 0.000000 0.000000 0.041711 0.000001 -0.003694
# 5 -0.003699 0.003551 -0.001407 0.000001 0.035863 0.000000
# 6 0.000000 0.000000 0.000000 -0.003694 0.000000 0.048846
#
#
# Mechanical properties :
#
#
# Convention : Reuss Voigt Hill
#
# Bulk Modulus (GPa) = 56.62121 71.47057 64.04589
# Shear Modulus (GPa) = 24.32142 27.07080 25.69611
#
# Velocity S-wave (km/s) = 3.63258 3.83241 3.73383
# Velocity P-wave (km/s) = 6.95084 7.63935 7.30321
#
# Compressibility (1/GPa) = 0.01766123
#
# Stress axis : x y z
#
# Youngs Moduli (GPa) = 71.28731 44.62446 110.73831
#
# Poissons Ratio (x) = 0.28383 0.47073
# Poissons Ratio (y) = 0.45342 0.36452
# Poissons Ratio (z) = 0.30303 0.14689
#
# Static dielectric constant tensor:
#      x y z
#    x 3.476740 0.000000 0.177900 
#    y 0.000000 3.218390 0.000000 
#    z 0.177900 0.000000 3.811870 
# 
# 
# High freq. dielectric constant tensor:
#      x y z
#    x 1.720710 0.000000 0.021170 
#    y 0.000000 1.693840 0.000000 
#    z 0.021170 0.000000 1.719090 
# 
# From -- ./inp_files/379333.got.cif
#   From: 2010.06.25/outbox.cif.g09.slc.cpg/sg12_190_cif.got.tgz:379333.got - 2010.06.28 00:19:55.
