data_PCOD8091828
_publ_section_title
;
Structure prediction by ZEFSAII (Michael W. Deem and Ramdas Pophale) SiO2 
 PCOD8091828
Probable space group: C 2/M
;
_chemical_formula_sum "Si O2"
_cell_formula_units_Z 56
_cell_length_a 17.039662
_cell_length_b 13.851419
_cell_length_c 16.939528
_cell_angle_alpha 90.000000
_cell_angle_beta 42.578310
_cell_angle_gamma 90.000000
_cell_volume 2705.121550
_symmetry_space_group_name_H-M "C 2/M"
_symmetry_group_IT_number 12
_symmetry_cell_setting 'monoclinic'
loop_
_space_group_symop_operation_xyz
x,y,z
-x,y,-z
-x,-y,-z
x,-y,z
1/2+x,1/2+y,z
1/2-x,1/2+y,-z
1/2-x,1/2-y,-z
1/2+x,1/2-y,z
loop_
_atom_site_type_symbol
_atom_site_label
_atom_site_fract_x
_atom_site_fract_y
_atom_site_fract_z
Si Si1 0.739995 0.612399 0.679025
Si Si2 0.576474 0.235245 0.369250
Si Si3 0.757986 0.385615 0.199334
Si Si4 0.419420 0.110953 0.225644
Si Si5 0.507267 0.395884 0.085946
Si Si6 0.146283 0.719202 0.021279
Si Si7 0.607478 0.889376 0.579033
O O1 0.743517 0.500000 0.696777
O O2 0.822949 0.661992 0.680778
O O3 0.608966 0.650211 0.788541
O O4 0.781874 0.634293 0.558449
O O5 0.500000 0.266477 0.500000
O O6 0.633262 0.333001 0.293293
O O7 0.498669 0.182256 0.361358
O O8 0.737212 0.500000 0.213633
O O9 0.834626 0.352970 0.218530
O O10 0.822183 0.352917 0.072736
O O11 0.354300 0.124070 0.358108
O O12 0.451420 0.000000 0.185858
O O13 0.539034 0.169362 0.144692
O O14 0.533665 0.500000 0.107600
O O15 0.500000 0.415750 0.000000
O O16 0.612349 0.323645 0.015574
O O17 0.250000 0.750000 0.000000
O O18 0.566875 0.000000 0.593494
#
# Coordination Sequence:
#
# PCOD8091828 Si02
#       7
#     8   8   8   8   8   8   8
#     4   9  17  32  57  88 122 156 188 234 295 351
#     4  10  19  34  57  87 120 154 191 236 290 341
#     4  11  24  42  61  81 112 156 199 237 282 340
#     4  10  21  38  60  83 110 152 201 241 279 336
#     4  10  21  37  59  86 115 147 184 231 290 350
#     4  12  24  39  60  84 112 144 185 238 292 346
#     4   9  18  34  58  90 121 149 190 239 289 344
#
# _framework density 20.701473
#
# number of rings (size 3 to 8) (size 9 to 14) (size 15 to 20)
#    0.000    1.857    0.000    4.714    0.000    4.286 
#    0.000   11.429    0.000    1.714    0.000    0.000 
#    0.000    0.000    0.000    0.000    0.000    0.000 
#
# Total GULP energy -347119.601463 kJ/mol
# GULP energy per Si atom -12397.128624 kJ/mol
# Density = 2.065436 g / cm^3
# Si number density = 20.701473 Si / 1000 Ang^3
#
#
#
# Elastic Constant Matrix: (Units=GPa)
#
#
# Indices 1 2 3 4 5 6 
#
# 1 91.5484 40.9316 34.0739 0.0000 10.2561 0.0000
# 2 40.9316 90.9211 41.8252 0.0000 -6.4512 0.0000
# 3 34.0739 41.8252 100.9476 0.0000 5.6586 0.0000
# 4 0.0000 0.0000 0.0000 38.1475 0.0000 -4.7547
# 5 10.2561 -6.4512 5.6586 0.0000 31.3922 0.0000
# 6 0.0000 0.0000 0.0000 -4.7547 0.0000 -2.6779
#
#
#
# Elastic Compliance Matrix: (Units=1/GPa)
#
#
# Indices 1 2 3 4 5 6 
#
# 1 0.015190 -0.006233 -0.002217 0.000000 -0.005844 0.000000
# 2 -0.006233 0.016622 -0.005141 0.000000 0.006379 0.000000
# 3 -0.002217 -0.005141 0.012934 0.000000 -0.002663 0.000000
# 4 0.000000 0.000000 0.000000 0.021464 0.000000 -0.038110
# 5 -0.005844 0.006379 -0.002663 0.000000 0.035555 0.000000
# 6 0.000000 0.000000 0.000000 -0.038110 0.000000 -0.305763
#
#
# Mechanical properties :
#
#
# Convention : Reuss Voigt Hill
#
# Bulk Modulus (GPa) = 56.93446 57.45315 57.19381
# Shear Modulus (GPa) = -29.24631 24.47812 -2.38409
#
# Velocity S-wave (km/s) = -3.76275 3.44238 -1.07432
# Velocity P-wave (km/s) = 2.94696 6.60405 5.11361
#
# Compressibility (1/GPa) = 0.01756405
#
# Stress axis : x y z
#
# Youngs Moduli (GPa) = 65.83327 60.16145 77.31769
#
# Poissons Ratio (x) = 0.37499 0.17142
# Poissons Ratio (y) = 0.41034 0.39746
# Poissons Ratio (z) = 0.14596 0.30926
#
# Static dielectric constant tensor:
#      x y z
#    x 3.495750 0.000000 0.029660 
#    y 0.000000 3.370520 0.000000 
#    z 0.029660 0.000000 3.901000 
# 
# 
# High freq. dielectric constant tensor:
#      x y z
#    x 1.786830 0.000000 0.006000 
#    y 0.000000 1.824620 0.000000 
#    z 0.006000 0.000000 1.819520 
# 
# From -- ./inp_files/277819.got.cif
#   From: 2010.06.25/outbox.cif.g09.slc.cpg/sg12_139_cif.got.tgz:277819.got - 2010.06.28 00:19:55.
