data_PCOD8091278
_publ_section_title
;
Structure prediction by ZEFSAII (Michael W. Deem and Ramdas Pophale) SiO2 
 PCOD8091278
Probable space group: C 2/M
;
_chemical_formula_sum "Si O2"
_cell_formula_units_Z 56
_cell_length_a 24.843048
_cell_length_b 9.333250
_cell_length_c 14.538512
_cell_angle_alpha 90.000000
_cell_angle_beta 59.765659
_cell_angle_gamma 90.000000
_cell_volume 2912.446693
_symmetry_space_group_name_H-M "C 2/M"
_symmetry_group_IT_number 12
_symmetry_cell_setting 'monoclinic'
loop_
_space_group_symop_operation_xyz
x,y,z
-x,y,-z
-x,-y,-z
x,-y,z
1/2+x,1/2+y,z
1/2-x,1/2+y,-z
1/2-x,1/2-y,-z
1/2+x,1/2-y,z
loop_
_atom_site_type_symbol
_atom_site_label
_atom_site_fract_x
_atom_site_fract_y
_atom_site_fract_z
Si Si1 0.563158 0.164844 0.691933
Si Si2 0.723481 0.169971 0.797723
Si Si3 0.503441 0.337532 0.100998
Si Si4 0.517383 0.665530 0.379908
Si Si5 0.794252 0.664189 0.395141
Si Si6 0.853156 0.163144 0.988606
Si Si7 0.846957 0.169576 0.789674
O O1 0.540860 0.231323 0.806454
O O2 0.533746 0.247370 0.631963
O O3 0.637018 0.182171 0.624055
O O4 0.542710 0.000000 0.705671
O O5 0.711053 0.223375 0.704710
O O6 0.792185 0.223380 0.769428
O O7 0.716428 0.000000 0.812340
O O8 0.672421 0.238173 0.908617
O O9 0.478096 0.500000 0.131463
O O10 0.572632 0.326933 0.080385
O O11 0.500000 0.284394 0.000000
O O12 0.500000 0.684469 0.500000
O O13 0.513731 0.500000 0.351822
O O14 0.586435 0.730102 0.302086
O O15 0.772507 0.500000 0.414241
O O16 0.750000 0.750000 0.500000
O O17 0.830400 0.218914 0.908044
O O18 0.831624 0.000000 0.025633
O O19 0.851334 0.000000 0.783138
#
# Coordination Sequence:
#
# PCOD8091278 Si02
#       7
#     8   8   8   8   8   8   8
#     4  11  23  39  58  86 123 154 186 240 299 349
#     4  10  21  37  58  83 114 151 191 235 286 342
#     4  10  20  35  58  85 115 155 198 240 283 338
#     4  10  21  38  64  90 112 150 199 243 290 348
#     4  10  24  42  60  84 115 152 195 240 285 341
#     4  10  19  34  55  83 118 147 185 238 284 338
#     4   9  18  35  57  85 116 143 186 242 283 333
#
# _framework density 19.227819
#
# number of rings (size 3 to 8) (size 9 to 14) (size 15 to 20)
#    0.000    2.000    1.429    1.714    2.000    2.857 
#    0.000    0.714    0.000    0.000    0.000    0.000 
#    0.000    0.000    0.000    0.000    0.000    0.000 
#
# Total GULP energy -347259.479559 kJ/mol
# GULP energy per Si atom -12402.124270 kJ/mol
# Density = 1.918406 g / cm^3
# Si number density = 19.227819 Si / 1000 Ang^3
#
#
#
# Elastic Constant Matrix: (Units=GPa)
#
#
# Indices 1 2 3 4 5 6 
#
# 1 67.8826 33.6649 24.1106 0.0000 4.6609 0.0000
# 2 33.6649 72.6769 53.7645 0.0000 -0.5423 0.0000
# 3 24.1106 53.7645 114.4639 0.0000 -3.1613 0.0000
# 4 0.0000 0.0000 0.0000 30.4613 0.0000 2.2833
# 5 4.6609 -0.5423 -3.1613 0.0000 27.4873 0.0000
# 6 0.0000 0.0000 0.0000 2.2833 0.0000 25.2738
#
#
#
# Elastic Compliance Matrix: (Units=1/GPa)
#
#
# Indices 1 2 3 4 5 6 
#
# 1 0.019452 -0.009094 0.000079 0.000000 -0.003469 0.000000
# 2 -0.009094 0.025353 -0.009968 0.000000 0.000896 0.000000
# 3 0.000079 -0.009968 0.013439 0.000000 0.001336 0.000000
# 4 0.000000 0.000000 0.000000 0.033052 0.000000 -0.002986
# 5 -0.003469 0.000896 0.001336 0.000000 0.037140 0.000000
# 6 0.000000 0.000000 0.000000 -0.002986 0.000000 0.039836
#
#
# Mechanical properties :
#
#
# Convention : Reuss Voigt Hill
#
# Bulk Modulus (GPa) = 49.31989 53.12260 51.22125
# Shear Modulus (GPa) = 23.47438 26.21005 24.84222
#
# Velocity S-wave (km/s) = 3.49786 3.69607 3.59833
# Velocity P-wave (km/s) = 6.48223 6.77514 6.63030
#
# Compressibility (1/GPa) = 0.02027580
#
# Stress axis : x y z
#
# Youngs Moduli (GPa) = 51.40950 39.44322 74.41144
#
# Poissons Ratio (x) = 0.35871 -0.00584
# Poissons Ratio (y) = 0.46753 0.74174
# Poissons Ratio (z) = -0.00404 0.39317
#
# Static dielectric constant tensor:
#      x y z
#    x 3.759960 0.000000 0.086510 
#    y 0.000000 3.353410 0.000000 
#    z 0.086510 0.000000 3.492810 
# 
# 
# High freq. dielectric constant tensor:
#      x y z
#    x 1.763120 0.000000 0.006520 
#    y 0.000000 1.725000 0.000000 
#    z 0.006520 0.000000 1.754890 
# 
# From -- ./inp_files/238302.got.cif
#   From: 2010.06.25/outbox.cif.g09.slc.cpg/sg12_120_cif.got.tgz:238302.got - 2010.06.28 00:19:55.
