data_PCOD8091430
_publ_section_title
;
Structure prediction by ZEFSAII (Michael W. Deem and Ramdas Pophale) SiO2 
 PCOD8091430
Probable space group: C 2/M
;
_chemical_formula_sum "Si O2"
_cell_formula_units_Z 56
_cell_length_a 18.570633
_cell_length_b 9.012622
_cell_length_c 17.176858
_cell_angle_alpha 90.000000
_cell_angle_beta 82.365856
_cell_angle_gamma 90.000000
_cell_volume 2849.410898
_symmetry_space_group_name_H-M "C 2/M"
_symmetry_group_IT_number 12
_symmetry_cell_setting 'monoclinic'
loop_
_space_group_symop_operation_xyz
x,y,z
-x,y,-z
-x,-y,-z
x,-y,z
1/2+x,1/2+y,z
1/2-x,1/2+y,-z
1/2-x,1/2-y,-z
1/2+x,1/2-y,z
loop_
_atom_site_type_symbol
_atom_site_label
_atom_site_fract_x
_atom_site_fract_y
_atom_site_fract_z
Si Si1 0.870546 0.827120 0.203086
Si Si2 0.291978 0.824210 0.769760
Si Si3 0.572603 0.832446 0.957215
Si Si4 0.590935 0.826375 0.368436
Si Si5 0.194818 0.665341 0.060580
Si Si6 0.828380 0.325602 0.482352
Si Si7 0.560787 0.324952 0.646578
O O1 0.789824 0.771118 0.239214
O O2 0.893220 0.753245 0.119373
O O3 0.927681 0.790979 0.263270
O O4 0.867044 0.000000 0.186139
O O5 0.350698 0.758969 0.700972
O O6 0.312596 0.763221 0.852639
O O7 0.297967 0.000000 0.762748
O O8 0.558055 0.000000 0.930231
O O9 0.500000 0.755007 0.000000
O O10 0.619200 0.832014 0.028433
O O11 0.623742 0.796761 0.448188
O O12 0.515593 0.739666 0.370594
O O13 0.575043 0.000000 0.357119
O O14 0.225658 0.500000 0.067134
O O15 0.250000 0.750000 0.000000
O O16 0.817371 0.500000 0.469078
O O17 0.750000 0.250000 0.500000
O O18 0.872024 0.252452 0.405671
O O19 0.563147 0.500000 0.629218
#
# Coordination Sequence:
#
# PCOD8091430 Si02
#       7
#     8   8   8   8   8   8   8
#     4  10  21  39  59  81 112 154 198 240 292 350
#     4   9  18  35  59  81 108 149 193 236 286 347
#     4  10  22  36  54  83 115 147 191 243 294 350
#     4  10  22  40  63  89 118 156 197 237 292 358
#     4  10  19  34  56  81 109 148 192 237 289 346
#     4  11  23  41  66  94 122 157 198 239 290 353
#     4  11  24  40  60  89 123 157 198 246 294 348
#
# _framework density 19.653186000000002
#
# number of rings (size 3 to 8) (size 9 to 14) (size 15 to 20)
#    0.000    1.857    1.429    2.143    2.000    6.571 
#    0.000    1.429    0.000    0.000    0.000    0.000 
#    0.000    0.000    0.000    0.000    0.000    0.000 
#
# Total GULP energy -347140.897751 kJ/mol
# GULP energy per Si atom -12397.889205 kJ/mol
# Density = 1.960845 g / cm^3
# Si number density = 19.653186 Si / 1000 Ang^3
#
#
#
# Elastic Constant Matrix: (Units=GPa)
#
#
# Indices 1 2 3 4 5 6 
#
# 1 127.9305 46.3860 35.8012 0.0000 -7.0411 0.0000
# 2 46.3860 68.2032 34.3250 0.0000 3.0330 0.0000
# 3 35.8012 34.3250 89.6946 0.0000 -0.9474 0.0000
# 4 0.0000 0.0000 0.0000 29.6334 0.0000 -3.6191
# 5 -7.0411 3.0330 -0.9474 0.0000 40.6991 0.0000
# 6 0.0000 0.0000 0.0000 -3.6191 0.0000 30.6512
#
#
#
# Elastic Compliance Matrix: (Units=1/GPa)
#
#
# Indices 1 2 3 4 5 6 
#
# 1 0.010825 -0.006568 -0.001783 0.000000 0.002321 0.000000
# 2 -0.006568 0.022239 -0.005920 0.000000 -0.002931 0.000000
# 3 -0.001783 -0.005920 0.014131 0.000000 0.000462 0.000000
# 4 0.000000 0.000000 0.000000 0.034239 0.000000 0.004043
# 5 0.002321 -0.002931 0.000462 0.000000 0.025201 0.000000
# 6 0.000000 0.000000 0.000000 0.004043 0.000000 0.033102
#
#
# Mechanical properties :
#
#
# Convention : Reuss Voigt Hill
#
# Bulk Modulus (GPa) = 53.61003 57.65029 55.63016
# Shear Modulus (GPa) = 28.65382 31.48449 30.06915
#
# Velocity S-wave (km/s) = 3.82248 4.00685 3.91575
# Velocity P-wave (km/s) = 6.84245 7.12769 6.98652
#
# Compressibility (1/GPa) = 0.01865323
#
# Stress axis : x y z
#
# Youngs Moduli (GPa) = 92.37971 44.96628 70.76748
#
# Poissons Ratio (x) = 0.29535 0.12615
# Poissons Ratio (y) = 0.60677 0.41893
# Poissons Ratio (z) = 0.16468 0.26619
#
# Static dielectric constant tensor:
#      x y z
#    x 5.125360 0.000000 0.420770 
#    y 0.000000 3.564550 0.000000 
#    z 0.420770 0.000000 3.752440 
# 
# 
# High freq. dielectric constant tensor:
#      x y z
#    x 1.780970 0.000000 0.002790 
#    y 0.000000 1.744800 0.000000 
#    z 0.002790 0.000000 1.779980 
# 
# From -- ./inp_files/275032.got.cif
#   From: 2010.06.25/outbox.cif.g09.slc.cpg/sg12_138_cif.got.tgz:275032.got - 2010.06.28 00:19:55.
