data_PCOD8091790
_publ_section_title
;
Structure prediction by ZEFSAII (Michael W. Deem and Ramdas Pophale) SiO2 
 PCOD8091790
Probable space group: C 2/M
;
_chemical_formula_sum "Si O2"
_cell_formula_units_Z 64
_cell_length_a 32.427998
_cell_length_b 13.373171
_cell_length_c 9.517652
_cell_angle_alpha 90.000000
_cell_angle_beta 127.392318
_cell_angle_gamma 90.000000
_cell_volume 3279.261861
_symmetry_space_group_name_H-M "C 2/M"
_symmetry_group_IT_number 12
_symmetry_cell_setting 'monoclinic'
loop_
_space_group_symop_operation_xyz
x,y,z
-x,y,-z
-x,-y,-z
x,-y,z
1/2+x,1/2+y,z
1/2-x,1/2+y,-z
1/2-x,1/2-y,-z
1/2+x,1/2-y,z
loop_
_atom_site_type_symbol
_atom_site_label
_atom_site_fract_x
_atom_site_fract_y
_atom_site_fract_z
Si Si1 0.742635 0.883353 0.400697
Si Si2 0.895363 0.222945 0.041701
Si Si3 0.270860 0.883894 0.940022
Si Si4 0.837451 0.241754 0.639456
Si Si5 0.387833 0.884007 0.240941
Si Si6 0.401308 0.728651 0.493414
Si Si7 0.667982 0.617621 0.865475
Si Si8 0.498731 0.616127 0.331267
O O1 0.729802 0.839217 0.218974
O O2 0.802376 0.858530 0.562646
O O3 0.702130 0.833958 0.424603
O O4 0.733637 0.000000 0.394346
O O5 0.907634 0.330926 0.138682
O O6 0.847005 0.172327 0.021938
O O7 0.944680 0.151070 0.153801
O O8 0.880303 0.236887 0.849593
O O9 0.225033 0.839639 0.943231
O O10 0.257525 0.000000 0.893656
O O11 0.325909 0.867753 0.127796
O O12 0.868617 0.257917 0.561245
O O13 0.412283 0.829853 0.427009
O O14 0.404008 0.000000 0.269897
O O15 0.372153 0.645568 0.339999
O O16 0.456002 0.679747 0.650099
O O17 0.666281 0.500000 0.886779
O O18 0.500000 0.636556 0.500000
O O19 0.506396 0.500000 0.312248
#
# Coordination Sequence:
#
# PCOD8091790 Si02
#       8
#     8   8   8   8   8   8   8   8
#     4  10  21  37  58  85 123 166 199 236 293 356
#     4  11  23  38  60  87 120 157 199 248 299 354
#     4   9  17  32  57  85 113 153 199 238 287 346
#     4  11  24  39  57  91 126 161 198 239 294 360
#     4  10  21  38  60  87 116 155 204 247 290 346
#     4  11  23  38  60  86 119 156 197 248 299 350
#     4  10  19  34  57  85 115 153 197 245 292 346
#     4  11  22  41  66  91 116 148 196 249 304 353
#
# _framework density 19.516587000000001
#
# number of rings (size 3 to 8) (size 9 to 14) (size 15 to 20)
#    0.000    1.625    5.000    0.750    0.000    6.500 
#    0.000    3.125    0.000    0.000    0.000    2.625 
#    0.000    0.000    0.000    0.000    0.000    0.000 
#
# Total GULP energy -396869.492892 kJ/mol
# GULP energy per Si atom -12402.171653 kJ/mol
# Density = 1.947217 g / cm^3
# Si number density = 19.516587 Si / 1000 Ang^3
#
#
#
# Elastic Constant Matrix: (Units=GPa)
#
#
# Indices 1 2 3 4 5 6 
#
# 1 76.4686 30.1794 20.6222 0.0000 0.4294 0.0000
# 2 30.1794 107.8116 30.0353 0.0000 -0.4716 0.0000
# 3 20.6222 30.0353 81.3094 0.0000 -5.2873 0.0000
# 4 0.0000 0.0000 0.0000 20.7755 0.0000 6.5313
# 5 0.4294 -0.4716 -5.2873 0.0000 28.1495 0.0000
# 6 0.0000 0.0000 0.0000 6.5313 0.0000 24.3583
#
#
#
# Elastic Compliance Matrix: (Units=1/GPa)
#
#
# Indices 1 2 3 4 5 6 
#
# 1 0.015174 -0.003528 -0.002596 0.000000 -0.000778 0.000000
# 2 -0.003528 0.011168 -0.003255 0.000000 -0.000370 0.000000
# 3 -0.002596 -0.003255 0.014334 0.000000 0.002677 0.000000
# 4 0.000000 0.000000 0.000000 0.052565 0.000000 -0.014094
# 5 -0.000778 -0.000370 0.002677 0.000000 0.036033 0.000000
# 6 0.000000 0.000000 0.000000 -0.014094 0.000000 0.044833
#
#
# Mechanical properties :
#
#
# Convention : Reuss Voigt Hill
#
# Bulk Modulus (GPa) = 45.62359 47.47373 46.54866
# Shear Modulus (GPa) = 24.97882 26.97350 25.97616
#
# Velocity S-wave (km/s) = 3.58142 3.72167 3.65222
# Velocity P-wave (km/s) = 6.36629 6.54564 6.45659
#
# Compressibility (1/GPa) = 0.02191848
#
# Stress axis : x y z
#
# Youngs Moduli (GPa) = 65.90205 89.54074 69.76661
#
# Poissons Ratio (x) = 0.31588 0.18111
# Poissons Ratio (y) = 0.23249 0.22708
# Poissons Ratio (z) = 0.17108 0.29144
#
# Static dielectric constant tensor:
#      x y z
#    x 3.607030 0.000000 0.024530 
#    y 0.000000 3.596790 0.000000 
#    z 0.024530 0.000000 3.418590 
# 
# 
# High freq. dielectric constant tensor:
#      x y z
#    x 1.754300 0.000000 0.005570 
#    y 0.000000 1.763600 0.000000 
#    z 0.005570 0.000000 1.744690 
# 
# From -- ./inp_files/111669.got.cif
#   From: 2010.06.25/outbox.cif.g09.slc.cpg/sg12_56_cif.got.tgz:111669.got - 2010.06.28 00:19:55.
