data_PCOD8091304
_publ_section_title
;
Structure prediction by ZEFSAII (Michael W. Deem and Ramdas Pophale) SiO2 
 PCOD8091304
Probable space group: C 2/M
;
_chemical_formula_sum "Si O2"
_cell_formula_units_Z 56
_cell_length_a 15.745464
_cell_length_b 9.201953
_cell_length_c 19.533859
_cell_angle_alpha 90.000000
_cell_angle_beta 89.056668
_cell_angle_gamma 90.000000
_cell_volume 2829.858091
_symmetry_space_group_name_H-M "C 2/M"
_symmetry_group_IT_number 12
_symmetry_cell_setting 'monoclinic'
loop_
_space_group_symop_operation_xyz
x,y,z
-x,y,-z
-x,-y,-z
x,-y,z
1/2+x,1/2+y,z
1/2-x,1/2+y,-z
1/2-x,1/2-y,-z
1/2+x,1/2-y,z
loop_
_atom_site_type_symbol
_atom_site_label
_atom_site_fract_x
_atom_site_fract_y
_atom_site_fract_z
Si Si1 0.497318 0.171038 0.420563
Si Si2 0.403065 0.836253 0.212284
Si Si3 0.160637 0.671217 0.338214
Si Si4 0.349805 0.328568 0.342018
Si Si5 0.153683 0.332930 0.934258
Si Si6 0.403080 0.836611 0.801978
Si Si7 0.852690 0.167343 0.933285
O O1 0.500000 0.209021 0.500000
O O2 0.584889 0.233696 0.386760
O O3 0.415402 0.249251 0.390518
O O4 0.486471 0.000000 0.407459
O O5 0.357118 0.726988 0.264271
O O6 0.389187 0.779266 0.135291
O O7 0.501961 0.837845 0.228715
O O8 0.365366 0.000000 0.220311
O O9 0.148244 0.500000 0.334915
O O10 0.253387 0.710221 0.367433
O O11 0.153117 0.728212 0.259764
O O12 0.366678 0.500000 0.343592
O O13 0.132278 0.500000 0.949498
O O14 0.253299 0.305169 0.925717
O O15 0.114554 0.241295 0.997260
O O16 0.399140 0.735469 0.867825
O O17 0.374608 0.000000 0.823065
O O18 0.877219 0.000000 0.936636
#
# Coordination Sequence:
#
# PCOD8091304 Si02
#       7
#     8   8   8   8   8   8   8
#     4  10  21  41  66  88 117 158 199 233 273 342
#     4  10  20  36  58  80 107 147 197 241 278 342
#     4   9  19  37  59  86 118 154 193 234 288 345
#     4  11  22  36  59  89 122 153 187 240 296 341
#     4   9  19  35  53  74 102 142 191 238 283 339
#     4  10  19  34  56  76 105 147 189 234 282 342
#     4  10  20  33  50  75 108 141 182 239 294 344
#
# _framework density 19.788979999999999
#
# number of rings (size 3 to 8) (size 9 to 14) (size 15 to 20)
#    0.000    2.143    1.429    1.714    0.000    3.143 
#    0.000    5.000    0.000    0.000    0.000    0.000 
#    0.000    0.000    0.000    0.000    0.000    0.000 
#
# Total GULP energy -347204.197257 kJ/mol
# GULP energy per Si atom -12400.149902 kJ/mol
# Density = 1.974394 g / cm^3
# Si number density = 19.788980 Si / 1000 Ang^3
#
#
#
# Elastic Constant Matrix: (Units=GPa)
#
#
# Indices 1 2 3 4 5 6 
#
# 1 106.9576 40.2361 65.9348 0.0000 9.1610 0.0000
# 2 40.2361 72.4961 52.8181 0.0000 1.2784 0.0000
# 3 65.9348 52.8181 134.5904 0.0000 5.5220 0.0000
# 4 0.0000 0.0000 0.0000 27.8051 0.0000 3.0394
# 5 9.1610 1.2784 5.5220 0.0000 27.9159 0.0000
# 6 0.0000 0.0000 0.0000 3.0394 0.0000 25.5543
#
#
#
# Elastic Compliance Matrix: (Units=1/GPa)
#
#
# Indices 1 2 3 4 5 6 
#
# 1 0.014482 -0.004078 -0.005351 0.000000 -0.003507 0.000000
# 2 -0.004078 0.020476 -0.006104 0.000000 0.001608 0.000000
# 3 -0.005351 -0.006104 0.012464 0.000000 -0.000430 0.000000
# 4 0.000000 0.000000 0.000000 0.036438 0.000000 -0.004334
# 5 -0.003507 0.001608 -0.000430 0.000000 0.036984 0.000000
# 6 0.000000 0.000000 0.000000 -0.004334 0.000000 0.039648
#
#
# Mechanical properties :
#
#
# Convention : Reuss Voigt Hill
#
# Bulk Modulus (GPa) = 61.13215 70.22468 65.67842
# Shear Modulus (GPa) = 25.37950 26.59206 25.98578
#
# Velocity S-wave (km/s) = 3.58510 3.66974 3.62766
# Velocity P-wave (km/s) = 6.93515 7.31572 7.12798
#
# Compressibility (1/GPa) = 0.01635800
#
# Stress axis : x y z
#
# Youngs Moduli (GPa) = 69.04960 48.83860 80.23008
#
# Poissons Ratio (x) = 0.19915 0.42928
# Poissons Ratio (y) = 0.28156 0.48970
# Poissons Ratio (z) = 0.36946 0.29810
#
# Static dielectric constant tensor:
#      x y z
#    x 3.622590 0.000000 0.044080 
#    y 0.000000 3.421920 0.000000 
#    z 0.044080 0.000000 3.637650 
# 
# 
# High freq. dielectric constant tensor:
#      x y z
#    x 1.773530 0.000000 0.006010 
#    y 0.000000 1.750240 0.000000 
#    z 0.006010 0.000000 1.775350 
# 
# From -- ./inp_files/308969.got.cif
#   From: 2010.06.25/outbox.cif.g09.slc.cpg/sg12_155_cif.got.tgz:308969.got - 2010.06.28 00:19:55.
