data_PCOD8091332
_publ_section_title
;
Structure prediction by ZEFSAII (Michael W. Deem and Ramdas Pophale) SiO2 
 PCOD8091332
Probable space group: C 2/M
;
_chemical_formula_sum "Si O2"
_cell_formula_units_Z 64
_cell_length_a 25.344088
_cell_length_b 9.097058
_cell_length_c 15.164007
_cell_angle_alpha 90.000000
_cell_angle_beta 71.230233
_cell_angle_gamma 90.000000
_cell_volume 3310.233681
_symmetry_space_group_name_H-M "C 2/M"
_symmetry_group_IT_number 12
_symmetry_cell_setting 'monoclinic'
loop_
_space_group_symop_operation_xyz
x,y,z
-x,y,-z
-x,-y,-z
x,-y,z
1/2+x,1/2+y,z
1/2-x,1/2+y,-z
1/2-x,1/2-y,-z
1/2+x,1/2-y,z
loop_
_atom_site_type_symbol
_atom_site_label
_atom_site_fract_x
_atom_site_fract_y
_atom_site_fract_z
Si Si1 0.150996 0.666247 0.388789
Si Si2 0.116558 0.825643 0.102205
Si Si3 0.309605 0.325810 0.465436
Si Si4 0.326985 0.674723 0.105057
Si Si5 0.621961 0.674790 0.742096
Si Si6 0.471432 0.831207 0.604569
Si Si7 0.702368 0.830138 0.181509
Si Si8 0.499796 0.673782 0.236887
O O1 0.153365 0.500000 0.425542
O O2 0.156701 0.779668 0.465535
O O3 0.094100 0.694928 0.367404
O O4 0.198499 0.690251 0.289565
O O5 0.156328 0.763561 0.156230
O O6 0.052978 0.771371 0.151372
O O7 0.120808 0.000000 0.105124
O O8 0.135568 0.767611 0.996134
O O9 0.301712 0.500000 0.468258
O O10 0.250000 0.250000 0.500000
O O11 0.343543 0.269911 0.361578
O O12 0.328324 0.500000 0.110354
O O13 0.350764 0.740775 0.183640
O O14 0.263700 0.727426 0.122379
O O15 0.623139 0.500000 0.743102
O O16 0.558005 0.731429 0.773938
O O17 0.500000 0.778131 0.500000
O O18 0.496942 0.732171 0.666394
O O19 0.485843 0.000000 0.617653
O O20 0.693371 0.000000 0.160579
O O21 0.499574 0.500000 0.242240
#
# Coordination Sequence:
#
# PCOD8091332 Si02
#       8
#     8   8   8   8   8   8   8   8
#     4  10  20  34  53  78 106 141 181 216 264 323
#     4  10  20  33  53  83 111 136 175 228 275 316
#     4  11  22  36  56  80 108 143 182 224 269 319
#     4   9  18  33  54  78 105 140 182 226 270 320
#     4   9  19  36  55  77 107 144 183 220 267 328
#     4  10  20  34  53  77 105 140 180 220 263 316
#     4  10  19  34  56  78 106 145 181 219 274 333
#     4  10  20  34  54  80 110 141 176 222 273 321
#
# _framework density 19.333984000000001
#
# number of rings (size 3 to 8) (size 9 to 14) (size 15 to 20)
#    0.000    2.125    1.250    2.250    0.000    3.750 
#    0.000    3.125    0.000    3.000    0.000    1.750 
#    0.000    0.000    0.000    0.000    0.000    0.000 
#
# Total GULP energy -396812.907104 kJ/mol
# GULP energy per Si atom -12400.403347 kJ/mol
# Density = 1.928998 g / cm^3
# Si number density = 19.333984 Si / 1000 Ang^3
#
#
#
# Elastic Constant Matrix: (Units=GPa)
#
#
# Indices 1 2 3 4 5 6 
#
# 1 121.1296 27.1017 65.5616 0.0000 -13.4885 0.0000
# 2 27.1017 23.9661 23.8638 0.0000 -1.3181 0.0000
# 3 65.5616 23.8638 129.0649 0.0000 -11.3133 0.0000
# 4 0.0000 0.0000 0.0000 19.5731 0.0000 2.0675
# 5 -13.4885 -1.3181 -11.3133 0.0000 37.0662 0.0000
# 6 0.0000 0.0000 0.0000 2.0675 0.0000 26.2325
#
#
#
# Elastic Compliance Matrix: (Units=1/GPa)
#
#
# Indices 1 2 3 4 5 6 
#
# 1 0.013437 -0.010416 -0.004627 0.000000 0.003107 0.000000
# 2 -0.010416 0.059259 -0.005973 0.000000 -0.003506 0.000000
# 3 -0.004627 -0.005973 0.011340 0.000000 0.001565 0.000000
# 4 0.000000 0.000000 0.000000 0.051519 0.000000 -0.004061
# 5 0.003107 -0.003506 0.001565 0.000000 0.028462 0.000000
# 6 0.000000 0.000000 0.000000 -0.004061 0.000000 0.038441
#
#
# Mechanical properties :
#
#
# Convention : Reuss Voigt Hill
#
# Bulk Modulus (GPa) = 23.80776 56.35721 40.08248
# Shear Modulus (GPa) = 19.34291 27.08326 23.21308
#
# Velocity S-wave (km/s) = 3.16644 3.74680 3.46878
# Velocity P-wave (km/s) = 5.07042 6.92319 6.06794
#
# Compressibility (1/GPa) = 0.04200311
#
# Stress axis : x y z
#
# Youngs Moduli (GPa) = 74.42355 16.87494 88.18265
#
# Poissons Ratio (x) = 0.17577 0.40804
# Poissons Ratio (y) = 0.77522 0.52672
# Poissons Ratio (z) = 0.34437 0.10080
#
# Static dielectric constant tensor:
#      x y z
#    x 3.774060 0.000000 -0.198960 
#    y 0.000000 3.215290 0.000000 
#    z -0.198960 0.000000 3.790420 
# 
# 
# High freq. dielectric constant tensor:
#      x y z
#    x 1.763310 0.000000 -0.009970 
#    y 0.000000 1.714680 0.000000 
#    z -0.009970 0.000000 1.764340 
# 
# From -- ./inp_files/243828.got.cif
#   From: 2010.06.25/outbox.cif.g09.slc.cpg/sg12_122_cif.got.tgz:243828.got - 2010.06.28 00:19:55.
