data_PCOD8091901
_publ_section_title
;
Structure prediction by ZEFSAII (Michael W. Deem and Ramdas Pophale) SiO2 
 PCOD8091901
Probable space group: C 2/M
;
_chemical_formula_sum "Si O2"
_cell_formula_units_Z 64
_cell_length_a 13.601328
_cell_length_b 15.762039
_cell_length_c 15.471584
_cell_angle_alpha 90.000000
_cell_angle_beta 79.946093
_cell_angle_gamma 90.000000
_cell_volume 3265.936251
_symmetry_space_group_name_H-M "C 2/M"
_symmetry_group_IT_number 12
_symmetry_cell_setting 'monoclinic'
loop_
_space_group_symop_operation_xyz
x,y,z
-x,y,-z
-x,-y,-z
x,-y,z
1/2+x,1/2+y,z
1/2-x,1/2+y,-z
1/2-x,1/2-y,-z
1/2+x,1/2-y,z
loop_
_atom_site_type_symbol
_atom_site_label
_atom_site_fract_x
_atom_site_fract_y
_atom_site_fract_z
Si Si1 0.165640 0.327105 0.284696
Si Si2 0.207885 0.901882 0.407432
Si Si3 0.848016 0.402567 0.241802
Si Si4 0.102291 0.254427 0.022859
Si Si5 0.020923 0.205493 0.399236
Si Si6 0.262216 0.699686 0.862369
Si Si7 0.326167 0.600547 0.392625
Si Si8 0.057646 0.596922 0.151248
O O1 0.225172 0.254513 0.225797
O O2 0.240250 0.371129 0.340352
O O3 0.134048 0.397728 0.219491
O O4 0.064728 0.287850 0.343094
O O5 0.301454 0.863881 0.338014
O O6 0.222964 0.883135 0.505930
O O7 0.105545 0.865558 0.386874
O O8 0.200412 0.000000 0.387581
O O9 0.869777 0.500000 0.253424
O O10 0.774717 0.390049 0.169915
O O11 0.953830 0.360976 0.200635
O O12 0.136888 0.191861 0.095961
O O13 0.092954 0.349504 0.062830
O O14 0.181257 0.253403 0.934016
O O15 0.000000 0.218570 0.000000
O O16 0.924467 0.160546 0.368832
O O17 0.000000 0.235416 0.500000
O O18 0.352822 0.500000 0.376922
O O19 0.047961 0.500000 0.121762
#
# Coordination Sequence:
#
# PCOD8091901 Si02
#       8
#     8   8   8   8   8   8   8   8
#     4  11  23  36  57  83 120 151 185 239 286 338
#     4   9  18  35  56  82 115 152 194 237 276 325
#     4  10  19  34  58  83 113 146 185 231 275 331
#     4  10  20  36  59  79 108 141 176 231 281 338
#     4  10  21  34  56  85 111 149 197 244 276 325
#     4  10  21  36  54  84 109 142 183 225 288 336
#     4  10  22  39  59  81 115 161 198 232 283 339
#     4  10  22  37  57  85 113 146 186 229 280 341
#
# _framework density 19.596219000000001
#
# number of rings (size 3 to 8) (size 9 to 14) (size 15 to 20)
#    0.000    2.000    2.500    0.750    1.750    5.250 
#    0.000    0.000    0.000    4.125    0.000    0.000 
#    0.000    0.000    0.000    0.000    0.000    0.000 
#
# Total GULP energy -396523.748696 kJ/mol
# GULP energy per Si atom -12391.367147 kJ/mol
# Density = 1.955162 g / cm^3
# Si number density = 19.596219 Si / 1000 Ang^3
#
#
#
# Elastic Constant Matrix: (Units=GPa)
#
#
# Indices 1 2 3 4 5 6 
#
# 1 90.1732 16.7724 24.8008 0.0000 12.3136 0.0000
# 2 16.7724 28.7283 10.3680 0.0000 -0.4344 0.0000
# 3 24.8008 10.3680 64.4446 0.0000 0.5808 0.0000
# 4 0.0000 0.0000 0.0000 18.0514 0.0000 5.1701
# 5 12.3136 -0.4344 0.5808 0.0000 44.0617 0.0000
# 6 0.0000 0.0000 0.0000 5.1701 0.0000 26.8651
#
#
#
# Elastic Compliance Matrix: (Units=1/GPa)
#
#
# Indices 1 2 3 4 5 6 
#
# 1 0.014058 -0.006717 -0.004294 0.000000 -0.003938 0.000000
# 2 -0.006717 0.040173 -0.003899 0.000000 0.002325 0.000000
# 3 -0.004294 -0.003899 0.017789 0.000000 0.000927 0.000000
# 4 0.000000 0.000000 0.000000 0.058629 0.000000 -0.011283
# 5 -0.003938 0.002325 0.000927 0.000000 0.023807 0.000000
# 6 0.000000 0.000000 0.000000 -0.011283 0.000000 0.039394
#
#
# Mechanical properties :
#
#
# Convention : Reuss Voigt Hill
#
# Bulk Modulus (GPa) = 23.69715 31.91426 27.80570
# Shear Modulus (GPa) = 21.03173 26.55596 23.79384
#
# Velocity S-wave (km/s) = 3.27961 3.68524 3.48833
# Velocity P-wave (km/s) = 5.14394 5.86765 5.51767
#
# Compressibility (1/GPa) = 0.04219917
#
# Stress axis : x y z
#
# Youngs Moduli (GPa) = 71.13407 24.89239 56.21592
#
# Poissons Ratio (x) = 0.16721 0.24138
# Poissons Ratio (y) = 0.47783 0.21918
# Poissons Ratio (z) = 0.30544 0.09705
#
# Static dielectric constant tensor:
#      x y z
#    x 3.813070 0.000000 -0.175870 
#    y 0.000000 3.327650 0.000000 
#    z -0.175870 0.000000 3.825190 
# 
# 
# High freq. dielectric constant tensor:
#      x y z
#    x 1.768740 0.000000 -0.004560 
#    y 0.000000 1.735750 0.000000 
#    z -0.004560 0.000000 1.776530 
# 
# From -- ./inp_files/206694.got.cif
#   From: 2010.06.25/outbox.cif.g09.slc.cpg/sg12_104_cif.got.tgz:206694.got - 2010.06.28 00:19:55.
