data_PCOD8091350
_publ_section_title
;
Structure prediction by ZEFSAII (Michael W. Deem and Ramdas Pophale) SiO2 
 PCOD8091350
Probable space group: C 2/M
;
_chemical_formula_sum "Si O2"
_cell_formula_units_Z 64
_cell_length_a 20.650333
_cell_length_b 8.795861
_cell_length_c 20.495029
_cell_angle_alpha 90.000000
_cell_angle_beta 64.081002
_cell_angle_gamma 90.000000
_cell_volume 3348.212892
_symmetry_space_group_name_H-M "C 2/M"
_symmetry_group_IT_number 12
_symmetry_cell_setting 'monoclinic'
loop_
_space_group_symop_operation_xyz
x,y,z
-x,y,-z
-x,-y,-z
x,-y,z
1/2+x,1/2+y,z
1/2-x,1/2+y,-z
1/2-x,1/2-y,-z
1/2+x,1/2-y,z
loop_
_atom_site_type_symbol
_atom_site_label
_atom_site_fract_x
_atom_site_fract_y
_atom_site_fract_z
Si Si1 0.342603 0.674644 0.813947
Si Si2 0.044402 0.820345 0.649177
Si Si3 0.045673 0.181137 0.919558
Si Si4 0.484573 0.325034 0.813369
Si Si5 0.291804 0.677080 0.160302
Si Si6 0.262041 0.824216 0.671761
Si Si7 0.802745 0.321267 0.424494
Si Si8 0.909340 0.675235 0.662182
O O1 0.344487 0.500000 0.788533
O O2 0.397327 0.693593 0.850782
O O3 0.261075 0.728032 0.864979
O O4 0.369951 0.788597 0.746859
O O5 0.020404 0.758511 0.731427
O O6 0.117988 0.741817 0.596332
O O7 0.982133 0.774917 0.624037
O O8 0.054095 0.000000 0.643689
O O9 0.014928 0.253054 0.865549
O O10 0.127990 0.232006 0.891518
O O11 0.038721 0.000000 0.920521
O O12 0.000000 0.247753 0.000000
O O13 0.507029 0.500000 0.805227
O O14 0.281588 0.500000 0.150185
O O15 0.274400 0.715519 0.243105
O O16 0.223592 0.718988 0.636189
O O17 0.348559 0.791039 0.633690
O O18 0.247541 0.000000 0.660555
O O19 0.803759 0.500000 0.433288
O O20 0.750000 0.250000 0.500000
O O21 0.932158 0.500000 0.650652
#
# Coordination Sequence:
#
# PCOD8091350 Si02
#       8
#     8   8   8   8   8   8   8   8
#     4   9  16  27  46  71  99 130 164 206 255 307
#     4  10  19  34  56  79 106 137 171 212 258 308
#     4   9  16  27  45  69  97 131 173 214 250 297
#     4   8  15  28  47  71  97 128 165 206 251 296
#     4   9  17  30  50  75 101 129 164 211 260 302
#     4   9  18  34  55  77 104 135 167 210 261 308
#     4  12  25  39  55  76 105 138 174 213 253 302
#     4   9  17  31  53  81 109 133 164 210 259 305
#
# _framework density 19.114674999999998
#
# number of rings (size 3 to 8) (size 9 to 14) (size 15 to 20)
#    0.000    2.625    0.000    4.500    0.000    4.500 
#    0.000    1.250    0.000    5.625    0.000    0.000 
#    0.000    0.000    0.000    0.000    0.000    0.000 
#
# Total GULP energy -396595.868758 kJ/mol
# GULP energy per Si atom -12393.620899 kJ/mol
# Density = 1.907117 g / cm^3
# Si number density = 19.114675 Si / 1000 Ang^3
#
#
#
# Elastic Constant Matrix: (Units=GPa)
#
#
# Indices 1 2 3 4 5 6 
#
# 1 127.9163 38.6825 42.9455 -0.0001 -38.6392 0.0000
# 2 38.6825 67.3293 22.6456 0.0000 -12.3629 -0.0001
# 3 42.9455 22.6456 68.4703 0.0001 -27.3059 0.0000
# 4 -0.0001 0.0000 0.0001 14.3557 0.0000 -3.9182
# 5 -38.6392 -12.3629 -27.3059 0.0000 22.1834 0.0000
# 6 0.0000 -0.0001 0.0000 -3.9182 0.0000 34.2204
#
#
#
# Elastic Compliance Matrix: (Units=1/GPa)
#
#
# Indices 1 2 3 4 5 6 
#
# 1 0.018377 -0.005661 0.003640 0.000000 0.033333 0.000000
# 2 -0.005661 0.018735 -0.004742 0.000000 -0.005257 0.000000
# 3 0.003640 -0.004742 0.030179 0.000000 0.040845 0.000000
# 4 0.000000 0.000000 0.000000 0.071906 0.000000 0.008233
# 5 0.033333 -0.005257 0.040845 0.000000 0.150486 0.000000
# 6 0.000000 0.000000 0.000000 0.008233 0.000000 0.030165
#
#
# Mechanical properties :
#
#
# Convention : Reuss Voigt Hill
#
# Bulk Modulus (GPa) = 18.59993 52.47366 35.53679
# Shear Modulus (GPa) = 14.23306 24.78141 19.50724
#
# Velocity S-wave (km/s) = 2.73172 3.60455 3.19805
# Velocity P-wave (km/s) = 4.43865 6.69592 5.68053
#
# Compressibility (1/GPa) = 0.05376366
#
# Stress axis : x y z
#
# Youngs Moduli (GPa) = 54.41708 53.37726 33.13543
#
# Poissons Ratio (x) = 0.30219 -0.12060
# Poissons Ratio (y) = 0.30808 0.15712
# Poissons Ratio (z) = -0.19806 0.25310
#
# Static dielectric constant tensor:
#      x y z
#    x 4.019470 0.000000 -0.094590 
#    y 0.000000 3.278000 0.000000 
#    z -0.094590 0.000000 3.270890 
# 
# 
# High freq. dielectric constant tensor:
#      x y z
#    x 1.767960 0.000000 -0.012480 
#    y 0.000000 1.719310 0.000000 
#    z -0.012480 0.000000 1.700970 
# 
# From -- ./inp_files/319957.got.cif
#   From: 2010.06.25/outbox.cif.g09.slc.cpg/sg12_160_cif.got.tgz:319957.got - 2010.06.28 00:19:55.
