data_PCOD8091179
_publ_section_title
;
Structure prediction by ZEFSAII (Michael W. Deem and Ramdas Pophale) SiO2 
 PCOD8091179
Probable space group: C 2/M
;
_chemical_formula_sum "Si O2"
_cell_formula_units_Z 56
_cell_length_a 21.861533
_cell_length_b 8.925809
_cell_length_c 15.349999
_cell_angle_alpha 90.000000
_cell_angle_beta 114.527952
_cell_angle_gamma 90.000000
_cell_volume 2724.977018
_symmetry_space_group_name_H-M "C 2/M"
_symmetry_group_IT_number 12
_symmetry_cell_setting 'monoclinic'
loop_
_space_group_symop_operation_xyz
x,y,z
-x,y,-z
-x,-y,-z
x,-y,z
1/2+x,1/2+y,z
1/2-x,1/2+y,-z
1/2-x,1/2-y,-z
1/2+x,1/2-y,z
loop_
_atom_site_type_symbol
_atom_site_label
_atom_site_fract_x
_atom_site_fract_y
_atom_site_fract_z
Si Si1 0.992727 0.167291 0.090207
Si Si2 0.175391 0.320571 0.456222
Si Si3 0.893118 0.322962 0.762499
Si Si4 0.156148 0.830911 0.756961
Si Si5 0.804040 0.668608 0.863783
Si Si6 0.079012 0.178836 0.545819
Si Si7 0.659020 0.332238 0.947684
O O1 0.915147 0.162984 0.061376
O O2 0.030990 0.261097 0.187736
O O3 0.023516 0.000000 0.107349
O O4 0.000000 0.244952 0.000000
O O5 0.180854 0.500000 0.469074
O O6 0.250000 0.250000 0.500000
O O7 0.142840 0.268527 0.346056
O O8 0.123955 0.257597 0.498421
O O9 0.893089 0.500000 0.765034
O O10 0.855820 0.255982 0.826536
O O11 0.233220 0.826818 0.770615
O O12 0.108578 0.759015 0.655212
O O13 0.154901 0.749926 0.850917
O O14 0.129943 0.000000 0.755613
O O15 0.826764 0.500000 0.897143
O O16 0.796348 0.747401 0.953660
O O17 0.000000 0.224037 0.500000
O O18 0.088007 0.000000 0.541224
O O19 0.689381 0.500000 0.954646
#
# Coordination Sequence:
#
# PCOD8091179 Si02
#       7
#     8   8   8   8   8   8   8
#     4  10  20  34  53  81 115 149 188 240 287 337
#     4  11  24  43  66  93 124 160 206 262 316 369
#     4  10  22  37  57  83 114 153 192 235 294 358
#     4   9  19  36  57  81 112 150 191 236 287 348
#     4  10  19  34  55  79 111 148 187 231 282 345
#     4  10  22  41  66  92 121 162 209 255 309 372
#     4  10  20  34  54  80 113 147 187 234 282 339
#
# _framework density 20.550632
#
# number of rings (size 3 to 8) (size 9 to 14) (size 15 to 20)
#    0.000    2.000    1.429    1.714    2.000    4.571 
#    0.000    2.857    0.000    0.000    0.000    0.000 
#    0.000    0.000    0.000    0.000    0.000    0.000 
#
# Total GULP energy -346977.184032 kJ/mol
# GULP energy per Si atom -12392.042287 kJ/mol
# Density = 2.050386 g / cm^3
# Si number density = 20.550632 Si / 1000 Ang^3
#
#
#
# Elastic Constant Matrix: (Units=GPa)
#
#
# Indices 1 2 3 4 5 6 
#
# 1 82.6424 21.5653 43.8372 0.0000 -2.5044 0.0000
# 2 21.5653 40.7199 39.4260 0.0000 -0.3366 0.0000
# 3 43.8372 39.4260 174.4533 0.0000 4.1351 0.0000
# 4 0.0000 0.0000 0.0000 23.7595 0.0000 -4.9102
# 5 -2.5044 -0.3366 4.1351 0.0000 38.2869 0.0000
# 6 0.0000 0.0000 0.0000 -4.9102 0.0000 22.6474
#
#
#
# Elastic Compliance Matrix: (Units=1/GPa)
#
#
# Indices 1 2 3 4 5 6 
#
# 1 0.014902 -0.005413 -0.002550 0.000000 0.001203 0.000000
# 2 -0.005413 0.033445 -0.006213 0.000000 0.000611 0.000000
# 3 -0.002550 -0.006213 0.007802 0.000000 -0.001064 0.000000
# 4 0.000000 0.000000 0.000000 0.044063 0.000000 0.009553
# 5 0.001203 0.000611 -0.001064 0.000000 0.026318 0.000000
# 6 0.000000 0.000000 0.000000 0.009553 0.000000 0.046226
#
#
# Mechanical properties :
#
#
# Convention : Reuss Voigt Hill
#
# Bulk Modulus (GPa) = 35.97423 56.38585 46.18004
# Shear Modulus (GPa) = 23.76725 29.80458 26.78591
#
# Velocity S-wave (km/s) = 3.40446 3.81241 3.61419
# Velocity P-wave (km/s) = 5.74430 6.84663 6.31955
#
# Compressibility (1/GPa) = 0.02779768
#
# Stress axis : x y z
#
# Youngs Moduli (GPa) = 67.10580 29.89956 128.16965
#
# Poissons Ratio (x) = 0.16186 0.32679
# Poissons Ratio (y) = 0.36327 0.79628
# Poissons Ratio (z) = 0.17110 0.18576
#
# Static dielectric constant tensor:
#      x y z
#    x 3.798980 0.000000 -0.080570 
#    y 0.000000 3.602740 0.000000 
#    z -0.080570 0.000000 4.010870 
# 
# 
# High freq. dielectric constant tensor:
#      x y z
#    x 1.816050 0.000000 0.001230 
#    y 0.000000 1.767930 0.000000 
#    z 0.001230 0.000000 1.818240 
# 
# From -- ./inp_files/238985.got.cif
#   From: 2010.06.25/outbox.cif.g09.slc.cpg/sg12_120_cif.got.tgz:238985.got - 2010.06.28 00:19:55.
