data_PCOD8091431
_publ_section_title
;
Structure prediction by ZEFSAII (Michael W. Deem and Ramdas Pophale) SiO2 
 PCOD8091431
Probable space group: C 2/M
;
_chemical_formula_sum "Si O2"
_cell_formula_units_Z 56
_cell_length_a 14.462853
_cell_length_b 8.801474
_cell_length_c 29.639426
_cell_angle_alpha 90.000000
_cell_angle_beta 126.839943
_cell_angle_gamma 90.000000
_cell_volume 3019.530041
_symmetry_space_group_name_H-M "C 2/M"
_symmetry_group_IT_number 12
_symmetry_cell_setting 'monoclinic'
loop_
_space_group_symop_operation_xyz
x,y,z
-x,y,-z
-x,-y,-z
x,-y,z
1/2+x,1/2+y,z
1/2-x,1/2+y,-z
1/2-x,1/2-y,-z
1/2+x,1/2-y,z
loop_
_atom_site_type_symbol
_atom_site_label
_atom_site_fract_x
_atom_site_fract_y
_atom_site_fract_z
Si Si1 0.784751 0.820577 0.734687
Si Si2 0.196211 0.327851 0.941257
Si Si3 0.957777 0.819101 0.350346
Si Si4 0.902140 0.173733 0.936498
Si Si5 0.074922 0.320449 0.564356
Si Si6 0.059274 0.321824 0.144241
Si Si7 0.666520 0.678681 0.350605
O O1 0.661069 0.741830 0.705554
O O2 0.868305 0.773130 0.799018
O O3 0.842344 0.767981 0.704174
O O4 0.764229 0.000000 0.729079
O O5 0.177814 0.500000 0.950761
O O6 0.277347 0.311497 0.922079
O O7 0.072142 0.260768 0.891040
O O8 0.250000 0.250000 0.000000
O O9 0.975895 0.760943 0.406445
O O10 0.063277 0.752241 0.350706
O O11 0.955461 0.000000 0.349499
O O12 0.896443 0.285954 0.892797
O O13 0.928293 0.000000 0.929253
O O14 0.000000 0.229301 0.000000
O O15 0.066382 0.500000 0.570050
O O16 0.207596 0.270875 0.593999
O O17 0.000000 0.266529 0.500000
O O18 0.071994 0.500000 0.158285
O O19 0.654690 0.500000 0.349844
#
# Coordination Sequence:
#
# PCOD8091431 Si02
#       7
#     8   8   8   8   8   8   8
#     4  10  21  39  58  76 104 142 182 220 270 331
#     4  10  21  36  55  79 107 138 173 213 259 316
#     4  10  19  34  56  81 110 141 181 231 276 314
#     4  10  20  36  57  79 106 140 175 209 257 322
#     4   9  18  34  54  79 114 153 189 220 260 321
#     4  11  23  37  55  82 111 137 175 225 272 316
#     4   8  17  34  55  78 107 144 181 221 271 319
#
# _framework density 18.545932000000001
#
# number of rings (size 3 to 8) (size 9 to 14) (size 15 to 20)
#    0.000    2.286    1.429    2.143    0.000    3.429 
#    0.000   10.000    0.000    0.000    0.000    0.000 
#    0.000    0.000    0.000    0.000    0.000    0.000 
#
# Total GULP energy -347189.684717 kJ/mol
# GULP energy per Si atom -12399.631597 kJ/mol
# Density = 1.850372 g / cm^3
# Si number density = 18.545932 Si / 1000 Ang^3
#
#
#
# Elastic Constant Matrix: (Units=GPa)
#
#
# Indices 1 2 3 4 5 6 
#
# 1 150.5234 32.2626 69.3647 0.0000 5.2062 0.0000
# 2 32.2626 44.5280 29.2802 0.0000 -0.0171 0.0000
# 3 69.3647 29.2802 153.6320 0.0000 3.7558 0.0000
# 4 0.0000 0.0000 0.0000 26.3874 0.0000 -3.0074
# 5 5.2062 -0.0171 3.7558 0.0000 19.3978 0.0000
# 6 0.0000 0.0000 0.0000 -3.0074 0.0000 26.3615
#
#
#
# Elastic Compliance Matrix: (Units=1/GPa)
#
#
# Indices 1 2 3 4 5 6 
#
# 1 0.009164 -0.004515 -0.003232 0.000000 -0.001838 0.000000
# 2 -0.004515 0.027919 -0.003328 0.000000 0.001881 0.000000
# 3 -0.003232 -0.003328 0.008622 0.000000 -0.000805 0.000000
# 4 0.000000 0.000000 0.000000 0.038396 0.000000 0.004380
# 5 -0.001838 0.001881 -0.000805 0.000000 0.052203 0.000000
# 6 0.000000 0.000000 0.000000 0.004380 0.000000 0.038434
#
#
# Mechanical properties :
#
#
# Convention : Reuss Voigt Hill
#
# Bulk Modulus (GPa) = 42.45591 67.83313 55.14452
# Shear Modulus (GPa) = 24.42110 28.94773 26.68442
#
# Velocity S-wave (km/s) = 3.63270 3.95507 3.79730
# Velocity P-wave (km/s) = 6.36689 7.58366 7.00176
#
# Compressibility (1/GPa) = 0.02355385
#
# Stress axis : x y z
#
# Youngs Moduli (GPa) = 109.11900 35.81840 115.97708
#
# Poissons Ratio (x) = 0.16173 0.37486
# Poissons Ratio (y) = 0.49270 0.38600
# Poissons Ratio (z) = 0.35269 0.11921
#
# Static dielectric constant tensor:
#      x y z
#    x 3.756330 0.000000 0.133370 
#    y 0.000000 3.290100 0.000000 
#    z 0.133370 0.000000 3.424380 
# 
# 
# High freq. dielectric constant tensor:
#      x y z
#    x 1.728070 0.000000 0.004430 
#    y 0.000000 1.707660 0.000000 
#    z 0.004430 0.000000 1.721540 
# 
# From -- ./inp_files/375131.got.cif
#   From: 2010.06.25/outbox.cif.g09.slc.cpg/sg12_188_cif.got.tgz:375131.got - 2010.06.28 00:19:55.
