data_PCOD8091530
_publ_section_title
;
Structure prediction by ZEFSAII (Michael W. Deem and Ramdas Pophale) SiO2 
 PCOD8091530
Probable space group: C 2/M
;
_chemical_formula_sum "Si O2"
_cell_formula_units_Z 48
_cell_length_a 9.445830
_cell_length_b 19.007062
_cell_length_c 19.179186
_cell_angle_alpha 90.000000
_cell_angle_beta 44.081086
_cell_angle_gamma 90.000000
_cell_volume 2395.477628
_symmetry_space_group_name_H-M "C 2/M"
_symmetry_group_IT_number 12
_symmetry_cell_setting 'monoclinic'
loop_
_space_group_symop_operation_xyz
x,y,z
-x,y,-z
-x,-y,-z
x,-y,z
1/2+x,1/2+y,z
1/2-x,1/2+y,-z
1/2-x,1/2-y,-z
1/2+x,1/2-y,z
loop_
_atom_site_type_symbol
_atom_site_label
_atom_site_fract_x
_atom_site_fract_y
_atom_site_fract_z
Si Si1 0.697639 0.358478 0.468509
Si Si2 0.228706 0.920613 0.934443
Si Si3 0.396070 0.719541 0.372876
Si Si4 0.568246 0.801995 0.055236
Si Si5 0.692501 0.714896 0.747930
Si Si6 0.117594 0.421387 0.270281
O O1 0.500000 0.391532 0.500000
O O2 0.665890 0.352955 0.564552
O O3 0.717045 0.277272 0.438227
O O4 0.892810 0.404571 0.378731
O O5 0.349756 0.877823 0.950182
O O6 0.376630 0.917925 0.815265
O O7 0.203006 0.000000 0.971486
O O8 0.000000 0.890171 0.000000
O O9 0.442061 0.707958 0.274600
O O10 0.585933 0.753997 0.345871
O O11 0.393658 0.769721 0.165471
O O12 0.500000 0.808299 0.000000
O O13 0.750000 0.750000 0.000000
O O14 0.712271 0.634300 0.765994
O O15 0.177175 0.500000 0.274830
#
# Coordination Sequence:
#
# PCOD8091530 Si02
#       6
#     8   8   8   8   8   8
#     4  10  19  34  56  84 116 150 200 249 299 359
#     4  10  22  42  65  88 122 165 202 245 309 375
#     4  10  20  33  56  84 114 151 195 248 302 361
#     4  12  23  37  61  95 125 155 204 259 304 356
#     4  11  21  37  58  86 119 157 199 252 304 357
#     4  10  22  38  59  84 118 162 205 246 305 366
#
# _framework density 20.037756999999999
#
# number of rings (size 3 to 8) (size 9 to 14) (size 15 to 20)
#    0.000    1.500    1.667    5.500    0.000    0.667 
#    0.000    1.667    0.000    3.000    0.000    0.000 
#    0.000    0.000    0.000    0.000    0.000    0.000 
#
# Total GULP energy -297398.786274 kJ/mol
# GULP energy per Si atom -12391.616095 kJ/mol
# Density = 1.999215 g / cm^3
# Si number density = 20.037757 Si / 1000 Ang^3
#
#
#
# Elastic Constant Matrix: (Units=GPa)
#
#
# Indices 1 2 3 4 5 6 
#
# 1 113.4925 52.2312 43.6876 -0.0017 20.5112 0.0023
# 2 52.2312 107.5728 37.0899 -0.0009 6.7303 0.0019
# 3 43.6876 37.0899 101.1963 -0.0008 14.5443 0.0017
# 4 -0.0017 -0.0009 -0.0008 30.6651 0.0022 1.1309
# 5 20.5112 6.7303 14.5443 0.0022 37.8493 -0.0024
# 6 0.0023 0.0019 0.0017 1.1309 -0.0024 25.4483
#
#
#
# Elastic Compliance Matrix: (Units=1/GPa)
#
#
# Indices 1 2 3 4 5 6 
#
# 1 0.013258 -0.005034 -0.003149 0.000001 -0.005080 -0.000001
# 2 -0.005034 0.012558 -0.002647 0.000000 0.001512 0.000000
# 3 -0.003149 -0.002647 0.012594 0.000000 -0.002662 -0.000001
# 4 0.000001 0.000000 0.000000 0.032664 -0.000003 -0.001452
# 5 -0.005080 0.001512 -0.002662 -0.000003 0.029928 0.000003
# 6 -0.000001 0.000000 -0.000001 -0.001452 0.000003 0.039360
#
#
# Mechanical properties :
#
#
# Convention : Reuss Voigt Hill
#
# Bulk Modulus (GPa) = 59.69677 65.36434 62.53055
# Shear Modulus (GPa) = 29.83231 31.40940 30.62086
#
# Velocity S-wave (km/s) = 3.86269 3.96348 3.91341
# Velocity P-wave (km/s) = 7.05341 7.32372 7.18984
#
# Compressibility (1/GPa) = 0.01675133
#
# Stress axis : x y z
#
# Youngs Moduli (GPa) = 75.42701 79.62913 79.40401
#
# Poissons Ratio (x) = 0.40084 0.25000
# Poissons Ratio (y) = 0.37969 0.21017
# Poissons Ratio (z) = 0.23748 0.21077
#
# Static dielectric constant tensor:
#      x y z
#    x 3.246070 0.000000 0.092070 
#    y 0.000000 3.477980 0.000000 
#    z 0.092070 0.000000 3.755770 
# 
# 
# High freq. dielectric constant tensor:
#      x y z
#    x 1.771660 0.000000 -0.003210 
#    y 0.000000 1.759920 0.000000 
#    z -0.003210 0.000000 1.798650 
# 
# From -- ./inp_files/257914.got.cif
#   From: 2010.06.25/outbox.cif.g09.slc.cpg/sg12_129_cif.got.tgz:257914.got - 2010.06.28 00:19:55.
