data_PCOD8091226
_publ_section_title
;
Structure prediction by ZEFSAII (Michael W. Deem and Ramdas Pophale) SiO2 
 PCOD8091226
Probable space group: C 2/M
;
_chemical_formula_sum "Si O2"
_cell_formula_units_Z 56
_cell_length_a 24.162395
_cell_length_b 8.800919
_cell_length_c 13.919604
_cell_angle_alpha 90.000000
_cell_angle_beta 71.119470
_cell_angle_gamma 90.000000
_cell_volume 2800.758776
_symmetry_space_group_name_H-M "C 2/M"
_symmetry_group_IT_number 12
_symmetry_cell_setting 'monoclinic'
loop_
_space_group_symop_operation_xyz
x,y,z
-x,y,-z
-x,-y,-z
x,-y,z
1/2+x,1/2+y,z
1/2-x,1/2+y,-z
1/2-x,1/2-y,-z
1/2+x,1/2-y,z
loop_
_atom_site_type_symbol
_atom_site_label
_atom_site_fract_x
_atom_site_fract_y
_atom_site_fract_z
Si Si1 0.216207 0.666982 0.293807
Si Si2 0.375040 0.673970 0.767536
Si Si3 0.514071 0.821353 0.383979
Si Si4 0.810944 0.329944 0.480525
Si Si5 0.155987 0.176781 0.818805
Si Si6 0.312640 0.320859 0.990950
Si Si7 0.085551 0.820391 0.683255
O O1 0.214087 0.500000 0.243881
O O2 0.188320 0.796281 0.243319
O O3 0.179480 0.656637 0.411439
O O4 0.284128 0.710103 0.273838
O O5 0.394286 0.500000 0.742842
O O6 0.421020 0.780907 0.687421
O O7 0.364449 0.714379 0.885444
O O8 0.500000 0.757779 0.500000
O O9 0.472873 0.754421 0.324100
O O10 0.505323 0.000000 0.390250
O O11 0.812893 0.500000 0.433473
O O12 0.750000 0.250000 0.500000
O O13 0.861909 0.222299 0.415999
O O14 0.102620 0.239753 0.781889
O O15 0.144255 0.000000 0.837202
O O16 0.162471 0.247379 0.922032
O O17 0.301707 0.500000 0.004412
O O18 0.250000 0.250000 0.000000
O O19 0.076877 0.000000 0.687752
#
# Coordination Sequence:
#
# PCOD8091226 Si02
#       7
#     8   8   8   8   8   8   8
#     4  10  19  34  55  80 116 159 193 229 290 357
#     4  11  23  37  59  92 119 150 199 251 296 342
#     4  11  25  45  65  85 114 159 203 241 295 362
#     4  11  21  33  51  80 116 153 193 235 289 354
#     4   9  18  35  57  83 118 157 190 229 291 356
#     4  10  20  36  59  88 122 157 197 240 292 351
#     4  11  22  39  61  86 116 154 198 248 298 348
#
# _framework density 19.994582000000001
#
# number of rings (size 3 to 8) (size 9 to 14) (size 15 to 20)
#    0.000    1.571    2.857    2.571    0.000    6.286 
#    0.000    2.143    0.000    4.286    0.000    0.000 
#    0.000    0.000    0.000    0.000    0.000    0.000 
#
# Total GULP energy -346986.844642 kJ/mol
# GULP energy per Si atom -12392.387309 kJ/mol
# Density = 1.994907 g / cm^3
# Si number density = 19.994582 Si / 1000 Ang^3
#
#
#
# Elastic Constant Matrix: (Units=GPa)
#
#
# Indices 1 2 3 4 5 6 
#
# 1 98.4758 30.5776 37.8758 0.0000 21.9142 0.0000
# 2 30.5776 54.6109 28.3416 0.0000 5.9554 0.0000
# 3 37.8758 28.3416 114.4810 0.0000 14.9184 0.0000
# 4 0.0000 0.0000 0.0000 21.7348 0.0000 -0.5176
# 5 21.9142 5.9554 14.9184 0.0000 35.3467 0.0000
# 6 0.0000 0.0000 0.0000 -0.5176 0.0000 34.7450
#
#
#
# Elastic Compliance Matrix: (Units=1/GPa)
#
#
# Indices 1 2 3 4 5 6 
#
# 1 0.014526 -0.006140 -0.002378 0.000000 -0.006968 0.000000
# 2 -0.006140 0.023674 -0.004027 0.000000 0.001518 0.000000
# 3 -0.002378 -0.004027 0.010834 0.000000 -0.002420 0.000000
# 4 0.000000 0.000000 0.000000 0.046026 0.000000 0.000686
# 5 -0.006968 0.001518 -0.002420 0.000000 0.033377 0.000000
# 6 0.000000 0.000000 0.000000 0.000686 0.000000 0.028791
#
#
# Mechanical properties :
#
#
# Convention : Reuss Voigt Hill
#
# Bulk Modulus (GPa) = 41.76340 51.23972 46.50156
# Shear Modulus (GPa) = 26.27441 29.75014 28.01228
#
# Velocity S-wave (km/s) = 3.62895 3.86153 3.74705
# Velocity P-wave (km/s) = 6.20417 6.75013 6.48290
#
# Compressibility (1/GPa) = 0.02394441
#
# Stress axis : x y z
#
# Youngs Moduli (GPa) = 68.83997 42.24120 92.30032
#
# Poissons Ratio (x) = 0.25934 0.21950
# Poissons Ratio (y) = 0.42265 0.37172
# Poissons Ratio (z) = 0.16371 0.17012
#
# Static dielectric constant tensor:
#      x y z
#    x 3.468730 0.000000 0.413490 
#    y 0.000000 3.535970 0.000000 
#    z 0.413490 0.000000 3.913330 
# 
# 
# High freq. dielectric constant tensor:
#      x y z
#    x 1.772640 0.000000 0.013250 
#    y 0.000000 1.766040 0.000000 
#    z 0.013250 0.000000 1.783730 
# 
# From -- ./inp_files/237366.got.cif
#   From: 2010.06.25/outbox.cif.g09.slc.cpg/sg12_119_cif.got.tgz:237366.got - 2010.06.28 00:19:55.
