data_PCOD8091041
_publ_section_title
;
Structure prediction by ZEFSAII (Michael W. Deem and Ramdas Pophale) SiO2 
 PCOD8091041
Probable space group: C 2/M
;
_chemical_formula_sum "Si O2"
_cell_formula_units_Z 52
_cell_length_a 21.872183
_cell_length_b 21.910316
_cell_length_c 4.893889
_cell_angle_alpha 90.000000
_cell_angle_beta 85.893039
_cell_angle_gamma 90.000000
_cell_volume 2339.258536
_symmetry_space_group_name_H-M "C 2/M"
_symmetry_group_IT_number 12
_symmetry_cell_setting 'monoclinic'
loop_
_space_group_symop_operation_xyz
x,y,z
-x,y,-z
-x,-y,-z
x,-y,z
1/2+x,1/2+y,z
1/2-x,1/2+y,-z
1/2-x,1/2-y,-z
1/2+x,1/2-y,z
loop_
_atom_site_type_symbol
_atom_site_label
_atom_site_fract_x
_atom_site_fract_y
_atom_site_fract_z
Si Si1 0.157628 0.570536 0.555433
Si Si2 0.068370 0.871913 0.375463
Si Si3 0.045197 0.500000 0.239507
Si Si4 0.370382 0.427840 0.139854
Si Si5 0.736361 0.069063 0.049832
Si Si6 0.572610 0.121573 0.010649
Si Si7 0.457658 0.240585 0.759464
O O1 0.131585 0.500000 0.534131
O O2 0.185455 0.600505 0.267038
O O3 0.215116 0.571872 0.745038
O O4 0.104268 0.612307 0.706052
O O5 0.117419 0.895198 0.577900
O O6 0.080056 0.799849 0.323981
O O7 0.000000 0.884936 0.500000
O O8 0.077988 0.908671 0.093017
O O9 0.087252 0.562234 0.205286
O O10 0.000000 0.500000 0.500000
O O11 0.000000 0.500000 0.000000
O O12 0.372342 0.500000 0.181957
O O13 0.304307 0.403364 0.055234
O O14 0.739306 0.000000 0.160232
O O15 0.590294 0.186385 0.142341
O O16 0.500000 0.125800 0.000000
O O17 0.500000 0.215911 0.500000
O O18 0.500000 0.260904 0.000000
#
# Coordination Sequence:
#
# PCOD8091041 Si02
#       7
#     8   8   4   8   8   8   8
#     4  10  19  34  54  81 113 148 189 238 279 327
#     4  11  22  37  59  87 118 147 182 226 279 344
#     4  10  20  32  48  78 114 140 176 230 283 328
#     4  11  22  38  61  87 115 147 182 231 285 336
#     4   9  20  36  55  78 109 150 190 223 276 341
#     4  10  21  36  56  85 116 152 189 238 291 333
#     4  10  21  38  56  78 114 159 193 217 267 350
#
# _framework density 22.229265999999999
#
# number of rings (size 3 to 8) (size 9 to 14) (size 15 to 20)
#    0.000    1.846    0.769    4.154    0.000    9.231 
#    0.000    0.000    0.000    5.538    0.000    0.000 
#    0.000    0.000    0.000    0.000    0.000    0.000 
#
# Total GULP energy -322423.459797 kJ/mol
# GULP energy per Si atom -12400.902300 kJ/mol
# Density = 2.217867 g / cm^3
# Si number density = 22.229266 Si / 1000 Ang^3
#
#
#
# Elastic Constant Matrix: (Units=GPa)
#
#
# Indices 1 2 3 4 5 6 
#
# 1 67.1435 36.9169 -3.6260 0.0000 -13.0552 0.0000
# 2 36.9169 121.7669 28.3116 0.0000 0.4763 0.0000
# 3 -3.6260 28.3116 101.7727 0.0000 -13.0744 0.0000
# 4 0.0000 0.0000 0.0000 36.5133 0.0000 1.6917
# 5 -13.0552 0.4763 -13.0744 0.0000 31.0937 0.0000
# 6 0.0000 0.0000 0.0000 1.6917 0.0000 6.9019
#
#
#
# Elastic Compliance Matrix: (Units=1/GPa)
#
#
# Indices 1 2 3 4 5 6 
#
# 1 0.021364 -0.007507 0.004246 0.000000 0.010870 0.000000
# 2 -0.007507 0.011463 -0.004105 0.000000 -0.005054 0.000000
# 3 0.004246 -0.004105 0.012005 0.000000 0.006893 0.000000
# 4 0.000000 0.000000 0.000000 0.027702 0.000000 -0.006790
# 5 0.010870 -0.005054 0.006893 0.000000 0.039701 0.000000
# 6 0.000000 0.000000 0.000000 -0.006790 0.000000 0.146551
#
#
# Mechanical properties :
#
#
# Convention : Reuss Voigt Hill
#
# Bulk Modulus (GPa) = 33.22422 45.98757 39.60589
# Shear Modulus (GPa) = 17.63358 30.17383 23.90370
#
# Velocity S-wave (km/s) = 2.81954 3.68828 3.28277
# Velocity P-wave (km/s) = 5.05751 6.23463 5.67666
#
# Compressibility (1/GPa) = 0.03009852
#
# Stress axis : x y z
#
# Youngs Moduli (GPa) = 46.80844 87.24055 83.30058
#
# Poissons Ratio (x) = 0.65489 -0.35368
# Poissons Ratio (y) = 0.35138 0.34198
# Poissons Ratio (z) = -0.19874 0.35816
#
# Static dielectric constant tensor:
#      x y z
#    x 4.059830 0.000000 0.153990 
#    y 0.000000 -0.113380 0.000000 
#    z 0.153990 0.000000 4.371560 
# 
# 
# High freq. dielectric constant tensor:
#      x y z
#    x 1.871330 0.000000 0.012290 
#    y 0.000000 1.842730 0.000000 
#    z 0.012290 0.000000 1.904720 
# 
# From -- ./inp_files/21173.got.cif
#   From: 2010.06.25/outbox.cif.g09.slc.cpg/sg12_11_cif.got.tgz:21173.got - 2010.06.28 00:19:55.
