data_PCOD8091402
_publ_section_title
;
Structure prediction by ZEFSAII (Michael W. Deem and Ramdas Pophale) SiO2 
 PCOD8091402
Probable space group: C 2/M
;
_chemical_formula_sum "Si O2"
_cell_formula_units_Z 56
_cell_length_a 23.944282
_cell_length_b 8.672915
_cell_length_c 15.182247
_cell_angle_alpha 90.000000
_cell_angle_beta 118.921477
_cell_angle_gamma 90.000000
_cell_volume 2759.634773
_symmetry_space_group_name_H-M "C 2/M"
_symmetry_group_IT_number 12
_symmetry_cell_setting 'monoclinic'
loop_
_space_group_symop_operation_xyz
x,y,z
-x,y,-z
-x,-y,-z
x,-y,z
1/2+x,1/2+y,z
1/2-x,1/2+y,-z
1/2-x,1/2-y,-z
1/2+x,1/2-y,z
loop_
_atom_site_type_symbol
_atom_site_label
_atom_site_fract_x
_atom_site_fract_y
_atom_site_fract_z
Si Si1 0.767663 0.673254 0.280967
Si Si2 0.375544 0.327723 0.816400
Si Si3 0.938517 0.326487 0.012526
Si Si4 0.931727 0.820837 0.189431
Si Si5 0.431448 0.683806 0.679938
Si Si6 0.307590 0.317123 0.485636
Si Si7 0.790800 0.815981 0.112727
O O1 0.794569 0.500000 0.287965
O O2 0.697517 0.666419 0.269188
O O3 0.808598 0.764122 0.384718
O O4 0.763625 0.760708 0.184941
O O5 0.399773 0.500000 0.858519
O O6 0.415583 0.255574 0.766159
O O7 0.379668 0.219173 0.905138
O O8 0.929418 0.500000 0.040999
O O9 0.941986 0.208296 0.094548
O O10 0.000000 0.305389 0.000000
O O11 0.863826 0.749251 0.166587
O O12 0.996091 0.757771 0.288926
O O13 0.927341 0.000000 0.204426
O O14 0.429563 0.500000 0.680239
O O15 0.376655 0.744055 0.572522
O O16 0.302260 0.500000 0.486538
O O17 0.250000 0.250000 0.500000
O O18 0.788657 0.000000 0.103982
O O19 0.750000 0.750000 0.000000
#
# Coordination Sequence:
#
# PCOD8091402 Si02
#       7
#     8   8   8   8   8   8   8
#     4  11  23  40  61  88 119 157 201 245 294 353
#     4  10  19  34  56  80 110 151 195 232 280 348
#     4  11  22  32  47  81 120 148 182 232 295 355
#     4  10  21  39  61  81 109 154 202 241 286 348
#     4   9  18  35  58  84 113 148 192 240 285 342
#     4  11  21  37  61  91 124 157 196 246 300 354
#     4  11  24  42  64  90 117 156 203 248 295 350
#
# _framework density 20.292539999999999
#
# number of rings (size 3 to 8) (size 9 to 14) (size 15 to 20)
#    0.000    1.571    2.857    2.571    0.000    6.286 
#    0.000    2.143    0.000    4.286    0.000    0.000 
#    0.000    0.000    0.000    0.000    0.000    0.000 
#
# Total GULP energy -347004.104346 kJ/mol
# GULP energy per Si atom -12393.003727 kJ/mol
# Density = 2.024635 g / cm^3
# Si number density = 20.292540 Si / 1000 Ang^3
#
#
#
# Elastic Constant Matrix: (Units=GPa)
#
#
# Indices 1 2 3 4 5 6 
#
# 1 100.4106 29.3289 47.5481 0.0000 21.2022 0.0000
# 2 29.3289 48.6711 23.4014 0.0000 4.3507 0.0000
# 3 47.5481 23.4014 132.0556 0.0000 14.3726 0.0000
# 4 0.0000 0.0000 0.0000 30.1687 0.0000 -1.2166
# 5 21.2022 4.3507 14.3726 0.0000 37.4729 0.0000
# 6 0.0000 0.0000 0.0000 -1.2166 0.0000 23.6278
#
#
#
# Elastic Compliance Matrix: (Units=1/GPa)
#
#
# Indices 1 2 3 4 5 6 
#
# 1 0.014915 -0.006746 -0.003487 0.000000 -0.006318 0.000000
# 2 -0.006746 0.025557 -0.002288 0.000000 0.001727 0.000000
# 3 -0.003487 -0.002288 0.009382 0.000000 -0.001360 0.000000
# 4 0.000000 0.000000 0.000000 0.033216 0.000000 0.001710
# 5 -0.006318 0.001727 -0.001360 0.000000 0.030582 0.000000
# 6 0.000000 0.000000 0.000000 0.001710 0.000000 0.042411
#
#
# Mechanical properties :
#
#
# Convention : Reuss Voigt Hill
#
# Bulk Modulus (GPa) = 40.30471 53.52155 46.91313
# Shear Modulus (GPa) = 26.40261 30.31114 28.35688
#
# Velocity S-wave (km/s) = 3.61099 3.86905 3.74224
# Velocity P-wave (km/s) = 6.10660 6.81114 6.46847
#
# Compressibility (1/GPa) = 0.02481100
#
# Stress axis : x y z
#
# Youngs Moduli (GPa) = 67.04636 39.12830 106.59206
#
# Poissons Ratio (x) = 0.26397 0.37171
# Poissons Ratio (y) = 0.45231 0.24387
# Poissons Ratio (z) = 0.23380 0.08952
#
# Static dielectric constant tensor:
#      x y z
#    x 3.858830 0.000000 0.365210 
#    y 0.000000 3.526270 0.000000 
#    z 0.365210 0.000000 3.813080 
# 
# 
# High freq. dielectric constant tensor:
#      x y z
#    x 1.787360 0.000000 0.018660 
#    y 0.000000 1.775340 0.000000 
#    z 0.018660 0.000000 1.793950 
# 
# From -- ./inp_files/238883.got.cif
#   From: 2010.06.25/outbox.cif.g09.slc.cpg/sg12_120_cif.got.tgz:238883.got - 2010.06.28 00:19:55.
