data_PCOD8091183
_publ_section_title
;
Structure prediction by ZEFSAII (Michael W. Deem and Ramdas Pophale) SiO2 
 PCOD8091183
Probable space group: C 2/M
;
_chemical_formula_sum "Si O2"
_cell_formula_units_Z 56
_cell_length_a 15.928123
_cell_length_b 8.993282
_cell_length_c 19.458085
_cell_angle_alpha 90.000000
_cell_angle_beta 90.767682
_cell_angle_gamma 90.000000
_cell_volume 2787.044640
_symmetry_space_group_name_H-M "C 2/M"
_symmetry_group_IT_number 12
_symmetry_cell_setting 'monoclinic'
loop_
_space_group_symop_operation_xyz
x,y,z
-x,y,-z
-x,-y,-z
x,-y,z
1/2+x,1/2+y,z
1/2-x,1/2+y,-z
1/2-x,1/2-y,-z
1/2+x,1/2-y,z
loop_
_atom_site_type_symbol
_atom_site_label
_atom_site_fract_x
_atom_site_fract_y
_atom_site_fract_z
Si Si1 0.750143 0.675807 0.426512
Si Si2 0.661763 0.175901 0.217262
Si Si3 0.905388 0.323742 0.926165
Si Si4 0.085867 0.175822 0.340518
Si Si5 0.418032 0.170281 0.350089
Si Si6 0.906603 0.676508 0.075218
Si Si7 0.171405 0.328557 0.787057
O O1 0.749404 0.500000 0.434639
O O2 0.750000 0.750000 0.500000
O O3 0.665827 0.727897 0.386233
O O4 0.834125 0.727735 0.387553
O O5 0.649200 0.233412 0.138520
O O6 0.592475 0.249562 0.265524
O O7 0.752657 0.231437 0.241677
O O8 0.653528 0.000000 0.223599
O O9 0.910221 0.500000 0.924955
O O10 0.999236 0.259888 0.919318
O O11 0.867755 0.274099 0.000462
O O12 0.998800 0.232820 0.373571
O O13 0.082560 0.000000 0.332826
O O14 0.404478 0.186299 0.267803
O O15 0.436369 0.000000 0.370286
O O16 0.908457 0.500000 0.082588
O O17 0.854448 0.739578 0.139087
O O18 0.200770 0.500000 0.792229
#
# Coordination Sequence:
#
# PCOD8091183 Si02
#       7
#     8   8   8   8   8   8   8
#     4  10  23  43  65  90 125 157 190 236 286 344
#     4  11  21  33  53  81 114 151 195 245 292 344
#     4   8  15  28  46  73 104 139 190 243 289 344
#     4  11  23  41  63  90 121 155 197 243 289 345
#     4  10  21  40  63  89 121 157 197 241 289 345
#     4   8  14  27  49  72 100 143 190 238 293 346
#     4  10  19  34  55  79 113 152 194 242 294 345
#
# _framework density 20.092969
#
# number of rings (size 3 to 8) (size 9 to 14) (size 15 to 20)
#    0.000    2.286    1.429    2.571    0.000    5.714 
#    0.000    2.857    0.000    0.857    0.000    6.000 
#    0.000    0.000    0.000    0.000    0.000    0.000 
#
# Total GULP energy -347074.589285 kJ/mol
# GULP energy per Si atom -12395.521046 kJ/mol
# Density = 2.004724 g / cm^3
# Si number density = 20.092969 Si / 1000 Ang^3
#
#
#
# Elastic Constant Matrix: (Units=GPa)
#
#
# Indices 1 2 3 4 5 6 
#
# 1 132.0829 40.7321 53.7832 0.0000 -4.0009 0.0000
# 2 40.7321 48.8216 36.0369 0.0000 0.4161 0.0000
# 3 53.7832 36.0369 128.0593 0.0000 -6.3665 0.0000
# 4 0.0000 0.0000 0.0000 25.4062 0.0000 -2.5197
# 5 -4.0009 0.4161 -6.3665 0.0000 27.0544 0.0000
# 6 0.0000 0.0000 0.0000 -2.5197 0.0000 29.5467
#
#
#
# Elastic Compliance Matrix: (Units=1/GPa)
#
#
# Indices 1 2 3 4 5 6 
#
# 1 0.010839 -0.007237 -0.002459 0.000000 0.001135 0.000000
# 2 -0.007237 0.030808 -0.005774 0.000000 -0.002903 0.000000
# 3 -0.002459 -0.005774 0.010577 0.000000 0.002214 0.000000
# 4 0.000000 0.000000 0.000000 0.039696 0.000000 0.003385
# 5 0.001135 -0.002903 0.002214 0.000000 0.037696 0.000000
# 6 0.000000 0.000000 0.000000 0.003385 0.000000 0.034133
#
#
# Mechanical properties :
#
#
# Convention : Reuss Voigt Hill
#
# Bulk Modulus (GPa) = 46.98837 63.34090 55.16464
# Shear Modulus (GPa) = 24.77901 28.29557 26.53729
#
# Velocity S-wave (km/s) = 3.51553 3.75671 3.63812
# Velocity P-wave (km/s) = 6.31782 7.09997 6.72028
#
# Compressibility (1/GPa) = 0.02128186
#
# Stress axis : x y z
#
# Youngs Moduli (GPa) = 92.26365 32.45931 94.54817
#
# Poissons Ratio (x) = 0.23492 0.23249
# Poissons Ratio (y) = 0.66774 0.54595
# Poissons Ratio (z) = 0.22687 0.18743
#
# Static dielectric constant tensor:
#      x y z
#    x 3.652470 0.000000 -0.031170 
#    y 0.000000 3.207700 0.000000 
#    z -0.031170 0.000000 3.913790 
# 
# 
# High freq. dielectric constant tensor:
#      x y z
#    x 1.783420 0.000000 -0.002850 
#    y 0.000000 1.744480 0.000000 
#    z -0.002850 0.000000 1.793450 
# 
# From -- ./inp_files/308945.got.cif
#   From: 2010.06.25/outbox.cif.g09.slc.cpg/sg12_155_cif.got.tgz:308945.got - 2010.06.28 00:19:55.
