data_PCOD8091249
_publ_section_title
;
Structure prediction by ZEFSAII (Michael W. Deem and Ramdas Pophale) SiO2 
 PCOD8091249
Probable space group: C 2/M
;
_chemical_formula_sum "Si O2"
_cell_formula_units_Z 64
_cell_length_a 32.154940
_cell_length_b 9.104710
_cell_length_c 24.559120
_cell_angle_alpha 90.000000
_cell_angle_beta 26.759066
_cell_angle_gamma 90.000000
_cell_volume 3237.206771
_symmetry_space_group_name_H-M "C 2/M"
_symmetry_group_IT_number 12
_symmetry_cell_setting 'monoclinic'
loop_
_space_group_symop_operation_xyz
x,y,z
-x,y,-z
-x,-y,-z
x,-y,z
1/2+x,1/2+y,z
1/2-x,1/2+y,-z
1/2-x,1/2-y,-z
1/2+x,1/2-y,z
loop_
_atom_site_type_symbol
_atom_site_label
_atom_site_fract_x
_atom_site_fract_y
_atom_site_fract_z
Si Si1 0.959605 0.828411 0.681761
Si Si2 0.804054 0.167777 0.778271
Si Si3 0.637592 0.668959 0.407905
Si Si4 0.975096 0.825931 0.088575
Si Si5 0.320116 0.170020 0.456599
Si Si6 0.768218 0.828381 0.329296
Si Si7 0.970946 0.673839 0.782816
Si Si8 0.617030 0.674640 0.013915
O O1 0.865924 0.799162 0.758398
O O2 0.951177 0.734730 0.746153
O O3 0.045152 0.770670 0.545060
O O4 0.971086 0.000000 0.682560
O O5 0.868089 0.193331 0.650269
O O6 0.767476 0.000000 0.822079
O O7 0.718672 0.278814 0.876529
O O8 0.649613 0.500000 0.408852
O O9 0.729402 0.751051 0.321089
O O10 0.871238 0.773752 0.223640
O O11 0.044317 0.765528 0.053884
O O12 0.983754 0.000000 0.077543
O O13 0.000000 0.761566 0.000000
O O14 0.250000 0.250000 0.500000
O O15 0.299746 0.215407 0.542344
O O16 0.424839 0.213750 0.320900
O O17 0.301254 0.000000 0.470244
O O18 0.770088 0.000000 0.314691
O O19 0.954110 0.500000 0.802013
O O20 0.903081 0.750478 0.904681
O O21 0.611774 0.500000 0.026628
#
# Coordination Sequence:
#
# PCOD8091249 Si02
#       8
#     8   8   8   8   8   8   8   8
#     4  10  21  39  63  88 117 156 198 241 294 358
#     4  10  22  40  61  87 119 154 194 245 302 352
#     4  10  20  36  60  90 121 152 191 241 296 355
#     4   9  18  33  55  83 115 152 193 236 283 340
#     4  10  21  35  54  81 113 152 194 238 289 342
#     4  10  19  34  55  81 115 152 190 235 287 343
#     4  11  23  40  60  85 120 156 195 249 300 344
#     4  11  23  40  62  87 116 157 204 244 291 355
#
# _framework density 19.770130999999999
#
# number of rings (size 3 to 8) (size 9 to 14) (size 15 to 20)
#    0.000    1.875    1.250    2.625    0.000    6.500 
#    0.000    1.250    0.000    5.625    0.000    0.000 
#    0.000    0.000    0.000    0.000    0.000    0.000 
#
# Total GULP energy -396877.855166 kJ/mol
# GULP energy per Si atom -12402.432974 kJ/mol
# Density = 1.972513 g / cm^3
# Si number density = 19.770131 Si / 1000 Ang^3
#
#
#
# Elastic Constant Matrix: (Units=GPa)
#
#
# Indices 1 2 3 4 5 6 
#
# 1 119.6690 45.8208 35.1626 -0.0129 1.1271 0.0088
# 2 45.8208 54.7607 31.9021 -0.0527 0.4330 0.0200
# 3 35.1626 31.9021 97.2649 -0.0668 3.8116 0.0228
# 4 -0.0129 -0.0527 -0.0668 27.2924 0.0066 -2.8458
# 5 1.1271 0.4330 3.8116 0.0066 33.0140 0.0034
# 6 0.0088 0.0200 0.0228 -2.8458 0.0034 31.3786
#
#
#
# Elastic Compliance Matrix: (Units=1/GPa)
#
#
# Indices 1 2 3 4 5 6 
#
# 1 0.012436 -0.009629 -0.001332 -0.000016 -0.000144 0.000002
# 2 -0.009629 0.030040 -0.006398 0.000037 0.000673 -0.000009
# 3 -0.001332 -0.006398 0.012915 0.000019 -0.001362 -0.000003
# 4 -0.000016 0.000037 0.000019 0.036990 -0.000010 0.003355
# 5 -0.000144 0.000673 -0.001362 -0.000010 0.030444 -0.000004
# 6 0.000002 -0.000009 -0.000003 0.003355 -0.000004 0.032173
#
#
# Mechanical properties :
#
#
# Convention : Reuss Voigt Hill
#
# Bulk Modulus (GPa) = 48.37274 55.27398 51.82336
# Shear Modulus (GPa) = 25.43150 28.92425 27.17788
#
# Velocity S-wave (km/s) = 3.59048 3.82910 3.71171
# Velocity P-wave (km/s) = 6.45828 6.89699 6.68124
#
# Compressibility (1/GPa) = 0.02067280
#
# Stress axis : x y z
#
# Youngs Moduli (GPa) = 80.41261 33.28873 77.43078
#
# Poissons Ratio (x) = 0.32052 0.10314
# Poissons Ratio (y) = 0.77426 0.49544
# Poissons Ratio (z) = 0.10711 0.21300
#
# Static dielectric constant tensor:
#      x y z
#    x 3.637660 -0.000010 0.057210 
#    y -0.000010 3.400180 0.000070 
#    z 0.057210 0.000070 3.682920 
# 
# 
# High freq. dielectric constant tensor:
#      x y z
#    x 1.780270 0.000000 0.002000 
#    y 0.000000 1.750690 0.000010 
#    z 0.002000 0.000010 1.778440 
# 
# From -- ./inp_files/353273.got.cif
#   From: 2010.06.25/outbox.cif.g09.slc.cpg/sg12_177_cif.got.tgz:353273.got - 2010.06.28 00:19:55.
