data_PCOD8091842
_publ_section_title
;
Structure prediction by ZEFSAII (Michael W. Deem and Ramdas Pophale) SiO2 
 PCOD8091842
Probable space group: C 2/M
;
_chemical_formula_sum "Si O2"
_cell_formula_units_Z 52
_cell_length_a 10.897367
_cell_length_b 17.940810
_cell_length_c 14.586944
_cell_angle_alpha 90.000000
_cell_angle_beta 60.455076
_cell_angle_gamma 90.000000
_cell_volume 2481.029245
_symmetry_space_group_name_H-M "C 2/M"
_symmetry_group_IT_number 12
_symmetry_cell_setting 'monoclinic'
loop_
_space_group_symop_operation_xyz
x,y,z
-x,y,-z
-x,-y,-z
x,-y,z
1/2+x,1/2+y,z
1/2-x,1/2+y,-z
1/2-x,1/2-y,-z
1/2+x,1/2-y,z
loop_
_atom_site_type_symbol
_atom_site_label
_atom_site_fract_x
_atom_site_fract_y
_atom_site_fract_z
Si Si1 0.892594 0.630823 0.851953
Si Si2 0.387028 0.582519 0.116278
Si Si3 0.000000 0.343014 0.000000
Si Si4 0.161286 0.688865 0.670839
Si Si5 0.225607 0.782400 0.181265
Si Si6 0.052268 0.152961 0.720426
Si Si7 0.362067 0.584485 0.491562
O O1 0.772499 0.573893 0.863457
O O2 0.828670 0.712087 0.855645
O O3 0.920786 0.611182 0.948980
O O4 0.043875 0.627739 0.745548
O O5 0.436129 0.500000 0.129264
O O6 0.377031 0.637687 0.206982
O O7 0.500000 0.613249 0.000000
O O8 0.885029 0.292021 0.090828
O O9 0.267354 0.718417 0.710714
O O10 0.086769 0.765151 0.664435
O O11 0.245038 0.645997 0.560435
O O12 0.117041 0.850243 0.200066
O O13 0.102123 0.091706 0.629186
O O14 0.500000 0.600536 0.500000
O O15 0.307435 0.500000 0.528719
#
# Coordination Sequence:
#
# PCOD8091842 Si02
#       7
#     8   8   4   8   8   8   8
#     4  10  21  36  57  86 123 162 203 254 314 358
#     4  11  24  40  60  89 130 172 207 249 303 370
#     4  10  20  32  57  90 121 158 202 260 310 352
#     4  10  21  39  61  93 122 157 201 264 316 354
#     4  10  19  34  57  90 122 154 204 256 312 355
#     4  11  21  40  65  90 124 163 213 257 305 371
#     4  11  23  40  64  90 121 162 207 260 316 373
#
# _framework density 20.959043999999999
#
# number of rings (size 3 to 8) (size 9 to 14) (size 15 to 20)
#    0.000    1.538    3.077    2.308    1.077    0.615 
#    0.000    1.154    0.000    1.846    0.000    0.000 
#    0.000    0.000    0.000    0.000    0.000    0.000 
#
# Total GULP energy -322151.386474 kJ/mol
# GULP energy per Si atom -12390.437941 kJ/mol
# Density = 2.091134 g / cm^3
# Si number density = 20.959044 Si / 1000 Ang^3
#
#
#
# Elastic Constant Matrix: (Units=GPa)
#
#
# Indices 1 2 3 4 5 6 
#
# 1 110.8048 12.8778 41.3042 0.0000 2.3563 0.0000
# 2 12.8778 73.3166 40.8347 0.0000 -7.6197 0.0000
# 3 41.3042 40.8347 110.8766 0.0000 7.5514 0.0000
# 4 0.0000 0.0000 0.0000 20.8019 0.0000 -1.6227
# 5 2.3563 -7.6197 7.5514 0.0000 29.2355 0.0000
# 6 0.0000 0.0000 0.0000 -1.6227 0.0000 15.8762
#
#
#
# Elastic Compliance Matrix: (Units=1/GPa)
#
#
# Indices 1 2 3 4 5 6 
#
# 1 0.010494 0.000481 -0.004110 0.000000 0.000341 0.000000
# 2 0.000481 0.018367 -0.007397 0.000000 0.006659 0.000000
# 3 -0.004110 -0.007397 0.013623 0.000000 -0.005115 0.000000
# 4 0.000000 0.000000 0.000000 0.048459 0.000000 0.004953
# 5 0.000341 0.006659 -0.005115 0.000000 0.037234 0.000000
# 6 0.000000 0.000000 0.000000 0.004953 0.000000 0.063494
#
#
# Mechanical properties :
#
#
# Convention : Reuss Voigt Hill
#
# Bulk Modulus (GPa) = 48.94250 53.89239 51.41745
# Shear Modulus (GPa) = 22.67246 26.51479 24.59363
#
# Velocity S-wave (km/s) = 3.29257 3.56065 3.42923
# Velocity P-wave (km/s) = 6.15279 6.53248 6.34548
#
# Compressibility (1/GPa) = 0.02043214
#
# Stress axis : x y z
#
# Youngs Moduli (GPa) = 95.29609 54.44568 73.40727
#
# Poissons Ratio (x) = -0.02620 0.30167
# Poissons Ratio (y) = -0.04585 0.54300
# Poissons Ratio (z) = 0.39163 0.40274
#
# Static dielectric constant tensor:
#      x y z
#    x 4.169070 0.000000 -0.171910 
#    y 0.000000 3.428940 0.000000 
#    z -0.171910 0.000000 3.788450 
# 
# 
# High freq. dielectric constant tensor:
#      x y z
#    x 1.833830 0.000000 -0.005710 
#    y 0.000000 1.791040 0.000000 
#    z -0.005710 0.000000 1.816410 
# 
# From -- ./inp_files/207608.got.cif
#   From: 2010.06.25/outbox.cif.g09.slc.cpg/sg12_104_cif.got.tgz:207608.got - 2010.06.28 00:19:55.
