data_PCOD8091853
_publ_section_title
;
Structure prediction by ZEFSAII (Michael W. Deem and Ramdas Pophale) SiO2 
 PCOD8091853
Probable space group: C 2/M
;
_chemical_formula_sum "Si O2"
_cell_formula_units_Z 56
_cell_length_a 18.672749
_cell_length_b 9.056920
_cell_length_c 17.477542
_cell_angle_alpha 90.000000
_cell_angle_beta 82.090436
_cell_angle_gamma 90.000000
_cell_volume 2927.640248
_symmetry_space_group_name_H-M "C 2/M"
_symmetry_group_IT_number 12
_symmetry_cell_setting 'monoclinic'
loop_
_space_group_symop_operation_xyz
x,y,z
-x,y,-z
-x,-y,-z
x,-y,z
1/2+x,1/2+y,z
1/2-x,1/2+y,-z
1/2-x,1/2-y,-z
1/2+x,1/2-y,z
loop_
_atom_site_type_symbol
_atom_site_label
_atom_site_fract_x
_atom_site_fract_y
_atom_site_fract_z
Si Si1 0.546565 0.675140 0.271222
Si Si2 0.881752 0.824840 0.294398
Si Si3 0.682016 0.665521 0.538758
Si Si4 0.058883 0.166441 0.438196
Si Si5 0.809233 0.174357 0.152757
Si Si6 0.850758 0.324036 0.865001
Si Si7 0.083806 0.173752 0.997147
O O1 0.559194 0.500000 0.258118
O O2 0.464174 0.722294 0.266291
O O3 0.566850 0.735128 0.352994
O O4 0.598215 0.764776 0.208597
O O5 0.854446 0.761072 0.380378
O O6 0.831315 0.762512 0.233258
O O7 0.879114 0.000000 0.298307
O O8 0.704644 0.500000 0.556852
O O9 0.750000 0.750000 0.500000
O O10 0.633130 0.669049 0.471290
O O11 0.000000 0.250512 0.500000
O O12 0.029372 0.000000 0.427907
O O13 0.731014 0.235308 0.138064
O O14 0.872391 0.220487 0.084932
O O15 0.804816 0.000000 0.158564
O O16 0.853084 0.500000 0.866702
O O17 0.879135 0.262211 0.940417
O O18 0.089918 0.000000 0.013600
O O19 0.000000 0.219930 0.000000
#
# Coordination Sequence:
#
# PCOD8091853 Si02
#       7
#     8   8   8   8   8   8   8
#     4  10  19  34  58  80 104 141 189 233 265 308
#     4   9  17  33  56  78 102 141 187 225 262 310
#     4  10  20  33  53  79 109 143 180 224 273 323
#     4   9  16  31  54  81 105 135 185 237 273 305
#     4   9  19  34  53  80 111 140 175 218 264 318
#     4  11  23  36  53  81 117 146 170 212 273 330
#     4  10  20  38  64  86 104 135 184 226 256 308
#
# _framework density 19.128031
#
# number of rings (size 3 to 8) (size 9 to 14) (size 15 to 20)
#    0.000    2.286    1.429    1.714    2.000    2.571 
#    0.000    1.429    0.000    3.429    0.000    0.000 
#    0.000    0.000    0.000    0.000    0.000    0.000 
#
# Total GULP energy -347070.665621 kJ/mol
# GULP energy per Si atom -12395.380915 kJ/mol
# Density = 1.908450 g / cm^3
# Si number density = 19.128031 Si / 1000 Ang^3
#
#
#
# Elastic Constant Matrix: (Units=GPa)
#
#
# Indices 1 2 3 4 5 6 
#
# 1 154.1443 33.4432 75.8925 0.0000 -2.9268 0.0000
# 2 33.4432 32.1201 25.3867 0.0000 0.2085 0.0000
# 3 75.8925 25.3867 133.9160 0.0000 8.2017 0.0000
# 4 0.0000 0.0000 0.0000 19.1794 0.0000 -4.2030
# 5 -2.9268 0.2085 8.2017 0.0000 42.9665 0.0000
# 6 0.0000 0.0000 0.0000 -4.2030 0.0000 21.7721
#
#
#
# Elastic Compliance Matrix: (Units=1/GPa)
#
#
# Indices 1 2 3 4 5 6 
#
# 1 0.010331 -0.007129 -0.004602 0.000000 0.001617 0.000000
# 2 -0.007129 0.041597 -0.003848 0.000000 0.000047 0.000000
# 3 -0.004602 -0.003848 0.010951 0.000000 -0.002385 0.000000
# 4 0.000000 0.000000 0.000000 0.054442 0.000000 0.010510
# 5 0.001617 0.000047 -0.002385 0.000000 0.023839 0.000000
# 6 0.000000 0.000000 0.000000 0.010510 0.000000 0.047959
#
#
# Mechanical properties :
#
#
# Convention : Reuss Voigt Hill
#
# Bulk Modulus (GPa) = 31.52608 65.51393 48.52001
# Shear Modulus (GPa) = 21.65882 29.14747 25.40315
#
# Velocity S-wave (km/s) = 3.36863 3.90783 3.64821
# Velocity P-wave (km/s) = 5.62562 7.39501 6.57015
#
# Compressibility (1/GPa) = 0.03171977
#
# Stress axis : x y z
#
# Youngs Moduli (GPa) = 96.79830 24.03991 91.31541
#
# Poissons Ratio (x) = 0.17139 0.42024
# Poissons Ratio (y) = 0.69012 0.35140
# Poissons Ratio (z) = 0.44548 0.09251
#
# Static dielectric constant tensor:
#      x y z
#    x 3.595420 0.000000 0.025720 
#    y 0.000000 3.053000 0.000000 
#    z 0.025720 0.000000 3.861640 
# 
# 
# High freq. dielectric constant tensor:
#      x y z
#    x 1.758070 0.000000 0.002480 
#    y 0.000000 1.686750 0.000000 
#    z 0.002480 0.000000 1.766460 
# 
# From -- ./inp_files/275174.got.cif
#   From: 2010.06.25/outbox.cif.g09.slc.cpg/sg12_138_cif.got.tgz:275174.got - 2010.06.28 00:19:55.
