data_PCOD8091035
_publ_section_title
;
Structure prediction by ZEFSAII (Michael W. Deem and Ramdas Pophale) SiO2 
 PCOD8091035
Probable space group: C 2/M
;
_chemical_formula_sum "Si O2"
_cell_formula_units_Z 64
_cell_length_a 21.799135
_cell_length_b 24.682634
_cell_length_c 7.674195
_cell_angle_alpha 90.000000
_cell_angle_beta 130.795115
_cell_angle_gamma 90.000000
_cell_volume 3125.997284
_symmetry_space_group_name_H-M "C 2/M"
_symmetry_group_IT_number 12
_symmetry_cell_setting 'monoclinic'
loop_
_space_group_symop_operation_xyz
x,y,z
-x,y,-z
-x,-y,-z
x,-y,z
1/2+x,1/2+y,z
1/2-x,1/2+y,-z
1/2-x,1/2-y,-z
1/2+x,1/2-y,z
loop_
_atom_site_type_symbol
_atom_site_label
_atom_site_fract_x
_atom_site_fract_y
_atom_site_fract_z
Si Si1 0.133951 0.255388 0.043014
Si Si2 0.316311 0.939589 0.509023
Si Si3 0.239318 0.671083 0.683694
Si Si4 0.917101 0.202116 0.399414
Si Si5 0.847672 0.439321 0.975764
Si Si6 0.744373 0.840107 0.084884
Si Si7 0.072081 0.715607 0.277129
Si Si8 0.484619 0.899935 0.775577
O O1 0.177789 0.202480 0.207900
O O2 0.198578 0.304560 0.145994
O O3 0.060488 0.269285 0.045055
O O4 0.098920 0.244425 0.786924
O O5 0.250565 0.893542 0.334516
O O6 0.333190 0.934791 0.744036
O O7 0.399779 0.926988 0.557367
O O8 0.285103 0.000000 0.402121
O O9 0.165430 0.695690 0.438161
O O10 0.221260 0.683128 0.853274
O O11 0.841808 0.162098 0.291144
O O12 0.936602 0.233853 0.612748
O O13 0.000000 0.169908 0.500000
O O14 0.834816 0.500000 0.020545
O O15 0.782004 0.402473 0.951631
O O16 0.938833 0.419861 0.196090
O O17 0.018209 0.665152 0.242724
O O18 0.500000 0.919814 0.000000
#
# Coordination Sequence:
#
# PCOD8091035 Si02
#       8
#     8   8   8   8   8   8   8   8
#     4  11  21  38  58  85 116 154 197 236 289 347
#     4   9  18  32  52  80 113 152 196 236 284 342
#     4  10  19  34  54  80 113 154 194 242 286 333
#     4  11  25  38  54  83 118 150 190 240 289 349
#     4  10  21  36  58  82 111 154 199 240 283 338
#     4  11  21  39  56  80 117 147 194 248 286 344
#     4  11  21  33  58  83 114 159 192 231 285 344
#     4   9  18  31  51  81 115 154 193 229 275 336
#
# _framework density 20.473465999999998
#
# number of rings (size 3 to 8) (size 9 to 14) (size 15 to 20)
#    0.000    1.750    2.500    3.750    5.250    2.000 
#    0.000    1.875    0.000    4.125    0.000    0.000 
#    0.000    4.500    0.000    0.000    0.000    0.000 
#
# Total GULP energy -396740.820512 kJ/mol
# GULP energy per Si atom -12398.150641 kJ/mol
# Density = 2.042687 g / cm^3
# Si number density = 20.473466 Si / 1000 Ang^3
#
#
#
# Elastic Constant Matrix: (Units=GPa)
#
#
# Indices 1 2 3 4 5 6 
#
# 1 100.5284 35.6100 5.6520 0.0000 15.5978 0.0000
# 2 35.6100 111.8665 7.3862 0.0000 14.2347 0.0000
# 3 5.6520 7.3862 40.9766 0.0000 -0.4644 0.0000
# 4 0.0000 0.0000 0.0000 28.5588 0.0000 4.4156
# 5 15.5978 14.2347 -0.4644 0.0000 28.2641 0.0000
# 6 0.0000 0.0000 0.0000 4.4156 0.0000 28.0940
#
#
#
# Elastic Compliance Matrix: (Units=1/GPa)
#
#
# Indices 1 2 3 4 5 6 
#
# 1 0.011878 -0.003066 -0.001143 0.000000 -0.005030 0.000000
# 2 -0.003066 0.010474 -0.001506 0.000000 -0.003608 0.000000
# 3 -0.001143 -0.001506 0.024854 0.000000 0.001797 0.000000
# 4 0.000000 0.000000 0.000000 0.035888 0.000000 -0.005641
# 5 -0.005030 -0.003608 0.001797 0.000000 0.040003 0.000000
# 6 0.000000 0.000000 0.000000 -0.005641 0.000000 0.036481
#
#
# Mechanical properties :
#
#
# Convention : Reuss Voigt Hill
#
# Bulk Modulus (GPa) = 27.95123 38.96310 33.45716
# Shear Modulus (GPa) = 27.33268 30.63160 28.98214
#
# Velocity S-wave (km/s) = 3.65777 3.87222 3.76652
# Velocity P-wave (km/s) = 5.61436 6.25016 5.94077
#
# Compressibility (1/GPa) = 0.03577660
#
# Stress axis : x y z
#
# Youngs Moduli (GPa) = 84.18906 95.47817 40.23553
#
# Poissons Ratio (x) = 0.29270 0.04598
# Poissons Ratio (y) = 0.25809 0.06059
# Poissons Ratio (z) = 0.09621 0.14379
#
# Static dielectric constant tensor:
#      x y z
#    x 3.755960 0.000000 0.154670 
#    y 0.000000 3.642950 0.000000 
#    z 0.154670 0.000000 3.802340 
# 
# 
# High freq. dielectric constant tensor:
#      x y z
#    x 1.795200 0.000000 -0.005320 
#    y 0.000000 1.772200 0.000000 
#    z -0.005320 0.000000 1.798270 
# 
# From -- ./inp_files/99679.got.cif
#   From: 2010.06.25/outbox.cif.g09.slc.cpg/sg12_50_cif.got.tgz:99679.got - 2010.06.28 00:19:55.
