data_PCOD8091106
_publ_section_title
;
Structure prediction by ZEFSAII (Michael W. Deem and Ramdas Pophale) SiO2 
 PCOD8091106
Probable space group: C 2/M
;
_chemical_formula_sum "Si O2"
_cell_formula_units_Z 64
_cell_length_a 20.784821
_cell_length_b 9.216075
_cell_length_c 18.374583
_cell_angle_alpha 90.000000
_cell_angle_beta 108.044446
_cell_angle_gamma 90.000000
_cell_volume 3346.620740
_symmetry_space_group_name_H-M "C 2/M"
_symmetry_group_IT_number 12
_symmetry_cell_setting 'monoclinic'
loop_
_space_group_symop_operation_xyz
x,y,z
-x,y,-z
-x,-y,-z
x,-y,z
1/2+x,1/2+y,z
1/2-x,1/2+y,-z
1/2-x,1/2-y,-z
1/2+x,1/2-y,z
loop_
_atom_site_type_symbol
_atom_site_label
_atom_site_fract_x
_atom_site_fract_y
_atom_site_fract_z
Si Si1 0.959207 0.172964 0.416132
Si Si2 0.178529 0.830444 0.135494
Si Si3 0.691220 0.660001 0.647263
Si Si4 0.819368 0.833255 0.695024
Si Si5 0.467093 0.670876 0.704687
Si Si6 0.692238 0.338349 0.818339
Si Si7 0.576940 0.837914 0.004692
Si Si8 0.432029 0.171398 0.165240
O O1 0.997672 0.226900 0.357116
O O2 0.000000 0.231716 0.500000
O O3 0.882140 0.233252 0.394297
O O4 0.956359 0.000000 0.413559
O O5 0.166655 0.794022 0.215917
O O6 0.243382 0.745514 0.126150
O O7 0.189860 0.000000 0.126313
O O8 0.114295 0.777959 0.067789
O O9 0.693946 0.500000 0.612492
O O10 0.754666 0.750380 0.638117
O O11 0.701428 0.647626 0.736244
O O12 0.886880 0.794980 0.673043
O O13 0.800355 0.000000 0.680805
O O14 0.479627 0.500000 0.721880
O O15 0.497530 0.758674 0.783568
O O16 0.686205 0.500000 0.850799
O O17 0.626132 0.244041 0.807795
O O18 0.582254 0.789257 0.923103
O O19 0.607446 0.000000 0.026337
O O20 0.500000 0.838149 0.000000
O O21 0.434413 0.000000 0.179370
#
# Coordination Sequence:
#
# PCOD8091106 Si02
#       8
#     8   8   8   8   8   8   8   8
#     4   9  17  32  56  83 108 138 179 220 257 310
#     4  10  20  34  52  77 105 136 178 222 271 317
#     4   9  17  32  54  79 105 139 180 216 257 313
#     4   9  19  33  53  79 108 142 176 221 269 312
#     4  10  19  35  56  80 108 139 181 220 263 319
#     4  10  19  34  55  77 102 138 179 218 263 316
#     4  10  22  38  52  70 101 140 178 217 268 323
#     4  11  22  34  53  79 105 135 174 222 270 311
#
# _framework density 19.12377
#
# number of rings (size 3 to 8) (size 9 to 14) (size 15 to 20)
#    0.000    2.250    1.250    1.875    0.000    3.250 
#    0.000    0.625    0.000    1.500    0.000    0.000 
#    0.000    0.000    0.000    0.000    0.000    0.000 
#
# Total GULP energy -396754.176314 kJ/mol
# GULP energy per Si atom -12398.568010 kJ/mol
# Density = 1.908024 g / cm^3
# Si number density = 19.123770 Si / 1000 Ang^3
#
#
#
# Elastic Constant Matrix: (Units=GPa)
#
#
# Indices 1 2 3 4 5 6 
#
# 1 117.6787 45.1999 40.1624 0.0000 25.8397 0.0000
# 2 45.1999 73.8817 40.3607 0.0000 11.9392 0.0000
# 3 40.1624 40.3607 77.6407 0.0000 22.3983 0.0000
# 4 0.0000 0.0000 0.0000 18.3322 0.0000 9.0601
# 5 25.8397 11.9392 22.3983 0.0000 25.6916 0.0000
# 6 0.0000 0.0000 0.0000 9.0601 0.0000 29.3634
#
#
#
# Elastic Compliance Matrix: (Units=1/GPa)
#
#
# Indices 1 2 3 4 5 6 
#
# 1 0.013270 -0.006047 -0.000910 0.000000 -0.009743 0.000000
# 2 -0.006047 0.021660 -0.009329 0.000000 0.004149 0.000000
# 3 -0.000910 -0.009329 0.022292 0.000000 -0.014184 0.000000
# 4 0.000000 0.000000 0.000000 0.064364 0.000000 -0.019860
# 5 -0.009743 0.004149 -0.014184 0.000000 0.059160 0.000000
# 6 0.000000 0.000000 0.000000 -0.019860 0.000000 0.040184
#
#
# Mechanical properties :
#
#
# Convention : Reuss Voigt Hill
#
# Bulk Modulus (GPa) = 40.56709 57.84969 49.20839
# Shear Modulus (GPa) = 19.10445 24.24266 21.67355
#
# Velocity S-wave (km/s) = 3.16411 3.56430 3.37015
# Velocity P-wave (km/s) = 5.88283 6.87421 6.39776
#
# Compressibility (1/GPa) = 0.02465052
#
# Stress axis : x y z
#
# Youngs Moduli (GPa) = 75.35591 46.16740 44.85898
#
# Poissons Ratio (x) = 0.27917 0.04084
# Poissons Ratio (y) = 0.45566 0.41848
# Poissons Ratio (z) = 0.06861 0.43069
#
# Static dielectric constant tensor:
#      x y z
#    x 3.414420 0.000000 0.461010 
#    y 0.000000 3.526910 0.000000 
#    z 0.461010 0.000000 2.828260 
# 
# 
# High freq. dielectric constant tensor:
#      x y z
#    x 1.751610 0.000000 0.015160 
#    y 0.000000 1.730660 0.000000 
#    z 0.015160 0.000000 1.723310 
# 
# From -- ./inp_files/320083.got.cif
#   From: 2010.06.25/outbox.cif.g09.slc.cpg/sg12_161_cif.got.tgz:320083.got - 2010.06.28 00:19:55.
