data_PCOD8091145
_publ_section_title
;
Structure prediction by ZEFSAII (Michael W. Deem and Ramdas Pophale) SiO2 
 PCOD8091145
Probable space group: C 2/M
;
_chemical_formula_sum "Si O2"
_cell_formula_units_Z 64
_cell_length_a 23.904568
_cell_length_b 8.809504
_cell_length_c 31.047782
_cell_angle_alpha 90.000000
_cell_angle_beta 30.200142
_cell_angle_gamma 90.000000
_cell_volume 3288.894883
_symmetry_space_group_name_H-M "C 2/M"
_symmetry_group_IT_number 12
_symmetry_cell_setting 'monoclinic'
loop_
_space_group_symop_operation_xyz
x,y,z
-x,y,-z
-x,-y,-z
x,-y,z
1/2+x,1/2+y,z
1/2-x,1/2+y,-z
1/2-x,1/2-y,-z
1/2+x,1/2-y,z
loop_
_atom_site_type_symbol
_atom_site_label
_atom_site_fract_x
_atom_site_fract_y
_atom_site_fract_z
Si Si1 0.654218 0.679662 0.093161
Si Si2 0.966571 0.326363 0.973161
Si Si3 0.650795 0.176451 0.272486
Si Si4 0.678776 0.175824 0.781092
Si Si5 0.922997 0.323766 0.239464
Si Si6 0.264696 0.820951 0.875908
Si Si7 0.175534 0.825449 0.612302
Si Si8 0.404099 0.825604 0.418703
O O1 0.665711 0.500000 0.084103
O O2 0.533988 0.728865 0.155496
O O3 0.661299 0.738401 0.137432
O O4 0.750000 0.750000 0.000000
O O5 0.936748 0.500000 0.980405
O O6 0.068469 0.261282 0.877729
O O7 0.863333 0.219369 0.031103
O O8 0.000000 0.312949 0.000000
O O9 0.711263 0.246826 0.273451
O O10 0.696592 0.241154 0.196537
O O11 0.520378 0.213587 0.364139
O O12 0.675630 0.000000 0.256945
O O13 0.666977 0.208892 0.738218
O O14 0.690054 0.000000 0.784330
O O15 0.956348 0.500000 0.218376
O O16 0.864787 0.279266 0.322407
O O17 0.283432 0.000000 0.867846
O O18 0.306766 0.796000 0.517968
O O19 0.109053 0.782397 0.613556
O O20 0.150385 0.000000 0.640231
O O21 0.401616 0.000000 0.404230
#
# Coordination Sequence:
#
# PCOD8091145 Si02
#       8
#     8   8   8   8   8   8   8   8
#     4  12  25  41  61  86 116 152 193 239 288 343
#     4  10  19  34  55  78 109 150 194 241 287 334
#     4  10  21  36  56  83 114 147 184 234 290 340
#     4  10  22  38  56  79 109 150 194 236 284 341
#     4  11  23  40  60  83 117 157 194 235 287 345
#     4  11  22  35  56  86 117 150 189 237 292 348
#     4  10  20  36  61  90 115 149 193 235 286 348
#     4   9  19  37  60  87 119 149 184 236 295 349
#
# _framework density 19.459423999999999
#
# number of rings (size 3 to 8) (size 9 to 14) (size 15 to 20)
#    0.000    1.625    1.250    3.750    0.000    5.250 
#    0.000    0.625    0.000    3.750    0.000    0.000 
#    0.000    0.000    0.000    0.000    0.000    0.000 
#
# Total GULP energy -396947.053001 kJ/mol
# GULP energy per Si atom -12404.595406 kJ/mol
# Density = 1.941513 g / cm^3
# Si number density = 19.459424 Si / 1000 Ang^3
#
#
#
# Elastic Constant Matrix: (Units=GPa)
#
#
# Indices 1 2 3 4 5 6 
#
# 1 107.6067 45.8894 47.6831 -0.0105 -13.2461 -0.2250
# 2 45.8894 83.8640 33.4711 0.0638 -4.7208 -0.1177
# 3 47.6831 33.4711 99.4711 -0.0112 -10.2658 -0.0230
# 4 -0.0105 0.0638 -0.0112 26.0533 0.0275 -2.4423
# 5 -13.2461 -4.7208 -10.2658 0.0275 32.0945 0.0624
# 6 -0.2250 -0.1177 -0.0230 -2.4423 0.0624 34.4562
#
#
#
# Elastic Compliance Matrix: (Units=1/GPa)
#
#
# Indices 1 2 3 4 5 6 
#
# 1 0.014181 -0.005767 -0.004489 0.000020 0.003569 0.000065
# 2 -0.005767 0.016129 -0.002754 -0.000041 -0.000889 0.000014
# 3 -0.004489 -0.002754 0.013339 0.000005 0.002009 -0.000033
# 4 0.000020 -0.000041 0.000005 0.038640 -0.000034 0.002739
# 5 0.003569 -0.000889 0.002009 -0.000034 0.033143 -0.000041
# 6 0.000065 0.000014 -0.000033 0.002739 -0.000041 0.029217
#
#
# Mechanical properties :
#
#
# Convention : Reuss Voigt Hill
#
# Bulk Modulus (GPa) = 56.72736 60.55876 58.64306
# Shear Modulus (GPa) = 28.32114 29.44734 28.88424
#
# Velocity S-wave (km/s) = 3.81910 3.89430 3.85688
# Velocity P-wave (km/s) = 6.97584 7.16999 7.07358
#
# Compressibility (1/GPa) = 0.01762818
#
# Stress axis : x y z
#
# Youngs Moduli (GPa) = 70.51602 61.99955 74.96679
#
# Poissons Ratio (x) = 0.35756 0.33653
# Poissons Ratio (y) = 0.40668 0.20649
# Poissons Ratio (z) = 0.31655 0.17077
#
# Static dielectric constant tensor:
#      x y z
#    x 3.600810 -0.000120 -0.062190 
#    y -0.000120 3.522860 0.000130 
#    z -0.062190 0.000130 3.609440 
# 
# 
# High freq. dielectric constant tensor:
#      x y z
#    x 1.759300 -0.000010 -0.004410 
#    y -0.000010 1.756970 0.000000 
#    z -0.004410 0.000000 1.755750 
# 
# From -- ./inp_files/382372.got.cif
#   From: 2010.06.25/outbox.cif.g09.slc.cpg/sg12_192_cif.got.tgz:382372.got - 2010.06.28 00:19:55.
