data_PCOD8091320
_publ_section_title
;
Structure prediction by ZEFSAII (Michael W. Deem and Ramdas Pophale) SiO2 
 PCOD8091320
Probable space group: C 2/M
;
_chemical_formula_sum "Si O2"
_cell_formula_units_Z 64
_cell_length_a 20.850380
_cell_length_b 9.582335
_cell_length_c 18.412423
_cell_angle_alpha 90.000000
_cell_angle_beta 108.850567
_cell_angle_gamma 90.000000
_cell_volume 3481.406180
_symmetry_space_group_name_H-M "C 2/M"
_symmetry_group_IT_number 12
_symmetry_cell_setting 'monoclinic'
loop_
_space_group_symop_operation_xyz
x,y,z
-x,y,-z
-x,-y,-z
x,-y,z
1/2+x,1/2+y,z
1/2-x,1/2+y,-z
1/2-x,1/2-y,-z
1/2+x,1/2-y,z
loop_
_atom_site_type_symbol
_atom_site_label
_atom_site_fract_x
_atom_site_fract_y
_atom_site_fract_z
Si Si1 0.049098 0.847809 0.180245
Si Si2 0.441903 0.343574 0.645210
Si Si3 0.684320 0.337514 0.147818
Si Si4 0.432221 0.163971 0.310920
Si Si5 0.689588 0.162122 0.009134
Si Si6 0.786690 0.335071 0.304745
Si Si7 0.432714 0.843210 0.144502
Si Si8 0.713022 0.666540 0.423904
O O1 0.051771 0.840754 0.266935
O O2 0.123115 0.812366 0.179968
O O3 0.992985 0.743136 0.129345
O O4 0.026624 0.000000 0.144797
O O5 0.453507 0.500000 0.619184
O O6 0.500958 0.243774 0.634216
O O7 0.366188 0.291381 0.598835
O O8 0.690622 0.500000 0.124777
O O9 0.668610 0.234655 0.076075
O O10 0.750695 0.287327 0.216493
O O11 0.365578 0.213043 0.331817
O O12 0.417269 0.203166 0.221459
O O13 0.445376 0.000000 0.325804
O O14 0.708452 0.000000 0.029106
O O15 0.750000 0.250000 0.000000
O O16 0.632504 0.176914 0.928002
O O17 0.782398 0.500000 0.304696
O O18 0.746860 0.279111 0.360949
O O19 0.459015 0.000000 0.154057
O O20 0.722175 0.500000 0.435885
O O21 0.750000 0.750000 0.500000
#
# Coordination Sequence:
#
# PCOD8091320 Si02
#       8
#     8   8   8   8   8   8   8   8
#     4   9  17  31  54  79 100 133 178 218 259 312
#     4   9  17  33  54  78 108 140 173 211 264 319
#     4  10  19  34  56  78 102 136 179 223 266 315
#     4   9  17  31  55  80 100 135 182 222 257 304
#     4  11  23  37  51  71 102 141 180 222 274 322
#     4   9  17  34  58  80 105 139 181 220 262 319
#     4   9  19  34  50  72 105 139 172 215 270 316
#     4  10  20  36  58  82 108 140 174 214 263 317
#
# _framework density 18.383376999999999
#
# number of rings (size 3 to 8) (size 9 to 14) (size 15 to 20)
#    0.000    2.500    1.250    1.125    0.000    4.500 
#    0.000    7.500    0.000    3.750    0.000    0.000 
#    0.000    0.000    0.000    0.000    0.000    0.000 
#
# Total GULP energy -396618.386279 kJ/mol
# GULP energy per Si atom -12394.324571 kJ/mol
# Density = 1.834154 g / cm^3
# Si number density = 18.383377 Si / 1000 Ang^3
#
#
#
# Elastic Constant Matrix: (Units=GPa)
#
#
# Indices 1 2 3 4 5 6 
#
# 1 114.5998 56.8245 37.5374 0.0000 24.6404 0.0000
# 2 56.8245 70.5613 35.0772 0.0000 16.3023 0.0000
# 3 37.5374 35.0772 64.0038 0.0000 11.8409 0.0000
# 4 0.0000 0.0000 0.0000 29.8125 0.0000 5.1451
# 5 24.6404 16.3023 11.8409 0.0000 22.9301 0.0000
# 6 0.0000 0.0000 0.0000 5.1451 0.0000 31.0558
#
#
#
# Elastic Compliance Matrix: (Units=1/GPa)
#
#
# Indices 1 2 3 4 5 6 
#
# 1 0.016437 -0.009814 -0.002526 0.000000 -0.009381 0.000000
# 2 -0.009814 0.027275 -0.008354 0.000000 -0.004532 0.000000
# 3 -0.002526 -0.008354 0.022204 0.000000 -0.002812 0.000000
# 4 0.000000 0.000000 0.000000 0.034530 0.000000 -0.005721
# 5 -0.009381 -0.004532 -0.002812 0.000000 0.058366 0.000000
# 6 0.000000 0.000000 0.000000 -0.005721 0.000000 0.033148
#
#
# Mechanical properties :
#
#
# Convention : Reuss Voigt Hill
#
# Bulk Modulus (GPa) = 40.76883 56.44922 48.60903
# Shear Modulus (GPa) = 20.70191 24.74139 22.72165
#
# Velocity S-wave (km/s) = 3.35941 3.67257 3.51948
# Velocity P-wave (km/s) = 6.10514 6.98262 6.55857
#
# Compressibility (1/GPa) = 0.02452854
#
# Stress axis : x y z
#
# Youngs Moduli (GPa) = 60.84004 36.66339 45.03633
#
# Poissons Ratio (x) = 0.35980 0.11376
# Poissons Ratio (y) = 0.59706 0.37624
# Poissons Ratio (z) = 0.15368 0.30629
#
# Static dielectric constant tensor:
#      x y z
#    x 3.715420 0.000000 0.130740 
#    y 0.000000 1.364130 0.000000 
#    z 0.130740 0.000000 3.183910 
# 
# 
# High freq. dielectric constant tensor:
#      x y z
#    x 1.723800 0.000000 0.009970 
#    y 0.000000 1.697160 0.000000 
#    z 0.009970 0.000000 1.697130 
# 
# From -- ./inp_files/320039.got.cif
#   From: 2010.06.25/outbox.cif.g09.slc.cpg/sg12_161_cif.got.tgz:320039.got - 2010.06.28 00:19:55.
