data_PCOD8091172
_publ_section_title
;
Structure prediction by ZEFSAII (Michael W. Deem and Ramdas Pophale) SiO2 
 PCOD8091172
Probable space group: C 2/M
;
_chemical_formula_sum "Si O2"
_cell_formula_units_Z 32
_cell_length_a 29.657490
_cell_length_b 7.689098
_cell_length_c 25.391494
_cell_angle_alpha 90.000000
_cell_angle_beta 16.929855
_cell_angle_gamma 90.000000
_cell_volume 1686.127792
_symmetry_space_group_name_H-M "C 2/M"
_symmetry_group_IT_number 12
_symmetry_cell_setting 'monoclinic'
loop_
_space_group_symop_operation_xyz
x,y,z
-x,y,-z
-x,-y,-z
x,-y,z
1/2+x,1/2+y,z
1/2-x,1/2+y,-z
1/2-x,1/2-y,-z
1/2+x,1/2-y,z
loop_
_atom_site_type_symbol
_atom_site_label
_atom_site_fract_x
_atom_site_fract_y
_atom_site_fract_z
Si Si1 0.509798 0.299322 0.137908
Si Si2 0.924849 0.201786 0.816078
Si Si3 0.814897 0.692479 0.550279
Si Si4 0.236665 0.500000 0.706279
Si Si5 0.100983 0.500000 0.965589
O O1 0.558553 0.500000 0.073642
O O2 0.532957 0.242529 0.172052
O O3 0.330689 0.264866 0.324481
O O4 0.618039 0.174731 0.981443
O O5 0.031696 0.305635 0.656283
O O6 0.956977 0.000000 0.771358
O O7 0.750000 0.250000 0.000000
O O8 0.797727 0.500000 0.594203
O O9 0.825520 0.828692 0.586320
O O10 0.063033 0.500000 0.879616
O O11 0.236089 0.500000 0.770551
#
# Coordination Sequence:
#
# PCOD8091172 Si02
#       5
#     8   8   8   4   4
#     4   9  20  34  53  81 108 140 178 218 265 319
#     4  11  22  35  52  79 111 140 179 223 267 321
#     4  10  19  34  55  79 109 142 175 218 268 316
#     4   9  18  34  51  85 109 141 180 219 260 319
#     4   9  18  32  57  77 113 143 176 219 266 313
#
# _framework density 18.978397000000001
#
# number of rings (size 3 to 8) (size 9 to 14) (size 15 to 20)
#    0.000    2.250    1.250    1.500    3.500    1.000 
#    0.000    5.000    0.000    3.000    0.000    5.250 
#    0.000    0.000    0.000    0.000    0.000    0.000 
#
# Total GULP energy -198417.795247 kJ/mol
# GULP energy per Si atom -12401.112203 kJ/mol
# Density = 1.893520 g / cm^3
# Si number density = 18.978397 Si / 1000 Ang^3
#
#
#
# Elastic Constant Matrix: (Units=GPa)
#
#
# Indices 1 2 3 4 5 6 
#
# 1 40.0586 37.6354 62.3549 -0.0124 18.2486 0.0243
# 2 37.6354 118.9885 57.5532 0.0610 24.3018 -0.0408
# 3 62.3549 57.5532 110.4493 0.0166 27.6083 -0.0190
# 4 -0.0124 0.0610 0.0166 27.5029 -0.0180 5.5163
# 5 18.2486 24.3018 27.6083 -0.0180 33.9183 0.0096
# 6 0.0243 -0.0408 -0.0190 5.5163 0.0096 22.1982
#
#
#
# Elastic Compliance Matrix: (Units=1/GPa)
#
#
# Indices 1 2 3 4 5 6 
#
# 1 0.227788 -0.011119 -0.118215 0.000273 -0.018364 -0.000431
# 2 -0.011119 0.012258 0.000740 -0.000044 -0.003403 0.000048
# 3 -0.118215 0.000740 0.074876 -0.000145 0.002124 0.000230
# 4 0.000273 -0.000044 -0.000145 0.038268 0.000026 -0.009510
# 5 -0.018364 -0.003403 0.002124 0.000026 0.040072 -0.000008
# 6 -0.000431 0.000048 0.000230 -0.009510 -0.000008 0.047413
#
#
# Mechanical properties :
#
#
# Convention : Reuss Voigt Hill
#
# Bulk Modulus (GPa) = 17.32041 64.95370 41.13705
# Shear Modulus (GPa) = 6.97246 24.18741 15.57994
#
# Velocity S-wave (km/s) = 1.91882 3.57385 2.86830
# Velocity P-wave (km/s) = 3.74905 7.16444 5.71772
#
# Compressibility (1/GPa) = 0.05773537
#
# Stress axis : x y z
#
# Youngs Moduli (GPa) = 4.39005 81.57998 13.35534
#
# Poissons Ratio (x) = 0.90705 1.57881
# Poissons Ratio (y) = 0.04881 -0.00989
# Poissons Ratio (z) = 0.51897 -0.06040
#
# Static dielectric constant tensor:
#      x y z
#    x 3.357810 -0.000020 0.211690 
#    y -0.000020 3.708170 0.000040 
#    z 0.211690 0.000040 3.321050 
# 
# 
# High freq. dielectric constant tensor:
#      x y z
#    x 1.712630 0.000000 0.013960 
#    y 0.000000 1.755720 0.000000 
#    z 0.013960 0.000000 1.719620 
# 
# From -- ./inp_files/81701.got.cif
#   From: 2010.06.25/outbox.cif.g09.slc.cpg/sg12_41_cif.got.tgz:81701.got - 2010.06.28 00:19:55.
