data_PCOD8091419
_publ_section_title
;
Structure prediction by ZEFSAII (Michael W. Deem and Ramdas Pophale) SiO2 
 PCOD8091419
Probable space group: C 2/M
;
_chemical_formula_sum "Si O2"
_cell_formula_units_Z 56
_cell_length_a 20.574516
_cell_length_b 9.347575
_cell_length_c 17.375866
_cell_angle_alpha 90.000000
_cell_angle_beta 61.059512
_cell_angle_gamma 90.000000
_cell_volume 2924.448934
_symmetry_space_group_name_H-M "C 2/M"
_symmetry_group_IT_number 12
_symmetry_cell_setting 'monoclinic'
loop_
_space_group_symop_operation_xyz
x,y,z
-x,y,-z
-x,-y,-z
x,-y,z
1/2+x,1/2+y,z
1/2-x,1/2+y,-z
1/2-x,1/2-y,-z
1/2+x,1/2-y,z
loop_
_atom_site_type_symbol
_atom_site_label
_atom_site_fract_x
_atom_site_fract_y
_atom_site_fract_z
Si Si1 0.415614 0.166296 0.036403
Si Si2 0.827454 0.842716 0.373025
Si Si3 0.156986 0.342053 0.500333
Si Si4 0.579930 0.333540 0.417504
Si Si5 0.146302 0.332735 0.249662
Si Si6 0.175137 0.665724 0.060481
Si Si7 0.809788 0.168415 0.210400
O O1 0.366091 0.253972 0.122811
O O2 0.406706 0.000000 0.061200
O O3 0.500000 0.216803 0.000000
O O4 0.388781 0.199826 0.965027
O O5 0.870983 0.734554 0.404867
O O6 0.744695 0.860941 0.451750
O O7 0.828066 0.781155 0.286401
O O8 0.865731 0.000000 0.354100
O O9 0.119739 0.500000 0.515966
O O10 0.138671 0.245633 0.437701
O O11 0.500000 0.308961 0.500000
O O12 0.600317 0.500000 0.399542
O O13 0.584772 0.260561 0.330402
O O14 0.130312 0.500000 0.272758
O O15 0.141830 0.291336 0.162394
O O16 0.226595 0.287622 0.235953
O O17 0.197806 0.500000 0.047269
O O18 0.250000 0.750000 0.000000
O O19 0.820043 0.000000 0.195070
#
# Coordination Sequence:
#
# PCOD8091419 Si02
#       7
#     8   8   8   8   8   8   8
#     4  10  22  39  57  83 122 157 190 237 294 353
#     4   9  18  33  53  80 112 141 178 230 281 331
#     4  10  19  34  56  81 108 143 184 228 280 335
#     4  11  24  40  57  80 115 154 194 243 297 349
#     4  10  20  37  60  86 113 146 198 249 291 348
#     4  10  20  36  61  89 118 153 194 246 294 347
#     4  10  19  35  59  85 113 146 188 239 288 344
#
# _framework density 19.148906
#
# number of rings (size 3 to 8) (size 9 to 14) (size 15 to 20)
#    0.000    2.000    2.857    0.857    0.000    3.714 
#    2.571    0.000    0.000    0.000    0.000    0.000 
#    0.000    0.000    0.000    0.000    0.000    0.000 
#
# Total GULP energy -347191.408321 kJ/mol
# GULP energy per Si atom -12399.693154 kJ/mol
# Density = 1.910532 g / cm^3
# Si number density = 19.148906 Si / 1000 Ang^3
#
#
#
# Elastic Constant Matrix: (Units=GPa)
#
#
# Indices 1 2 3 4 5 6 
#
# 1 70.3528 40.6040 50.1840 0.0000 13.4632 0.0000
# 2 40.6040 83.9007 67.6098 0.0000 6.1660 0.0001
# 3 50.1840 67.6098 153.2859 0.0000 26.0625 0.0000
# 4 0.0000 0.0000 0.0000 38.0115 0.0000 0.7708
# 5 13.4632 6.1660 26.0625 0.0000 34.1336 0.0000
# 6 0.0000 0.0001 0.0000 0.7708 0.0000 8.7889
#
#
#
# Elastic Compliance Matrix: (Units=1/GPa)
#
#
# Indices 1 2 3 4 5 6 
#
# 1 0.021714 -0.007911 -0.002765 0.000000 -0.005024 0.000000
# 2 -0.007911 0.021706 -0.007869 0.000000 0.005208 0.000000
# 3 -0.002765 -0.007869 0.012035 0.000000 -0.006677 0.000000
# 4 0.000000 0.000000 0.000000 0.026355 0.000000 -0.002311
# 5 -0.005024 0.005208 -0.006677 0.000000 0.035436 0.000000
# 6 0.000000 0.000000 0.000000 -0.002311 0.000000 0.113982
#
#
# Mechanical properties :
#
#
# Convention : Reuss Voigt Hill
#
# Bulk Modulus (GPa) = 54.45461 69.37056 61.91258
# Shear Modulus (GPa) = 18.21887 26.12957 22.17422
#
# Velocity S-wave (km/s) = 3.08787 3.69798 3.40662
# Velocity P-wave (km/s) = 6.41969 7.38505 6.91923
#
# Compressibility (1/GPa) = 0.01836392
#
# Stress axis : x y z
#
# Youngs Moduli (GPa) = 46.05355 46.07021 83.08817
#
# Poissons Ratio (x) = 0.36445 0.22978
# Poissons Ratio (y) = 0.36432 0.65386
# Poissons Ratio (z) = 0.12736 0.36255
#
# Static dielectric constant tensor:
#      x y z
#    x 3.482660 0.000000 0.271030 
#    y 0.000000 3.753620 0.000000 
#    z 0.271030 0.000000 3.574540 
# 
# 
# High freq. dielectric constant tensor:
#      x y z
#    x 1.727340 0.000000 0.021770 
#    y 0.000000 1.746670 0.000000 
#    z 0.021770 0.000000 1.747550 
# 
# From -- ./inp_files/281040.got.cif
#   From: 2010.06.25/outbox.cif.g09.slc.cpg/sg12_141_cif.got.tgz:281040.got - 2010.06.28 00:19:55.
