data_PCOD8091490
_publ_section_title
;
Structure prediction by ZEFSAII (Michael W. Deem and Ramdas Pophale) SiO2 
 PCOD8091490
Probable space group: C 2/M
;
_chemical_formula_sum "Si O2"
_cell_formula_units_Z 48
_cell_length_a 22.865249
_cell_length_b 12.072758
_cell_length_c 23.425630
_cell_angle_alpha 90.000000
_cell_angle_beta 22.185591
_cell_angle_gamma 90.000000
_cell_volume 2441.826593
_symmetry_space_group_name_H-M "C 2/M"
_symmetry_group_IT_number 12
_symmetry_cell_setting 'monoclinic'
loop_
_space_group_symop_operation_xyz
x,y,z
-x,y,-z
-x,-y,-z
x,-y,z
1/2+x,1/2+y,z
1/2-x,1/2+y,-z
1/2-x,1/2-y,-z
1/2+x,1/2-y,z
loop_
_atom_site_type_symbol
_atom_site_label
_atom_site_fract_x
_atom_site_fract_y
_atom_site_fract_z
Si Si1 0.801428 0.235061 0.280624
Si Si2 0.071930 0.127907 0.562410
Si Si3 0.867113 0.801249 0.974810
Si Si4 0.382939 0.625237 0.836173
Si Si5 0.843632 0.121065 0.677408
Si Si6 0.694874 0.500000 0.764436
Si Si7 0.172081 0.000000 0.913534
O O1 0.705397 0.291836 0.418468
O O2 0.776776 0.293534 0.241392
O O3 0.744692 0.108114 0.324049
O O4 0.982382 0.247025 0.129872
O O5 0.041693 0.148464 0.656959
O O6 0.902705 0.154978 0.687045
O O7 0.119620 0.000000 0.506179
O O8 0.924314 0.859367 0.864893
O O9 0.754592 0.702351 0.060836
O O10 0.779984 0.890641 0.093948
O O11 0.327461 0.500000 0.875206
O O12 0.000000 0.119311 0.500000
O O13 0.764474 0.000000 0.749316
O O14 0.753343 0.500000 0.777691
O O15 0.510919 0.500000 0.929311
#
# Coordination Sequence:
#
# PCOD8091490 Si02
#       7
#     8   8   8   8   8   4   4
#     4  10  19  34  56  83 108 145 185 223 270 329
#     4   9  19  36  58  81 112 146 180 223 281 334
#     4  10  21  36  60  79 108 144 189 237 266 321
#     4  10  21  38  57  81 108 145 185 229 284 327
#     4   8  15  30  51  75 106 139 169 212 271 324
#     4   9  20  32  54  83 114 147 180 217 273 334
#     4   9  18  38  55  78 111 152 181 218 279 329
#
# _framework density 19.657416000000001
#
# number of rings (size 3 to 8) (size 9 to 14) (size 15 to 20)
#    0.000    2.667    0.833    1.500    2.333    2.000 
#    0.000    4.583    0.000    3.000    0.000    0.000 
#    0.000    0.000    0.000    0.000    0.000    0.000 
#
# Total GULP energy -297465.019144 kJ/mol
# GULP energy per Si atom -12394.375798 kJ/mol
# Density = 1.961267 g / cm^3
# Si number density = 19.657416 Si / 1000 Ang^3
#
#
#
# Elastic Constant Matrix: (Units=GPa)
#
#
# Indices 1 2 3 4 5 6 
#
# 1 59.4574 21.6723 14.4044 -0.0031 5.3923 0.0043
# 2 21.6723 107.2699 29.3953 0.0147 -0.1757 -0.0106
# 3 14.4044 29.3953 44.0888 0.0023 9.1070 -0.0064
# 4 -0.0031 0.0147 0.0023 21.8874 -0.0012 1.9904
# 5 5.3923 -0.1757 9.1070 -0.0012 36.0715 0.0045
# 6 0.0043 -0.0106 -0.0064 1.9904 0.0045 31.9442
#
#
#
# Elastic Compliance Matrix: (Units=1/GPa)
#
#
# Indices 1 2 3 4 5 6 
#
# 1 0.018950 -0.002740 -0.003984 0.000005 -0.001840 -0.000004
# 2 -0.002740 0.011953 -0.007565 -0.000008 0.002378 0.000003
# 3 -0.003984 -0.007565 0.030503 0.000000 -0.007142 0.000005
# 4 0.000005 -0.000008 0.000000 0.045949 0.000001 -0.002863
# 5 -0.001840 0.002378 -0.007142 0.000001 0.029813 -0.000005
# 6 -0.000004 0.000003 0.000005 -0.002863 -0.000005 0.031483
#
#
# Mechanical properties :
#
#
# Convention : Reuss Voigt Hill
#
# Bulk Modulus (GPa) = 30.46351 37.97337 34.21844
# Shear Modulus (GPa) = 24.01881 27.67021 25.84451
#
# Velocity S-wave (km/s) = 3.49932 3.75590 3.62988
# Velocity P-wave (km/s) = 5.64427 6.17807 5.91719
#
# Compressibility (1/GPa) = 0.03282615
#
# Stress axis : x y z
#
# Youngs Moduli (GPa) = 52.77175 83.66220 32.78411
#
# Poissons Ratio (x) = 0.22921 0.13062
# Poissons Ratio (y) = 0.14458 0.24802
# Poissons Ratio (z) = 0.21026 0.63294
#
# Static dielectric constant tensor:
#      x y z
#    x 4.268020 -0.000010 0.383370 
#    y -0.000010 3.721210 0.000020 
#    z 0.383370 0.000020 3.125190 
# 
# 
# High freq. dielectric constant tensor:
#      x y z
#    x 1.774500 0.000000 0.020130 
#    y 0.000000 1.775120 0.000000 
#    z 0.020130 0.000000 1.723600 
# 
# From -- ./inp_files/367960.got.cif
#   From: 2010.06.25/outbox.cif.g09.slc.cpg/sg12_184_cif.got.tgz:367960.got - 2010.06.28 00:19:55.
