data_PCOD8091930
_publ_section_title
;
Structure prediction by ZEFSAII (Michael W. Deem and Ramdas Pophale) SiO2 
 PCOD8091930
Probable space group: C 2/M
;
_chemical_formula_sum "Si O2"
_cell_formula_units_Z 52
_cell_length_a 21.102512
_cell_length_b 9.044748
_cell_length_c 17.452575
_cell_angle_alpha 90.000000
_cell_angle_beta 133.364739
_cell_angle_gamma 90.000000
_cell_volume 2421.714748
_symmetry_space_group_name_H-M "C 2/M"
_symmetry_group_IT_number 12
_symmetry_cell_setting 'monoclinic'
loop_
_space_group_symop_operation_xyz
x,y,z
-x,y,-z
-x,-y,-z
x,-y,z
1/2+x,1/2+y,z
1/2-x,1/2+y,-z
1/2-x,1/2-y,-z
1/2+x,1/2-y,z
loop_
_atom_site_type_symbol
_atom_site_label
_atom_site_fract_x
_atom_site_fract_y
_atom_site_fract_z
Si Si1 0.908532 0.666986 0.444629
Si Si2 0.500000 0.755424 0.000000
Si Si3 0.549124 0.676203 0.799409
Si Si4 0.845575 0.834281 0.971631
Si Si5 0.338948 0.168603 0.224123
Si Si6 0.095083 0.333398 0.231127
Si Si7 0.257870 0.178032 0.423492
O O1 0.933728 0.500000 0.488048
O O2 0.844575 0.673934 0.319598
O O3 0.852450 0.730739 0.469041
O O4 0.000000 0.751045 0.500000
O O5 0.579207 0.661981 0.030556
O O6 0.544809 0.844585 0.107340
O O7 0.536770 0.500000 0.790202
O O8 0.583225 0.732768 0.746219
O O9 0.458787 0.752228 0.746555
O O10 0.619299 0.734422 0.920357
O O11 0.755135 0.755549 0.872825
O O12 0.817552 0.000000 0.964057
O O13 0.349116 0.000000 0.203012
O O14 0.114073 0.500000 0.273751
O O15 0.185263 0.242212 0.304355
O O16 0.250000 0.250000 0.500000
O O17 0.249768 0.000000 0.419536
#
# Coordination Sequence:
#
# PCOD8091930 Si02
#       7
#     8   4   8   8   8   8   8
#     4   9  20  38  61  89 119 158 205 250 301 364
#     4  10  20  36  60  90 121 160 209 262 311 370
#     4  10  21  36  55  85 121 158 200 251 307 368
#     4   9  18  32  53  83 119 159 200 245 303 372
#     4  10  19  34  58  84 115 157 204 246 301 369
#     4  11  23  40  62  90 125 164 209 260 319 378
#     4  11  24  43  68  97 130 168 214 263 314 376
#
# _framework density 21.472389
#
# number of rings (size 3 to 8) (size 9 to 14) (size 15 to 20)
#    0.000    2.000    0.000    3.231    2.154    3.077 
#    0.000    6.923    0.000    2.308    0.000    0.000 
#    0.000    0.000    0.000    0.000    0.000    0.000 
#
# Total GULP energy -322140.956697 kJ/mol
# GULP energy per Si atom -12390.036796 kJ/mol
# Density = 2.142352 g / cm^3
# Si number density = 21.472389 Si / 1000 Ang^3
#
#
#
# Elastic Constant Matrix: (Units=GPa)
#
#
# Indices 1 2 3 4 5 6 
#
# 1 170.4639 40.7388 44.1462 0.0000 9.9688 0.0000
# 2 40.7388 90.3749 28.0348 0.0000 2.8587 0.0000
# 3 44.1462 28.0348 69.7665 0.0000 13.2581 0.0000
# 4 0.0000 0.0000 0.0000 19.1716 0.0000 0.7530
# 5 9.9688 2.8587 13.2581 0.0000 36.2567 0.0000
# 6 0.0000 0.0000 0.0000 0.7530 0.0000 27.1282
#
#
#
# Elastic Compliance Matrix: (Units=1/GPa)
#
#
# Indices 1 2 3 4 5 6 
#
# 1 0.007370 -0.002158 -0.003701 0.000000 -0.000503 0.000000
# 2 -0.002158 0.013302 -0.004184 0.000000 0.001074 0.000000
# 3 -0.003701 -0.004184 0.019452 0.000000 -0.005766 0.000000
# 4 0.000000 0.000000 0.000000 0.052217 0.000000 -0.001449
# 5 -0.000503 0.001074 -0.005766 0.000000 0.029743 0.000000
# 6 0.000000 0.000000 0.000000 -0.001449 0.000000 0.036902
#
#
# Mechanical properties :
#
#
# Convention : Reuss Voigt Hill
#
# Bulk Modulus (GPa) = 49.90370 61.82723 55.86546
# Shear Modulus (GPa) = 26.91777 31.02368 28.97072
#
# Velocity S-wave (km/s) = 3.54446 3.80520 3.67714
# Velocity P-wave (km/s) = 6.32790 6.93991 6.64096
#
# Compressibility (1/GPa) = 0.02003860
#
# Stress axis : x y z
#
# Youngs Moduli (GPa) = 135.68625 75.17820 51.40870
#
# Poissons Ratio (x) = 0.16226 0.19024
# Poissons Ratio (y) = 0.29286 0.21507
# Poissons Ratio (z) = 0.50212 0.31451
#
# Static dielectric constant tensor:
#      x y z
#    x 4.064040 0.000000 0.245380 
#    y 0.000000 3.447440 0.000000 
#    z 0.245380 0.000000 4.007110 
# 
# 
# High freq. dielectric constant tensor:
#      x y z
#    x 1.857050 0.000000 0.008830 
#    y 0.000000 1.802620 0.000000 
#    z 0.008830 0.000000 1.847930 
# 
# From -- ./inp_files/282271.got.cif
#   From: 2010.06.25/outbox.cif.g09.slc.cpg/sg12_142_cif.got.tgz:282271.got - 2010.06.28 00:19:55.
