data_PCOD8091788
_publ_section_title
;
Structure prediction by ZEFSAII (Michael W. Deem and Ramdas Pophale) SiO2 
 PCOD8091788
Probable space group: C 2/M
;
_chemical_formula_sum "Si O2"
_cell_formula_units_Z 48
_cell_length_a 23.361962
_cell_length_b 8.702119
_cell_length_c 26.504079
_cell_angle_alpha 90.000000
_cell_angle_beta 28.454487
_cell_angle_gamma 90.000000
_cell_volume 2567.284323
_symmetry_space_group_name_H-M "C 2/M"
_symmetry_group_IT_number 12
_symmetry_cell_setting 'monoclinic'
loop_
_space_group_symop_operation_xyz
x,y,z
-x,y,-z
-x,-y,-z
x,-y,z
1/2+x,1/2+y,z
1/2-x,1/2+y,-z
1/2-x,1/2-y,-z
1/2+x,1/2-y,z
loop_
_atom_site_type_symbol
_atom_site_label
_atom_site_fract_x
_atom_site_fract_y
_atom_site_fract_z
Si Si1 0.680782 0.681585 0.889853
Si Si2 0.459734 0.821038 0.475649
Si Si3 0.367005 0.819425 0.383688
Si Si4 0.180550 0.180623 0.683614
Si Si5 0.569649 0.681035 0.872458
Si Si6 0.431260 0.320689 0.704710
O O1 0.707428 0.500000 0.869302
O O2 0.647614 0.741483 0.859357
O O3 0.794660 0.773916 0.822088
O O4 0.570353 0.723010 0.012539
O O5 0.500000 0.772025 0.500000
O O6 0.320966 0.781393 0.575512
O O7 0.537804 0.722009 0.376660
O O8 0.486535 0.000000 0.445143
O O9 0.250000 0.750000 0.500000
O O10 0.381071 0.764351 0.315481
O O11 0.485168 0.771723 0.321946
O O12 0.352799 0.000000 0.396743
O O13 0.120116 0.249625 0.781113
O O14 0.157184 0.000000 0.696767
O O15 0.586136 0.500000 0.859186
O O16 0.450046 0.500000 0.699289
#
# Coordination Sequence:
#
# PCOD8091788 Si02
#       6
#     8   8   8   8   8   8
#     4   9  17  35  61  87 115 151 192 230 274 334
#     4  10  20  34  56  84 114 148 183 224 280 342
#     4  12  24  40  59  80 108 149 193 236 285 341
#     4  10  19  34  57  85 115 146 185 232 281 336
#     4   8  16  33  61  90 115 148 189 230 277 336
#     4  12  24  37  55  82 115 150 190 235 283 334
#
# _framework density 18.696798999999999
#
# number of rings (size 3 to 8) (size 9 to 14) (size 15 to 20)
#    0.000    1.833    1.667    5.000    0.000    3.000 
#    0.000    5.833    0.000    0.000    0.000    0.000 
#    0.000    0.000    0.000    0.000    0.000    0.000 
#
# Total GULP energy -297661.823053 kJ/mol
# GULP energy per Si atom -12402.575961 kJ/mol
# Density = 1.865424 g / cm^3
# Si number density = 18.696799 Si / 1000 Ang^3
#
#
#
# Elastic Constant Matrix: (Units=GPa)
#
#
# Indices 1 2 3 4 5 6 
#
# 1 91.0258 20.1085 27.3652 -0.0002 -8.3499 0.0005
# 2 20.1085 61.6882 25.6174 -0.0106 -0.8363 0.0070
# 3 27.3652 25.6174 89.8764 -0.0030 -7.9900 0.0019
# 4 -0.0002 -0.0106 -0.0030 20.3654 0.0047 -5.0090
# 5 -8.3499 -0.8363 -7.9900 0.0047 31.4901 -0.0009
# 6 0.0005 0.0070 0.0019 -5.0090 -0.0009 24.9076
#
#
#
# Elastic Compliance Matrix: (Units=1/GPa)
#
#
# Indices 1 2 3 4 5 6 
#
# 1 0.012716 -0.002946 -0.002802 -0.000002 0.002583 0.000000
# 2 -0.002946 0.019092 -0.004675 0.000009 -0.001460 -0.000003
# 3 -0.002802 -0.004675 0.013540 -0.000001 0.002568 0.000000
# 4 -0.000002 0.000009 -0.000001 0.051658 -0.000008 0.010389
# 5 0.002583 -0.001460 0.002568 -0.000008 0.033054 0.000000
# 6 0.000000 -0.000003 0.000000 0.010389 0.000000 0.042238
#
#
# Mechanical properties :
#
#
# Convention : Reuss Voigt Hill
#
# Bulk Modulus (GPa) = 40.81255 43.19696 42.00475
# Shear Modulus (GPa) = 24.83700 26.65255 25.74477
#
# Velocity S-wave (km/s) = 3.64869 3.77969 3.71477
# Velocity P-wave (km/s) = 6.29497 6.49632 6.39644
#
# Compressibility (1/GPa) = 0.02450227
#
# Stress axis : x y z
#
# Youngs Moduli (GPa) = 78.64012 52.37679 73.85310
#
# Poissons Ratio (x) = 0.15432 0.20697
# Poissons Ratio (y) = 0.23170 0.34524
# Poissons Ratio (z) = 0.22038 0.24484
#
# Static dielectric constant tensor:
#      x y z
#    x 3.657360 0.000000 0.120220 
#    y 0.000000 3.215070 0.000010 
#    z 0.120220 0.000010 3.599220 
# 
# 
# High freq. dielectric constant tensor:
#      x y z
#    x 1.730080 0.000000 -0.001820 
#    y 0.000000 1.703630 0.000000 
#    z -0.001820 0.000000 1.729910 
# 
# From -- ./inp_files/172317.got.cif
#   From: 2010.06.25/outbox.cif.g09.slc.cpg/sg12_87_cif.got.tgz:172317.got - 2010.06.28 00:19:55.
