data_PCOD8091904
_publ_section_title
;
Structure prediction by ZEFSAII (Michael W. Deem and Ramdas Pophale) SiO2 
 PCOD8091904
Probable space group: C 2/M
;
_chemical_formula_sum "Si O2"
_cell_formula_units_Z 56
_cell_length_a 16.572552
_cell_length_b 14.891296
_cell_length_c 18.793141
_cell_angle_alpha 90.000000
_cell_angle_beta 143.736804
_cell_angle_gamma 90.000000
_cell_volume 2743.295599
_symmetry_space_group_name_H-M "C 2/M"
_symmetry_group_IT_number 12
_symmetry_cell_setting 'monoclinic'
loop_
_space_group_symop_operation_xyz
x,y,z
-x,y,-z
-x,-y,-z
x,-y,z
1/2+x,1/2+y,z
1/2-x,1/2+y,-z
1/2-x,1/2-y,-z
1/2+x,1/2-y,z
loop_
_atom_site_type_symbol
_atom_site_label
_atom_site_fract_x
_atom_site_fract_y
_atom_site_fract_z
Si Si1 0.427399 0.169122 0.636524
Si Si2 0.627032 0.596199 0.732177
Si Si3 0.763663 0.728023 0.732019
Si Si4 0.201638 0.102726 0.943270
Si Si5 0.844094 0.161511 0.489271
Si Si6 0.599792 0.099745 0.636101
Si Si7 0.051825 0.274348 0.871089
O O1 0.293918 0.118748 0.574158
O O2 0.374233 0.242714 0.544360
O O3 0.523242 0.104170 0.658243
O O4 0.511078 0.216272 0.759356
O O5 0.688211 0.500000 0.751680
O O6 0.725640 0.674995 0.776355
O O7 0.620115 0.600755 0.811907
O O8 0.473012 0.598275 0.592564
O O9 0.677410 0.679079 0.609337
O O10 0.723993 0.831172 0.717348
O O11 0.923448 0.722773 0.831818
O O12 0.124520 0.177536 0.936894
O O13 0.204690 0.000000 0.977547
O O14 0.355014 0.140203 0.041847
O O15 0.500000 0.120101 0.500000
O O16 0.661729 0.000000 0.673585
#
# Coordination Sequence:
#
# PCOD8091904 Si02
#       7
#     8   8   8   8   8   8   8
#     4  10  19  36  57  82 114 151 190 228 277 334
#     4  11  22  37  59  85 117 154 189 234 288 336
#     4  11  21  37  57  85 121 149 186 230 281 349
#     4  10  22  41  62  85 110 144 197 244 280 333
#     4  10  19  34  58  83 114 151 187 230 276 333
#     4  11  21  33  53  83 119 154 184 223 279 338
#     4  10  22  39  63  83 108 153 190 235 290 330
#
# _framework density 20.413402000000001
#
# number of rings (size 3 to 8) (size 9 to 14) (size 15 to 20)
#    0.000    1.571    4.286    0.429    0.000    4.000 
#    0.000    7.143    0.000    0.000    0.000    6.000 
#    0.000    0.000    0.000    0.000    0.000    0.000 
#
# Total GULP energy -347071.203403 kJ/mol
# GULP energy per Si atom -12395.400122 kJ/mol
# Density = 2.036694 g / cm^3
# Si number density = 20.413402 Si / 1000 Ang^3
#
#
#
# Elastic Constant Matrix: (Units=GPa)
#
#
# Indices 1 2 3 4 5 6 
#
# 1 66.3876 18.1744 14.7597 0.0003 18.1468 0.0001
# 2 18.1744 122.2351 25.9593 0.0000 17.3398 0.0000
# 3 14.7597 25.9593 64.1047 0.0005 27.1081 0.0002
# 4 0.0003 0.0000 0.0005 20.1593 0.0005 -5.6842
# 5 18.1468 17.3398 27.1081 0.0005 28.7782 0.0001
# 6 0.0001 0.0000 0.0002 -5.6842 0.0001 12.6408
#
#
#
# Elastic Compliance Matrix: (Units=1/GPa)
#
#
# Indices 1 2 3 4 5 6 
#
# 1 0.018435 -0.001318 0.001445 0.000000 -0.012191 0.000000
# 2 -0.001318 0.009236 -0.002385 0.000000 -0.002487 0.000000
# 3 0.001445 -0.002385 0.026610 0.000000 -0.024539 0.000000
# 4 0.000000 0.000000 0.000000 0.056808 -0.000001 0.025545
# 5 -0.012191 -0.002487 -0.024539 -0.000001 0.067050 -0.000001
# 6 0.000000 0.000000 0.000000 0.025545 -0.000001 0.090596
#
#
# Mechanical properties :
#
#
# Convention : Reuss Voigt Hill
#
# Bulk Modulus (GPa) = 20.09489 41.16825 30.63157
# Shear Modulus (GPa) = 17.25088 25.23791 21.24440
#
# Velocity S-wave (km/s) = 2.91017 3.51998 3.22950
# Velocity P-wave (km/s) = 4.59973 6.06064 5.38000
#
# Compressibility (1/GPa) = 0.04976391
#
# Stress axis : x y z
#
# Youngs Moduli (GPa) = 54.24391 108.26831 37.58034
#
# Poissons Ratio (x) = 0.14274 -0.05429
# Poissons Ratio (y) = 0.07152 0.08962
# Poissons Ratio (z) = -0.07836 0.25821
#
# Static dielectric constant tensor:
#      x y z
#    x 3.727840 0.000000 0.099420 
#    y 0.000000 3.673790 0.000000 
#    z 0.099420 0.000000 3.691280 
# 
# 
# High freq. dielectric constant tensor:
#      x y z
#    x 1.790350 0.000000 0.001560 
#    y 0.000000 1.793480 0.000000 
#    z 0.001560 0.000000 1.789300 
# 
# From -- ./inp_files/316750.got.cif
#   From: 2010.06.25/outbox.cif.g09.slc.cpg/sg12_159_cif.got.tgz:316750.got - 2010.06.28 00:19:55.
