data_PCOD8091703
_publ_section_title
;
Structure prediction by ZEFSAII (Michael W. Deem and Ramdas Pophale) SiO2 
 PCOD8091703
Probable space group: C 2/M
;
_chemical_formula_sum "Si O2"
_cell_formula_units_Z 64
_cell_length_a 32.396310
_cell_length_b 8.917945
_cell_length_c 12.101884
_cell_angle_alpha 90.000000
_cell_angle_beta 91.943038
_cell_angle_gamma 90.000000
_cell_volume 3494.326993
_symmetry_space_group_name_H-M "C 2/M"
_symmetry_group_IT_number 12
_symmetry_cell_setting 'monoclinic'
loop_
_space_group_symop_operation_xyz
x,y,z
-x,y,-z
-x,-y,-z
x,-y,z
1/2+x,1/2+y,z
1/2-x,1/2+y,-z
1/2-x,1/2-y,-z
1/2+x,1/2-y,z
loop_
_atom_site_type_symbol
_atom_site_label
_atom_site_fract_x
_atom_site_fract_y
_atom_site_fract_z
Si Si1 0.143778 0.677648 0.644596
Si Si2 0.439525 0.175105 0.754074
Si Si3 0.735912 0.174945 0.610432
Si Si4 0.384806 0.324905 0.576030
Si Si5 0.392964 0.325031 0.144073
Si Si6 0.988640 0.174497 0.121385
Si Si7 0.315534 0.326841 0.744932
Si Si8 0.368948 0.825366 0.920995
O O1 0.140906 0.500000 0.639076
O O2 0.191151 0.734130 0.643120
O O3 0.117675 0.745206 0.541910
O O4 0.124786 0.734009 0.755957
O O5 0.424449 0.260697 0.643567
O O6 0.485073 0.232220 0.787665
O O7 0.409445 0.213362 0.853396
O O8 0.440309 0.000000 0.728046
O O9 0.750000 0.250000 0.500000
O O10 0.768280 0.211908 0.711138
O O11 0.734975 0.000000 0.585931
O O12 0.391254 0.500000 0.557262
O O13 0.343320 0.288870 0.640542
O O14 0.384233 0.500000 0.159120
O O15 0.441261 0.289913 0.140112
O O16 0.369994 0.269663 0.032409
O O17 0.999482 0.000000 0.135697
O O18 0.000000 0.230705 0.000000
O O19 0.321500 0.500000 0.779060
O O20 0.328464 0.223624 0.848900
O O21 0.365956 0.000000 0.949535
#
# Coordination Sequence:
#
# PCOD8091703 Si02
#       8
#     8   8   8   8   8   8   8   8
#     4  11  23  38  57  83 118 151 185 232 283 334
#     4  10  20  33  55  86 117 145 180 231 285 331
#     4  10  20  35  57  85 114 146 187 234 278 327
#     4  10  19  34  57  82 113 150 188 228 275 333
#     4  11  23  39  59  81 112 152 190 228 277 339
#     4  10  20  36  58  84 111 143 188 235 277 329
#     4   9  18  33  55  83 112 144 185 230 275 326
#     4  10  20  34  54  83 115 146 183 228 281 332
#
# _framework density 18.315401000000001
#
# number of rings (size 3 to 8) (size 9 to 14) (size 15 to 20)
#    0.000    1.875    2.500    1.875    0.000    3.750 
#    0.000    1.250    0.000    3.750    0.000    0.000 
#    0.000    0.000    0.000    0.000    0.000    0.000 
#
# Total GULP energy -396950.418724 kJ/mol
# GULP energy per Si atom -12404.700585 kJ/mol
# Density = 1.827371 g / cm^3
# Si number density = 18.315401 Si / 1000 Ang^3
#
#
#
# Elastic Constant Matrix: (Units=GPa)
#
#
# Indices 1 2 3 4 5 6 
#
# 1 91.0289 40.2465 53.4050 0.0000 11.1466 0.0000
# 2 40.2465 73.8170 49.2715 0.0000 6.3706 0.0000
# 3 53.4050 49.2715 114.1791 0.0000 12.7282 0.0000
# 4 0.0000 0.0000 0.0000 37.1156 0.0000 4.0216
# 5 11.1466 6.3706 12.7282 0.0000 26.6064 0.0000
# 6 0.0000 0.0000 0.0000 4.0216 0.0000 26.9023
#
#
#
# Elastic Compliance Matrix: (Units=1/GPa)
#
#
# Indices 1 2 3 4 5 6 
#
# 1 0.016817 -0.005449 -0.005149 0.000000 -0.003277 0.000000
# 2 -0.005449 0.020805 -0.006473 0.000000 0.000398 0.000000
# 3 -0.005149 -0.006473 0.014310 0.000000 -0.003139 0.000000
# 4 0.000000 0.000000 0.000000 0.027386 0.000000 -0.004094
# 5 -0.003277 0.000398 -0.003139 0.000000 0.040364 0.000000
# 6 0.000000 0.000000 0.000000 -0.004094 0.000000 0.037784
#
#
# Mechanical properties :
#
#
# Convention : Reuss Voigt Hill
#
# Bulk Modulus (GPa) = 56.21723 62.76346 59.49034
# Shear Modulus (GPa) = 25.31162 27.19832 26.25497
#
# Velocity S-wave (km/s) = 3.72154 3.85775 3.79026
# Velocity P-wave (km/s) = 7.01620 7.36108 7.19071
#
# Compressibility (1/GPa) = 0.01778814
#
# Stress axis : x y z
#
# Youngs Moduli (GPa) = 59.46409 48.06646 69.88226
#
# Poissons Ratio (x) = 0.26193 0.35982
# Poissons Ratio (y) = 0.32403 0.45237
# Poissons Ratio (z) = 0.30617 0.31115
#
# Static dielectric constant tensor:
#      x y z
#    x 3.495380 0.000000 0.235150 
#    y 0.000000 3.384490 0.000000 
#    z 0.235150 0.000000 3.354940 
# 
# 
# High freq. dielectric constant tensor:
#      x y z
#    x 1.702980 0.000000 0.021100 
#    y 0.000000 1.717790 0.000000 
#    z 0.021100 0.000000 1.703910 
# 
# From -- ./inp_files/187451.got.cif
#   From: 2010.06.25/outbox.cif.g09.slc.cpg/sg12_94_cif.got.tgz:187451.got - 2010.06.28 00:19:55.
