data_PCOD8091116
_publ_section_title
;
Structure prediction by ZEFSAII (Michael W. Deem and Ramdas Pophale) SiO2 
 PCOD8091116
Probable space group: C 2/M
;
_chemical_formula_sum "Si O2"
_cell_formula_units_Z 56
_cell_length_a 17.077417
_cell_length_b 12.142708
_cell_length_c 34.209427
_cell_angle_alpha 90.000000
_cell_angle_beta 25.131156
_cell_angle_gamma 90.000000
_cell_volume 3012.710461
_symmetry_space_group_name_H-M "C 2/M"
_symmetry_group_IT_number 12
_symmetry_cell_setting 'monoclinic'
loop_
_space_group_symop_operation_xyz
x,y,z
-x,y,-z
-x,-y,-z
x,-y,z
1/2+x,1/2+y,z
1/2-x,1/2+y,-z
1/2-x,1/2-y,-z
1/2+x,1/2-y,z
loop_
_atom_site_type_symbol
_atom_site_label
_atom_site_fract_x
_atom_site_fract_y
_atom_site_fract_z
Si Si1 0.112464 0.784677 0.595810
Si Si2 0.041663 0.251312 0.756233
Si Si3 0.205787 0.130846 0.070049
Si Si4 0.301319 0.125555 0.582945
Si Si5 0.024388 0.759733 0.891274
Si Si6 0.889622 0.370375 0.752977
Si Si7 0.741732 0.126233 0.732050
O O1 0.250000 0.750000 0.500000
O O2 0.232754 0.860534 0.569828
O O3 0.026128 0.682166 0.658854
O O4 0.952986 0.856137 0.648060
O O5 0.146668 0.166659 0.681839
O O6 0.193365 0.308006 0.714856
O O7 0.893410 0.181258 0.847353
O O8 0.946119 0.342214 0.771817
O O9 0.090053 0.152955 0.082889
O O10 0.235372 0.000000 0.061965
O O11 0.398903 0.196201 0.979559
O O12 0.500000 0.185208 0.500000
O O13 0.327651 0.000000 0.581608
O O14 0.182088 0.827553 0.841820
O O15 0.108497 0.663753 0.826813
O O16 0.897847 0.500000 0.742682
O O17 0.702853 0.000000 0.741201
#
# Coordination Sequence:
#
# PCOD8091116 Si02
#       7
#     8   8   8   8   8   8   8
#     4  10  21  36  55  81 106 133 178 223 259 315
#     4  10  21  35  53  80 108 138 179 219 259 318
#     4  10  19  35  57  79 107 140 177 221 268 312
#     4  10  20  35  54  76 107 142 173 213 264 312
#     4   9  20  35  54  81 106 136 180 221 259 316
#     4  10  21  38  56  76 108 143 175 217 269 317
#     4  10  19  34  55  77 106 139 172 215 265 312
#
# _framework density 18.587913
#
# number of rings (size 3 to 8) (size 9 to 14) (size 15 to 20)
#    0.000    2.143    0.000    3.000    0.000    1.714 
#    0.000    9.286    0.000    4.714    0.000    0.000 
#    0.000    0.000    0.000    0.000    0.000    0.000 
#
# Total GULP energy -347208.093935 kJ/mol
# GULP energy per Si atom -12400.289069 kJ/mol
# Density = 1.854561 g / cm^3
# Si number density = 18.587913 Si / 1000 Ang^3
#
#
#
# Elastic Constant Matrix: (Units=GPa)
#
#
# Indices 1 2 3 4 5 6 
#
# 1 107.6830 26.7971 40.4550 -0.0016 -5.0878 0.0070
# 2 26.7971 101.1961 30.7692 0.0268 3.2512 -0.0039
# 3 40.4550 30.7692 109.5885 0.0507 2.2070 -0.0090
# 4 -0.0016 0.0268 0.0507 15.7723 -0.0064 -3.7417
# 5 -5.0878 3.2512 2.2070 -0.0064 33.9351 0.0057
# 6 0.0070 -0.0039 -0.0090 -3.7417 0.0057 20.4834
#
#
#
# Elastic Compliance Matrix: (Units=1/GPa)
#
#
# Indices 1 2 3 4 5 6 
#
# 1 0.011238 -0.001934 -0.003648 0.000016 0.002107 -0.000003
# 2 -0.001934 0.011161 -0.002395 -0.000012 -0.001204 0.000000
# 3 -0.003648 -0.002395 0.011165 -0.000033 -0.001044 0.000000
# 4 0.000016 -0.000012 -0.000033 0.066274 0.000016 0.012106
# 5 0.002107 -0.001204 -0.001044 0.000016 0.029967 -0.000007
# 6 -0.000003 0.000000 0.000000 0.012106 -0.000007 0.051032
#
#
# Mechanical properties :
#
#
# Convention : Reuss Voigt Hill
#
# Bulk Modulus (GPa) = 56.78921 57.16780 56.97851
# Shear Modulus (GPa) = 24.67160 28.73457 26.70309
#
# Velocity S-wave (km/s) = 3.64716 3.93603 3.79434
# Velocity P-wave (km/s) = 6.95368 7.17485 7.06513
#
# Compressibility (1/GPa) = 0.01760898
#
# Stress axis : x y z
#
# Youngs Moduli (GPa) = 88.98444 89.59745 89.56376
#
# Poissons Ratio (x) = 0.17332 0.32671
# Poissons Ratio (y) = 0.17213 0.21454
# Poissons Ratio (z) = 0.32460 0.21462
#
# Static dielectric constant tensor:
#      x y z
#    x 3.907710 -0.000270 -0.336610 
#    y -0.000270 3.191670 0.000010 
#    z -0.336610 0.000010 3.642560 
# 
# 
# High freq. dielectric constant tensor:
#      x y z
#    x 1.728410 0.000000 -0.005770 
#    y 0.000000 1.717930 0.000000 
#    z -0.005770 0.000000 1.731930 
# 
# From -- ./inp_files/223131.got.cif
#   From: 2010.06.25/outbox.cif.g09.slc.cpg/sg12_112_cif.got.tgz:223131.got - 2010.06.28 00:19:55.
