data_PCOD8091311
_publ_section_title
;
Structure prediction by ZEFSAII (Michael W. Deem and Ramdas Pophale) SiO2 
 PCOD8091311
Probable space group: C 2/M
;
_chemical_formula_sum "Si O2"
_cell_formula_units_Z 44
_cell_length_a 16.208097
_cell_length_b 22.421534
_cell_length_c 9.948796
_cell_angle_alpha 90.000000
_cell_angle_beta 138.032759
_cell_angle_gamma 90.000000
_cell_volume 2417.702372
_symmetry_space_group_name_H-M "C 2/M"
_symmetry_group_IT_number 12
_symmetry_cell_setting 'monoclinic'
loop_
_space_group_symop_operation_xyz
x,y,z
-x,y,-z
-x,-y,-z
x,-y,z
1/2+x,1/2+y,z
1/2-x,1/2+y,-z
1/2-x,1/2-y,-z
1/2+x,1/2-y,z
loop_
_atom_site_type_symbol
_atom_site_label
_atom_site_fract_x
_atom_site_fract_y
_atom_site_fract_z
Si Si1 0.371926 0.070282 0.098483
Si Si2 0.188714 0.933093 0.114338
Si Si3 0.226795 0.771738 0.326601
Si Si4 0.500000 0.650525 0.000000
Si Si5 0.143220 0.649606 0.171689
Si Si6 0.861420 0.618329 0.531772
O O1 0.266957 0.084531 0.078450
O O2 0.496975 0.099160 0.307996
O O3 0.392574 0.000000 0.099990
O O4 0.329236 0.099809 0.906795
O O5 0.069017 0.890729 0.973360
O O6 0.273859 0.929271 0.351351
O O7 0.139464 0.000000 0.042412
O O8 0.250000 0.750000 0.500000
O O9 0.100338 0.807958 0.189967
O O10 0.214886 0.711854 0.220585
O O11 0.337331 0.818087 0.423273
O O12 0.180557 0.623276 0.362802
O O13 0.000000 0.666479 0.000000
#
# Coordination Sequence:
#
# PCOD8091311 Si02
#       6
#     8   8   8   4   8   8
#     4  10  20  33  52  80 113 141 175 224 274 315
#     4  10  20  34  53  77 107 140 177 224 267 316
#     4   9  17  32  55  76 104 141 177 218 263 316
#     4  10  19  34  56  76  99 140 188 218 264 322
#     4   9  17  31  53  76 106 141 177 217 265 316
#     4   9  18  30  52  79 106 140 178 214 266 321
#
# _framework density 18.199096999999998
#
# number of rings (size 3 to 8) (size 9 to 14) (size 15 to 20)
#    0.000    2.545    0.909    1.364    0.000    5.455 
#    0.000    3.636   12.000    8.727    0.000   24.182 
#    0.000    0.000    0.000    0.000    0.000    0.000 
#
# Total GULP energy -272554.983060 kJ/mol
# GULP energy per Si atom -12388.862866 kJ/mol
# Density = 1.815768 g / cm^3
# Si number density = 18.199097 Si / 1000 Ang^3
#
#
#
# Elastic Constant Matrix: (Units=GPa)
#
#
# Indices 1 2 3 4 5 6 
#
# 1 86.2174 65.5531 33.8291 0.0000 1.6546 0.0000
# 2 65.5531 135.9585 46.0233 0.0000 5.0188 0.0000
# 3 33.8291 46.0233 68.2940 0.0000 -6.1481 0.0000
# 4 0.0000 0.0000 0.0000 24.7461 0.0000 5.5894
# 5 1.6546 5.0188 -6.1481 0.0000 20.4469 0.0000
# 6 0.0000 0.0000 0.0000 5.5894 0.0000 16.4011
#
#
#
# Elastic Compliance Matrix: (Units=1/GPa)
#
#
# Indices 1 2 3 4 5 6 
#
# 1 0.019234 -0.007751 -0.004392 0.000000 -0.000974 0.000000
# 2 -0.007751 0.013052 -0.005332 0.000000 -0.004180 0.000000
# 3 -0.004392 -0.005332 0.021133 0.000000 0.008019 0.000000
# 4 0.000000 0.000000 0.000000 0.043781 0.000000 -0.014920
# 5 -0.000974 -0.004180 0.008019 0.000000 0.052423 0.000000
# 6 0.000000 0.000000 0.000000 -0.014920 0.000000 0.066056
#
#
# Mechanical properties :
#
#
# Convention : Reuss Voigt Hill
#
# Bulk Modulus (GPa) = 54.14583 64.58677 59.36630
# Shear Modulus (GPa) = 19.47153 21.98977 20.73065
#
# Velocity S-wave (km/s) = 3.27451 3.47982 3.37872
# Velocity P-wave (km/s) = 6.64177 7.19107 6.92187
#
# Compressibility (1/GPa) = 0.01846864
#
# Stress axis : x y z
#
# Youngs Moduli (GPa) = 51.99185 76.61794 47.31869
#
# Poissons Ratio (x) = 0.59387 0.20781
# Poissons Ratio (y) = 0.40299 0.25232
# Poissons Ratio (z) = 0.22833 0.40856
#
# Static dielectric constant tensor:
#      x y z
#    x 3.115110 0.000000 0.170660 
#    y 0.000000 3.405880 0.000000 
#    z 0.170660 0.000000 3.724620 
# 
# 
# High freq. dielectric constant tensor:
#      x y z
#    x 1.669310 0.000000 0.004270 
#    y 0.000000 1.725320 0.000000 
#    z 0.004270 0.000000 1.704780 
# 
# From -- ./inp_files/65571.got.cif
#   From: 2010.06.25/outbox.cif.g09.slc.cpg/sg12_33_cif.got.tgz:65571.got - 2010.06.28 00:19:55.
