data_PCOD8091664
_publ_section_title
;
Structure prediction by ZEFSAII (Michael W. Deem and Ramdas Pophale) SiO2 
 PCOD8091664
Probable space group: C 2/M
;
_chemical_formula_sum "Si O2"
_cell_formula_units_Z 64
_cell_length_a 20.791566
_cell_length_b 9.091952
_cell_length_c 19.637408
_cell_angle_alpha 90.000000
_cell_angle_beta 117.270495
_cell_angle_gamma 90.000000
_cell_volume 3299.579436
_symmetry_space_group_name_H-M "C 2/M"
_symmetry_group_IT_number 12
_symmetry_cell_setting 'monoclinic'
loop_
_space_group_symop_operation_xyz
x,y,z
-x,y,-z
-x,-y,-z
x,-y,z
1/2+x,1/2+y,z
1/2-x,1/2+y,-z
1/2-x,1/2-y,-z
1/2+x,1/2-y,z
loop_
_atom_site_type_symbol
_atom_site_label
_atom_site_fract_x
_atom_site_fract_y
_atom_site_fract_z
Si Si1 0.624125 0.323879 0.745789
Si Si2 0.558414 0.326458 0.855357
Si Si3 0.103256 0.825957 0.230767
Si Si4 0.313294 0.327668 0.990324
Si Si5 0.559562 0.332811 0.577547
Si Si6 0.777930 0.826790 0.820833
Si Si7 0.823858 0.166018 0.473911
Si Si8 0.840548 0.672552 0.611610
O O1 0.631463 0.500000 0.747192
O O2 0.589181 0.263493 0.798667
O O3 0.571724 0.266147 0.658949
O O4 0.703590 0.258174 0.773513
O O5 0.559883 0.500000 0.849386
O O6 0.476798 0.274416 0.832053
O O7 0.609831 0.273406 0.941923
O O8 0.163049 0.772283 0.205664
O O9 0.113947 0.751921 0.308661
O O10 0.107016 0.000000 0.241775
O O11 0.303135 0.500000 0.996940
O O12 0.250000 0.250000 0.000000
O O13 0.311202 0.285618 0.910243
O O14 0.500000 0.251767 0.500000
O O15 0.532788 0.500000 0.574238
O O16 0.636808 0.322455 0.578833
O O17 0.763279 0.000000 0.807325
O O18 0.864607 0.267867 0.549147
O O19 0.742862 0.219570 0.419768
O O20 0.823999 0.000000 0.502625
O O21 0.854005 0.500000 0.622850
#
# Coordination Sequence:
#
# PCOD8091664 Si02
#       8
#     8   8   8   8   8   8   8   8
#     4  10  19  34  57  82 107 141 185 227 267 320
#     4   9  19  34  56  83 108 141 185 226 265 317
#     4  10  21  36  54  80 110 144 181 221 271 323
#     4  10  19  35  57  83 111 142 180 222 268 321
#     4   9  18  30  50  78 103 131 176 227 266 304
#     4  10  21  35  56  84 113 143 176 221 275 326
#     4   9  18  33  52  74 101 138 178 223 270 321
#     4  10  20  34  53  77 104 138 180 223 271 323
#
# _framework density 19.396412000000002
#
# number of rings (size 3 to 8) (size 9 to 14) (size 15 to 20)
#    0.000    2.375    1.250    1.125    1.750    2.500 
#    0.000    4.375    0.000    0.750    0.000    2.625 
#    0.000    0.000    0.000    0.000    0.000    0.000 
#
# Total GULP energy -396702.965721 kJ/mol
# GULP energy per Si atom -12396.967679 kJ/mol
# Density = 1.935226 g / cm^3
# Si number density = 19.396412 Si / 1000 Ang^3
#
#
#
# Elastic Constant Matrix: (Units=GPa)
#
#
# Indices 1 2 3 4 5 6 
#
# 1 79.0895 13.5730 31.5094 0.0000 9.4335 0.0000
# 2 13.5730 26.0185 20.9666 0.0000 3.3314 0.0000
# 3 31.5094 20.9666 144.0705 0.0000 10.1666 0.0000
# 4 0.0000 0.0000 0.0000 21.6339 0.0000 2.3897
# 5 9.4335 3.3314 10.1666 0.0000 30.0987 0.0000
# 6 0.0000 0.0000 0.0000 2.3897 0.0000 22.0477
#
#
#
# Elastic Compliance Matrix: (Units=1/GPa)
#
#
# Indices 1 2 3 4 5 6 
#
# 1 0.014872 -0.005553 -0.002212 0.000000 -0.003299 0.000000
# 2 -0.005553 0.045836 -0.005348 0.000000 -0.001526 0.000000
# 3 -0.002212 -0.005348 0.008310 0.000000 -0.001522 0.000000
# 4 0.000000 0.000000 0.000000 0.046784 0.000000 -0.005071
# 5 -0.003299 -0.001526 -0.001522 0.000000 0.034941 0.000000
# 6 0.000000 0.000000 0.000000 -0.005071 0.000000 0.045906
#
#
# Mechanical properties :
#
#
# Convention : Reuss Voigt Hill
#
# Bulk Modulus (GPa) = 23.36888 42.36405 32.86647
# Shear Modulus (GPa) = 21.08463 26.96471 24.02467
#
# Velocity S-wave (km/s) = 3.30060 3.73257 3.52321
# Velocity P-wave (km/s) = 5.15747 6.36119 5.79069
#
# Compressibility (1/GPa) = 0.04279195
#
# Stress axis : x y z
#
# Youngs Moduli (GPa) = 67.24248 21.81673 120.33029
#
# Poissons Ratio (x) = 0.12116 0.26611
# Poissons Ratio (y) = 0.37343 0.64356
# Poissons Ratio (z) = 0.14871 0.11668
#
# Static dielectric constant tensor:
#      x y z
#    x 4.824380 0.000000 0.064930 
#    y 0.000000 3.216030 0.000000 
#    z 0.064930 0.000000 3.906040 
# 
# 
# High freq. dielectric constant tensor:
#      x y z
#    x 1.756080 0.000000 0.001230 
#    y 0.000000 1.715160 0.000000 
#    z 0.001230 0.000000 1.771160 
# 
# From -- ./inp_files/320026.got.cif
#   From: 2010.06.25/outbox.cif.g09.slc.cpg/sg12_161_cif.got.tgz:320026.got - 2010.06.28 00:19:55.
