data_PCOD8091940
_publ_section_title
;
Structure prediction by ZEFSAII (Michael W. Deem and Ramdas Pophale) SiO2 
 PCOD8091940
Probable space group: C 2/M
;
_chemical_formula_sum "Si O2"
_cell_formula_units_Z 64
_cell_length_a 36.462219
_cell_length_b 9.997892
_cell_length_c 21.620563
_cell_angle_alpha 90.000000
_cell_angle_beta 154.812570
_cell_angle_gamma 90.000000
_cell_volume 3354.289436
_symmetry_space_group_name_H-M "C 2/M"
_symmetry_group_IT_number 12
_symmetry_cell_setting 'monoclinic'
loop_
_space_group_symop_operation_xyz
x,y,z
-x,y,-z
-x,-y,-z
x,-y,z
1/2+x,1/2+y,z
1/2-x,1/2+y,-z
1/2-x,1/2-y,-z
1/2+x,1/2-y,z
loop_
_atom_site_type_symbol
_atom_site_label
_atom_site_fract_x
_atom_site_fract_y
_atom_site_fract_z
Si Si1 0.800981 0.347221 0.799662
Si Si2 0.686972 0.656255 0.865019
Si Si3 0.169715 0.841442 0.699089
Si Si4 0.134654 0.853366 0.305579
Si Si5 0.011190 0.654138 0.892637
Si Si6 0.455546 0.852133 0.671052
Si Si7 0.779966 0.250976 0.445050
Si Si8 0.497181 0.345220 0.626489
O O1 0.812972 0.500000 0.837377
O O2 0.739671 0.279205 0.758089
O O3 0.758542 0.339714 0.667844
O O4 0.896826 0.284776 0.945919
O O5 0.713995 0.500000 0.912591
O O6 0.691096 0.707958 0.800655
O O7 0.590112 0.678160 0.739527
O O8 0.750000 0.750000 0.000000
O O9 0.074174 0.796101 0.531964
O O10 0.172530 0.000000 0.702197
O O11 0.062587 0.740087 0.186319
O O12 0.180908 0.844135 0.442643
O O13 0.205272 0.842655 0.359472
O O14 0.091902 0.000000 0.235890
O O15 0.997009 0.500000 0.891465
O O16 0.007791 0.669708 0.813823
O O17 0.353740 0.844642 0.529097
O O18 0.488802 0.739676 0.675751
O O19 0.474764 0.000000 0.673319
O O20 0.482234 0.500000 0.621634
#
# Coordination Sequence:
#
# PCOD8091940 Si02
#       8
#     8   8   8   8   8   8   8   8
#     4  10  19  34  58  85 109 144 193 237 274 322
#     4  10  22  38  60  87 118 151 186 229 279 332
#     4   9  18  35  60  84 110 146 192 235 273 319
#     4  10  21  37  58  82 112 149 184 228 287 342
#     4   9  21  37  54  80 113 146 188 234 277 333
#     4  10  20  35  56  83 114 148 181 225 286 339
#     4  10  20  35  58  83 110 142 191 237 275 331
#     4  10  20  36  59  86 111 144 191 236 272 323
#
# _framework density 19.080047
#
# number of rings (size 3 to 8) (size 9 to 14) (size 15 to 20)
#    0.000    2.250    1.250    1.125    1.750    8.000 
#    0.000    3.750    0.000    1.500    0.000    0.000 
#    0.000    0.000    0.000    0.000    0.000    0.000 
#
# Total GULP energy -396755.150811 kJ/mol
# GULP energy per Si atom -12398.598463 kJ/mol
# Density = 1.903662 g / cm^3
# Si number density = 19.080047 Si / 1000 Ang^3
#
#
#
# Elastic Constant Matrix: (Units=GPa)
#
#
# Indices 1 2 3 4 5 6 
#
# 1 103.3670 31.6040 35.6866 0.0000 9.2243 0.0000
# 2 31.6040 71.9908 25.5973 0.0000 8.9681 0.0000
# 3 35.6866 25.5973 112.4971 0.0000 15.2002 0.0000
# 4 0.0000 0.0000 0.0000 22.0122 0.0000 -1.4040
# 5 9.2243 8.9681 15.2002 0.0000 24.0295 0.0000
# 6 0.0000 0.0000 0.0000 -1.4040 0.0000 23.2547
#
#
#
# Elastic Compliance Matrix: (Units=1/GPa)
#
#
# Indices 1 2 3 4 5 6 
#
# 1 0.011986 -0.004140 -0.002676 0.000000 -0.001363 0.000000
# 2 -0.004140 0.016866 -0.002065 0.000000 -0.003399 0.000000
# 3 -0.002676 -0.002065 0.010896 0.000000 -0.005095 0.000000
# 4 0.000000 0.000000 0.000000 0.045605 0.000000 0.002753
# 5 -0.001363 -0.003399 -0.005095 0.000000 0.046630 0.000000
# 6 0.000000 0.000000 0.000000 0.002753 0.000000 0.043168
#
#
# Mechanical properties :
#
#
# Convention : Reuss Voigt Hill
#
# Bulk Modulus (GPa) = 45.48490 52.62564 49.05527
# Shear Modulus (GPa) = 24.96979 26.85708 25.91344
#
# Velocity S-wave (km/s) = 3.62150 3.75587 3.68930
# Velocity P-wave (km/s) = 6.43256 6.81543 6.62676
#
# Compressibility (1/GPa) = 0.02198532
#
# Stress axis : x y z
#
# Youngs Moduli (GPa) = 83.43311 59.29098 91.77527
#
# Poissons Ratio (x) = 0.24549 0.24557
# Poissons Ratio (y) = 0.34545 0.18951
# Poissons Ratio (z) = 0.22325 0.12243
#
# Static dielectric constant tensor:
#      x y z
#    x 3.615400 0.000000 0.065820 
#    y 0.000000 3.253320 0.000000 
#    z 0.065820 0.000000 3.626940 
# 
# 
# High freq. dielectric constant tensor:
#      x y z
#    x 1.746090 0.000000 0.005080 
#    y 0.000000 1.712090 0.000000 
#    z 0.005080 0.000000 1.748870 
# 
# From -- ./inp_files/296507.got.cif
#   From: 2010.06.25/outbox.cif.g09.slc.cpg/sg12_149_cif.got.tgz:296507.got - 2010.06.28 00:19:55.
