data_PCOD8091195
_publ_section_title
;
Structure prediction by ZEFSAII (Michael W. Deem and Ramdas Pophale) SiO2 
 PCOD8091195
Probable space group: C 2/M
;
_chemical_formula_sum "Si O2"
_cell_formula_units_Z 48
_cell_length_a 9.897322
_cell_length_b 27.835918
_cell_length_c 8.768254
_cell_angle_alpha 90.000000
_cell_angle_beta 98.553181
_cell_angle_gamma 90.000000
_cell_volume 2388.796710
_symmetry_space_group_name_H-M "C 2/M"
_symmetry_group_IT_number 12
_symmetry_cell_setting 'monoclinic'
loop_
_space_group_symop_operation_xyz
x,y,z
-x,y,-z
-x,-y,-z
x,-y,z
1/2+x,1/2+y,z
1/2-x,1/2+y,-z
1/2-x,1/2-y,-z
1/2+x,1/2-y,z
loop_
_atom_site_type_symbol
_atom_site_label
_atom_site_fract_x
_atom_site_fract_y
_atom_site_fract_z
Si Si1 0.376499 0.294255 0.177424
Si Si2 0.180725 0.786908 0.186268
Si Si3 0.535513 0.054108 0.182519
Si Si4 0.945854 0.944347 0.653487
Si Si5 0.776925 0.608762 0.211740
Si Si6 0.191361 0.902034 0.852436
O O1 0.276095 0.257958 0.251568
O O2 0.535684 0.286372 0.252047
O O3 0.333108 0.348147 0.210789
O O4 0.357573 0.284243 0.996630
O O5 0.269873 0.834241 0.236444
O O6 0.431462 0.089458 0.252515
O O7 0.686086 0.075898 0.226920
O O8 0.529390 0.000000 0.249569
O O9 0.500000 0.052697 0.000000
O O10 0.058247 0.933967 0.801320
O O11 0.000000 0.925778 0.500000
O O12 0.808077 0.916448 0.669719
O O13 0.909533 0.000000 0.643007
O O14 0.716796 0.595301 0.036610
#
# Coordination Sequence:
#
# PCOD8091195 Si02
#       6
#     8   8   8   8   8   8
#     4   9  17  28  46  76 108 136 168 211 263 314
#     4   9  17  28  46  76 108 136 168 211 263 314
#     4   9  18  30  48  77 107 133 167 217 268 309
#     4  11  23  37  54  77 105 141 183 227 274 319
#     4  10  19  34  55  80 108 139 178 219 265 322
#     4  10  19  34  55  80 108 139 178 219 265 322
#
# _framework density 20.093798
#
# number of rings (size 3 to 8) (size 9 to 14) (size 15 to 20)
#    0.000    2.333    1.667    1.500    2.333    2.667 
#    0.000    0.833    0.000    4.000    0.000    0.000 
#    0.000    0.000    0.000    0.000    0.000    0.000 
#
# Total GULP energy -297579.799596 kJ/mol
# GULP energy per Si atom -12399.158317 kJ/mol
# Density = 2.004806 g / cm^3
# Si number density = 20.093798 Si / 1000 Ang^3
#
#
#
# Elastic Constant Matrix: (Units=GPa)
#
#
# Indices 1 2 3 4 5 6 
#
# 1 127.0009 60.3597 -0.8600 0.0000 -22.5579 0.0000
# 2 60.3597 121.9605 13.7358 0.0000 -18.3924 0.0000
# 3 -0.8600 13.7358 20.9115 0.0000 -12.4242 0.0000
# 4 0.0000 0.0000 0.0000 8.1252 0.0000 -5.9702
# 5 -22.5579 -18.3924 -12.4242 0.0000 18.8086 0.0000
# 6 0.0000 0.0000 0.0000 -5.9702 0.0000 46.2045
#
#
#
# Elastic Compliance Matrix: (Units=1/GPa)
#
#
# Indices 1 2 3 4 5 6 
#
# 1 0.015440 -0.005991 0.019902 0.000000 0.025805 0.000000
# 2 -0.005991 0.011961 -0.008926 0.000000 -0.001385 0.000000
# 3 0.019902 -0.008926 0.104516 0.000000 0.084179 0.000000
# 4 0.000000 0.000000 0.000000 0.135984 0.000000 0.017571
# 5 0.025805 -0.001385 0.084179 0.000000 0.138367 0.000000
# 6 0.000000 0.000000 0.000000 0.017571 0.000000 0.023913
#
#
# Mechanical properties :
#
#
# Convention : Reuss Voigt Hill
#
# Bulk Modulus (GPa) = 7.04793 46.26044 26.65419
# Shear Modulus (GPa) = 10.69506 27.73682 19.21594
#
# Velocity S-wave (km/s) = 2.30957 3.71936 3.09578
# Velocity P-wave (km/s) = 3.25995 6.44337 5.10609
#
# Compressibility (1/GPa) = 0.14188556
#
# Stress axis : x y z
#
# Youngs Moduli (GPa) = 64.76849 83.60633 9.56795
#
# Poissons Ratio (x) = 0.50090 -0.19042
# Poissons Ratio (y) = 0.38804 0.08540
# Poissons Ratio (z) = -1.28901 0.74626
#
# Static dielectric constant tensor:
#      x y z
#    x 3.996660 0.000000 -0.159290 
#    y 0.000000 3.783720 0.000000 
#    z -0.159290 0.000000 3.066460 
# 
# 
# High freq. dielectric constant tensor:
#      x y z
#    x 1.797560 0.000000 -0.011230 
#    y 0.000000 1.793740 0.000000 
#    z -0.011230 0.000000 1.720640 
# 
# From -- ./inp_files/42184.got.cif
#   From: 2010.06.25/outbox.cif.g09.slc.cpg/sg12_22_cif.got.tgz:42184.got - 2010.06.28 00:19:55.
