data_PCOD8091905
_publ_section_title
;
Structure prediction by ZEFSAII (Michael W. Deem and Ramdas Pophale) SiO2 
 PCOD8091905
Probable space group: C 2/M
;
_chemical_formula_sum "Si O2"
_cell_formula_units_Z 64
_cell_length_a 26.610339
_cell_length_b 12.467251
_cell_length_c 14.864895
_cell_angle_alpha 90.000000
_cell_angle_beta 41.620146
_cell_angle_gamma 90.000000
_cell_volume 3275.478141
_symmetry_space_group_name_H-M "C 2/M"
_symmetry_group_IT_number 12
_symmetry_cell_setting 'monoclinic'
loop_
_space_group_symop_operation_xyz
x,y,z
-x,y,-z
-x,-y,-z
x,-y,z
1/2+x,1/2+y,z
1/2-x,1/2+y,-z
1/2-x,1/2-y,-z
1/2+x,1/2-y,z
loop_
_atom_site_type_symbol
_atom_site_label
_atom_site_fract_x
_atom_site_fract_y
_atom_site_fract_z
Si Si1 0.248856 0.378727 0.864254
Si Si2 0.859414 0.124598 0.560200
Si Si3 0.336578 0.277523 0.402429
Si Si4 0.502412 0.221941 0.594089
Si Si5 0.107526 0.761278 0.024914
Si Si6 0.031555 0.376181 0.736842
Si Si7 0.410149 0.377148 0.128212
Si Si8 0.118896 0.120344 0.184181
O O1 0.224072 0.500000 0.879762
O O2 0.295116 0.336740 0.715652
O O3 0.294964 0.368408 0.896120
O O4 0.172379 0.313917 0.976674
O O5 0.835258 0.144987 0.490125
O O6 0.933739 0.189290 0.483409
O O7 0.877208 0.000000 0.551071
O O8 0.250000 0.250000 0.500000
O O9 0.384173 0.168888 0.357620
O O10 0.376836 0.339600 0.267394
O O11 0.500000 0.164446 0.500000
O O12 0.511846 0.131190 0.657200
O O13 0.425111 0.287538 0.704575
O O14 0.106159 0.862280 0.094601
O O15 0.028562 0.695837 0.127833
O O16 0.126904 0.804681 0.900153
O O17 0.028138 0.500000 0.772183
O O18 0.386512 0.500000 0.145347
O O19 0.500000 0.363817 0.000000
O O20 0.089705 0.000000 0.245544
#
# Coordination Sequence:
#
# PCOD8091905 Si02
#       8
#     8   8   8   8   8   8   8   8
#     4  10  20  34  56  84 117 153 194 240 288 348
#     4  10  20  34  56  88 116 146 191 243 298 352
#     4  11  23  42  63  86 119 157 196 248 304 355
#     4  10  19  34  58  83 115 153 187 240 295 350
#     4  11  21  39  58  82 117 161 194 243 291 349
#     4  10  23  40  59  85 116 154 199 239 289 357
#     4  11  23  41  64  91 118 151 200 252 305 356
#     4  10  20  33  55  87 116 151 195 240 292 345
#
# _framework density 19.539133
#
# number of rings (size 3 to 8) (size 9 to 14) (size 15 to 20)
#    0.000    1.625    2.500    2.625    0.000    1.750 
#    0.000    1.875    0.000    1.500    0.000    0.000 
#    0.000    0.000    0.000    0.000    0.000    0.000 
#
# Total GULP energy -396756.151238 kJ/mol
# GULP energy per Si atom -12398.629726 kJ/mol
# Density = 1.949466 g / cm^3
# Si number density = 19.539133 Si / 1000 Ang^3
#
#
#
# Elastic Constant Matrix: (Units=GPa)
#
#
# Indices 1 2 3 4 5 6 
#
# 1 85.3412 31.0231 24.2446 0.0000 1.6630 0.0000
# 2 31.0231 83.0398 19.8228 0.0000 -5.0628 0.0000
# 3 24.2446 19.8228 66.5574 0.0000 0.4505 0.0000
# 4 0.0000 0.0000 0.0000 0.3034 0.0000 -1.3300
# 5 1.6630 -5.0628 0.4505 0.0000 43.7682 0.0000
# 6 0.0000 0.0000 0.0000 -1.3300 0.0000 23.2136
#
#
#
# Elastic Compliance Matrix: (Units=1/GPa)
#
#
# Indices 1 2 3 4 5 6 
#
# 1 0.014505 -0.004546 -0.003923 0.000000 -0.001037 0.000000
# 2 -0.004546 0.014493 -0.002673 -0.000001 0.001877 0.000000
# 3 -0.003923 -0.002673 0.017252 0.000000 -0.000338 0.000000
# 4 0.000000 -0.000001 0.000000 4.400652 0.000000 0.252125
# 5 -0.001037 0.001877 -0.000338 0.000000 0.023108 0.000000
# 6 0.000000 0.000000 0.000000 0.252125 0.000000 0.057523
#
#
# Mechanical properties :
#
#
# Convention : Reuss Voigt Hill
#
# Bulk Modulus (GPa) = 41.72503 42.79107 42.25805
# Shear Modulus (GPa) = 1.09702 24.11358 12.60530
#
# Velocity S-wave (km/s) = 0.75011 3.51681 2.54270
# Velocity P-wave (km/s) = 4.70650 6.19987 5.50407
#
# Compressibility (1/GPa) = 0.02396643
#
# Stress axis : x y z
#
# Youngs Moduli (GPa) = 68.94319 68.99767 57.96414
#
# Poissons Ratio (x) = 0.31364 0.22738
# Poissons Ratio (y) = 0.31339 0.15496
# Poissons Ratio (z) = 0.27045 0.18446
#
# Static dielectric constant tensor:
#      x y z
#    x 3.729010 0.000000 0.273970 
#    y 0.000000 3.391820 0.000000 
#    z 0.273970 0.000000 3.894040 
# 
# 
# High freq. dielectric constant tensor:
#      x y z
#    x 1.769940 0.000000 0.005370 
#    y 0.000000 1.749440 0.000000 
#    z 0.005370 0.000000 1.761740 
# 
# From -- ./inp_files/245924.got.cif
#   From: 2010.06.25/outbox.cif.g09.slc.cpg/sg12_123_cif.got.tgz:245924.got - 2010.06.28 00:19:55.
