data_PCOD8091990
_publ_section_title
;
Structure prediction by ZEFSAII (Michael W. Deem and Ramdas Pophale) SiO2 
 PCOD8091990
Probable space group: C 2/M
;
_chemical_formula_sum "Si O2"
_cell_formula_units_Z 56
_cell_length_a 14.620803
_cell_length_b 8.774012
_cell_length_c 21.639089
_cell_angle_alpha 90.000000
_cell_angle_beta 74.786000
_cell_angle_gamma 90.000000
_cell_volume 2678.639777
_symmetry_space_group_name_H-M "C 2/M"
_symmetry_group_IT_number 12
_symmetry_cell_setting 'monoclinic'
loop_
_space_group_symop_operation_xyz
x,y,z
-x,y,-z
-x,-y,-z
x,-y,z
1/2+x,1/2+y,z
1/2-x,1/2+y,-z
1/2-x,1/2-y,-z
1/2+x,1/2-y,z
loop_
_atom_site_type_symbol
_atom_site_label
_atom_site_fract_x
_atom_site_fract_y
_atom_site_fract_z
Si Si1 0.150083 0.321702 0.499711
Si Si2 0.039324 0.679739 0.398651
Si Si3 0.873921 0.821386 0.734652
Si Si4 0.109933 0.826849 0.061948
Si Si5 0.793661 0.174073 0.075839
Si Si6 0.682317 0.675978 0.786723
Si Si7 0.007783 0.677586 0.183154
O O1 0.165024 0.500000 0.498412
O O2 0.250000 0.250000 0.500000
O O3 0.115205 0.271847 0.437726
O O4 0.067361 0.275638 0.562357
O O5 0.046726 0.500000 0.383750
O O6 0.060385 0.775827 0.334103
O O7 0.765972 0.772765 0.740603
O O8 0.904146 0.729366 0.790468
O O9 0.881690 0.000000 0.745596
O O10 0.212890 0.792947 0.072357
O O11 0.031662 0.719113 0.107675
O O12 0.081897 0.000000 0.082955
O O13 0.116561 0.802498 0.986528
O O14 0.827543 0.207426 0.138684
O O15 0.755115 0.000000 0.076434
O O16 0.698424 0.500000 0.767559
O O17 0.584290 0.734451 0.775033
O O18 0.989691 0.500000 0.192585
#
# Coordination Sequence:
#
# PCOD8091990 Si02
#       7
#     8   8   8   8   8   8   8
#     4   9  19  37  64  94 126 161 200 241 289 341
#     4   9  20  40  62  88 124 167 201 237 292 353
#     4  12  25  42  63  90 122 161 205 252 302 358
#     4  10  19  34  58  86 115 149 195 249 305 370
#     4   9  19  35  58  85 114 151 193 245 311 368
#     4  11  23  41  63  87 117 156 201 252 307 365
#     4  12  25  41  60  85 118 159 204 252 306 364
#
# _framework density 20.906133000000001
#
# number of rings (size 3 to 8) (size 9 to 14) (size 15 to 20)
#    0.000    1.714    1.429    4.286    0.000    4.000 
#    0.000    7.143    0.000    0.000    0.000    0.000 
#    0.000    0.000    0.000    0.000    0.000    0.000 
#
# Total GULP energy -347247.142500 kJ/mol
# GULP energy per Si atom -12401.683661 kJ/mol
# Density = 2.085855 g / cm^3
# Si number density = 20.906133 Si / 1000 Ang^3
#
#
#
# Elastic Constant Matrix: (Units=GPa)
#
#
# Indices 1 2 3 4 5 6 
#
# 1 82.5955 20.5606 20.5280 0.0000 -21.7145 0.0000
# 2 20.5606 90.6349 40.1565 0.0000 -2.9134 0.0000
# 3 20.5280 40.1565 97.8537 0.0000 -13.0444 0.0000
# 4 0.0000 0.0000 0.0000 34.6749 0.0000 -5.5783
# 5 -21.7145 -2.9134 -13.0444 0.0000 24.7321 0.0000
# 6 0.0000 0.0000 0.0000 -5.5783 0.0000 35.7951
#
#
#
# Elastic Compliance Matrix: (Units=1/GPa)
#
#
# Indices 1 2 3 4 5 6 
#
# 1 0.016690 -0.003196 -0.000308 0.000000 0.014115 0.000000
# 2 -0.003196 0.014144 -0.005686 0.000000 -0.004139 0.000000
# 3 -0.000308 -0.005686 0.013437 0.000000 0.006146 0.000000
# 4 0.000000 0.000000 0.000000 0.029581 0.000000 0.004610
# 5 0.014115 -0.004139 0.006146 0.000000 0.055580 0.000000
# 6 0.000000 0.000000 0.000000 0.004610 0.000000 0.028655
#
#
# Mechanical properties :
#
#
# Convention : Reuss Voigt Hill
#
# Bulk Modulus (GPa) = 38.62280 48.17491 43.39886
# Shear Modulus (GPa) = 27.01278 31.69634 29.35456
#
# Velocity S-wave (km/s) = 3.59848 3.89797 3.75121
# Velocity P-wave (km/s) = 5.98163 6.58425 6.29016
#
# Compressibility (1/GPa) = 0.02589144
#
# Stress axis : x y z
#
# Youngs Moduli (GPa) = 59.91547 70.69968 74.42360
#
# Poissons Ratio (x) = 0.22595 0.02294
# Poissons Ratio (y) = 0.19148 0.42315
# Poissons Ratio (z) = 0.01847 0.40198
#
# Static dielectric constant tensor:
#      x y z
#    x 4.624500 0.000000 -0.178110 
#    y 0.000000 3.634220 0.000000 
#    z -0.178110 0.000000 3.843510 
# 
# 
# High freq. dielectric constant tensor:
#      x y z
#    x 1.810900 0.000000 -0.012120 
#    y 0.000000 1.814280 0.000000 
#    z -0.012120 0.000000 1.820470 
# 
# From -- ./inp_files/338528.got.cif
#   From: 2010.06.25/outbox.cif.g09.slc.cpg/sg12_170_cif.got.tgz:338528.got - 2010.06.28 00:19:55.
