data_PCOD8091373
_publ_section_title
;
Structure prediction by ZEFSAII (Michael W. Deem and Ramdas Pophale) SiO2 
 PCOD8091373
Probable space group: C 2/M
;
_chemical_formula_sum "Si O2"
_cell_formula_units_Z 60
_cell_length_a 13.881066
_cell_length_b 23.465844
_cell_length_c 12.215441
_cell_angle_alpha 90.000000
_cell_angle_beta 51.616820
_cell_angle_gamma 90.000000
_cell_volume 3119.000105
_symmetry_space_group_name_H-M "C 2/M"
_symmetry_group_IT_number 12
_symmetry_cell_setting 'monoclinic'
loop_
_space_group_symop_operation_xyz
x,y,z
-x,y,-z
-x,-y,-z
x,-y,z
1/2+x,1/2+y,z
1/2-x,1/2+y,-z
1/2-x,1/2-y,-z
1/2+x,1/2-y,z
loop_
_atom_site_type_symbol
_atom_site_label
_atom_site_fract_x
_atom_site_fract_y
_atom_site_fract_z
Si Si1 0.040184 0.731473 0.303354
Si Si2 0.234966 0.360669 0.695513
Si Si3 0.500000 0.326312 0.500000
Si Si4 0.754008 0.345850 0.739005
Si Si5 0.071802 0.748668 0.839848
Si Si6 0.105971 0.624494 0.570386
Si Si7 0.141574 0.433320 0.197812
Si Si8 0.635513 0.064322 0.949888
O O1 0.021221 0.790501 0.376223
O O2 0.034042 0.744010 0.177960
O O3 0.925137 0.691371 0.412052
O O4 0.163078 0.701536 0.258726
O O5 0.378857 0.363323 0.566512
O O6 0.181865 0.296696 0.745216
O O7 0.171429 0.392591 0.637935
O O8 0.220623 0.394782 0.818577
O O9 0.627335 0.313130 0.801310
O O10 0.805823 0.379841 0.596432
O O11 0.742763 0.398127 0.833749
O O12 0.000000 0.733784 0.000000
O O13 0.982614 0.586217 0.650231
O O14 0.162244 0.500000 0.200099
O O15 0.132455 0.415602 0.077536
O O16 0.685839 0.000000 0.905198
O O17 0.500000 0.069481 0.000000
#
# Coordination Sequence:
#
# PCOD8091373 Si02
#       8
#     8   8   4   8   8   8   8   8
#     4  10  19  35  54  77 112 159 190 225 286 339
#     4  11  22  34  57  86 115 155 198 235 285 347
#     4  12  20  36  55  80 119 158 196 224 288 348
#     4  11  21  37  54  84 123 153 189 242 285 344
#     4  11  24  36  56  85 120 155 196 238 286 344
#     4  10  19  34  56  79 116 149 193 239 284 337
#     4  10  21  36  61  87 112 149 192 244 300 342
#     4  10  20  38  58  81 112 146 188 242 296 338
#
# _framework density 19.236934999999999
#
# number of rings (size 3 to 8) (size 9 to 14) (size 15 to 20)
#    0.000    1.467    4.000    2.400    3.733    4.800 
#    0.000    0.333    0.000    0.400    0.000    0.933 
#    0.000    0.000    0.000    0.000    0.000    0.000 
#
# Total GULP energy -371835.298116 kJ/mol
# GULP energy per Si atom -12394.509937 kJ/mol
# Density = 1.919315 g / cm^3
# Si number density = 19.236935 Si / 1000 Ang^3
#
#
#
# Elastic Constant Matrix: (Units=GPa)
#
#
# Indices 1 2 3 4 5 6 
#
# 1 52.7851 22.0615 27.7268 0.0000 7.2098 0.0000
# 2 22.0615 72.7988 20.6626 0.0000 8.2977 0.0000
# 3 27.7268 20.6626 61.4334 0.0000 22.3634 0.0000
# 4 0.0000 0.0000 0.0000 28.3390 0.0000 5.1662
# 5 7.2098 8.2977 22.3634 0.0000 33.2147 0.0000
# 6 0.0000 0.0000 0.0000 5.1662 0.0000 18.4480
#
#
#
# Elastic Compliance Matrix: (Units=1/GPa)
#
#
# Indices 1 2 3 4 5 6 
#
# 1 0.026709 -0.005204 -0.011481 0.000000 0.003233 0.000000
# 2 -0.005204 0.016206 -0.002702 0.000000 -0.001100 0.000000
# 3 -0.011481 -0.002702 0.028103 0.000000 -0.015755 0.000000
# 4 0.000000 0.000000 0.000000 0.037185 0.000000 -0.010413
# 5 0.003233 -0.001100 -0.015755 0.000000 0.040288 0.000000
# 6 0.000000 0.000000 0.000000 -0.010413 0.000000 0.057122
#
#
# Mechanical properties :
#
#
# Convention : Reuss Voigt Hill
#
# Bulk Modulus (GPa) = 31.01246 36.43544 33.72395
# Shear Modulus (GPa) = 19.59746 23.77144 21.68445
#
# Velocity S-wave (km/s) = 3.19524 3.51909 3.36107
# Velocity P-wave (km/s) = 5.45610 5.95764 5.71238
#
# Compressibility (1/GPa) = 0.03224510
#
# Stress axis : x y z
#
# Youngs Moduli (GPa) = 37.44081 61.70678 35.58283
#
# Poissons Ratio (x) = 0.32111 0.40853
# Poissons Ratio (y) = 0.19483 0.09613
# Poissons Ratio (z) = 0.42986 0.16671
#
# Static dielectric constant tensor:
#      x y z
#    x 3.604920 0.000000 0.324860 
#    y 0.000000 3.457510 0.000000 
#    z 0.324860 0.000000 3.512870 
# 
# 
# High freq. dielectric constant tensor:
#      x y z
#    x 1.737590 0.000000 0.032570 
#    y 0.000000 1.727430 0.000000 
#    z 0.032570 0.000000 1.743750 
# 
# From -- ./inp_files/148605.got.cif
#   From: 2010.06.25/outbox.cif.g09.slc.cpg/sg12_75_cif.got.tgz:148605.got - 2010.06.28 00:19:55.
