data_PCOD8091022
_publ_section_title
;
Structure prediction by ZEFSAII (Michael W. Deem and Ramdas Pophale) SiO2 
 PCOD8091022
Probable space group: C 2/M
;
_chemical_formula_sum "Si O2"
_cell_formula_units_Z 64
_cell_length_a 31.713635
_cell_length_b 8.919795
_cell_length_c 18.004094
_cell_angle_alpha 90.000000
_cell_angle_beta 139.898508
_cell_angle_gamma 90.000000
_cell_volume 3280.611703
_symmetry_space_group_name_H-M "C 2/M"
_symmetry_group_IT_number 12
_symmetry_cell_setting 'monoclinic'
loop_
_space_group_symop_operation_xyz
x,y,z
-x,y,-z
-x,-y,-z
x,-y,z
1/2+x,1/2+y,z
1/2-x,1/2+y,-z
1/2-x,1/2-y,-z
1/2+x,1/2-y,z
loop_
_atom_site_type_symbol
_atom_site_label
_atom_site_fract_x
_atom_site_fract_y
_atom_site_fract_z
Si Si1 0.040210 0.823082 0.481489
Si Si2 0.296813 0.824023 0.664959
Si Si3 0.397356 0.827794 0.073069
Si Si4 0.182343 0.674494 0.891927
Si Si5 0.191345 0.175651 0.163604
Si Si6 0.032742 0.325928 0.321489
Si Si7 0.843910 0.823811 0.585299
Si Si8 0.833569 0.324171 0.294854
O O1 0.008958 0.740881 0.368267
O O2 0.115604 0.771200 0.588551
O O3 0.000000 0.772292 0.500000
O O4 0.037322 0.000000 0.465615
O O5 0.318822 0.760163 0.773158
O O6 0.221484 0.781053 0.548044
O O7 0.343095 0.752108 0.664847
O O8 0.308480 0.000000 0.679483
O O9 0.369520 0.779662 0.115660
O O10 0.475399 0.804745 0.183371
O O11 0.379343 0.000000 0.030865
O O12 0.367683 0.722905 0.969818
O O13 0.196609 0.500000 0.908884
O O14 0.155700 0.725585 0.775916
O O15 0.250000 0.750000 0.000000
O O16 0.260415 0.221228 0.220415
O O17 0.187081 0.000000 0.172423
O O18 0.049922 0.500000 0.355042
O O19 0.095933 0.237241 0.380248
O O20 0.850882 0.000000 0.605528
O O21 0.846530 0.500000 0.325054
#
# Coordination Sequence:
#
# PCOD8091022 Si02
#       8
#     8   8   8   8   8   8   8   8
#     4  11  24  39  56  83 116 152 195 243 291 337
#     4  10  21  38  62  90 121 152 185 231 288 346
#     4  10  22  38  57  81 114 155 197 238 286 345
#     4  10  19  34  54  79 110 148 193 238 283 335
#     4  11  22  36  57  86 117 149 190 240 290 338
#     4  11  23  40  62  85 115 157 197 235 286 348
#     4  10  21  39  64  93 120 149 188 234 286 342
#     4  10  21  36  56  83 114 150 193 238 291 350
#
# _framework density 19.508558000000001
#
# number of rings (size 3 to 8) (size 9 to 14) (size 15 to 20)
#    0.000    1.625    1.250    3.375    0.000    8.000 
#    0.000    0.625    0.000    3.750    0.000    0.000 
#    0.000    0.000    0.000    0.000    0.000    0.000 
#
# Total GULP energy -396959.663028 kJ/mol
# GULP energy per Si atom -12404.989470 kJ/mol
# Density = 1.946416 g / cm^3
# Si number density = 19.508558 Si / 1000 Ang^3
#
#
#
# Elastic Constant Matrix: (Units=GPa)
#
#
# Indices 1 2 3 4 5 6 
#
# 1 93.1316 33.0643 30.5913 0.0000 -14.3381 0.0000
# 2 33.0643 66.1416 34.1582 0.0000 -8.7118 0.0000
# 3 30.5913 34.1582 89.5230 0.0000 -10.5138 0.0000
# 4 0.0000 0.0000 0.0000 32.9937 0.0000 -3.9367
# 5 -14.3381 -8.7118 -10.5138 0.0000 32.2359 0.0000
# 6 0.0000 0.0000 0.0000 -3.9367 0.0000 31.2101
#
#
#
# Elastic Compliance Matrix: (Units=1/GPa)
#
#
# Indices 1 2 3 4 5 6 
#
# 1 0.013986 -0.005275 -0.002291 0.000000 0.004048 0.000000
# 2 -0.005275 0.021075 -0.006078 0.000000 0.001367 0.000000
# 3 -0.002291 -0.006078 0.014516 0.000000 0.002073 0.000000
# 4 0.000000 0.000000 0.000000 0.030772 0.000000 0.003881
# 5 0.004048 0.001367 0.002073 0.000000 0.033867 0.000000
# 6 0.000000 0.000000 0.000000 0.003881 0.000000 0.032530
#
#
# Mechanical properties :
#
#
# Convention : Reuss Voigt Hill
#
# Bulk Modulus (GPa) = 44.86721 49.38046 47.12384
# Shear Modulus (GPa) = 27.55346 29.35345 28.45346
#
# Velocity S-wave (km/s) = 3.76224 3.88318 3.82319
# Velocity P-wave (km/s) = 6.47466 6.74334 6.61037
#
# Compressibility (1/GPa) = 0.02228799
#
# Stress axis : x y z
#
# Youngs Moduli (GPa) = 71.49936 47.44885 68.89037
#
# Poissons Ratio (x) = 0.25031 0.15783
# Poissons Ratio (y) = 0.37718 0.41873
# Poissons Ratio (z) = 0.16381 0.28841
#
# Static dielectric constant tensor:
#      x y z
#    x 3.573120 0.000000 -0.119150 
#    y 0.000000 3.531390 0.000000 
#    z -0.119150 0.000000 3.491620 
# 
# 
# High freq. dielectric constant tensor:
#      x y z
#    x 1.758280 0.000000 -0.006570 
#    y 0.000000 1.764210 0.000000 
#    z -0.006570 0.000000 1.760380 
# 
# From -- ./inp_files/295689.got.cif
#   From: 2010.06.25/outbox.cif.g09.slc.cpg/sg12_148_cif.got.tgz:295689.got - 2010.06.28 00:19:55.
