data_PCOD8091713
_publ_section_title
;
Structure prediction by ZEFSAII (Michael W. Deem and Ramdas Pophale) SiO2 
 PCOD8091713
Probable space group: C 2/M
;
_chemical_formula_sum "Si O2"
_cell_formula_units_Z 56
_cell_length_a 19.896842
_cell_length_b 9.249571
_cell_length_c 25.407010
_cell_angle_alpha 90.000000
_cell_angle_beta 39.837347
_cell_angle_gamma 90.000000
_cell_volume 2995.389153
_symmetry_space_group_name_H-M "C 2/M"
_symmetry_group_IT_number 12
_symmetry_cell_setting 'monoclinic'
loop_
_space_group_symop_operation_xyz
x,y,z
-x,y,-z
-x,-y,-z
x,-y,z
1/2+x,1/2+y,z
1/2-x,1/2+y,-z
1/2-x,1/2-y,-z
1/2+x,1/2-y,z
loop_
_atom_site_type_symbol
_atom_site_label
_atom_site_fract_x
_atom_site_fract_y
_atom_site_fract_z
Si Si1 0.727255 0.666557 0.257934
Si Si2 0.514550 0.330101 0.433262
Si Si3 0.997725 0.670355 0.263875
Si Si4 0.731009 0.835380 0.152383
Si Si5 0.860853 0.171330 0.433061
Si Si6 0.441481 0.166017 0.181267
Si Si7 0.051513 0.166387 0.022932
O O1 0.709345 0.500000 0.254705
O O2 0.619815 0.737056 0.344422
O O3 0.762632 0.743190 0.183709
O O4 0.817861 0.688429 0.246420
O O5 0.500000 0.260892 0.500000
O O6 0.532457 0.500000 0.428538
O O7 0.414726 0.295619 0.456884
O O8 0.976390 0.500000 0.286073
O O9 0.932794 0.763950 0.344205
O O10 0.963211 0.721190 0.226911
O O11 0.119916 0.711634 0.195194
O O12 0.726602 0.000000 0.174070
O O13 0.822474 0.813118 0.054376
O O14 0.750000 0.250000 0.500000
O O15 0.846827 0.000000 0.432728
O O16 0.511268 0.251104 0.097903
O O17 0.474608 0.000000 0.155597
O O18 0.018802 0.000000 0.048996
O O19 0.000000 0.227661 0.000000
#
# Coordination Sequence:
#
# PCOD8091713 Si02
#       7
#     8   8   8   8   8   8   8
#     4  10  19  34  57  83 109 142 189 233 274 327
#     4   9  19  35  58  85 111 142 184 230 275 326
#     4  10  22  40  59  82 115 150 187 230 283 336
#     4  10  20  36  58  80 111 151 185 228 285 336
#     4  11  23  39  61  86 115 150 187 227 279 335
#     4  10  22  36  56  85 114 147 189 237 281 328
#     4  10  20  35  55  81 114 150 188 231 285 339
#
# _framework density 18.695399999999999
#
# number of rings (size 3 to 8) (size 9 to 14) (size 15 to 20)
#    0.000    2.000    2.857    0.429    2.000    2.000 
#    0.000    0.000    0.000    2.143    0.000    0.000 
#    0.000    0.000    0.000    0.000    0.000    0.000 
#
# Total GULP energy -347235.413694 kJ/mol
# GULP energy per Si atom -12401.264775 kJ/mol
# Density = 1.865285 g / cm^3
# Si number density = 18.695400 Si / 1000 Ang^3
#
#
#
# Elastic Constant Matrix: (Units=GPa)
#
#
# Indices 1 2 3 4 5 6 
#
# 1 127.7902 47.6658 54.3117 -0.0001 3.8936 0.0004
# 2 47.6658 57.7338 47.3019 -0.0002 2.3300 0.0017
# 3 54.3117 47.3019 117.3261 0.0001 -7.3939 -0.0001
# 4 -0.0001 -0.0002 0.0001 32.6539 -0.0001 0.0222
# 5 3.8936 2.3300 -7.3939 -0.0001 36.6666 -0.0001
# 6 0.0004 0.0017 -0.0001 0.0222 -0.0001 22.8876
#
#
#
# Elastic Compliance Matrix: (Units=1/GPa)
#
#
# Indices 1 2 3 4 5 6 
#
# 1 0.011755 -0.007663 -0.002431 0.000000 -0.001252 0.000000
# 2 -0.007663 0.031391 -0.009301 0.000000 -0.003057 -0.000002
# 3 -0.002431 -0.009301 0.013625 0.000000 0.003597 0.000001
# 4 0.000000 0.000000 0.000000 0.030624 0.000000 -0.000030
# 5 -0.001252 -0.003057 0.003597 0.000000 0.028325 0.000000
# 6 0.000000 -0.000002 0.000001 -0.000030 0.000000 0.043692
#
#
# Mechanical properties :
#
#
# Convention : Reuss Voigt Hill
#
# Bulk Modulus (GPa) = 55.61336 66.82320 61.21828
# Shear Modulus (GPa) = 24.48619 28.67969 26.58294
#
# Velocity S-wave (km/s) = 3.62297 3.92094 3.77490
# Velocity P-wave (km/s) = 6.87843 7.50461 7.19833
#
# Compressibility (1/GPa) = 0.01798129
#
# Stress axis : x y z
#
# Youngs Moduli (GPa) = 85.07134 31.85584 73.39301
#
# Poissons Ratio (x) = 0.24410 0.17842
# Poissons Ratio (y) = 0.65188 0.68266
# Poissons Ratio (z) = 0.20681 0.29630
#
# Static dielectric constant tensor:
#      x y z
#    x 3.573280 0.000000 -0.121730 
#    y 0.000000 3.275530 0.000000 
#    z -0.121730 0.000000 3.620720 
# 
# 
# High freq. dielectric constant tensor:
#      x y z
#    x 1.731730 0.000000 -0.009100 
#    y 0.000000 1.705650 0.000000 
#    z -0.009100 0.000000 1.737110 
# 
# From -- ./inp_files/363003.got.cif
#   From: 2010.06.25/outbox.cif.g09.slc.cpg/sg12_182_cif.got.tgz:363003.got - 2010.06.28 00:19:55.
