data_PCOD8091854
_publ_section_title
;
Structure prediction by ZEFSAII (Michael W. Deem and Ramdas Pophale) SiO2 
 PCOD8091854
Probable space group: C 2/M
;
_chemical_formula_sum "Si O2"
_cell_formula_units_Z 64
_cell_length_a 17.033194
_cell_length_b 17.576459
_cell_length_c 19.815543
_cell_angle_alpha 90.000000
_cell_angle_beta 33.298574
_cell_angle_gamma 90.000000
_cell_volume 3256.922280
_symmetry_space_group_name_H-M "C 2/M"
_symmetry_group_IT_number 12
_symmetry_cell_setting 'monoclinic'
loop_
_space_group_symop_operation_xyz
x,y,z
-x,y,-z
-x,-y,-z
x,-y,z
1/2+x,1/2+y,z
1/2-x,1/2+y,-z
1/2-x,1/2-y,-z
1/2+x,1/2-y,z
loop_
_atom_site_type_symbol
_atom_site_label
_atom_site_fract_x
_atom_site_fract_y
_atom_site_fract_z
Si Si1 0.578307 0.413188 0.063512
Si Si2 0.105881 0.084317 0.197608
Si Si3 0.315844 0.351653 0.428901
Si Si4 0.613017 0.195170 0.679171
Si Si5 0.779359 0.283023 0.128555
Si Si6 0.138089 0.631704 0.211712
Si Si7 0.443003 0.913596 0.468984
Si Si8 0.547460 0.742820 0.866868
O O1 0.516414 0.500000 0.103562
O O2 0.623093 0.391394 0.107243
O O3 0.457009 0.350784 0.128769
O O4 0.718202 0.409856 0.915803
O O5 0.200412 0.137028 0.177835
O O6 0.938006 0.084668 0.337825
O O7 0.165213 0.000000 0.166295
O O8 0.396906 0.272121 0.357736
O O9 0.250102 0.351241 0.552015
O O10 0.191517 0.365037 0.462101
O O11 0.475701 0.140506 0.767579
O O12 0.626573 0.220466 0.746435
O O13 0.663955 0.217087 0.218029
O O14 0.871840 0.280196 0.129264
O O15 0.881434 0.268592 0.990120
O O16 0.071581 0.586481 0.322375
O O17 0.500000 0.880636 0.500000
O O18 0.390776 0.000000 0.516859
#
# Coordination Sequence:
#
# PCOD8091854 Si02
#       8
#     8   8   8   8   8   8   8   8
#     4  10  20  34  58  88 114 149 188 234 291 337
#     4  11  21  37  61  86 115 146 187 242 289 337
#     4  10  20  35  55  83 108 145 192 235 276 329
#     4  10  19  34  58  80 107 144 193 235 271 322
#     4  10  21  36  56  86 112 150 189 230 292 336
#     4  10  19  35  56  80 111 147 193 236 270 338
#     4  10  22  36  52  79 118 155 183 225 286 345
#     4  10  20  37  57  81 118 150 187 237 280 339
#
# _framework density 19.650454
#
# number of rings (size 3 to 8) (size 9 to 14) (size 15 to 20)
#    0.000    1.875    2.500    1.500    1.750    2.000 
#    0.000    7.500    0.000    6.000    0.000    0.000 
#    0.000    0.000    0.000    0.000    0.000    0.000 
#
# Total GULP energy -396629.129576 kJ/mol
# GULP energy per Si atom -12394.660299 kJ/mol
# Density = 1.960573 g / cm^3
# Si number density = 19.650454 Si / 1000 Ang^3
#
#
#
# Elastic Constant Matrix: (Units=GPa)
#
#
# Indices 1 2 3 4 5 6 
#
# 1 82.7578 43.8341 45.9340 -0.0005 5.5489 0.0004
# 2 43.8341 81.0754 22.9733 0.0008 -0.5579 -0.0008
# 3 45.9340 22.9733 86.6073 0.0017 14.0623 -0.0028
# 4 -0.0005 0.0008 0.0017 24.8960 -0.0018 0.2380
# 5 5.5489 -0.5579 14.0623 -0.0018 24.2631 0.0013
# 6 0.0004 -0.0008 -0.0028 0.2380 0.0013 27.7824
#
#
#
# Elastic Compliance Matrix: (Units=1/GPa)
#
#
# Indices 1 2 3 4 5 6 
#
# 1 0.022205 -0.009367 -0.009309 0.000001 0.000101 -0.000002
# 2 -0.009367 0.017438 -0.000078 -0.000001 0.002588 0.000001
# 3 -0.009309 -0.000078 0.017837 -0.000002 -0.008211 0.000002
# 4 0.000001 -0.000001 -0.000002 0.040170 0.000004 -0.000344
# 5 0.000101 0.002588 -0.008211 0.000004 0.046010 -0.000003
# 6 -0.000002 0.000001 0.000002 -0.000344 -0.000003 0.035997
#
#
# Mechanical properties :
#
#
# Convention : Reuss Voigt Hill
#
# Bulk Modulus (GPa) = 50.06647 52.88036 51.47341
# Shear Modulus (GPa) = 22.33918 24.56823 23.45371
#
# Velocity S-wave (km/s) = 3.37535 3.53974 3.45852
# Velocity P-wave (km/s) = 6.38157 6.60873 6.49614
#
# Compressibility (1/GPa) = 0.01997345
#
# Stress axis : x y z
#
# Youngs Moduli (GPa) = 45.03590 57.34493 56.06246
#
# Poissons Ratio (x) = 0.53713 0.52186
# Poissons Ratio (y) = 0.42184 0.00438
# Poissons Ratio (z) = 0.41922 0.00448
#
# Static dielectric constant tensor:
#      x y z
#    x 3.282810 -0.000010 0.002180 
#    y -0.000010 3.475270 0.000010 
#    z 0.002180 0.000010 3.896710 
# 
# 
# High freq. dielectric constant tensor:
#      x y z
#    x 1.738000 0.000000 0.001120 
#    y 0.000000 1.754520 0.000000 
#    z 0.001120 0.000000 1.779020 
# 
# From -- ./inp_files/271724.got.cif
#   From: 2010.06.25/outbox.cif.g09.slc.cpg/sg12_136_cif.got.tgz:271724.got - 2010.06.28 00:19:55.
