data_PCOD8091886
_publ_section_title
;
Structure prediction by ZEFSAII (Michael W. Deem and Ramdas Pophale) SiO2 
 PCOD8091886
Probable space group: C 2/M
;
_chemical_formula_sum "Si O2"
_cell_formula_units_Z 64
_cell_length_a 20.122426
_cell_length_b 8.826748
_cell_length_c 22.386451
_cell_angle_alpha 90.000000
_cell_angle_beta 122.612981
_cell_angle_gamma 90.000000
_cell_volume 3349.259088
_symmetry_space_group_name_H-M "C 2/M"
_symmetry_group_IT_number 12
_symmetry_cell_setting 'monoclinic'
loop_
_space_group_symop_operation_xyz
x,y,z
-x,y,-z
-x,-y,-z
x,-y,z
1/2+x,1/2+y,z
1/2-x,1/2+y,-z
1/2-x,1/2-y,-z
1/2+x,1/2-y,z
loop_
_atom_site_type_symbol
_atom_site_label
_atom_site_fract_x
_atom_site_fract_y
_atom_site_fract_z
Si Si1 0.202014 0.321734 0.561917
Si Si2 0.518970 0.324167 0.679761
Si Si3 0.854905 0.322039 0.595503
Si Si4 0.072635 0.821646 0.575759
Si Si5 0.963681 0.166677 0.917133
Si Si6 0.650682 0.676519 0.840799
Si Si7 0.107659 0.677048 0.942676
Si Si8 0.689269 0.320756 0.095022
O O1 0.208356 0.500000 0.570477
O O2 0.159516 0.270808 0.479887
O O3 0.289967 0.254012 0.606887
O O4 0.152527 0.258693 0.593415
O O5 0.496325 0.500000 0.664782
O O6 0.440732 0.231529 0.657590
O O7 0.556087 0.269627 0.635257
O O8 0.580921 0.289427 0.761354
O O9 0.847649 0.500000 0.599524
O O10 0.000000 0.765889 0.500000
O O11 0.085221 0.000000 0.576167
O O12 0.873161 0.219876 0.882385
O O13 0.014197 0.282967 0.901763
O O14 0.967196 0.000000 0.888419
O O15 0.000000 0.155287 0.000000
O O16 0.655050 0.500000 0.859768
O O17 0.638847 0.777263 0.893381
O O18 0.731873 0.730554 0.849697
O O19 0.119905 0.500000 0.959238
O O20 0.157795 0.768420 0.015388
O O21 0.704222 0.500000 0.099298
#
# Coordination Sequence:
#
# PCOD8091886 Si02
#       8
#     8   8   8   8   8   8   8   8
#     4  10  20  33  54  84 113 141 178 221 269 323
#     4  10  22  39  57  79 109 146 183 226 280 332
#     4  10  20  34  55  81 110 142 178 223 269 320
#     4  10  19  34  58  83 109 141 179 224 274 327
#     4   8  16  32  54  80 109 140 175 221 274 321
#     4  11  23  38  55  77 110 148 186 227 276 331
#     4  11  21  34  56  84 112 144 187 230 273 324
#     4  10  20  36  58  83 112 144 183 229 276 324
#
# _framework density 19.108705
#
# number of rings (size 3 to 8) (size 9 to 14) (size 15 to 20)
#    0.000    2.000    1.250    3.750    0.000    5.500 
#    0.000    1.250    0.000    3.000    0.000    0.000 
#    0.000    0.000    0.000    0.000    0.000    0.000 
#
# Total GULP energy -396872.133279 kJ/mol
# GULP energy per Si atom -12402.254165 kJ/mol
# Density = 1.906521 g / cm^3
# Si number density = 19.108705 Si / 1000 Ang^3
#
#
#
# Elastic Constant Matrix: (Units=GPa)
#
#
# Indices 1 2 3 4 5 6 
#
# 1 120.9989 38.5538 28.2516 0.0000 30.6238 0.0000
# 2 38.5538 63.3374 25.0282 0.0000 11.3514 0.0000
# 3 28.2516 25.0282 52.7914 0.0000 17.7098 0.0000
# 4 0.0000 0.0000 0.0000 17.5780 0.0000 5.6645
# 5 30.6238 11.3514 17.7098 0.0000 23.4066 0.0000
# 6 0.0000 0.0000 0.0000 5.6645 0.0000 38.7293
#
#
#
# Elastic Compliance Matrix: (Units=1/GPa)
#
#
# Indices 1 2 3 4 5 6 
#
# 1 0.014057 -0.005952 0.000671 0.000000 -0.016012 0.000000
# 2 -0.005952 0.022139 -0.008472 0.000000 0.003460 0.000000
# 3 0.000671 -0.008472 0.028835 0.000000 -0.018586 0.000000
# 4 0.000000 0.000000 0.000000 0.059703 0.000000 -0.008732
# 5 -0.016012 0.003460 -0.018586 0.000000 0.076057 0.000000
# 6 0.000000 0.000000 0.000000 -0.008732 0.000000 0.027097
#
#
# Mechanical properties :
#
#
# Convention : Reuss Voigt Hill
#
# Bulk Modulus (GPa) = 26.64868 46.75500 36.70184
# Shear Modulus (GPa) = 18.66351 25.62905 22.14628
#
# Velocity S-wave (km/s) = 3.12861 3.66625 3.40805
# Velocity P-wave (km/s) = 5.19876 6.51482 5.89364
#
# Compressibility (1/GPa) = 0.03752532
#
# Stress axis : x y z
#
# Youngs Moduli (GPa) = 71.13914 45.16949 34.68015
#
# Poissons Ratio (x) = 0.26884 -0.02326
# Poissons Ratio (y) = 0.42341 0.29380
# Poissons Ratio (z) = -0.04771 0.38266
#
# Static dielectric constant tensor:
#      x y z
#    x 3.831560 0.000000 0.200330 
#    y 0.000000 3.440940 0.000000 
#    z 0.200330 0.000000 3.218000 
# 
# 
# High freq. dielectric constant tensor:
#      x y z
#    x 1.759610 0.000000 0.014070 
#    y 0.000000 1.745830 0.000000 
#    z 0.014070 0.000000 1.707090 
# 
# From -- ./inp_files/346282.got.cif
#   From: 2010.06.25/outbox.cif.g09.slc.cpg/sg12_174_cif.got.tgz:346282.got - 2010.06.28 00:19:55.
