data_PCOD8091140
_publ_section_title
;
Structure prediction by ZEFSAII (Michael W. Deem and Ramdas Pophale) SiO2 
 PCOD8091140
Probable space group: C 2/M
;
_chemical_formula_sum "Si O2"
_cell_formula_units_Z 64
_cell_length_a 16.476031
_cell_length_b 21.790854
_cell_length_c 12.918511
_cell_angle_alpha 90.000000
_cell_angle_beta 128.198892
_cell_angle_gamma 90.000000
_cell_volume 3644.931630
_symmetry_space_group_name_H-M "C 2/M"
_symmetry_group_IT_number 12
_symmetry_cell_setting 'monoclinic'
loop_
_space_group_symop_operation_xyz
x,y,z
-x,y,-z
-x,-y,-z
x,-y,z
1/2+x,1/2+y,z
1/2-x,1/2+y,-z
1/2-x,1/2-y,-z
1/2+x,1/2-y,z
loop_
_atom_site_type_symbol
_atom_site_label
_atom_site_fract_x
_atom_site_fract_y
_atom_site_fract_z
Si Si1 0.320646 0.930515 0.066235
Si Si2 0.264295 0.683834 0.888636
Si Si3 0.902575 0.159200 0.361969
Si Si4 0.561844 0.931425 0.234397
Si Si5 0.718345 0.763731 0.641990
Si Si6 0.410457 0.726393 0.169402
Si Si7 0.882443 0.305240 0.644721
Si Si8 0.772415 0.569158 0.798936
O O1 0.275837 0.884755 0.117112
O O2 0.440321 0.922689 0.134179
O O3 0.296324 0.000000 0.083610
O O4 0.268849 0.914074 0.916679
O O5 0.269379 0.690395 0.767571
O O6 0.183522 0.732507 0.867134
O O7 0.376385 0.698820 0.029821
O O8 0.875620 0.226648 0.382170
O O9 0.926706 0.168002 0.258822
O O10 0.810386 0.113496 0.318230
O O11 0.000000 0.132616 0.500000
O O12 0.603866 0.878448 0.341746
O O13 0.613931 0.922211 0.162072
O O14 0.589382 0.000000 0.298572
O O15 0.805671 0.717011 0.673109
O O16 0.667681 0.799301 0.507191
O O17 0.513080 0.767564 0.250187
O O18 0.734385 0.500000 0.751812
#
# Coordination Sequence:
#
# PCOD8091140 Si02
#       8
#     8   8   8   8   8   8   8   8
#     4  10  19  34  55  78 108 144 176 214 267 322
#     4  10  20  35  50  82 106 134 178 221 262 311
#     4  11  19  33  52  78 105 138 176 218 269 315
#     4  10  20  33  53  80 109 141 178 215 259 324
#     4  10  23  34  54  78 106 141 180 221 270 318
#     4  10  20  32  54  76 107 139 169 219 264 316
#     4  11  20  38  54  77 107 147 177 214 272 323
#     4  10  20  34  52  76 109 144 175 216 264 318
#
# _framework density 17.558627999999999
#
# number of rings (size 3 to 8) (size 9 to 14) (size 15 to 20)
#    0.000    1.750    5.000    0.375    0.000    2.250 
#    2.250    0.625    0.000    1.500    0.000    2.625 
#    0.000    0.000    0.000    0.000    0.000    0.000 
#
# Total GULP energy -396549.618006 kJ/mol
# GULP energy per Si atom -12392.175563 kJ/mol
# Density = 1.751866 g / cm^3
# Si number density = 17.558628 Si / 1000 Ang^3
#
#
#
# Elastic Constant Matrix: (Units=GPa)
#
#
# Indices 1 2 3 4 5 6 
#
# 1 52.0124 36.8819 42.0338 0.0000 -0.5915 0.0000
# 2 36.8819 105.1510 57.0089 0.0000 0.6031 0.0000
# 3 42.0338 57.0089 115.5426 0.0000 -0.7031 0.0000
# 4 0.0000 0.0000 0.0000 20.7632 0.0000 1.7017
# 5 -0.5915 0.6031 -0.7031 0.0000 24.4226 0.0000
# 6 0.0000 0.0000 0.0000 1.7017 0.0000 29.5095
#
#
#
# Elastic Compliance Matrix: (Units=1/GPa)
#
#
# Indices 1 2 3 4 5 6 
#
# 1 0.030007 -0.006297 -0.007805 0.000000 0.000657 0.000000
# 2 -0.006297 0.014311 -0.004774 0.000000 -0.000643 0.000000
# 3 -0.007805 -0.004774 0.013852 0.000000 0.000328 0.000000
# 4 0.000000 0.000000 0.000000 0.048391 0.000000 -0.002790
# 5 0.000657 -0.000643 0.000328 0.000000 0.040987 0.000000
# 6 0.000000 0.000000 0.000000 -0.002790 0.000000 0.034048
#
#
# Mechanical properties :
#
#
# Convention : Reuss Voigt Hill
#
# Bulk Modulus (GPa) = 48.97966 60.50614 54.74290
# Shear Modulus (GPa) = 22.10884 24.05781 23.08333
#
# Velocity S-wave (km/s) = 3.55229 3.70556 3.62973
# Velocity P-wave (km/s) = 6.69182 7.26929 6.98652
#
# Compressibility (1/GPa) = 0.02041664
#
# Stress axis : x y z
#
# Youngs Moduli (GPa) = 33.32593 69.87725 72.19215
#
# Poissons Ratio (x) = 0.44001 0.56349
# Poissons Ratio (y) = 0.20985 0.34465
# Poissons Ratio (z) = 0.26012 0.33360
#
# Static dielectric constant tensor:
#      x y z
#    x 3.161580 0.000000 -0.003140 
#    y 0.000000 3.278990 0.000000 
#    z -0.003140 0.000000 3.375660 
# 
# 
# High freq. dielectric constant tensor:
#      x y z
#    x 1.663090 0.000000 0.007420 
#    y 0.000000 1.672870 0.000000 
#    z 0.007420 0.000000 1.676900 
# 
# From -- ./inp_files/159516.got.cif
#   From: 2010.06.25/outbox.cif.g09.slc.cpg/sg12_80_cif.got.tgz:159516.got - 2010.06.28 00:19:55.
