data_PCOD8091857
_publ_section_title
;
Structure prediction by ZEFSAII (Michael W. Deem and Ramdas Pophale) SiO2 
 PCOD8091857
Probable space group: C 2/M
;
_chemical_formula_sum "Si O2"
_cell_formula_units_Z 56
_cell_length_a 18.769963
_cell_length_b 8.925578
_cell_length_c 23.074448
_cell_angle_alpha 90.000000
_cell_angle_beta 52.154842
_cell_angle_gamma 90.000000
_cell_volume 3052.654553
_symmetry_space_group_name_H-M "C 2/M"
_symmetry_group_IT_number 12
_symmetry_cell_setting 'monoclinic'
loop_
_space_group_symop_operation_xyz
x,y,z
-x,y,-z
-x,-y,-z
x,-y,z
1/2+x,1/2+y,z
1/2-x,1/2+y,-z
1/2-x,1/2-y,-z
1/2+x,1/2-y,z
loop_
_atom_site_type_symbol
_atom_site_label
_atom_site_fract_x
_atom_site_fract_y
_atom_site_fract_z
Si Si1 0.009654 0.323452 0.930869
Si Si2 0.113847 0.171367 0.787338
Si Si3 0.415070 0.325017 0.501969
Si Si4 0.769633 0.823604 0.374697
Si Si5 0.080304 0.672873 0.620963
Si Si6 0.341187 0.170295 0.939287
Si Si7 0.973876 0.669255 0.781928
O O1 0.017788 0.500000 0.929618
O O2 0.100615 0.264544 0.853408
O O3 0.922637 0.268367 0.938365
O O4 0.000000 0.255255 0.000000
O O5 0.204575 0.209124 0.705651
O O6 0.033886 0.206325 0.782632
O O7 0.110627 0.000000 0.807414
O O8 0.500000 0.290551 0.500000
O O9 0.390683 0.500000 0.513559
O O10 0.331909 0.230544 0.567652
O O11 0.438482 0.271585 0.425764
O O12 0.832985 0.733193 0.387539
O O13 0.778349 0.000000 0.384301
O O14 0.099122 0.500000 0.594721
O O15 0.988575 0.686046 0.705645
O O16 0.370821 0.192084 0.856496
O O17 0.323053 0.000000 0.963852
O O18 0.250000 0.250000 0.000000
O O19 0.004456 0.500000 0.785947
#
# Coordination Sequence:
#
# PCOD8091857 Si02
#       7
#     8   8   8   8   8   8   8
#     4   9  18  33  51  70  97 134 171 204 242 294
#     4   9  17  29  49  77 102 125 160 208 252 288
#     4  11  24  39  53  73 104 138 170 207 252 302
#     4  10  20  35  56  80 104 131 168 211 253 302
#     4  10  19  34  58  81 101 130 169 212 255 300
#     4   9  17  30  48  71  98 128 163 200 241 289
#     4   8  16  31  50  72  98 130 166 202 244 295
#
# _framework density 18.34469
#
# number of rings (size 3 to 8) (size 9 to 14) (size 15 to 20)
#    0.000    2.571    0.000    3.000    0.000    6.000 
#    0.000    1.429    0.000    6.857    0.000    0.000 
#    0.000    0.000    0.000    0.000    0.000    0.000 
#
# Total GULP energy -346956.788820 kJ/mol
# GULP energy per Si atom -12391.313886 kJ/mol
# Density = 1.830294 g / cm^3
# Si number density = 18.344690 Si / 1000 Ang^3
#
#
#
# Elastic Constant Matrix: (Units=GPa)
#
#
# Indices 1 2 3 4 5 6 
#
# 1 58.6426 25.0431 50.8688 0.0000 3.9792 -0.0002
# 2 25.0431 46.9209 39.7980 -0.0001 0.6676 -0.0005
# 3 50.8688 39.7980 165.6384 0.0000 5.8283 0.0000
# 4 0.0000 -0.0001 0.0000 34.3793 0.0000 0.0034
# 5 3.9792 0.6676 5.8283 0.0000 27.5433 0.0000
# 6 -0.0002 -0.0005 0.0000 0.0034 0.0000 22.3060
#
#
#
# Elastic Compliance Matrix: (Units=1/GPa)
#
#
# Indices 1 2 3 4 5 6 
#
# 1 0.026040 -0.008982 -0.005757 0.000000 -0.002326 0.000000
# 2 -0.008982 0.029880 -0.004474 0.000000 0.001520 0.000001
# 3 -0.005757 -0.004474 0.008914 0.000000 -0.000946 0.000000
# 4 0.000000 0.000000 0.000000 0.029087 0.000000 -0.000004
# 5 -0.002326 0.001520 -0.000946 0.000000 0.036806 0.000000
# 6 0.000000 0.000001 0.000000 -0.000004 0.000000 0.044831
#
#
# Mechanical properties :
#
#
# Convention : Reuss Voigt Hill
#
# Bulk Modulus (GPa) = 37.86938 55.84685 46.85811
# Shear Modulus (GPa) = 22.44301 27.21187 24.82744
#
# Velocity S-wave (km/s) = 3.50152 3.85563 3.68283
# Velocity P-wave (km/s) = 6.08568 7.09438 6.60931
#
# Compressibility (1/GPa) = 0.02640656
#
# Stress axis : x y z
#
# Youngs Moduli (GPa) = 38.40250 33.46736 112.18789
#
# Poissons Ratio (x) = 0.30061 0.64588
# Poissons Ratio (y) = 0.34493 0.50196
# Poissons Ratio (z) = 0.22109 0.14974
#
# Static dielectric constant tensor:
#      x y z
#    x 2.994870 0.000000 0.126920 
#    y 0.000000 3.444810 0.000000 
#    z 0.126920 0.000000 3.920230 
# 
# 
# High freq. dielectric constant tensor:
#      x y z
#    x 1.656020 0.000000 0.007490 
#    y 0.000000 1.716690 0.000000 
#    z 0.007490 0.000000 1.740220 
# 
# From -- ./inp_files/342220.got.cif
#   From: 2010.06.25/outbox.cif.g09.slc.cpg/sg12_172_cif.got.tgz:342220.got - 2010.06.28 00:19:55.
