data_PCOD8091202
_publ_section_title
;
Structure prediction by ZEFSAII (Michael W. Deem and Ramdas Pophale) SiO2 
 PCOD8091202
Probable space group: C 2/M
;
_chemical_formula_sum "Si O2"
_cell_formula_units_Z 64
_cell_length_a 14.666549
_cell_length_b 8.720979
_cell_length_c 29.554702
_cell_angle_alpha 90.000000
_cell_angle_beta 117.950358
_cell_angle_gamma 90.000000
_cell_volume 3339.293194
_symmetry_space_group_name_H-M "C 2/M"
_symmetry_group_IT_number 12
_symmetry_cell_setting 'monoclinic'
loop_
_space_group_symop_operation_xyz
x,y,z
-x,y,-z
-x,-y,-z
x,-y,z
1/2+x,1/2+y,z
1/2-x,1/2+y,-z
1/2-x,1/2-y,-z
1/2+x,1/2-y,z
loop_
_atom_site_type_symbol
_atom_site_label
_atom_site_fract_x
_atom_site_fract_y
_atom_site_fract_z
Si Si1 0.543829 0.182787 0.289031
Si Si2 0.269547 0.319630 0.365377
Si Si3 0.007790 0.678939 0.902999
Si Si4 0.191667 0.317768 0.443990
Si Si5 0.521214 0.683004 0.633050
Si Si6 0.418069 0.179572 0.174784
Si Si7 0.813876 0.820924 0.885724
Si Si8 0.843607 0.819648 0.995057
O O1 0.664323 0.232683 0.315312
O O2 0.482886 0.259309 0.316390
O O3 0.490947 0.246967 0.231037
O O4 0.533311 0.000000 0.292084
O O5 0.279025 0.500000 0.365170
O O6 0.256859 0.267466 0.414690
O O7 0.373085 0.252346 0.365943
O O8 0.030594 0.500000 0.912935
O O9 0.887018 0.717630 0.871446
O O10 0.057344 0.748883 0.868865
O O11 0.050605 0.762819 0.957712
O O12 0.183187 0.500000 0.445173
O O13 0.250000 0.250000 0.500000
O O14 0.076359 0.249703 0.416766
O O15 0.517122 0.500000 0.630741
O O16 0.300037 0.216863 0.158542
O O17 0.439022 0.000000 0.176469
O O18 0.839612 0.000000 0.886506
O O19 0.832322 0.764796 0.941142
O O20 0.837845 0.000000 0.996462
O O21 0.750000 0.750000 0.000000
#
# Coordination Sequence:
#
# PCOD8091202 Si02
#       8
#     8   8   8   8   8   8   8   8
#     4   9  18  36  58  77 102 143 183 220 269 325
#     4   8  17  33  54  77 105 143 182 216 265 323
#     4  11  22  37  56  82 108 139 181 222 265 328
#     4  10  20  36  55  80 113 149 185 221 266 320
#     4  10  19  34  55  80 109 142 182 229 270 314
#     4   9  19  37  57  76 107 143 176 217 273 329
#     4  10  21  38  55  77 108 143 176 218 275 329
#     4  11  21  36  58  79 107 143 178 218 270 327
#
# _framework density 19.165732999999999
#
# number of rings (size 3 to 8) (size 9 to 14) (size 15 to 20)
#    0.000    2.250    1.250    2.625    0.000    4.000 
#    0.000   11.875    0.000    0.000    0.000    0.000 
#    0.000    0.000    0.000    0.000    0.000    0.000 
#
# Total GULP energy -396713.600757 kJ/mol
# GULP energy per Si atom -12397.300024 kJ/mol
# Density = 1.912211 g / cm^3
# Si number density = 19.165733 Si / 1000 Ang^3
#
#
#
# Elastic Constant Matrix: (Units=GPa)
#
#
# Indices 1 2 3 4 5 6 
#
# 1 129.1256 22.8540 41.8783 0.0000 12.7349 0.0000
# 2 22.8540 40.9874 21.8550 0.0000 1.1176 0.0000
# 3 41.8783 21.8550 136.5010 0.0000 15.5913 0.0000
# 4 0.0000 0.0000 0.0000 25.2966 0.0000 1.3917
# 5 12.7349 1.1176 15.5913 0.0000 19.2221 0.0000
# 6 0.0000 0.0000 0.0000 1.3917 0.0000 31.5755
#
#
#
# Elastic Compliance Matrix: (Units=1/GPa)
#
#
# Indices 1 2 3 4 5 6 
#
# 1 0.009513 -0.004270 -0.001701 0.000000 -0.004674 0.000000
# 2 -0.004270 0.028669 -0.003761 0.000000 0.004213 0.000000
# 3 -0.001701 -0.003761 0.009143 0.000000 -0.006071 0.000000
# 4 0.000000 0.000000 0.000000 0.039627 0.000000 -0.001747
# 5 -0.004674 0.004213 -0.006071 0.000000 0.059799 0.000000
# 6 0.000000 0.000000 0.000000 -0.001747 0.000000 0.031747
#
#
# Mechanical properties :
#
#
# Convention : Reuss Voigt Hill
#
# Bulk Modulus (GPa) = 35.89226 53.30987 44.60106
# Shear Modulus (GPa) = 24.12540 29.88730 27.00635
#
# Velocity S-wave (km/s) = 3.55177 3.95322 3.75786
# Velocity P-wave (km/s) = 5.96558 6.97946 6.49234
#
# Compressibility (1/GPa) = 0.02786116
#
# Stress axis : x y z
#
# Youngs Moduli (GPa) = 105.12187 34.88056 109.36777
#
# Poissons Ratio (x) = 0.14893 0.18603
# Poissons Ratio (y) = 0.44884 0.41138
# Poissons Ratio (z) = 0.17881 0.13120
#
# Static dielectric constant tensor:
#      x y z
#    x 3.765760 0.000000 0.021180 
#    y 0.000000 3.311170 0.000000 
#    z 0.021180 0.000000 3.629770 
# 
# 
# High freq. dielectric constant tensor:
#      x y z
#    x 1.756230 0.000000 0.005840 
#    y 0.000000 1.722870 0.000000 
#    z 0.005840 0.000000 1.746170 
# 
# From -- ./inp_files/375104.got.cif
#   From: 2010.06.25/outbox.cif.g09.slc.cpg/sg12_188_cif.got.tgz:375104.got - 2010.06.28 00:19:55.
