data_PCOD8091203
_publ_section_title
;
Structure prediction by ZEFSAII (Michael W. Deem and Ramdas Pophale) SiO2 
 PCOD8091203
Probable space group: C 2/M
;
_chemical_formula_sum "Si O2"
_cell_formula_units_Z 64
_cell_length_a 18.727988
_cell_length_b 12.247429
_cell_length_c 14.916240
_cell_angle_alpha 90.000000
_cell_angle_beta 99.811538
_cell_angle_gamma 90.000000
_cell_volume 3371.291759
_symmetry_space_group_name_H-M "C 2/M"
_symmetry_group_IT_number 12
_symmetry_cell_setting 'monoclinic'
loop_
_space_group_symop_operation_xyz
x,y,z
-x,y,-z
-x,-y,-z
x,-y,z
1/2+x,1/2+y,z
1/2-x,1/2+y,-z
1/2-x,1/2-y,-z
1/2+x,1/2-y,z
loop_
_atom_site_type_symbol
_atom_site_label
_atom_site_fract_x
_atom_site_fract_y
_atom_site_fract_z
Si Si1 0.844851 0.376945 0.924851
Si Si2 0.023764 0.873833 0.283306
Si Si3 0.617422 0.750332 0.699293
Si Si4 0.522870 0.261386 0.099909
Si Si5 0.177769 0.627038 0.550049
Si Si6 0.111838 0.374205 0.876064
Si Si7 0.670433 0.726733 0.378433
Si Si8 0.756256 0.377313 0.742576
O O1 0.876532 0.500000 0.922861
O O2 0.898864 0.292085 0.890811
O O3 0.770012 0.366967 0.852948
O O4 0.833227 0.352698 0.028385
O O5 0.024106 0.853638 0.176485
O O6 0.100478 0.846305 0.343960
O O7 0.963169 0.798493 0.317505
O O8 0.005578 0.000000 0.296613
O O9 0.625925 0.835891 0.620429
O O10 0.639800 0.809076 0.796318
O O11 0.674220 0.652135 0.699862
O O12 0.467702 0.164336 0.111944
O O13 0.500000 0.316167 0.000000
O O14 0.164477 0.500000 0.528404
O O15 0.262390 0.646044 0.589469
O O16 0.154036 0.696489 0.459235
O O17 0.108032 0.500000 0.848109
O O18 0.686530 0.801772 0.296424
O O19 0.769242 0.500000 0.711734
#
# Coordination Sequence:
#
# PCOD8091203 Si02
#       8
#     8   8   8   8   8   8   8   8
#     4   9  16  28  51  79 107 141 184 228 272 320
#     4  11  22  38  57  81 113 148 185 223 271 331
#     4  10  22  36  53  79 114 151 182 221 271 329
#     4   9  17  31  52  80 112 144 182 230 270 318
#     4  10  21  40  62  84 111 141 180 231 281 325
#     4   9  17  30  49  76 110 148 184 223 273 324
#     4  10  21  38  61  86 108 140 184 230 276 326
#     4  10  19  34  55  80 109 143 183 229 277 323
#
# _framework density 18.983820999999999
#
# number of rings (size 3 to 8) (size 9 to 14) (size 15 to 20)
#    0.000    2.250    1.250    1.875    0.000    2.750 
#    0.000    5.000    0.000    0.000    0.000    0.000 
#    0.000    0.000    0.000    0.000    0.000    0.000 
#
# Total GULP energy -396752.837638 kJ/mol
# GULP energy per Si atom -12398.526176 kJ/mol
# Density = 1.894061 g / cm^3
# Si number density = 18.983821 Si / 1000 Ang^3
#
#
#
# Elastic Constant Matrix: (Units=GPa)
#
#
# Indices 1 2 3 4 5 6 
#
# 1 61.9241 17.6049 25.2505 0.0000 -1.4163 0.0000
# 2 17.6049 86.9895 30.9578 0.0000 -4.8942 0.0000
# 3 25.2505 30.9578 105.1104 0.0000 -5.7744 0.0000
# 4 0.0000 0.0000 0.0000 22.3235 0.0000 6.0885
# 5 -1.4163 -4.8942 -5.7744 0.0000 28.3024 0.0000
# 6 0.0000 0.0000 0.0000 6.0885 0.0000 15.9370
#
#
#
# Elastic Compliance Matrix: (Units=1/GPa)
#
#
# Indices 1 2 3 4 5 6 
#
# 1 0.018340 -0.002405 -0.003711 0.000000 -0.000255 0.000000
# 2 -0.002405 0.013217 -0.003232 0.000000 0.001506 0.000000
# 3 -0.003711 -0.003232 0.011445 0.000000 0.001590 0.000000
# 4 0.000000 0.000000 0.000000 0.050006 0.000000 -0.019104
# 5 -0.000255 0.001506 0.001590 0.000000 0.035905 0.000000
# 6 0.000000 0.000000 0.000000 -0.019104 0.000000 0.070046
#
#
# Mechanical properties :
#
#
# Convention : Reuss Voigt Hill
#
# Bulk Modulus (GPa) = 41.14493 44.62782 42.88638
# Shear Modulus (GPa) = 22.14755 25.32663 23.73709
#
# Velocity S-wave (km/s) = 3.41934 3.65652 3.53991
# Velocity P-wave (km/s) = 6.10818 6.43321 6.27280
#
# Compressibility (1/GPa) = 0.02430433
#
# Stress axis : x y z
#
# Youngs Moduli (GPa) = 54.52517 75.65751 87.37596
#
# Poissons Ratio (x) = 0.18197 0.32429
# Poissons Ratio (y) = 0.13114 0.28243
# Poissons Ratio (z) = 0.20237 0.24455
#
# Static dielectric constant tensor:
#      x y z
#    x 3.236150 0.000000 0.015620 
#    y 0.000000 3.291550 0.000000 
#    z 0.015620 0.000000 3.677170 
# 
# 
# High freq. dielectric constant tensor:
#      x y z
#    x 1.719720 0.000000 0.004590 
#    y 0.000000 1.731270 0.000000 
#    z 0.004590 0.000000 1.749690 
# 
# From -- ./inp_files/223815.got.cif
#   From: 2010.06.25/outbox.cif.g09.slc.cpg/sg12_112_cif.got.tgz:223815.got - 2010.06.28 00:19:55.
