data_PCOD8091089
_publ_section_title
;
Structure prediction by ZEFSAII (Michael W. Deem and Ramdas Pophale) SiO2 
 PCOD8091089
Probable space group: C 2/M
;
_chemical_formula_sum "Si O2"
_cell_formula_units_Z 60
_cell_length_a 26.578923
_cell_length_b 9.420915
_cell_length_c 26.832478
_cell_angle_alpha 90.000000
_cell_angle_beta 150.395061
_cell_angle_gamma 90.000000
_cell_volume 3319.196618
_symmetry_space_group_name_H-M "C 2/M"
_symmetry_group_IT_number 12
_symmetry_cell_setting 'monoclinic'
loop_
_space_group_symop_operation_xyz
x,y,z
-x,y,-z
-x,-y,-z
x,-y,z
1/2+x,1/2+y,z
1/2-x,1/2+y,-z
1/2-x,1/2-y,-z
1/2+x,1/2-y,z
loop_
_atom_site_type_symbol
_atom_site_label
_atom_site_fract_x
_atom_site_fract_y
_atom_site_fract_z
Si Si1 0.027696 0.842866 0.633394
Si Si2 0.903091 0.835481 0.782241
Si Si3 0.749375 0.837472 0.188547
Si Si4 0.032221 0.662880 0.971137
Si Si5 0.136354 0.663559 0.453281
Si Si6 0.000000 0.761715 0.500000
Si Si7 0.659439 0.836342 0.359945
Si Si8 0.720236 0.843564 0.691775
O O1 0.144176 0.797991 0.746782
O O2 0.959304 0.721858 0.598629
O O3 0.016429 0.854274 0.563741
O O4 0.002114 0.000000 0.632824
O O5 0.916238 0.745770 0.742736
O O6 0.785251 0.817408 0.697603
O O7 0.977698 0.772564 0.887946
O O8 0.931254 0.000000 0.797174
O O9 0.736058 0.759638 0.229250
O O10 0.750770 0.000000 0.205785
O O11 0.653493 0.806359 0.070210
O O12 0.006380 0.500000 0.934156
O O13 0.000000 0.692868 0.000000
O O14 0.157711 0.500000 0.487075
O O15 0.231995 0.760186 0.548393
O O16 0.110436 0.673723 0.372448
O O17 0.899395 0.668522 0.423156
O O18 0.673386 0.000000 0.355543
O O19 0.741594 0.000000 0.730801
#
# Coordination Sequence:
#
# PCOD8091089 Si02
#       8
#     8   8   8   8   8   4   8   8
#     4  10  20  34  53  76 104 141 177 216 261 313
#     4  11  22  33  51  80 111 139 174 225 273 317
#     4   9  19  34  51  73 101 136 181 217 253 312
#     4  10  19  34  55  76 103 144 184 222 267 319
#     4  10  21  37  57  81 109 139 176 220 265 316
#     4  10  20  32  48  72 106 142 178 210 246 310
#     4  10  21  37  57  80 106 140 179 219 264 316
#     4  10  20  31  45  69 102 138 172 210 258 308
#
# _framework density 18.076664000000001
#
# number of rings (size 3 to 8) (size 9 to 14) (size 15 to 20)
#    0.000    2.000    1.333    2.400    0.000    7.200 
#    0.000    0.000    0.000    0.800    0.000    0.000 
#    0.000    0.000    0.000    0.000    0.000    0.000 
#
# Total GULP energy -371932.155283 kJ/mol
# GULP energy per Si atom -12397.738509 kJ/mol
# Density = 1.803552 g / cm^3
# Si number density = 18.076664 Si / 1000 Ang^3
#
#
#
# Elastic Constant Matrix: (Units=GPa)
#
#
# Indices 1 2 3 4 5 6 
#
# 1 66.1454 44.8898 39.6665 0.0000 1.3555 0.0000
# 2 44.8898 119.9662 47.8348 0.0005 -8.5326 -0.0007
# 3 39.6665 47.8348 95.3409 -0.0001 -0.9724 0.0003
# 4 0.0000 0.0005 -0.0001 61.8853 -0.0001 -62.1055
# 5 1.3555 -8.5326 -0.9724 -0.0001 25.8286 0.0001
# 6 0.0000 -0.0007 0.0003 -62.1055 0.0001 124.9112
#
#
#
# Elastic Compliance Matrix: (Units=1/GPa)
#
#
# Indices 1 2 3 4 5 6 
#
# 1 0.023505 -0.006422 -0.006594 0.000000 -0.003603 0.000000
# 2 -0.006422 0.012455 -0.003533 0.000000 0.004318 0.000000
# 3 -0.006594 -0.003533 0.015002 0.000000 -0.000256 0.000000
# 4 0.000000 0.000000 0.000000 0.032251 0.000000 0.016035
# 5 -0.003603 0.004318 -0.000256 0.000000 0.040323 0.000000
# 6 0.000000 0.000000 0.000000 0.016035 0.000000 0.015978
#
#
# Mechanical properties :
#
#
# Convention : Reuss Voigt Hill
#
# Bulk Modulus (GPa) = 55.97934 60.69274 58.33604
# Shear Modulus (GPa) = 28.00090 52.46243 40.23167
#
# Velocity S-wave (km/s) = 3.94001 5.39307 4.72276
# Velocity P-wave (km/s) = 7.19258 8.51048 7.87914
#
# Compressibility (1/GPa) = 0.01786373
#
# Stress axis : x y z
#
# Youngs Moduli (GPa) = 42.54462 80.29155 66.65873
#
# Poissons Ratio (x) = 0.51566 0.43952
# Poissons Ratio (y) = 0.27324 0.23549
# Poissons Ratio (z) = 0.28052 0.28365
#
# Static dielectric constant tensor:
#      x y z
#    x 3.233420 0.000000 0.153200 
#    y 0.000000 3.381010 0.000000 
#    z 0.153200 0.000000 3.483530 
# 
# 
# High freq. dielectric constant tensor:
#      x y z
#    x 1.677830 0.000000 0.004830 
#    y 0.000000 1.710820 0.000000 
#    z 0.004830 0.000000 1.694040 
# 
# From -- ./inp_files/368891.got.cif
#   From: 2010.06.25/outbox.cif.g09.slc.cpg/sg12_185_cif.got.tgz:368891.got - 2010.06.28 00:19:55.
