data_PCOD8091015
_publ_section_title
;
Structure prediction by ZEFSAII (Michael W. Deem and Ramdas Pophale) SiO2 
 PCOD8091015
Probable space group: C 2/M
;
_chemical_formula_sum "Si O2"
_cell_formula_units_Z 48
_cell_length_a 23.627514
_cell_length_b 8.931639
_cell_length_c 14.999422
_cell_angle_alpha 90.000000
_cell_angle_beta 59.523390
_cell_angle_gamma 90.000000
_cell_volume 2728.025892
_symmetry_space_group_name_H-M "C 2/M"
_symmetry_group_IT_number 12
_symmetry_cell_setting 'monoclinic'
loop_
_space_group_symop_operation_xyz
x,y,z
-x,y,-z
-x,-y,-z
x,-y,z
1/2+x,1/2+y,z
1/2-x,1/2+y,-z
1/2-x,1/2-y,-z
1/2+x,1/2-y,z
loop_
_atom_site_type_symbol
_atom_site_label
_atom_site_fract_x
_atom_site_fract_y
_atom_site_fract_z
Si Si1 0.745673 0.327590 0.770758
Si Si2 0.596329 0.667689 0.918412
Si Si3 0.931084 0.673365 0.234985
Si Si4 0.197371 0.821037 0.108548
Si Si5 0.941103 0.827991 0.853359
Si Si6 0.784641 0.677941 0.388400
O O1 0.768351 0.500000 0.742925
O O2 0.673904 0.317186 0.871664
O O3 0.793457 0.237761 0.798403
O O4 0.748021 0.248793 0.673040
O O5 0.579545 0.500000 0.897543
O O6 0.569914 0.785041 0.868347
O O7 0.560914 0.700809 0.039308
O O8 0.942629 0.500000 0.235308
O O9 0.861646 0.721938 0.333493
O O10 0.992562 0.750174 0.236243
O O11 0.124808 0.764248 0.138931
O O12 0.203929 0.000000 0.098367
O O13 0.250000 0.750000 0.000000
O O14 0.946964 0.000000 0.824078
O O15 0.774841 0.500000 0.393865
O O16 0.750000 0.750000 0.500000
#
# Coordination Sequence:
#
# PCOD8091015 Si02
#       6
#     8   8   8   8   8   8
#     4  10  19  34  54  79 108 141 179 219 264 311
#     4   9  17  31  48  69 102 142 177 209 251 309
#     4  10  21  33  48  76 105 131 171 219 265 310
#     4  11  21  34  51  75 108 147 187 221 254 305
#     4  10  20  33  48  70 104 146 181 209 252 311
#     4  10  21  38  59  83 106 133 171 221 274 322
#
# _framework density 17.595141000000002
#
# number of rings (size 3 to 8) (size 9 to 14) (size 15 to 20)
#    0.000    2.000    1.667    2.500    0.000    6.667 
#    0.000    0.000    0.000    1.000    0.000    7.000 
#    0.000    0.000    0.000    0.000    0.000    0.000 
#
# Total GULP energy -297588.337325 kJ/mol
# GULP energy per Si atom -12399.514055 kJ/mol
# Density = 1.755509 g / cm^3
# Si number density = 17.595141 Si / 1000 Ang^3
#
#
#
# Elastic Constant Matrix: (Units=GPa)
#
#
# Indices 1 2 3 4 5 6 
#
# 1 133.4691 56.9273 51.8862 0.0000 -12.6504 0.0000
# 2 56.9273 78.1016 47.0178 0.0000 -3.1257 0.0000
# 3 51.8862 47.0178 86.9847 0.0000 -4.2327 0.0000
# 4 0.0000 0.0000 0.0000 27.8288 0.0000 1.8364
# 5 -12.6504 -3.1257 -4.2327 0.0000 14.3504 0.0000
# 6 0.0000 0.0000 0.0000 1.8364 0.0000 32.3915
#
#
#
# Elastic Compliance Matrix: (Units=1/GPa)
#
#
# Indices 1 2 3 4 5 6 
#
# 1 0.012488 -0.006710 -0.003407 0.000000 0.008543 0.000000
# 2 -0.006710 0.022603 -0.008384 0.000000 -0.003464 0.000000
# 3 -0.003407 -0.008384 0.018085 0.000000 0.000505 0.000000
# 4 0.000000 0.000000 0.000000 0.036069 0.000000 -0.002045
# 5 0.008543 -0.003464 0.000505 0.000000 0.076609 0.000000
# 6 0.000000 0.000000 0.000000 -0.002045 0.000000 0.030988
#
#
# Mechanical properties :
#
#
# Convention : Reuss Voigt Hill
#
# Bulk Modulus (GPa) = 61.82265 67.80201 64.81233
# Shear Modulus (GPa) = 20.89999 24.42910 22.66454
#
# Velocity S-wave (km/s) = 3.45023 3.73017 3.59292
# Velocity P-wave (km/s) = 7.14735 7.56111 7.35714
#
# Compressibility (1/GPa) = 0.01617530
#
# Stress axis : x y z
#
# Youngs Moduli (GPa) = 80.07511 44.24202 55.29572
#
# Poissons Ratio (x) = 0.29686 0.18838
# Poissons Ratio (y) = 0.53729 0.46359
# Poissons Ratio (z) = 0.27279 0.37091
#
# Static dielectric constant tensor:
#      x y z
#    x 3.479180 0.000000 -0.094680 
#    y 0.000000 3.329980 0.000000 
#    z -0.094680 0.000000 3.014340 
# 
# 
# High freq. dielectric constant tensor:
#      x y z
#    x 1.687510 0.000000 -0.005720 
#    y 0.000000 1.688140 0.000000 
#    z -0.005720 0.000000 1.646520 
# 
# From -- ./inp_files/229837.got.cif
#   From: 2010.06.25/outbox.cif.g09.slc.cpg/sg12_115_cif.got.tgz:229837.got - 2010.06.28 00:19:55.
