data_PCOD8091627
_publ_section_title
;
Structure prediction by ZEFSAII (Michael W. Deem and Ramdas Pophale) SiO2 
 PCOD8091627
Probable space group: C 2/M
;
_chemical_formula_sum "Si O2"
_cell_formula_units_Z 56
_cell_length_a 31.273328
_cell_length_b 8.900141
_cell_length_c 11.812061
_cell_angle_alpha 90.000000
_cell_angle_beta 63.052247
_cell_angle_gamma 90.000000
_cell_volume 2930.752267
_symmetry_space_group_name_H-M "C 2/M"
_symmetry_group_IT_number 12
_symmetry_cell_setting 'monoclinic'
loop_
_space_group_symop_operation_xyz
x,y,z
-x,y,-z
-x,-y,-z
x,-y,z
1/2+x,1/2+y,z
1/2-x,1/2+y,-z
1/2-x,1/2-y,-z
1/2+x,1/2-y,z
loop_
_atom_site_type_symbol
_atom_site_label
_atom_site_fract_x
_atom_site_fract_y
_atom_site_fract_z
Si Si1 0.212271 0.823770 0.197932
Si Si2 0.392057 0.171690 0.064915
Si Si3 0.868884 0.322754 0.569282
Si Si4 0.949116 0.827779 0.619348
Si Si5 0.309201 0.324113 0.030699
Si Si6 0.584890 0.822097 0.717367
Si Si7 0.521596 0.828102 0.195176
O O1 0.180737 0.753393 0.335643
O O2 0.265598 0.759164 0.144969
O O3 0.214621 0.000000 0.213381
O O4 0.189358 0.780753 0.103841
O O5 0.358537 0.273972 0.027781
O O6 0.391998 0.236307 0.193139
O O7 0.373386 0.000000 0.082176
O O8 0.446774 0.180684 0.956084
O O9 0.862849 0.500000 0.583890
O O10 0.911265 0.274501 0.600826
O O11 0.881506 0.270050 0.426565
O O12 0.951970 0.773180 0.744091
O O13 0.000000 0.806775 0.500000
O O14 0.931464 0.000000 0.638046
O O15 0.301552 0.500000 0.055710
O O16 0.530990 0.758922 0.765658
O O17 0.580640 0.000000 0.729775
O O18 0.517793 0.000000 0.243752
#
# Coordination Sequence:
#
# PCOD8091627 Si02
#       7
#     8   8   8   8   8   8   8
#     4  10  21  38  61  86 113 140 174 223 278 330
#     4  10  20  35  57  82 109 144 186 229 275 322
#     4  11  21  35  57  82 112 147 185 224 271 327
#     4  11  22  34  50  76 112 147 181 225 273 320
#     4  10  21  38  59  84 112 140 178 225 274 327
#     4   9  19  35  54  79 111 147 187 229 267 318
#     4  10  19  34  57  81 107 145 190 231 273 322
#
# _framework density 19.107721999999999
#
# number of rings (size 3 to 8) (size 9 to 14) (size 15 to 20)
#    0.000    1.857    1.429    3.000    0.000    6.857 
#    0.000    2.857    0.000    1.714    0.000    0.000 
#    0.000    0.000    0.000    0.000    0.000    0.000 
#
# Total GULP energy -347299.808568 kJ/mol
# GULP energy per Si atom -12403.564592 kJ/mol
# Density = 1.906423 g / cm^3
# Si number density = 19.107722 Si / 1000 Ang^3
#
#
#
# Elastic Constant Matrix: (Units=GPa)
#
#
# Indices 1 2 3 4 5 6 
#
# 1 68.4888 26.8198 44.5116 0.0000 -2.2722 0.0000
# 2 26.8198 59.0113 40.2841 0.0000 -10.0616 0.0000
# 3 44.5116 40.2841 129.1483 0.0000 -6.9109 0.0000
# 4 0.0000 0.0000 0.0000 26.6211 0.0000 -7.6486
# 5 -2.2722 -10.0616 -6.9109 0.0000 30.0770 0.0000
# 6 0.0000 0.0000 0.0000 -7.6486 0.0000 20.1584
#
#
#
# Elastic Compliance Matrix: (Units=1/GPa)
#
#
# Indices 1 2 3 4 5 6 
#
# 1 0.020261 -0.005924 -0.005224 0.000000 -0.001651 0.000000
# 2 -0.005924 0.024284 -0.005186 0.000000 0.006485 0.000000
# 3 -0.005224 -0.005186 0.011185 0.000000 0.000440 0.000000
# 4 0.000000 0.000000 0.000000 0.042160 0.000000 0.015997
# 5 -0.001651 0.006485 0.000440 0.000000 0.035394 0.000000
# 6 0.000000 0.000000 0.000000 0.015997 0.000000 0.055677
#
#
# Mechanical properties :
#
#
# Convention : Reuss Voigt Hill
#
# Bulk Modulus (GPa) = 43.36048 53.31992 48.34020
# Shear Modulus (GPa) = 21.80412 25.04017 23.42214
#
# Velocity S-wave (km/s) = 3.38170 3.62397 3.50493
# Velocity P-wave (km/s) = 6.16359 6.74362 6.46012
#
# Compressibility (1/GPa) = 0.02306247
#
# Stress axis : x y z
#
# Youngs Moduli (GPa) = 49.35650 41.17913 89.40895
#
# Poissons Ratio (x) = 0.24394 0.46703
# Poissons Ratio (y) = 0.29238 0.46368
# Poissons Ratio (z) = 0.25782 0.21356
#
# Static dielectric constant tensor:
#      x y z
#    x 3.384750 0.000000 -0.034680 
#    y 0.000000 3.373520 0.000000 
#    z -0.034680 0.000000 3.736650 
# 
# 
# High freq. dielectric constant tensor:
#      x y z
#    x 1.733180 0.000000 -0.006330 
#    y 0.000000 1.731990 0.000000 
#    z -0.006330 0.000000 1.750420 
# 
# From -- ./inp_files/180850.got.cif
#   From: 2010.06.25/outbox.cif.g09.slc.cpg/sg12_91_cif.got.tgz:180850.got - 2010.06.28 00:19:55.
