data_PCOD8091812
_publ_section_title
;
Structure prediction by ZEFSAII (Michael W. Deem and Ramdas Pophale) SiO2 
 PCOD8091812
Probable space group: C 2/M
;
_chemical_formula_sum "Si O2"
_cell_formula_units_Z 64
_cell_length_a 33.359162
_cell_length_b 10.771830
_cell_length_c 15.542732
_cell_angle_alpha 90.000000
_cell_angle_beta 144.872753
_cell_angle_gamma 90.000000
_cell_volume 3213.642080
_symmetry_space_group_name_H-M "C 2/M"
_symmetry_group_IT_number 12
_symmetry_cell_setting 'monoclinic'
loop_
_space_group_symop_operation_xyz
x,y,z
-x,y,-z
-x,-y,-z
x,-y,z
1/2+x,1/2+y,z
1/2-x,1/2+y,-z
1/2-x,1/2-y,-z
1/2+x,1/2-y,z
loop_
_atom_site_type_symbol
_atom_site_label
_atom_site_fract_x
_atom_site_fract_y
_atom_site_fract_z
Si Si1 0.621875 0.146707 0.342472
Si Si2 0.265490 0.362204 0.908010
Si Si3 0.143085 0.728845 0.800273
Si Si4 0.401969 0.638124 0.436487
Si Si5 0.712542 0.262194 0.648172
Si Si6 0.488824 0.858631 0.342183
Si Si7 0.155328 0.355457 0.214988
Si Si8 0.029849 0.355955 0.884403
O O1 0.669954 0.179637 0.506869
O O2 0.652846 0.200862 0.307336
O O3 0.544477 0.204226 0.219951
O O4 0.617207 0.000000 0.331692
O O5 0.296277 0.500000 0.961220
O O6 0.194888 0.362028 0.840406
O O7 0.250319 0.324683 0.783691
O O8 0.322877 0.272203 0.050536
O O9 0.127777 0.847623 0.712433
O O10 0.072003 0.654818 0.694336
O O11 0.436447 0.500000 0.504519
O O12 0.338958 0.642641 0.394107
O O13 0.453383 0.753475 0.542055
O O14 0.770060 0.336890 0.696611
O O15 0.455511 0.835479 0.190491
O O16 0.519837 0.000000 0.402960
O O17 0.140764 0.500000 0.195415
O O18 0.093200 0.293544 0.049096
O O19 0.026906 0.500000 0.902094
#
# Coordination Sequence:
#
# PCOD8091812 Si02
#       8
#     8   8   8   8   8   8   8   8
#     4  10  19  34  57  86 115 146 187 241 297 346
#     4  10  21  37  57  82 117 156 192 238 295 352
#     4  10  22  37  57  84 113 152 199 242 290 351
#     4  11  24  39  57  81 117 158 197 244 297 354
#     4  11  21  36  56  83 116 153 197 239 289 351
#     4  11  22  38  61  87 116 151 198 249 296 349
#     4  10  20  34  56  84 115 148 189 239 292 350
#     4   9  18  34  56  85 115 145 185 237 295 346
#
# _framework density 19.915099000000001
#
# number of rings (size 3 to 8) (size 9 to 14) (size 15 to 20)
#    0.000    1.750    1.250    3.375    0.000    6.000 
#    0.000    3.750    0.000    0.000    0.000    0.875 
#    0.000    0.000    0.000    0.000    0.000    0.000 
#
# Total GULP energy -396692.975406 kJ/mol
# GULP energy per Si atom -12396.655481 kJ/mol
# Density = 1.986977 g / cm^3
# Si number density = 19.915099 Si / 1000 Ang^3
#
#
#
# Elastic Constant Matrix: (Units=GPa)
#
#
# Indices 1 2 3 4 5 6 
#
# 1 121.5456 23.2941 45.8608 0.0000 -2.1330 0.0000
# 2 23.2941 79.7560 26.1166 0.0000 -1.8597 0.0000
# 3 45.8608 26.1166 92.2405 0.0000 -0.4461 0.0000
# 4 0.0000 0.0000 0.0000 21.0546 0.0000 5.5012
# 5 -2.1330 -1.8597 -0.4461 0.0000 33.8120 0.0000
# 6 0.0000 0.0000 0.0000 5.5012 0.0000 13.3563
#
#
#
# Elastic Compliance Matrix: (Units=1/GPa)
#
#
# Indices 1 2 3 4 5 6 
#
# 1 0.010289 -0.001454 -0.004701 0.000000 0.000507 0.000000
# 2 -0.001454 0.014042 -0.003250 0.000000 0.000638 0.000000
# 3 -0.004701 -0.003250 0.014097 0.000000 -0.000289 0.000000
# 4 0.000000 0.000000 0.000000 0.053223 0.000000 -0.021922
# 5 0.000507 0.000638 -0.000289 0.000000 0.029639 0.000000
# 6 0.000000 0.000000 0.000000 -0.021922 0.000000 0.083901
#
#
# Mechanical properties :
#
#
# Convention : Reuss Voigt Hill
#
# Bulk Modulus (GPa) = 50.97332 53.78725 52.38028
# Shear Modulus (GPa) = 21.68820 26.86261 24.27541
#
# Velocity S-wave (km/s) = 3.30363 3.67666 3.49513
# Velocity P-wave (km/s) = 6.34057 6.71496 6.53045
#
# Compressibility (1/GPa) = 0.01961811
#
# Stress axis : x y z
#
# Youngs Moduli (GPa) = 97.19346 71.21544 70.93470
#
# Poissons Ratio (x) = 0.10352 0.33349
# Poissons Ratio (y) = 0.14129 0.23053
# Poissons Ratio (z) = 0.45695 0.23145
#
# Static dielectric constant tensor:
#      x y z
#    x 3.845860 0.000000 -0.104160 
#    y 0.000000 3.176020 0.000000 
#    z -0.104160 0.000000 3.821500 
# 
# 
# High freq. dielectric constant tensor:
#      x y z
#    x 1.790530 0.000000 -0.007720 
#    y 0.000000 1.735550 0.000000 
#    z -0.007720 0.000000 1.787130 
# 
# From -- ./inp_files/250876.got.cif
#   From: 2010.06.25/outbox.cif.g09.slc.cpg/sg12_126_cif.got.tgz:250876.got - 2010.06.28 00:19:55.
