data_PCOD8091192
_publ_section_title
;
Structure prediction by ZEFSAII (Michael W. Deem and Ramdas Pophale) SiO2 
 PCOD8091192
Probable space group: C 2/M
;
_chemical_formula_sum "Si O2"
_cell_formula_units_Z 56
_cell_length_a 14.555454
_cell_length_b 8.701247
_cell_length_c 30.102325
_cell_angle_alpha 90.000000
_cell_angle_beta 52.581942
_cell_angle_gamma 90.000000
_cell_volume 3027.957931
_symmetry_space_group_name_H-M "C 2/M"
_symmetry_group_IT_number 12
_symmetry_cell_setting 'monoclinic'
loop_
_space_group_symop_operation_xyz
x,y,z
-x,y,-z
-x,-y,-z
x,-y,z
1/2+x,1/2+y,z
1/2-x,1/2+y,-z
1/2-x,1/2-y,-z
1/2+x,1/2-y,z
loop_
_atom_site_type_symbol
_atom_site_label
_atom_site_fract_x
_atom_site_fract_y
_atom_site_fract_z
Si Si1 0.035833 0.316719 0.268232
Si Si2 0.694909 0.818463 0.142620
Si Si3 0.917175 0.680860 0.647384
Si Si4 0.177470 0.682357 0.561231
Si Si5 0.709904 0.316737 0.646535
Si Si6 0.150598 0.679304 0.058916
Si Si7 0.041935 0.821001 0.938427
O O1 0.020507 0.500000 0.271446
O O2 0.118820 0.251007 0.205184
O O3 0.092929 0.264786 0.298285
O O4 0.910581 0.241688 0.297660
O O5 0.651530 0.751753 0.108362
O O6 0.827536 0.770008 0.108444
O O7 0.682703 0.000000 0.147012
O O8 0.906124 0.500000 0.648526
O O9 0.814299 0.748890 0.647006
O O10 0.043851 0.732035 0.592793
O O11 0.189552 0.500000 0.559805
O O12 0.250000 0.750000 0.500000
O O13 0.227801 0.750894 0.592009
O O14 0.710440 0.500000 0.644415
O O15 0.175505 0.500000 0.053446
O O16 0.026568 0.716856 0.075780
O O17 0.250000 0.750000 0.000000
O O18 0.020494 0.000000 0.934882
O O19 0.000000 0.780029 0.000000
#
# Coordination Sequence:
#
# PCOD8091192 Si02
#       7
#     8   8   8   8   8   8   8
#     4   9  18  36  56  75 101 140 180 217 265 323
#     4   9  19  35  55  75 104 140 174 214 270 329
#     4   8  17  33  54  75 102 140 178 212 259 316
#     4  10  20  36  55  80 112 147 182 218 260 314
#     4  10  19  34  55  80 107 139 177 224 267 307
#     4  11  21  35  53  77 104 137 174 217 267 323
#     4  10  19  35  55  76 102 136 174 213 262 326
#
# _framework density 18.494312000000001
#
# number of rings (size 3 to 8) (size 9 to 14) (size 15 to 20)
#    0.000    2.429    1.429    2.143    0.000    2.000 
#    0.000   13.571    0.000    0.000    0.000    0.000 
#    0.000    0.000    0.000    0.000    0.000    0.000 
#
# Total GULP energy -347132.628157 kJ/mol
# GULP energy per Si atom -12397.593863 kJ/mol
# Density = 1.845222 g / cm^3
# Si number density = 18.494312 Si / 1000 Ang^3
#
#
#
# Elastic Constant Matrix: (Units=GPa)
#
#
# Indices 1 2 3 4 5 6 
#
# 1 172.5531 32.3550 93.9080 0.0001 3.2563 0.0001
# 2 32.3550 44.9829 34.3049 0.0002 2.5627 0.0002
# 3 93.9080 34.3049 193.8557 0.0000 2.7030 0.0000
# 4 0.0001 0.0002 0.0000 24.0526 0.0001 -2.5429
# 5 3.2563 2.5627 2.7030 0.0001 21.4127 0.0001
# 6 0.0001 0.0002 0.0000 -2.5429 0.0001 29.5277
#
#
#
# Elastic Compliance Matrix: (Units=1/GPa)
#
#
# Indices 1 2 3 4 5 6 
#
# 1 0.008289 -0.003329 -0.003420 0.000000 -0.000430 0.000000
# 2 -0.003329 0.027171 -0.003163 0.000000 -0.002346 0.000000
# 3 -0.003420 -0.003163 0.007375 0.000000 -0.000032 0.000000
# 4 0.000000 0.000000 0.000000 0.041958 0.000000 0.003613
# 5 -0.000430 -0.002346 -0.000032 0.000000 0.047052 0.000000
# 6 0.000000 0.000000 0.000000 0.003613 0.000000 0.034178
#
#
# Mechanical properties :
#
#
# Convention : Reuss Voigt Hill
#
# Bulk Modulus (GPa) = 43.45746 81.39196 62.42471
# Shear Modulus (GPa) = 25.83749 31.72018 28.77883
#
# Velocity S-wave (km/s) = 3.74177 4.14591 3.94901
# Velocity P-wave (km/s) = 6.49743 8.18674 7.39051
#
# Compressibility (1/GPa) = 0.02301101
#
# Stress axis : x y z
#
# Youngs Moduli (GPa) = 120.64029 36.80404 135.58467
#
# Poissons Ratio (x) = 0.12253 0.46374
# Poissons Ratio (y) = 0.40164 0.42882
# Poissons Ratio (z) = 0.41262 0.11640
#
# Static dielectric constant tensor:
#      x y z
#    x 3.690370 0.000000 0.074450 
#    y 0.000000 3.176910 0.000000 
#    z 0.074450 0.000000 3.568700 
# 
# 
# High freq. dielectric constant tensor:
#      x y z
#    x 1.727320 0.000000 0.001260 
#    y 0.000000 1.693440 0.000000 
#    z 0.001260 0.000000 1.722960 
# 
# From -- ./inp_files/374940.got.cif
#   From: 2010.06.25/outbox.cif.g09.slc.cpg/sg12_188_cif.got.tgz:374940.got - 2010.06.28 00:19:55.
