data_PCOD8091025
_publ_section_title
;
Structure prediction by ZEFSAII (Michael W. Deem and Ramdas Pophale) SiO2 
 PCOD8091025
Probable space group: C 2/M
;
_chemical_formula_sum "Si O2"
_cell_formula_units_Z 64
_cell_length_a 20.648640
_cell_length_b 9.020317
_cell_length_c 24.099769
_cell_angle_alpha 90.000000
_cell_angle_beta 128.064094
_cell_angle_gamma 90.000000
_cell_volume 3534.095422
_symmetry_space_group_name_H-M "C 2/M"
_symmetry_group_IT_number 12
_symmetry_cell_setting 'monoclinic'
loop_
_space_group_symop_operation_xyz
x,y,z
-x,y,-z
-x,-y,-z
x,-y,z
1/2+x,1/2+y,z
1/2-x,1/2+y,-z
1/2-x,1/2-y,-z
1/2+x,1/2-y,z
loop_
_atom_site_type_symbol
_atom_site_label
_atom_site_fract_x
_atom_site_fract_y
_atom_site_fract_z
Si Si1 0.537994 0.171680 0.461631
Si Si2 0.791093 0.327985 0.970481
Si Si3 0.873950 0.669571 0.315170
Si Si4 0.259160 0.329813 0.664586
Si Si5 0.760951 0.172613 0.177366
Si Si6 0.975466 0.675095 0.048655
Si Si7 0.291248 0.675644 0.469042
Si Si8 0.876220 0.172650 0.824108
O O1 0.500000 0.222898 0.500000
O O2 0.469856 0.195538 0.377859
O O3 0.614872 0.272169 0.486720
O O4 0.565697 0.000000 0.479938
O O5 0.794024 0.500000 0.985276
O O6 0.737314 0.295316 0.887248
O O7 0.750000 0.250000 0.000000
O O8 0.883537 0.268429 0.011405
O O9 0.855263 0.500000 0.289098
O O10 0.821448 0.710295 0.342013
O O11 0.846584 0.771124 0.249040
O O12 0.254706 0.500000 0.642288
O O13 0.260876 0.223706 0.612375
O O14 0.341113 0.300042 0.743754
O O15 0.683866 0.256578 0.162539
O O16 0.748974 0.000000 0.183551
O O17 0.984604 0.500000 0.060062
O O18 0.034495 0.753034 0.124683
O O19 0.000000 0.726019 0.000000
O O20 0.288346 0.500000 0.473940
O O21 0.250000 0.750000 0.500000
O O22 0.882697 0.000000 0.840756
#
# Coordination Sequence:
#
# PCOD8091025 Si02
#       8
#     8   8   8   8   8   8   8   8
#     4  10  19  37  61  84 116 151 185 231 283 331
#     4  10  22  38  56  79 110 150 184 223 277 331
#     4   9  18  33  57  86 113 145 183 227 278 329
#     4   9  18  36  56  80 115 149 182 225 283 335
#     4  10  19  34  54  79 114 150 183 225 280 329
#     4  10  19  36  57  80 113 146 184 231 280 328
#     4  12  25  39  58  84 115 151 193 234 281 340
#     4  10  20  33  55  86 113 142 184 233 279 326
#
# _framework density 18.109303000000001
#
# number of rings (size 3 to 8) (size 9 to 14) (size 15 to 20)
#    0.000    2.000    2.500    2.625    0.000    5.000 
#    0.000    1.250    0.000    3.000    0.000    0.000 
#    0.000    0.000    0.000    0.000    0.000    0.000 
#
# Total GULP energy -396864.362250 kJ/mol
# GULP energy per Si atom -12402.011320 kJ/mol
# Density = 1.806809 g / cm^3
# Si number density = 18.109303 Si / 1000 Ang^3
#
#
#
# Elastic Constant Matrix: (Units=GPa)
#
#
# Indices 1 2 3 4 5 6 
#
# 1 106.7010 53.9429 65.6443 0.0000 -4.5936 0.0000
# 2 53.9429 93.7639 62.8045 0.0000 -4.0029 0.0000
# 3 65.6443 62.8045 127.2668 0.0000 4.0080 0.0000
# 4 0.0000 0.0000 0.0000 36.3093 0.0000 1.6366
# 5 -4.5936 -4.0029 4.0080 0.0000 25.6845 0.0000
# 6 0.0000 0.0000 0.0000 1.6366 0.0000 31.1335
#
#
#
# Elastic Compliance Matrix: (Units=1/GPa)
#
#
# Indices 1 2 3 4 5 6 
#
# 1 0.015481 -0.005042 -0.005587 0.000000 0.002855 0.000000
# 2 -0.005042 0.017937 -0.006341 0.000000 0.002883 0.000000
# 3 -0.005587 -0.006341 0.014000 0.000000 -0.004172 0.000000
# 4 0.000000 0.000000 0.000000 0.027607 0.000000 -0.001451
# 5 0.002855 0.002883 -0.004172 0.000000 0.040545 0.000000
# 6 0.000000 0.000000 0.000000 -0.001451 0.000000 0.032196
#
#
# Mechanical properties :
#
#
# Convention : Reuss Voigt Hill
#
# Bulk Modulus (GPa) = 74.20261 76.94614 75.57438
# Shear Modulus (GPa) = 26.85302 28.31479 27.58391
#
# Velocity S-wave (km/s) = 3.85493 3.95846 3.90704
# Velocity P-wave (km/s) = 7.80242 7.96710 7.88519
#
# Compressibility (1/GPa) = 0.01347661
#
# Stress axis : x y z
#
# Youngs Moduli (GPa) = 64.59469 55.75149 71.42884
#
# Poissons Ratio (x) = 0.28113 0.39905
# Poissons Ratio (y) = 0.32572 0.45296
# Poissons Ratio (z) = 0.36087 0.35354
#
# Static dielectric constant tensor:
#      x y z
#    x 3.775790 0.000000 0.634930 
#    y 0.000000 3.324940 0.000000 
#    z 0.634930 0.000000 3.907500 
# 
# 
# High freq. dielectric constant tensor:
#      x y z
#    x 1.675810 0.000000 0.013540 
#    y 0.000000 1.700500 0.000000 
#    z 0.013540 0.000000 1.714800 
# 
# From -- ./inp_files/320135.got.cif
#   From: 2010.06.25/outbox.cif.g09.slc.cpg/sg12_161_cif.got.tgz:320135.got - 2010.06.28 00:19:55.
