data_PCOD8091503
_publ_section_title
;
Structure prediction by ZEFSAII (Michael W. Deem and Ramdas Pophale) SiO2 
 PCOD8091503
Probable space group: C 2/M
;
_chemical_formula_sum "Si O2"
_cell_formula_units_Z 64
_cell_length_a 15.455151
_cell_length_b 8.966790
_cell_length_c 23.985206
_cell_angle_alpha 90.000000
_cell_angle_beta 89.814872
_cell_angle_gamma 90.000000
_cell_volume 3323.926693
_symmetry_space_group_name_H-M "C 2/M"
_symmetry_group_IT_number 12
_symmetry_cell_setting 'monoclinic'
loop_
_space_group_symop_operation_xyz
x,y,z
-x,y,-z
-x,-y,-z
x,-y,z
1/2+x,1/2+y,z
1/2-x,1/2+y,-z
1/2-x,1/2-y,-z
1/2+x,1/2-y,z
loop_
_atom_site_type_symbol
_atom_site_label
_atom_site_fract_x
_atom_site_fract_y
_atom_site_fract_z
Si Si1 0.155448 0.676959 0.637005
Si Si2 0.349077 0.673639 0.632280
Si Si3 0.337612 0.323438 0.134807
Si Si4 0.082938 0.830087 0.246256
Si Si5 0.404281 0.176071 0.242959
Si Si6 0.998518 0.677082 0.563176
Si Si7 0.335557 0.672102 0.870209
Si Si8 0.501458 0.677302 0.937385
O O1 0.152219 0.500000 0.638251
O O2 0.251536 0.729742 0.619469
O O3 0.131512 0.737061 0.698191
O O4 0.084756 0.739356 0.593389
O O5 0.360196 0.500000 0.618558
O O6 0.367310 0.706337 0.696984
O O7 0.412931 0.764899 0.593207
O O8 0.338953 0.500000 0.139315
O O9 0.348907 0.254959 0.195728
O O10 0.246602 0.268138 0.110266
O O11 0.413104 0.263756 0.094046
O O12 0.149660 0.806516 0.195783
O O13 0.004619 0.717039 0.238059
O O14 0.047275 0.000000 0.245673
O O15 0.392809 0.000000 0.236879
O O16 0.995972 0.500000 0.565536
O O17 0.000000 0.736107 0.500000
O O18 0.318204 0.500000 0.884903
O O19 0.417623 0.734384 0.904210
O O20 0.502409 0.500000 0.938142
O O21 0.500000 0.742260 0.000000
#
# Coordination Sequence:
#
# PCOD8091503 Si02
#       8
#     8   8   8   8   8   8   8   8
#     4   9  19  36  56  80 110 146 180 218 276 334
#     4  10  20  35  57  80 109 143 182 225 270 330
#     4  11  22  37  57  85 116 145 185 234 279 329
#     4  10  19  34  56  83 113 146 181 226 282 332
#     4  11  20  34  59  84 112 149 185 221 276 343
#     4  10  21  38  57  78 109 146 186 231 276 321
#     4  10  20  37  59  83 114 151 188 225 279 342
#     4   9  19  37  59  80 109 152 193 231 280 333
#
# _framework density 19.254335000000001
#
# number of rings (size 3 to 8) (size 9 to 14) (size 15 to 20)
#    0.000    2.000    2.500    1.500    0.000    3.750 
#    0.000    3.125    0.000    2.625    0.000    0.000 
#    0.000    0.000    0.000    0.000    0.000    0.000 
#
# Total GULP energy -396867.873771 kJ/mol
# GULP energy per Si atom -12402.121055 kJ/mol
# Density = 1.921051 g / cm^3
# Si number density = 19.254335 Si / 1000 Ang^3
#
#
#
# Elastic Constant Matrix: (Units=GPa)
#
#
# Indices 1 2 3 4 5 6 
#
# 1 166.4404 33.3414 73.3430 0.0000 0.0536 0.0000
# 2 33.3414 39.2794 29.2972 0.0000 0.5421 0.0000
# 3 73.3430 29.2972 150.8786 0.0000 0.2737 0.0000
# 4 0.0000 0.0000 0.0000 16.5728 0.0000 1.7188
# 5 0.0536 0.5421 0.2737 0.0000 14.4376 0.0000
# 6 0.0000 0.0000 0.0000 1.7188 0.0000 32.0287
#
#
#
# Elastic Compliance Matrix: (Units=1/GPa)
#
#
# Indices 1 2 3 4 5 6 
#
# 1 0.008339 -0.004745 -0.003133 0.000000 0.000207 0.000000
# 2 -0.004745 0.032484 -0.003999 0.000000 -0.001126 0.000000
# 3 -0.003133 -0.003999 0.008927 0.000000 -0.000007 0.000000
# 4 0.000000 0.000000 0.000000 0.060678 0.000000 -0.003256
# 5 0.000207 -0.001126 -0.000007 0.000000 0.069305 0.000000
# 6 0.000000 0.000000 0.000000 -0.003256 0.000000 0.031397
#
#
# Mechanical properties :
#
#
# Convention : Reuss Voigt Hill
#
# Bulk Modulus (GPa) = 38.46533 69.84019 54.15276
# Shear Modulus (GPa) = 20.52972 27.31559 23.92265
#
# Velocity S-wave (km/s) = 3.26887 3.77061 3.52867
# Velocity P-wave (km/s) = 5.85391 7.43693 6.69239
#
# Compressibility (1/GPa) = 0.02599744
#
# Stress axis : x y z
#
# Youngs Moduli (GPa) = 119.91864 30.78392 112.01635
#
# Poissons Ratio (x) = 0.14606 0.35091
# Poissons Ratio (y) = 0.56897 0.44799
# Poissons Ratio (z) = 0.37567 0.12311
#
# Static dielectric constant tensor:
#      x y z
#    x 3.699100 0.000000 0.090150 
#    y 0.000000 3.217300 0.000000 
#    z 0.090150 0.000000 3.690580 
# 
# 
# High freq. dielectric constant tensor:
#      x y z
#    x 1.762760 0.000000 0.002620 
#    y 0.000000 1.717250 0.000000 
#    z 0.002620 0.000000 1.750880 
# 
# From -- ./inp_files/338771.got.cif
#   From: 2010.06.25/outbox.cif.g09.slc.cpg/sg12_170_cif.got.tgz:338771.got - 2010.06.28 00:19:55.
