data_PCOD8091829
_publ_section_title
;
Structure prediction by ZEFSAII (Michael W. Deem and Ramdas Pophale) SiO2 
 PCOD8091829
Probable space group: C 2/M
;
_chemical_formula_sum "Si O2"
_cell_formula_units_Z 60
_cell_length_a 15.414169
_cell_length_b 16.531885
_cell_length_c 14.440339
_cell_angle_alpha 90.000000
_cell_angle_beta 54.894736
_cell_angle_gamma 90.000000
_cell_volume 3010.402875
_symmetry_space_group_name_H-M "C 2/M"
_symmetry_group_IT_number 12
_symmetry_cell_setting 'monoclinic'
loop_
_space_group_symop_operation_xyz
x,y,z
-x,y,-z
-x,-y,-z
x,-y,z
1/2+x,1/2+y,z
1/2-x,1/2+y,-z
1/2-x,1/2-y,-z
1/2+x,1/2-y,z
loop_
_atom_site_type_symbol
_atom_site_label
_atom_site_fract_x
_atom_site_fract_y
_atom_site_fract_z
Si Si1 0.596991 0.907080 0.843133
Si Si2 0.783024 0.405376 0.681240
Si Si3 0.437888 0.299199 0.680122
Si Si4 0.116421 0.092881 0.630557
Si Si5 0.500000 0.825048 0.500000
Si Si6 0.189703 0.907836 0.380655
Si Si7 0.237662 0.694826 0.123792
Si Si8 0.876479 0.333319 0.984693
O O1 0.688028 0.886271 0.713957
O O2 0.500772 0.844651 0.882394
O O3 0.558245 0.000000 0.857374
O O4 0.645459 0.894098 0.916341
O O5 0.784355 0.500000 0.697531
O O6 0.695010 0.377952 0.662216
O O7 0.896045 0.380126 0.570604
O O8 0.750557 0.364622 0.797591
O O9 0.511185 0.353370 0.700833
O O10 0.505952 0.228181 0.589953
O O11 0.389434 0.351355 0.626518
O O12 0.347465 0.264860 0.802034
O O13 0.174695 0.106840 0.497791
O O14 0.083489 0.000000 0.664497
O O15 0.164674 0.000000 0.366918
O O16 0.196220 0.644706 0.059634
O O17 0.348510 0.740779 0.032976
#
# Coordination Sequence:
#
# PCOD8091829 Si02
#       8
#     8   8   8   8   4   8   8   8
#     4  10  21  36  62  92 116 145 188 244 297 340
#     4  10  23  41  58  83 118 156 199 233 279 350
#     4  11  19  36  55  87 119 149 195 231 287 351
#     4  10  21  36  58  85 120 159 190 227 278 345
#     4  10  21  36  57  84 116 152 188 238 291 336
#     4  10  19  34  57  87 122 153 186 234 289 345
#     4  10  23  38  58  84 114 157 190 237 292 338
#     4  10  20  39  58  83 119 142 194 241 294 341
#
# _framework density 19.930886999999998
#
# number of rings (size 3 to 8) (size 9 to 14) (size 15 to 20)
#    0.000    1.867    2.667    1.400    0.000    6.933 
#    0.000    1.333    0.000    0.000    0.000    9.333 
#    0.000    0.000    0.000    0.000    0.000    0.000 
#
# Total GULP energy -371973.336872 kJ/mol
# GULP energy per Si atom -12399.111229 kJ/mol
# Density = 1.988552 g / cm^3
# Si number density = 19.930887 Si / 1000 Ang^3
#
#
#
# Elastic Constant Matrix: (Units=GPa)
#
#
# Indices 1 2 3 4 5 6 
#
# 1 136.6051 72.0742 44.5688 0.0000 6.1648 0.0000
# 2 72.0742 86.1394 39.3971 0.0000 -5.4902 0.0000
# 3 44.5688 39.3971 66.6739 0.0000 -0.6429 0.0000
# 4 0.0000 0.0000 0.0000 31.8115 0.0000 -2.8611
# 5 6.1648 -5.4902 -0.6429 0.0000 29.4528 0.0000
# 6 0.0000 0.0000 0.0000 -2.8611 0.0000 36.7039
#
#
#
# Elastic Compliance Matrix: (Units=1/GPa)
#
#
# Indices 1 2 3 4 5 6 
#
# 1 0.014313 -0.010828 -0.003218 0.000000 -0.005084 0.000000
# 2 -0.010828 0.024327 -0.007073 0.000000 0.006647 0.000000
# 3 -0.003218 -0.007073 0.021327 0.000000 -0.000179 0.000000
# 4 0.000000 0.000000 0.000000 0.031657 0.000000 0.002468
# 5 -0.005084 0.006647 -0.000179 0.000000 0.036252 0.000000
# 6 0.000000 0.000000 0.000000 0.002468 0.000000 0.027437
#
#
# Mechanical properties :
#
#
# Convention : Reuss Voigt Hill
#
# Bulk Modulus (GPa) = 56.40382 66.83320 61.61851
# Shear Modulus (GPa) = 24.57464 28.48553 26.53008
#
# Velocity S-wave (km/s) = 3.51521 3.78460 3.65239
# Velocity P-wave (km/s) = 6.69602 7.25967 6.98354
#
# Compressibility (1/GPa) = 0.01772930
#
# Stress axis : x y z
#
# Youngs Moduli (GPa) = 69.86804 41.10601 46.88811
#
# Poissons Ratio (x) = 0.44508 0.15091
# Poissons Ratio (y) = 0.75651 0.33163
# Poissons Ratio (z) = 0.22487 0.29074
#
# Static dielectric constant tensor:
#      x y z
#    x 3.598180 0.000000 -0.029790 
#    y 0.000000 3.612810 0.000000 
#    z -0.029790 0.000000 3.712500 
# 
# 
# High freq. dielectric constant tensor:
#      x y z
#    x 1.769340 0.000000 -0.000790 
#    y 0.000000 1.771050 0.000000 
#    z -0.000790 0.000000 1.785290 
# 
# From -- ./inp_files/215184.got.cif
#   From: 2010.06.25/outbox.cif.g09.slc.cpg/sg12_108_cif.got.tgz:215184.got - 2010.06.28 00:19:55.
