data_PCOD8091709
_publ_section_title
;
Structure prediction by ZEFSAII (Michael W. Deem and Ramdas Pophale) SiO2 
 PCOD8091709
Probable space group: C 2/M
;
_chemical_formula_sum "Si O2"
_cell_formula_units_Z 64
_cell_length_a 12.744965
_cell_length_b 19.691644
_cell_length_c 21.240668
_cell_angle_alpha 90.000000
_cell_angle_beta 141.089311
_cell_angle_gamma 90.000000
_cell_volume 3348.291656
_symmetry_space_group_name_H-M "C 2/M"
_symmetry_group_IT_number 12
_symmetry_cell_setting 'monoclinic'
loop_
_space_group_symop_operation_xyz
x,y,z
-x,y,-z
-x,-y,-z
x,-y,z
1/2+x,1/2+y,z
1/2-x,1/2+y,-z
1/2-x,1/2-y,-z
1/2+x,1/2-y,z
loop_
_atom_site_type_symbol
_atom_site_label
_atom_site_fract_x
_atom_site_fract_y
_atom_site_fract_z
Si Si1 0.313230 0.922689 0.082051
Si Si2 0.925751 0.334130 0.602466
Si Si3 0.553267 0.301537 0.954373
Si Si4 0.632229 0.077822 0.311253
Si Si5 0.190269 0.163610 0.706330
Si Si6 0.727094 0.687808 0.279714
Si Si7 0.628456 0.310454 0.373003
Si Si8 0.510530 0.154735 0.933498
O O1 0.442349 0.909406 0.199053
O O2 0.410791 0.911204 0.062551
O O3 0.241639 0.000000 0.050935
O O4 0.173220 0.865485 0.017361
O O5 0.852408 0.393833 0.611242
O O6 0.808290 0.321879 0.487825
O O7 0.931452 0.267678 0.649971
O O8 0.109114 0.356082 0.662378
O O9 0.407134 0.322756 0.838322
O O10 0.616508 0.224472 0.965107
O O11 0.500000 0.285540 0.000000
O O12 0.768991 0.109443 0.328399
O O13 0.678385 0.000000 0.335220
O O14 0.198584 0.236758 0.676717
O O15 0.321412 0.165251 0.823935
O O16 0.011078 0.146290 0.654123
O O17 0.641748 0.666549 0.306157
O O18 0.500000 0.134731 0.000000
#
# Coordination Sequence:
#
# PCOD8091709 Si02
#       8
#     8   8   8   8   8   8   8   8
#     4  10  21  35  54  80 110 148 186 225 274 331
#     4  10  20  35  56  85 111 143 191 228 289 337
#     4  10  20  34  54  84 110 146 188 230 274 333
#     4  10  20  38  59  80 114 153 189 232 273 332
#     4   9  19  34  52  84 113 143 192 227 281 335
#     4  10  19  34  57  82 118 145 178 242 288 330
#     4  10  20  33  58  84 114 143 177 244 288 335
#     4   9  19  33  53  79 108 146 182 228 275 327
#
# _framework density 19.114225000000001
#
# number of rings (size 3 to 8) (size 9 to 14) (size 15 to 20)
#    0.000    2.250    1.250    1.500    1.750    2.000 
#    0.000    1.875    0.000    3.000    0.000    0.000 
#    0.000    0.000    0.000    0.000    0.000    0.000 
#
# Total GULP energy -396558.882480 kJ/mol
# GULP energy per Si atom -12392.465077 kJ/mol
# Density = 1.907072 g / cm^3
# Si number density = 19.114225 Si / 1000 Ang^3
#
#
#
# Elastic Constant Matrix: (Units=GPa)
#
#
# Indices 1 2 3 4 5 6 
#
# 1 97.7558 25.7787 20.2035 0.0001 -10.9753 0.0000
# 2 25.7787 70.1047 12.8390 0.0001 0.2565 0.0000
# 3 20.2035 12.8390 33.1039 0.0005 -15.9249 0.0002
# 4 0.0001 0.0001 0.0005 14.4443 0.0002 3.7582
# 5 -10.9753 0.2565 -15.9249 0.0002 27.2469 0.0001
# 6 0.0000 0.0000 0.0002 3.7582 0.0001 17.5939
#
#
#
# Elastic Compliance Matrix: (Units=1/GPa)
#
#
# Indices 1 2 3 4 5 6 
#
# 1 0.012500 -0.003641 -0.005256 0.000000 0.001998 0.000000
# 2 -0.003641 0.016931 -0.007131 0.000000 -0.005794 0.000000
# 3 -0.005256 -0.007131 0.048961 -0.000002 0.026566 0.000000
# 4 0.000000 0.000000 -0.000002 0.073306 -0.000001 -0.015659
# 5 0.001998 -0.005794 0.026566 -0.000001 0.053088 0.000000
# 6 0.000000 0.000000 0.000000 -0.015659 0.000000 0.060183
#
#
# Mechanical properties :
#
#
# Convention : Reuss Voigt Hill
#
# Bulk Modulus (GPa) = 21.58180 35.40076 28.49128
# Shear Modulus (GPa) = 16.00150 21.33322 18.66736
#
# Velocity S-wave (km/s) = 2.89650 3.34442 3.12848
# Velocity P-wave (km/s) = 4.74360 5.78570 5.29037
#
# Compressibility (1/GPa) = 0.04633534
#
# Stress axis : x y z
#
# Youngs Moduli (GPa) = 79.99791 59.06455 20.42426
#
# Poissons Ratio (x) = 0.21508 0.10734
# Poissons Ratio (y) = 0.29130 0.14565
# Poissons Ratio (z) = 0.42045 0.42121
#
# Static dielectric constant tensor:
#      x y z
#    x 3.481920 0.000000 -0.004460 
#    y 0.000000 3.265870 0.000000 
#    z -0.004460 0.000000 3.410290 
# 
# 
# High freq. dielectric constant tensor:
#      x y z
#    x 1.747810 0.000000 -0.004990 
#    y 0.000000 1.711490 0.000000 
#    z -0.004990 0.000000 1.741980 
# 
# From -- ./inp_files/306825.got.cif
#   From: 2010.06.25/outbox.cif.g09.slc.cpg/sg12_154_cif.got.tgz:306825.got - 2010.06.28 00:19:55.
