data_PCOD8091499
_publ_section_title
;
Structure prediction by ZEFSAII (Michael W. Deem and Ramdas Pophale) SiO2 
 PCOD8091499
Probable space group: C 2/M
;
_chemical_formula_sum "Si O2"
_cell_formula_units_Z 64
_cell_length_a 24.747531
_cell_length_b 9.132003
_cell_length_c 14.774116
_cell_angle_alpha 90.000000
_cell_angle_beta 89.806832
_cell_angle_gamma 90.000000
_cell_volume 3338.850387
_symmetry_space_group_name_H-M "C 2/M"
_symmetry_group_IT_number 12
_symmetry_cell_setting 'monoclinic'
loop_
_space_group_symop_operation_xyz
x,y,z
-x,y,-z
-x,-y,-z
x,-y,z
1/2+x,1/2+y,z
1/2-x,1/2+y,-z
1/2-x,1/2-y,-z
1/2+x,1/2-y,z
loop_
_atom_site_type_symbol
_atom_site_label
_atom_site_fract_x
_atom_site_fract_y
_atom_site_fract_z
Si Si1 0.560371 0.169464 0.305880
Si Si2 0.296094 0.666127 0.551403
Si Si3 0.335950 0.828047 0.220176
Si Si4 0.733677 0.835242 0.284780
Si Si5 0.692972 0.174501 0.981265
Si Si6 0.584916 0.666746 0.490971
Si Si7 0.060106 0.332745 0.669711
Si Si8 0.639315 0.163937 0.155399
O O1 0.569479 0.252655 0.399156
O O2 0.497369 0.183186 0.279377
O O3 0.596114 0.241490 0.223432
O O4 0.577669 0.000000 0.320517
O O5 0.278145 0.500000 0.569622
O O6 0.250000 0.750000 0.500000
O O7 0.304964 0.748742 0.645926
O O8 0.350841 0.673814 0.493810
O O9 0.290849 0.744348 0.277546
O O10 0.331352 0.780396 0.115601
O O11 0.394015 0.780145 0.259977
O O12 0.325863 0.000000 0.231070
O O13 0.700685 0.834335 0.192204
O O14 0.744346 0.000000 0.319641
O O15 0.701175 0.000000 0.989494
O O16 0.750000 0.250000 0.000000
O O17 0.647783 0.231327 0.054857
O O18 0.564633 0.500000 0.483881
O O19 0.557364 0.739483 0.577910
O O20 0.070933 0.500000 0.640720
O O21 0.617142 0.000000 0.145004
#
# Coordination Sequence:
#
# PCOD8091499 Si02
#       8
#     8   8   8   8   8   8   8   8
#     4  10  20  38  60  79 106 147 189 227 268 323
#     4  11  23  36  51  77 112 148 184 224 275 332
#     4  10  21  36  55  82 116 147 180 228 277 329
#     4  11  20  33  55  80 109 145 182 223 274 328
#     4  10  19  34  56  83 113 143 178 223 275 329
#     4  11  23  37  55  81 110 141 183 231 277 321
#     4  10  22  38  56  79 108 147 189 224 270 327
#     4   9  18  33  55  82 108 136 177 224 270 319
#
# _framework density 19.168274
#
# number of rings (size 3 to 8) (size 9 to 14) (size 15 to 20)
#    0.000    1.750    2.500    2.250    0.000    6.000 
#    0.000    1.250    0.000    3.750    0.000    0.000 
#    0.000    4.000    0.000    0.000    0.000    0.000 
#
# Total GULP energy -396691.431371 kJ/mol
# GULP energy per Si atom -12396.607230 kJ/mol
# Density = 1.912465 g / cm^3
# Si number density = 19.168274 Si / 1000 Ang^3
#
#
#
# Elastic Constant Matrix: (Units=GPa)
#
#
# Indices 1 2 3 4 5 6 
#
# 1 104.6921 26.1374 40.8835 0.0000 -12.7162 0.0000
# 2 26.1374 68.0738 28.2408 0.0000 -5.4962 0.0000
# 3 40.8835 28.2408 108.0741 0.0000 -17.8227 0.0000
# 4 0.0000 0.0000 0.0000 18.3948 0.0000 0.5792
# 5 -12.7162 -5.4962 -17.8227 0.0000 25.0776 0.0000
# 6 0.0000 0.0000 0.0000 0.5792 0.0000 22.9870
#
#
#
# Elastic Compliance Matrix: (Units=1/GPa)
#
#
# Indices 1 2 3 4 5 6 
#
# 1 0.011934 -0.002996 -0.003219 0.000000 0.003107 0.000000
# 2 -0.002996 0.017237 -0.003396 0.000000 -0.000155 0.000000
# 3 -0.003219 -0.003396 0.012422 0.000000 0.006452 0.000000
# 4 0.000000 0.000000 0.000000 0.054406 0.000000 -0.001371
# 5 0.003107 -0.000155 0.006452 0.000000 0.046003 0.000000
# 6 0.000000 0.000000 0.000000 -0.001371 0.000000 0.043537
#
#
# Mechanical properties :
#
#
# Convention : Reuss Voigt Hill
#
# Bulk Modulus (GPa) = 44.70281 52.37371 48.53826
# Shear Modulus (GPa) = 23.56047 25.66378 24.61213
#
# Velocity S-wave (km/s) = 3.50971 3.66302 3.58719
# Velocity P-wave (km/s) = 6.30841 6.72850 6.52184
#
# Compressibility (1/GPa) = 0.02236996
#
# Stress axis : x y z
#
# Youngs Moduli (GPa) = 83.79161 58.01571 80.50060
#
# Poissons Ratio (x) = 0.17381 0.25917
# Poissons Ratio (y) = 0.25103 0.27341
# Poissons Ratio (z) = 0.26976 0.19705
#
# Static dielectric constant tensor:
#      x y z
#    x 3.523840 0.000000 -0.041390 
#    y 0.000000 3.517180 0.000000 
#    z -0.041390 0.000000 3.515800 
# 
# 
# High freq. dielectric constant tensor:
#      x y z
#    x 1.745830 0.000000 -0.008780 
#    y 0.000000 1.730540 0.000000 
#    z -0.008780 0.000000 1.745230 
# 
# From -- ./inp_files/238652.got.cif
#   From: 2010.06.25/outbox.cif.g09.slc.cpg/sg12_120_cif.got.tgz:238652.got - 2010.06.28 00:19:55.
