data_PCOD8091250
_publ_section_title
;
Structure prediction by ZEFSAII (Michael W. Deem and Ramdas Pophale) SiO2 
 PCOD8091250
Probable space group: C 2/M
;
_chemical_formula_sum "Si O2"
_cell_formula_units_Z 48
_cell_length_a 27.378929
_cell_length_b 9.473085
_cell_length_c 14.104996
_cell_angle_alpha 90.000000
_cell_angle_beta 38.913723
_cell_angle_gamma 90.000000
_cell_volume 2297.967237
_symmetry_space_group_name_H-M "C 2/M"
_symmetry_group_IT_number 12
_symmetry_cell_setting 'monoclinic'
loop_
_space_group_symop_operation_xyz
x,y,z
-x,y,-z
-x,-y,-z
x,-y,z
1/2+x,1/2+y,z
1/2-x,1/2+y,-z
1/2-x,1/2-y,-z
1/2+x,1/2-y,z
loop_
_atom_site_type_symbol
_atom_site_label
_atom_site_fract_x
_atom_site_fract_y
_atom_site_fract_z
Si Si1 0.155514 0.654299 0.688891
Si Si2 0.919888 0.337385 0.668672
Si Si3 0.110516 0.662276 0.069170
Si Si4 0.324023 0.653436 0.499439
Si Si5 0.787947 0.834393 0.766873
Si Si6 0.073838 0.838589 0.955507
O O1 0.114004 0.500000 0.756412
O O2 0.247320 0.629654 0.552375
O O3 0.126587 0.731608 0.635205
O O4 0.140289 0.749020 0.803971
O O5 0.904911 0.500000 0.664096
O O6 0.925583 0.317385 0.772664
O O7 0.847377 0.247380 0.743395
O O8 0.000000 0.283336 0.500000
O O9 0.103480 0.500000 0.045889
O O10 0.200870 0.709758 0.928173
O O11 0.059674 0.763937 0.078121
O O12 0.367238 0.500000 0.438259
O O13 0.305580 0.709600 0.632048
O O14 0.800193 0.000000 0.763813
O O15 0.100107 0.000000 0.930772
O O16 0.000000 0.828166 0.000000
#
# Coordination Sequence:
#
# PCOD8091250 Si02
#       6
#     8   8   8   8   8   8
#     4  10  19  34  55  81 115 154 193 234 287 345
#     4  10  23  41  61  89 123 155 195 248 303 361
#     4  10  21  41  64  87 119 156 201 252 298 358
#     4   9  18  33  54  83 117 148 187 239 287 340
#     4  10  20  37  62  90 119 156 201 248 297 351
#     4  11  24  39  57  85 120 156 199 248 297 353
#
# _framework density 20.888024999999999
#
# number of rings (size 3 to 8) (size 9 to 14) (size 15 to 20)
#    0.000    2.000    1.667    1.500    0.000    5.667 
#    0.000    3.333    0.000    0.000    0.000    0.000 
#    0.000    0.000    0.000    0.000    0.000    0.000 
#
# Total GULP energy -297523.337389 kJ/mol
# GULP energy per Si atom -12396.805725 kJ/mol
# Density = 2.084048 g / cm^3
# Si number density = 20.888025 Si / 1000 Ang^3
#
#
#
# Elastic Constant Matrix: (Units=GPa)
#
#
# Indices 1 2 3 4 5 6 
#
# 1 80.1285 56.9987 39.3965 0.0000 15.4063 0.0000
# 2 56.9987 126.4665 44.5496 0.0000 13.9418 0.0000
# 3 39.3965 44.5496 79.4991 0.0000 22.9531 0.0000
# 4 0.0000 0.0000 0.0000 21.3985 0.0000 6.5745
# 5 15.4063 13.9418 22.9531 0.0000 32.0429 0.0000
# 6 0.0000 0.0000 0.0000 6.5745 0.0000 33.1049
#
#
#
# Elastic Compliance Matrix: (Units=1/GPa)
#
#
# Indices 1 2 3 4 5 6 
#
# 1 0.020806 -0.007126 -0.005452 0.000000 -0.002998 0.000000
# 2 -0.007126 0.012297 -0.003535 0.000000 0.000608 0.000000
# 3 -0.005452 -0.003535 0.020248 0.000000 -0.010345 0.000000
# 4 0.000000 0.000000 0.000000 0.049769 0.000000 -0.009884
# 5 -0.002998 0.000608 -0.010345 0.000000 0.039795 0.000000
# 6 0.000000 0.000000 0.000000 -0.009884 0.000000 0.032170
#
#
# Mechanical properties :
#
#
# Convention : Reuss Voigt Hill
#
# Bulk Modulus (GPa) = 47.33694 63.10932 55.22313
# Shear Modulus (GPa) = 23.32587 26.98588 25.15587
#
# Velocity S-wave (km/s) = 3.34535 3.59824 3.47410
# Velocity P-wave (km/s) = 6.13459 6.89506 6.52591
#
# Compressibility (1/GPa) = 0.02112515
#
# Stress axis : x y z
#
# Youngs Moduli (GPa) = 48.06298 81.31782 49.38694
#
# Poissons Ratio (x) = 0.57951 0.26924
# Poissons Ratio (y) = 0.34252 0.17459
# Poissons Ratio (z) = 0.26202 0.28748
#
# Static dielectric constant tensor:
#      x y z
#    x 3.518540 0.000000 0.213440 
#    y 0.000000 4.194450 0.000000 
#    z 0.213440 0.000000 3.735990 
# 
# 
# High freq. dielectric constant tensor:
#      x y z
#    x 1.802250 0.000000 0.019370 
#    y 0.000000 1.822980 0.000000 
#    z 0.019370 0.000000 1.812150 
# 
# From -- ./inp_files/244603.got.cif
#   From: 2010.06.25/outbox.cif.g09.slc.cpg/sg12_123_cif.got.tgz:244603.got - 2010.06.28 00:19:55.
