data_PCOD8091514
_publ_section_title
;
Structure prediction by ZEFSAII (Michael W. Deem and Ramdas Pophale) SiO2 
 PCOD8091514
Probable space group: C 2/M
;
_chemical_formula_sum "Si O2"
_cell_formula_units_Z 36
_cell_length_a 15.142182
_cell_length_b 14.216109
_cell_length_c 10.055919
_cell_angle_alpha 90.000000
_cell_angle_beta 70.058879
_cell_angle_gamma 90.000000
_cell_volume 2034.880771
_symmetry_space_group_name_H-M "C 2/M"
_symmetry_group_IT_number 12
_symmetry_cell_setting 'monoclinic'
loop_
_space_group_symop_operation_xyz
x,y,z
-x,y,-z
-x,-y,-z
x,-y,z
1/2+x,1/2+y,z
1/2-x,1/2+y,-z
1/2-x,1/2-y,-z
1/2+x,1/2-y,z
loop_
_atom_site_type_symbol
_atom_site_label
_atom_site_fract_x
_atom_site_fract_y
_atom_site_fract_z
Si Si1 0.496150 0.500000 0.252331
Si Si2 0.993316 0.802401 0.154119
Si Si3 0.196035 0.000000 0.245641
Si Si4 0.712324 0.700590 0.647893
Si Si5 0.300874 0.500000 0.451930
Si Si6 0.196352 0.207304 0.151496
O O1 0.491782 0.414679 0.151520
O O2 0.584098 0.500000 0.305464
O O3 0.413242 0.500000 0.402351
O O4 0.085114 0.773166 0.190850
O O5 0.896370 0.768453 0.272449
O O6 0.000000 0.763614 0.000000
O O7 0.226105 0.096759 0.154440
O O8 0.236236 0.000000 0.376196
O O9 0.750000 0.750000 0.500000
O O10 0.730769 0.590083 0.616690
O O11 0.776139 0.732249 0.736178
O O12 0.250000 0.250000 0.000000
#
# Coordination Sequence:
#
# PCOD8091514 Si02
#       6
#     4   8   4   8   4   8
#     4   8  18  28  52  86 112 134 187 234 303 343
#     4  10  19  34  56  83 117 147 185 239 293 339
#     4  10  19  34  56  83 118 148 184 237 294 343
#     4  11  22  37  60  87 115 151 194 237 287 343
#     4  10  19  34  56  83 117 149 184 238 295 338
#     4  11  22  37  60  87 116 151 194 237 288 344
#
# _framework density 17.691455999999999
#
# number of rings (size 3 to 8) (size 9 to 14) (size 15 to 20)
#    0.000    1.778    4.444    0.667    0.000    1.778 
#    0.000    0.000    0.000    8.000    0.000    0.000 
#    0.000    0.000    0.000    0.000    0.000    0.000 
#
# Total GULP energy -223049.468373 kJ/mol
# GULP energy per Si atom -12391.637132 kJ/mol
# Density = 1.765119 g / cm^3
# Si number density = 17.691456 Si / 1000 Ang^3
#
#
#
# Elastic Constant Matrix: (Units=GPa)
#
#
# Indices 1 2 3 4 5 6 
#
# 1 120.7079 50.4448 63.5696 0.0000 2.2719 0.0000
# 2 50.4448 118.1151 60.4546 0.0000 3.2658 0.0000
# 3 63.5696 60.4546 145.9057 0.0000 4.0398 0.0000
# 4 0.0000 0.0000 0.0000 30.9953 0.0000 -0.2275
# 5 2.2719 3.2658 4.0398 0.0000 32.1239 0.0000
# 6 0.0000 0.0000 0.0000 -0.2275 0.0000 27.6561
#
#
#
# Elastic Compliance Matrix: (Units=1/GPa)
#
#
# Indices 1 2 3 4 5 6 
#
# 1 0.011525 -0.002985 -0.003784 0.000000 -0.000036 0.000000
# 2 -0.002985 0.011527 -0.003461 0.000000 -0.000526 0.000000
# 3 -0.003784 -0.003461 0.009954 0.000000 -0.000632 0.000000
# 4 0.000000 0.000000 0.000000 0.032265 0.000000 0.000265
# 5 -0.000036 -0.000526 -0.000632 0.000000 0.031265 0.000000
# 6 0.000000 0.000000 0.000000 0.000265 0.000000 0.036161
#
#
# Mechanical properties :
#
#
# Convention : Reuss Voigt Hill
#
# Bulk Modulus (GPa) = 79.70031 81.51850 80.60941
# Shear Modulus (GPa) = 31.77874 32.17236 31.97555
#
# Velocity S-wave (km/s) = 4.24285 4.26904 4.25597
# Velocity P-wave (km/s) = 8.31567 8.39509 8.35547
#
# Compressibility (1/GPa) = 0.01254700
#
# Stress axis : x y z
#
# Youngs Moduli (GPa) = 86.76743 86.75258 100.46299
#
# Poissons Ratio (x) = 0.25891 0.38013
# Poissons Ratio (y) = 0.25896 0.34773
# Poissons Ratio (z) = 0.32831 0.30027
#
# Static dielectric constant tensor:
#      x y z
#    x 3.338480 0.000000 -0.085460 
#    y 0.000000 3.474790 0.000000 
#    z -0.085460 0.000000 3.134900 
# 
# 
# High freq. dielectric constant tensor:
#      x y z
#    x 1.676120 0.000000 0.005840 
#    y 0.000000 1.674890 0.000000 
#    z 0.005840 0.000000 1.690740 
# 
# From -- ./inp_files/46852.got.cif
#   From: 2010.06.25/outbox.cif.g09.slc.cpg/sg12_24_cif.got.tgz:46852.got - 2010.06.28 00:19:55.
