data_PCOD8091776
_publ_section_title
;
Structure prediction by ZEFSAII (Michael W. Deem and Ramdas Pophale) SiO2 
 PCOD8091776
Probable space group: C 2/M
;
_chemical_formula_sum "Si O2"
_cell_formula_units_Z 56
_cell_length_a 15.629422
_cell_length_b 8.709418
_cell_length_c 27.598755
_cell_angle_alpha 90.000000
_cell_angle_beta 134.105807
_cell_angle_gamma 90.000000
_cell_volume 2697.613429
_symmetry_space_group_name_H-M "C 2/M"
_symmetry_group_IT_number 12
_symmetry_cell_setting 'monoclinic'
loop_
_space_group_symop_operation_xyz
x,y,z
-x,y,-z
-x,-y,-z
x,-y,z
1/2+x,1/2+y,z
1/2-x,1/2+y,-z
1/2-x,1/2-y,-z
1/2+x,1/2-y,z
loop_
_atom_site_type_symbol
_atom_site_label
_atom_site_fract_x
_atom_site_fract_y
_atom_site_fract_z
Si Si1 0.388364 0.669543 0.431270
Si Si2 0.703112 0.183597 0.286391
Si Si3 0.847719 0.319315 0.073312
Si Si4 0.806311 0.678087 0.166440
Si Si5 0.099161 0.176920 0.153104
Si Si6 0.971568 0.819947 0.705280
Si Si7 0.686451 0.830052 0.430556
O O1 0.500000 0.762028 0.500000
O O2 0.436782 0.500000 0.436535
O O3 0.329922 0.742288 0.359654
O O4 0.281036 0.657069 0.425638
O O5 0.689573 0.265460 0.229938
O O6 0.593295 0.230052 0.277049
O O7 0.702295 0.000000 0.280430
O O8 0.837094 0.500000 0.066915
O O9 0.821233 0.261299 0.117401
O O10 0.977896 0.272278 0.105906
O O11 0.750000 0.250000 0.000000
O O12 0.843613 0.500000 0.185239
O O13 0.669243 0.700206 0.129901
O O14 0.889593 0.778545 0.234751
O O15 0.066612 0.000000 0.149063
O O16 0.925339 0.766975 0.633922
O O17 0.949486 0.000000 0.701989
O O18 0.750000 0.750000 0.500000
O O19 0.642916 0.000000 0.428834
#
# Coordination Sequence:
#
# PCOD8091776 Si02
#       7
#     8   8   8   8   8   8   8
#     4   8  16  31  51  75 106 147 194 243 297 360
#     4  10  19  34  57  84 118 159 201 254 318 371
#     4  11  24  44  69  94 129 171 207 256 317 374
#     4  10  23  42  64  92 129 167 205 255 317 373
#     4  11  23  40  64  95 126 162 210 258 309 375
#     4  11  21  35  59  85 114 158 211 260 310 374
#     4  10  20  34  53  78 113 154 199 254 315 374
#
# _framework density 20.75909
#
# number of rings (size 3 to 8) (size 9 to 14) (size 15 to 20)
#    0.000    1.857    1.429    3.857    0.000    3.429 
#    0.000    4.286    0.000   14.571    0.000    0.000 
#    0.000    0.000    0.000    0.000    0.000    0.000 
#
# Total GULP energy -347081.492948 kJ/mol
# GULP energy per Si atom -12395.767605 kJ/mol
# Density = 2.071184 g / cm^3
# Si number density = 20.759090 Si / 1000 Ang^3
#
#
#
# Elastic Constant Matrix: (Units=GPa)
#
#
# Indices 1 2 3 4 5 6 
#
# 1 79.4011 21.1979 45.7252 0.0000 5.5632 0.0000
# 2 21.1979 67.6655 32.4482 0.0000 -6.6207 0.0000
# 3 45.7252 32.4482 163.3862 0.0000 5.6651 0.0000
# 4 0.0000 0.0000 0.0000 36.5556 0.0000 0.1314
# 5 5.5632 -6.6207 5.6651 0.0000 26.0225 0.0000
# 6 0.0000 0.0000 0.0000 0.1314 0.0000 22.1670
#
#
#
# Elastic Compliance Matrix: (Units=1/GPa)
#
#
# Indices 1 2 3 4 5 6 
#
# 1 0.015877 -0.003588 -0.003609 0.000000 -0.003521 0.000000
# 2 -0.003588 0.017789 -0.002733 0.000000 0.005888 0.000000
# 3 -0.003609 -0.002733 0.007729 0.000000 -0.001606 0.000000
# 4 0.000000 0.000000 0.000000 0.027356 0.000000 -0.000162
# 5 -0.003521 0.005888 -0.001606 0.000000 0.041029 0.000000
# 6 0.000000 0.000000 0.000000 -0.000162 0.000000 0.045113
#
#
# Mechanical properties :
#
#
# Convention : Reuss Voigt Hill
#
# Bulk Modulus (GPa) = 46.43387 56.57726 51.50557
# Shear Modulus (GPa) = 27.48294 31.02112 29.25203
#
# Velocity S-wave (km/s) = 3.64249 3.86986 3.75790
# Velocity P-wave (km/s) = 6.33300 6.87613 6.61014
#
# Compressibility (1/GPa) = 0.02153600
#
# Stress axis : x y z
#
# Youngs Moduli (GPa) = 62.98405 56.21379 129.38533
#
# Poissons Ratio (x) = 0.20169 0.46691
# Poissons Ratio (y) = 0.22598 0.35360
# Poissons Ratio (z) = 0.22729 0.15363
#
# Static dielectric constant tensor:
#      x y z
#    x 4.053790 0.000000 -0.469330 
#    y 0.000000 3.699380 0.000000 
#    z -0.469330 0.000000 4.407770 
# 
# 
# High freq. dielectric constant tensor:
#      x y z
#    x 1.799560 0.000000 0.002030 
#    y 0.000000 1.801630 0.000000 
#    z 0.002030 0.000000 1.824340 
# 
# From -- ./inp_files/377764.got.cif
#   From: 2010.06.25/outbox.cif.g09.slc.cpg/sg12_189_cif.got.tgz:377764.got - 2010.06.28 00:19:55.
