data_PCOD8091193
_publ_section_title
;
Structure prediction by ZEFSAII (Michael W. Deem and Ramdas Pophale) SiO2 
 PCOD8091193
Probable space group: C 2/M
;
_chemical_formula_sum "Si O2"
_cell_formula_units_Z 56
_cell_length_a 18.946030
_cell_length_b 9.044381
_cell_length_c 18.835280
_cell_angle_alpha 90.000000
_cell_angle_beta 66.429833
_cell_angle_gamma 90.000000
_cell_volume 2958.252848
_symmetry_space_group_name_H-M "C 2/M"
_symmetry_group_IT_number 12
_symmetry_cell_setting 'monoclinic'
loop_
_space_group_symop_operation_xyz
x,y,z
-x,y,-z
-x,-y,-z
x,-y,z
1/2+x,1/2+y,z
1/2-x,1/2+y,-z
1/2-x,1/2-y,-z
1/2+x,1/2-y,z
loop_
_atom_site_type_symbol
_atom_site_label
_atom_site_fract_x
_atom_site_fract_y
_atom_site_fract_z
Si Si1 0.033485 0.167507 0.064093
Si Si2 0.675182 0.175465 0.062629
Si Si3 0.303533 0.672295 0.421987
Si Si4 0.879472 0.673578 0.761049
Si Si5 0.904033 0.338013 0.191399
Si Si6 0.450700 0.836982 0.331529
Si Si7 0.739870 0.670837 0.721015
O O1 0.106261 0.275234 0.039053
O O2 0.968709 0.223955 0.142836
O O3 0.056505 0.000000 0.075357
O O4 0.000000 0.176587 0.000000
O O5 0.656049 0.233801 0.150343
O O6 0.685528 0.000000 0.056876
O O7 0.750000 0.250000 0.000000
O O8 0.305901 0.500000 0.437198
O O9 0.250000 0.750000 0.500000
O O10 0.390924 0.732036 0.397153
O O11 0.266132 0.704914 0.360007
O O12 0.891300 0.500000 0.766820
O O13 0.823989 0.712821 0.717400
O O14 0.964317 0.738746 0.708549
O O15 0.910204 0.500000 0.151491
O O16 0.913671 0.359681 0.270302
O O17 0.820767 0.267140 0.209467
O O18 0.455745 0.000000 0.366366
O O19 0.721341 0.500000 0.744243
#
# Coordination Sequence:
#
# PCOD8091193 Si02
#       7
#     8   8   8   8   8   8   8
#     4  11  24  39  55  76 106 147 193 239 285 333
#     4  11  23  40  58  82 115 151 190 236 292 345
#     4  10  20  35  57  85 113 145 181 223 269 325
#     4   9  18  36  59  80 110 147 184 228 278 332
#     4  10  19  34  55  80 107 139 181 232 284 331
#     4   9  17  34  58  81 106 142 179 220 274 330
#     4   9  19  35  57  83 110 144 186 224 268 332
#
# _framework density 18.930091999999998
#
# number of rings (size 3 to 8) (size 9 to 14) (size 15 to 20)
#    0.000    2.143    1.429    1.714    2.000    2.286 
#    0.000    2.143    0.000    4.286    0.000    0.000 
#    0.000    0.000    0.000    0.000    0.000    0.000 
#
# Total GULP energy -347087.986653 kJ/mol
# GULP energy per Si atom -12395.999523 kJ/mol
# Density = 1.888701 g / cm^3
# Si number density = 18.930092 Si / 1000 Ang^3
#
#
#
# Elastic Constant Matrix: (Units=GPa)
#
#
# Indices 1 2 3 4 5 6 
#
# 1 130.9699 46.9683 57.3296 0.0000 -29.0312 0.0000
# 2 46.9683 86.9172 52.8704 0.0000 -10.3679 0.0001
# 3 57.3296 52.8704 104.1279 0.0000 -33.6634 0.0000
# 4 0.0000 0.0000 0.0000 32.1720 0.0000 -5.6480
# 5 -29.0312 -10.3679 -33.6634 0.0000 31.7299 0.0000
# 6 0.0000 0.0001 0.0000 -5.6480 0.0000 30.0401
#
#
#
# Elastic Compliance Matrix: (Units=1/GPa)
#
#
# Indices 1 2 3 4 5 6 
#
# 1 0.011584 -0.004250 -0.001891 0.000000 0.007204 0.000000
# 2 -0.004250 0.018830 -0.009876 0.000000 -0.008214 0.000000
# 3 -0.001891 -0.009876 0.021395 0.000000 0.017741 0.000000
# 4 0.000000 0.000000 0.000000 0.032144 0.000000 0.006044
# 5 0.007204 -0.008214 0.017741 0.000000 0.054246 0.000000
# 6 0.000000 0.000000 0.000000 0.006044 0.000000 0.034425
#
#
# Mechanical properties :
#
#
# Convention : Reuss Voigt Hill
#
# Bulk Modulus (GPa) = 50.57125 70.70573 60.63849
# Shear Modulus (GPa) = 23.66877 29.77817 26.72347
#
# Velocity S-wave (km/s) = 3.53983 3.97048 3.76133
# Velocity P-wave (km/s) = 6.59393 7.64537 7.13904
#
# Compressibility (1/GPa) = 0.01977408
#
# Stress axis : x y z
#
# Youngs Moduli (GPa) = 86.32501 53.10782 46.74067
#
# Poissons Ratio (x) = 0.22573 0.08838
# Poissons Ratio (y) = 0.36691 0.46161
# Poissons Ratio (z) = 0.16322 0.52449
#
# Static dielectric constant tensor:
#      x y z
#    x 3.585340 0.000000 -0.212100 
#    y 0.000000 3.718640 0.000000 
#    z -0.212100 0.000000 3.348520 
# 
# 
# High freq. dielectric constant tensor:
#      x y z
#    x 1.736670 0.000000 -0.016760 
#    y 0.000000 1.730880 0.000000 
#    z -0.016760 0.000000 1.721330 
# 
# From -- ./inp_files/313692.got.cif
#   From: 2010.06.25/outbox.cif.g09.slc.cpg/sg12_157_cif.got.tgz:313692.got - 2010.06.28 00:19:55.
