data_PCOD8091270
_publ_section_title
;
Structure prediction by ZEFSAII (Michael W. Deem and Ramdas Pophale) SiO2 
 PCOD8091270
Probable space group: C 2/M
;
_chemical_formula_sum "Si O2"
_cell_formula_units_Z 64
_cell_length_a 29.744310
_cell_length_b 8.840287
_cell_length_c 22.559590
_cell_angle_alpha 90.000000
_cell_angle_beta 30.144700
_cell_angle_gamma 90.000000
_cell_volume 2978.966859
_symmetry_space_group_name_H-M "C 2/M"
_symmetry_group_IT_number 12
_symmetry_cell_setting 'monoclinic'
loop_
_space_group_symop_operation_xyz
x,y,z
-x,y,-z
-x,-y,-z
x,-y,z
1/2+x,1/2+y,z
1/2-x,1/2+y,-z
1/2-x,1/2-y,-z
1/2+x,1/2-y,z
loop_
_atom_site_type_symbol
_atom_site_label
_atom_site_fract_x
_atom_site_fract_y
_atom_site_fract_z
Si Si1 0.758746 0.325051 0.669048
Si Si2 0.864403 0.677123 0.102334
Si Si3 0.018553 0.678209 0.844026
Si Si4 0.594606 0.329206 0.125375
Si Si5 0.414961 0.676988 0.730678
Si Si6 0.748535 0.171760 0.138375
Si Si7 0.449217 0.174518 0.498000
Si Si8 0.780073 0.320286 0.403538
O O1 0.745211 0.500000 0.670182
O O2 0.666457 0.261564 0.802751
O O3 0.841592 0.299148 0.620673
O O4 0.780030 0.240720 0.582473
O O5 0.865911 0.500000 0.114848
O O6 0.791863 0.713313 0.135026
O O7 0.961961 0.734070 0.966768
O O8 0.015423 0.500000 0.847896
O O9 0.119967 0.736377 0.727453
O O10 0.972657 0.730514 0.836110
O O11 0.557511 0.500000 0.166909
O O12 0.596348 0.264950 0.189597
O O13 0.695404 0.322061 0.986200
O O14 0.393937 0.500000 0.748977
O O15 0.350829 0.773167 0.761178
O O16 0.514412 0.718473 0.595957
O O17 0.746096 0.000000 0.167079
O O18 0.500000 0.225054 0.500000
O O19 0.470600 0.000000 0.459550
O O20 0.772457 0.500000 0.417110
O O21 0.750000 0.250000 0.500000
#
# Coordination Sequence:
#
# PCOD8091270 Si02
#       8
#     8   8   8   8   8   8   8   8
#     4  11  24  42  65  95 127 164 210 256 314 380
#     4  10  20  38  64  92 122 157 201 256 311 366
#     4   9  21  40  63  90 121 160 204 251 309 371
#     4   9  20  35  54  84 119 155 199 251 305 366
#     4  11  22  34  53  83 116 153 202 256 308 364
#     4  10  19  34  55  82 120 163 201 244 304 368
#     4  10  23  42  61  83 116 159 205 252 306 369
#     4  11  25  45  67  93 127 167 211 260 313 370
#
# _framework density 21.483958000000001
#
# number of rings (size 3 to 8) (size 9 to 14) (size 15 to 20)
#    0.000    1.875    0.000    3.000    1.750    5.750 
#    0.000    2.500    0.000    0.000    0.000    0.000 
#    0.000    0.000    0.000    0.000    0.000    0.000 
#
# Total GULP energy -396782.635365 kJ/mol
# GULP energy per Si atom -12399.457355 kJ/mol
# Density = 2.143506 g / cm^3
# Si number density = 21.483958 Si / 1000 Ang^3
#
#
#
# Elastic Constant Matrix: (Units=GPa)
#
#
# Indices 1 2 3 4 5 6 
#
# 1 81.5111 27.4429 45.0335 0.0045 11.4142 -0.0002
# 2 27.4429 56.8476 45.4260 0.0103 5.2115 -0.0054
# 3 45.0335 45.4260 113.7029 0.0025 8.8113 -0.0016
# 4 0.0045 0.0103 0.0025 35.3071 0.0017 4.8343
# 5 11.4142 5.2115 8.8113 0.0017 37.2187 -0.0011
# 6 -0.0002 -0.0054 -0.0016 4.8343 -0.0011 33.5651
#
#
#
# Elastic Compliance Matrix: (Units=1/GPa)
#
#
# Indices 1 2 3 4 5 6 
#
# 1 0.016717 -0.003932 -0.004783 0.000000 -0.003444 -0.000001
# 2 -0.003932 0.026818 -0.009127 -0.000007 -0.000389 0.000005
# 3 -0.004783 -0.009127 0.014387 0.000002 -0.000661 -0.000001
# 4 0.000000 -0.000007 0.000002 0.028893 -0.000001 -0.004161
# 5 -0.003444 -0.000389 -0.000661 -0.000001 0.028135 0.000001
# 6 -0.000001 0.000005 -0.000001 -0.004161 0.000001 0.030392
#
#
# Mechanical properties :
#
#
# Convention : Reuss Voigt Hill
#
# Bulk Modulus (GPa) = 44.96897 54.20736 49.58817
# Shear Modulus (GPa) = 26.53398 30.16214 28.34806
#
# Velocity S-wave (km/s) = 3.51815 3.75098 3.63643
# Velocity P-wave (km/s) = 6.12210 6.63673 6.38460
#
# Compressibility (1/GPa) = 0.02223755
#
# Stress axis : x y z
#
# Youngs Moduli (GPa) = 59.81938 37.28895 69.50873
#
# Poissons Ratio (x) = 0.14663 0.33247
# Poissons Ratio (y) = 0.23522 0.63437
# Poissons Ratio (z) = 0.28612 0.34032
#
# Static dielectric constant tensor:
#      x y z
#    x 3.771330 -0.000010 0.044930 
#    y -0.000010 3.752270 0.000030 
#    z 0.044930 0.000030 4.176920 
# 
# 
# High freq. dielectric constant tensor:
#      x y z
#    x 1.839120 0.000000 0.008070 
#    y 0.000000 1.837390 0.000000 
#    z 0.008070 0.000000 1.853660 
# 
# From -- ./inp_files/353400.got.cif
#   From: 2010.06.25/outbox.cif.g09.slc.cpg/sg12_177_cif.got.tgz:353400.got - 2010.06.28 00:19:55.
