data_PCOD8091625
_publ_section_title
;
Structure prediction by ZEFSAII (Michael W. Deem and Ramdas Pophale) SiO2 
 PCOD8091625
Probable space group: C 2/M
;
_chemical_formula_sum "Si O2"
_cell_formula_units_Z 40
_cell_length_a 17.091356
_cell_length_b 23.556249
_cell_length_c 5.051913
_cell_angle_alpha 90.000000
_cell_angle_beta 104.697015
_cell_angle_gamma 90.000000
_cell_volume 1967.393191
_symmetry_space_group_name_H-M "C 2/M"
_symmetry_group_IT_number 12
_symmetry_cell_setting 'monoclinic'
loop_
_space_group_symop_operation_xyz
x,y,z
-x,y,-z
-x,-y,-z
x,-y,z
1/2+x,1/2+y,z
1/2-x,1/2+y,-z
1/2-x,1/2-y,-z
1/2+x,1/2-y,z
loop_
_atom_site_type_symbol
_atom_site_label
_atom_site_fract_x
_atom_site_fract_y
_atom_site_fract_z
Si Si1 0.053434 0.652819 0.802079
Si Si2 0.593810 0.729237 0.047079
Si Si3 0.189799 0.435196 0.879230
Si Si4 0.596174 0.666560 0.552487
Si Si5 0.705086 0.435237 0.530941
O O1 0.112890 0.603924 0.755400
O O2 0.000000 0.671917 0.500000
O O3 0.104971 0.705803 0.962900
O O4 0.000000 0.629210 0.000000
O O5 0.629806 0.712151 0.363687
O O6 0.500000 0.715745 0.000000
O O7 0.633519 0.688240 0.861114
O O8 0.160029 0.500000 0.828074
O O9 0.259755 0.422573 0.727803
O O10 0.224408 0.422105 0.198568
O O11 0.500000 0.664128 0.500000
O O12 0.627422 0.603941 0.511685
O O13 0.674942 0.500000 0.533061
#
# Coordination Sequence:
#
# PCOD8091625 Si02
#       5
#     8   8   8   8   8
#     4  11  21  36  59  83 108 141 184 225 265 323
#     4   9  18  33  52  79 110 139 172 221 277 314
#     4  10  22  39  56  78 112 147 178 222 278 321
#     4  10  19  34  57  81 107 142 183 221 262 320
#     4  10  21  38  56  77 111 148 179 221 276 321
#
# _framework density 20.331469999999999
#
# number of rings (size 3 to 8) (size 9 to 14) (size 15 to 20)
#    0.000    2.000    0.000    5.400    0.000    1.200 
#    0.000    6.000    0.000    7.200    0.000    0.000 
#    0.000    0.000    0.000    0.000    0.000    0.000 
#
# Total GULP energy -247929.219051 kJ/mol
# GULP energy per Si atom -12396.460953 kJ/mol
# Density = 2.028519 g / cm^3
# Si number density = 20.331470 Si / 1000 Ang^3
#
#
#
# Elastic Constant Matrix: (Units=GPa)
#
#
# Indices 1 2 3 4 5 6 
#
# 1 49.3916 55.8279 21.5525 0.0000 -13.0724 0.0000
# 2 55.8279 130.5094 37.4825 0.0000 -12.6085 0.0000
# 3 21.5525 37.4825 92.7274 0.0000 -19.7381 0.0000
# 4 0.0000 0.0000 0.0000 29.8588 0.0000 -7.2032
# 5 -13.0724 -12.6085 -19.7381 0.0000 22.1848 0.0000
# 6 0.0000 0.0000 0.0000 -7.2032 0.0000 30.9338
#
#
#
# Elastic Compliance Matrix: (Units=1/GPa)
#
#
# Indices 1 2 3 4 5 6 
#
# 1 0.044061 -0.017341 0.000243 0.000000 0.016324 0.000000
# 2 -0.017341 0.015584 -0.003156 0.000000 -0.004169 0.000000
# 3 0.000243 -0.003156 0.014375 0.000000 0.011139 0.000000
# 4 0.000000 0.000000 0.000000 0.035484 0.000000 0.008263
# 5 0.016324 -0.004169 0.011139 0.000000 0.062236 0.000000
# 6 0.000000 0.000000 0.000000 0.008263 0.000000 0.034251
#
#
# Mechanical properties :
#
#
# Convention : Reuss Voigt Hill
#
# Bulk Modulus (GPa) = 29.84013 55.81714 42.82863
# Shear Modulus (GPa) = 19.40468 27.11315 23.25892
#
# Velocity S-wave (km/s) = 3.09271 3.65575 3.38596
# Velocity P-wave (km/s) = 5.24041 6.73294 6.03301
#
# Compressibility (1/GPa) = 0.03351192
#
# Stress axis : x y z
#
# Youngs Moduli (GPa) = 22.69562 64.16886 69.56684
#
# Poissons Ratio (x) = 1.11274 -0.01692
# Poissons Ratio (y) = 0.39356 0.21958
# Poissons Ratio (z) = -0.00552 0.20254
#
# Static dielectric constant tensor:
#      x y z
#    x 3.244980 0.000000 -0.330440 
#    y 0.000000 3.656980 0.000000 
#    z -0.330440 0.000000 4.137430 
# 
# 
# High freq. dielectric constant tensor:
#      x y z
#    x 1.757860 0.000000 -0.028650 
#    y 0.000000 1.795970 0.000000 
#    z -0.028650 0.000000 1.814390 
# 
# From -- ./inp_files/15876.got.cif
#   From: 2010.06.25/outbox.cif.g09.slc.cpg/sg12_8_cif.got.tgz:15876.got - 2010.06.28 00:19:55.
