data_PCOD8091322
_publ_section_title
;
Structure prediction by ZEFSAII (Michael W. Deem and Ramdas Pophale) SiO2 
 PCOD8091322
Probable space group: C 2/M
;
_chemical_formula_sum "Si O2"
_cell_formula_units_Z 56
_cell_length_a 15.157174
_cell_length_b 9.212923
_cell_length_c 24.410969
_cell_angle_alpha 90.000000
_cell_angle_beta 118.943850
_cell_angle_gamma 90.000000
_cell_volume 2983.016134
_symmetry_space_group_name_H-M "C 2/M"
_symmetry_group_IT_number 12
_symmetry_cell_setting 'monoclinic'
loop_
_space_group_symop_operation_xyz
x,y,z
-x,y,-z
-x,-y,-z
x,-y,z
1/2+x,1/2+y,z
1/2-x,1/2+y,-z
1/2-x,1/2-y,-z
1/2+x,1/2-y,z
loop_
_atom_site_type_symbol
_atom_site_label
_atom_site_fract_x
_atom_site_fract_y
_atom_site_fract_z
Si Si1 0.173576 0.170253 0.410929
Si Si2 0.666562 0.834623 0.941384
Si Si3 0.513887 0.669864 0.066548
Si Si4 0.901402 0.329682 0.506506
Si Si5 0.309031 0.329694 0.804947
Si Si6 0.086220 0.827598 0.269968
Si Si7 0.382826 0.165355 0.194601
O O1 0.107058 0.249226 0.437639
O O2 0.293773 0.205343 0.445276
O O3 0.130421 0.228705 0.340561
O O4 0.156496 0.000000 0.414381
O O5 0.559328 0.763561 0.918629
O O6 0.681828 0.824614 0.880823
O O7 0.668874 0.000000 0.962423
O O8 0.750000 0.750000 0.000000
O O9 0.488820 0.500000 0.065878
O O10 0.623513 0.713173 0.122082
O O11 0.500000 0.718537 0.000000
O O12 0.913579 0.500000 0.521618
O O13 0.000000 0.277519 0.500000
O O14 0.316565 0.500000 0.800103
O O15 0.346477 0.260343 0.759065
O O16 0.194179 0.283786 0.781083
O O17 0.973833 0.775005 0.225946
O O18 0.085489 0.000000 0.268937
O O19 0.420737 0.000000 0.214561
#
# Coordination Sequence:
#
# PCOD8091322 Si02
#       7
#     8   8   8   8   8   8   8
#     4   9  19  34  53  81 114 146 181 225 273 322
#     4  11  22  35  53  78 108 139 179 231 284 336
#     4  10  19  34  56  78 103 137 179 225 279 342
#     4   9  18  34  57  84 112 145 186 226 264 315
#     4   9  18  34  55  76 103 141 179 219 274 330
#     4  10  20  36  56  78 109 147 185 223 272 331
#     4  10  21  37  56  79 106 140 184 230 272 326
#
# _framework density 18.772945
#
# number of rings (size 3 to 8) (size 9 to 14) (size 15 to 20)
#    0.000    2.286    1.429    1.286    0.000    5.143 
#    0.000    4.286    0.000    0.000    0.000    0.000 
#    0.000    0.000    0.000    0.000    0.000    0.000 
#
# Total GULP energy -347027.562085 kJ/mol
# GULP energy per Si atom -12393.841503 kJ/mol
# Density = 1.873022 g / cm^3
# Si number density = 18.772945 Si / 1000 Ang^3
#
#
#
# Elastic Constant Matrix: (Units=GPa)
#
#
# Indices 1 2 3 4 5 6 
#
# 1 124.3370 13.8949 41.9872 0.0000 -15.9422 0.0000
# 2 13.8949 24.9300 21.4838 0.0000 -4.7820 0.0000
# 3 41.9872 21.4838 108.8119 0.0000 -15.9849 0.0000
# 4 0.0000 0.0000 0.0000 21.2730 0.0000 -0.7046
# 5 -15.9422 -4.7820 -15.9849 0.0000 25.1683 0.0000
# 6 0.0000 0.0000 0.0000 -0.7046 0.0000 24.2661
#
#
#
# Elastic Compliance Matrix: (Units=1/GPa)
#
#
# Indices 1 2 3 4 5 6 
#
# 1 0.009730 -0.002322 -0.002708 0.000000 0.004002 0.000000
# 2 -0.002322 0.049163 -0.008442 0.000000 0.002508 0.000000
# 3 -0.002708 -0.008442 0.012589 0.000000 0.004676 0.000000
# 4 0.000000 0.000000 0.000000 0.047053 0.000000 0.001366
# 5 0.004002 0.002508 0.004676 0.000000 0.045714 0.000000
# 6 0.000000 0.000000 0.000000 0.001366 0.000000 0.041249
#
#
# Mechanical properties :
#
#
# Convention : Reuss Voigt Hill
#
# Bulk Modulus (GPa) = 22.45308 45.86785 34.16046
# Shear Modulus (GPa) = 20.21936 26.18900 23.20418
#
# Velocity S-wave (km/s) = 3.28540 3.73907 3.51956
# Velocity P-wave (km/s) = 5.13596 6.56711 5.89513
#
# Compressibility (1/GPa) = 0.04453732
#
# Stress axis : x y z
#
# Youngs Moduli (GPa) = 102.77786 20.34065 79.43480
#
# Poissons Ratio (x) = 0.04722 0.21512
# Poissons Ratio (y) = 0.23860 0.67062
# Poissons Ratio (z) = 0.27834 0.17172
#
# Static dielectric constant tensor:
#      x y z
#    x 4.278920 0.000000 -0.123500 
#    y 0.000000 2.946770 0.000000 
#    z -0.123500 0.000000 3.792660 
# 
# 
# High freq. dielectric constant tensor:
#      x y z
#    x 1.738390 0.000000 -0.004000 
#    y 0.000000 1.706390 0.000000 
#    z -0.004000 0.000000 1.730030 
# 
# From -- ./inp_files/308921.got.cif
#   From: 2010.06.25/outbox.cif.g09.slc.cpg/sg12_155_cif.got.tgz:308921.got - 2010.06.28 00:19:55.
