data_PCOD8091286
_publ_section_title
;
Structure prediction by ZEFSAII (Michael W. Deem and Ramdas Pophale) SiO2 
 PCOD8091286
Probable space group: C 2/M
;
_chemical_formula_sum "Si O2"
_cell_formula_units_Z 64
_cell_length_a 28.692490
_cell_length_b 8.692818
_cell_length_c 15.182990
_cell_angle_alpha 90.000000
_cell_angle_beta 126.113791
_cell_angle_gamma 90.000000
_cell_volume 3059.255916
_symmetry_space_group_name_H-M "C 2/M"
_symmetry_group_IT_number 12
_symmetry_cell_setting 'monoclinic'
loop_
_space_group_symop_operation_xyz
x,y,z
-x,y,-z
-x,-y,-z
x,-y,z
1/2+x,1/2+y,z
1/2-x,1/2+y,-z
1/2-x,1/2-y,-z
1/2+x,1/2-y,z
loop_
_atom_site_type_symbol
_atom_site_label
_atom_site_fract_x
_atom_site_fract_y
_atom_site_fract_z
Si Si1 0.832461 0.681702 0.816150
Si Si2 0.927078 0.181315 0.170629
Si Si3 0.208425 0.179938 0.741396
Si Si4 0.953469 0.682978 0.021080
Si Si5 0.004677 0.680043 0.403659
Si Si6 0.367142 0.823644 0.489605
Si Si7 0.189615 0.681375 0.901572
Si Si8 0.806923 0.324344 0.598397
O O1 0.839261 0.500000 0.817152
O O2 0.775925 0.726253 0.809471
O O3 0.827169 0.753458 0.712150
O O4 0.890522 0.747878 0.923686
O O5 0.964734 0.245542 0.130232
O O6 0.862796 0.253086 0.098487
O O7 0.958352 0.225576 0.296241
O O8 0.921638 0.000000 0.157385
O O9 0.176359 0.219451 0.614964
O O10 0.179629 0.275398 0.788282
O O11 0.201655 0.000000 0.753705
O O12 0.956144 0.500000 0.032534
O O13 0.000000 0.739231 0.000000
O O14 0.993740 0.500000 0.374341
O O15 0.068120 0.734101 0.447824
O O16 0.000000 0.723783 0.500000
O O17 0.356245 0.804666 0.580976
O O18 0.359642 0.000000 0.449911
O O19 0.190770 0.500000 0.915984
O O20 0.250000 0.750000 0.000000
O O21 0.791907 0.500000 0.601143
O O22 0.750000 0.250000 0.500000
#
# Coordination Sequence:
#
# PCOD8091286 Si02
#       8
#     8   8   8   8   8   8   8   8
#     4   9  19  35  57  87 122 160 207 260 309 368
#     4  12  26  44  66  95 132 170 211 263 322 384
#     4  11  21  36  60  89 126 164 202 252 315 380
#     4  10  22  41  68  93 121 169 224 272 320 375
#     4  10  22  41  65  92 124 165 212 265 320 379
#     4  10  21  35  58  88 121 160 208 259 311 373
#     4  12  25  43  67  94 125 159 205 256 313 376
#     4  10  19  34  55  84 121 160 205 257 311 371
#
# _framework density 20.920120000000001
#
# number of rings (size 3 to 8) (size 9 to 14) (size 15 to 20)
#    0.000    1.500    1.250    4.125    1.750    3.000 
#    0.000    1.250    0.000    0.000    0.000    0.000 
#    0.000    0.000    0.000    0.000    0.000    0.000 
#
# Total GULP energy -396882.412875 kJ/mol
# GULP energy per Si atom -12402.575402 kJ/mol
# Density = 2.087251 g / cm^3
# Si number density = 20.920120 Si / 1000 Ang^3
#
#
#
# Elastic Constant Matrix: (Units=GPa)
#
#
# Indices 1 2 3 4 5 6 
#
# 1 132.0513 46.6743 34.7678 0.0000 2.9089 0.0000
# 2 46.6743 87.8456 31.0453 0.0000 -1.0740 0.0000
# 3 34.7678 31.0453 92.5786 0.0000 -1.1741 0.0000
# 4 0.0000 0.0000 0.0000 34.0996 0.0000 -1.0165
# 5 2.9089 -1.0740 -1.1741 0.0000 40.3206 0.0000
# 6 0.0000 0.0000 0.0000 -1.0165 0.0000 25.5333
#
#
#
# Elastic Compliance Matrix: (Units=1/GPa)
#
#
# Indices 1 2 3 4 5 6 
#
# 1 0.009725 -0.004405 -0.002186 0.000000 -0.000883 0.000000
# 2 -0.004405 0.014912 -0.003338 0.000000 0.000618 0.000000
# 3 -0.002186 -0.003338 0.012748 0.000000 0.000440 0.000000
# 4 0.000000 0.000000 0.000000 0.029361 0.000000 0.001169
# 5 -0.000883 0.000618 0.000440 0.000000 0.024894 0.000000
# 6 0.000000 0.000000 0.000000 0.001169 0.000000 0.039211
#
#
# Mechanical properties :
#
#
# Convention : Reuss Voigt Hill
#
# Bulk Modulus (GPa) = 57.06162 59.71670 58.38916
# Shear Modulus (GPa) = 31.93851 33.32323 32.63087
#
# Velocity S-wave (km/s) = 3.91153 3.99542 3.95369
# Velocity P-wave (km/s) = 6.90907 7.06340 6.98666
#
# Compressibility (1/GPa) = 0.01752491
#
# Stress axis : x y z
#
# Youngs Moduli (GPa) = 102.82882 67.06231 78.44592
#
# Poissons Ratio (x) = 0.29543 0.17149
# Poissons Ratio (y) = 0.45299 0.26187
# Poissons Ratio (z) = 0.22480 0.22387
#
# Static dielectric constant tensor:
#      x y z
#    x 4.088240 0.000000 -0.222630 
#    y 0.000000 3.573410 0.000000 
#    z -0.222630 0.000000 4.109440 
# 
# 
# High freq. dielectric constant tensor:
#      x y z
#    x 1.835220 0.000000 -0.007220 
#    y 0.000000 1.794560 0.000000 
#    z -0.007220 0.000000 1.828190 
# 
# From -- ./inp_files/250119.got.cif
#   From: 2010.06.25/outbox.cif.g09.slc.cpg/sg12_126_cif.got.tgz:250119.got - 2010.06.28 00:19:55.
