data_PCOD8091973
_publ_section_title
;
Structure prediction by ZEFSAII (Michael W. Deem and Ramdas Pophale) SiO2 
 PCOD8091973
Probable space group: C 2/M
;
_chemical_formula_sum "Si O2"
_cell_formula_units_Z 64
_cell_length_a 23.162553
_cell_length_b 9.085720
_cell_length_c 19.976791
_cell_angle_alpha 90.000000
_cell_angle_beta 120.800300
_cell_angle_gamma 90.000000
_cell_volume 3611.129252
_symmetry_space_group_name_H-M "C 2/M"
_symmetry_group_IT_number 12
_symmetry_cell_setting 'monoclinic'
loop_
_space_group_symop_operation_xyz
x,y,z
-x,y,-z
-x,-y,-z
x,-y,z
1/2+x,1/2+y,z
1/2-x,1/2+y,-z
1/2-x,1/2-y,-z
1/2+x,1/2-y,z
loop_
_atom_site_type_symbol
_atom_site_label
_atom_site_fract_x
_atom_site_fract_y
_atom_site_fract_z
Si Si1 0.210852 0.173021 0.785263
Si Si2 0.439845 0.331032 0.819568
Si Si3 0.414118 0.166161 0.237851
Si Si4 0.210475 0.326817 0.035622
Si Si5 0.708654 0.326380 0.279099
Si Si6 0.294556 0.169644 0.580652
Si Si7 0.941095 0.665317 0.686582
Si Si8 0.432144 0.830789 0.091830
O O1 0.134390 0.218495 0.755106
O O2 0.257966 0.219310 0.875098
O O3 0.234133 0.262083 0.734407
O O4 0.214113 0.000000 0.772808
O O5 0.457045 0.500000 0.837860
O O6 0.363992 0.294718 0.799234
O O7 0.440944 0.289212 0.742588
O O8 0.499588 0.246967 0.894087
O O9 0.489542 0.183856 0.314371
O O10 0.418592 0.202551 0.161761
O O11 0.386905 0.000000 0.232448
O O12 0.215689 0.500000 0.025847
O O13 0.250000 0.250000 0.000000
O O14 0.132624 0.274663 0.988204
O O15 0.719261 0.500000 0.296747
O O16 0.715149 0.245121 0.353565
O O17 0.250000 0.250000 0.500000
O O18 0.372833 0.182405 0.602977
O O19 0.272296 0.000000 0.572804
O O20 0.942242 0.500000 0.720065
O O21 0.444457 0.000000 0.085409
#
# Coordination Sequence:
#
# PCOD8091973 Si02
#       8
#     8   8   8   8   8   8   8   8
#     4  11  22  33  49  74 102 135 174 216 261 306
#     4   9  17  29  48  72  95 124 167 216 257 296
#     4   9  16  29  49  71  98 134 172 208 250 299
#     4  10  20  33  48  70 100 133 174 218 262 309
#     4  10  21  37  54  74 103 138 173 208 253 308
#     4  10  19  34  58  86 112 136 165 203 247 297
#     4   8  16  30  49  74 104 135 165 200 245 299
#     4   9  17  30  48  69  96 131 169 212 263 312
#
# _framework density 17.722988000000001
#
# number of rings (size 3 to 8) (size 9 to 14) (size 15 to 20)
#    0.000    2.500    1.250    2.250    0.000    5.000 
#    0.000    0.625    0.000    4.500    0.000    5.250 
#    0.000    0.000    0.000    0.000    0.000    0.000 
#
# Total GULP energy -396581.399079 kJ/mol
# GULP energy per Si atom -12393.168721 kJ/mol
# Density = 1.768265 g / cm^3
# Si number density = 17.722988 Si / 1000 Ang^3
#
#
#
# Elastic Constant Matrix: (Units=GPa)
#
#
# Indices 1 2 3 4 5 6 
#
# 1 88.2805 44.5454 46.3640 0.0000 17.1861 0.0000
# 2 44.5454 75.2815 37.4949 0.0000 4.5898 0.0000
# 3 46.3640 37.4949 85.9764 0.0000 18.7223 0.0000
# 4 0.0000 0.0000 0.0000 24.9985 0.0000 5.3922
# 5 17.1861 4.5898 18.7223 0.0000 25.9333 0.0000
# 6 0.0000 0.0000 0.0000 5.3922 0.0000 29.6049
#
#
#
# Elastic Compliance Matrix: (Units=1/GPa)
#
#
# Indices 1 2 3 4 5 6 
#
# 1 0.020062 -0.008763 -0.005268 0.000000 -0.007941 0.000000
# 2 -0.008763 0.020967 -0.005784 0.000000 0.006272 0.000000
# 3 -0.005268 -0.005784 0.018998 0.000000 -0.009201 0.000000
# 4 0.000000 0.000000 0.000000 0.041638 0.000000 -0.007584
# 5 -0.007941 0.006272 -0.009201 0.000000 0.049355 0.000000
# 6 0.000000 0.000000 0.000000 -0.007584 0.000000 0.035159
#
#
# Mechanical properties :
#
#
# Convention : Reuss Voigt Hill
#
# Bulk Modulus (GPa) = 49.02702 56.26078 52.64390
# Shear Modulus (GPa) = 21.49529 24.18294 22.83912
#
# Velocity S-wave (km/s) = 3.48638 3.69792 3.59370
# Velocity P-wave (km/s) = 6.62793 7.07433 6.85477
#
# Compressibility (1/GPa) = 0.02039692
#
# Stress axis : x y z
#
# Youngs Moduli (GPa) = 49.84602 47.69347 52.63750
#
# Poissons Ratio (x) = 0.41794 0.27728
# Poissons Ratio (y) = 0.43681 0.30446
# Poissons Ratio (z) = 0.26257 0.27587
#
# Static dielectric constant tensor:
#      x y z
#    x 3.415500 0.000000 0.438920 
#    y 0.000000 3.324820 0.000000 
#    z 0.438920 0.000000 3.194330 
# 
# 
# High freq. dielectric constant tensor:
#      x y z
#    x 1.682100 0.000000 0.034100 
#    y 0.000000 1.692940 0.000000 
#    z 0.034100 0.000000 1.650950 
# 
# From -- ./inp_files/323723.got.cif
#   From: 2010.06.25/outbox.cif.g09.slc.cpg/sg12_162_cif.got.tgz:323723.got - 2010.06.28 00:19:55.
