data_PCOD8091993
_publ_section_title
;
Structure prediction by ZEFSAII (Michael W. Deem and Ramdas Pophale) SiO2 
 PCOD8091993
Probable space group: C 2/M
;
_chemical_formula_sum "Si O2"
_cell_formula_units_Z 56
_cell_length_a 19.307688
_cell_length_b 8.499800
_cell_length_c 19.294451
_cell_angle_alpha 90.000000
_cell_angle_beta 120.833952
_cell_angle_gamma 90.000000
_cell_volume 2718.884615
_symmetry_space_group_name_H-M "C 2/M"
_symmetry_group_IT_number 12
_symmetry_cell_setting 'monoclinic'
loop_
_space_group_symop_operation_xyz
x,y,z
-x,y,-z
-x,-y,-z
x,-y,z
1/2+x,1/2+y,z
1/2-x,1/2+y,-z
1/2-x,1/2-y,-z
1/2+x,1/2-y,z
loop_
_atom_site_type_symbol
_atom_site_label
_atom_site_fract_x
_atom_site_fract_y
_atom_site_fract_z
Si Si1 0.218553 0.687412 0.410770
Si Si2 0.205729 0.176613 0.688228
Si Si3 0.918444 0.184892 0.998646
Si Si4 0.401271 0.812408 0.141542
Si Si5 0.040403 0.681127 0.312255
Si Si6 0.752421 0.313865 0.859703
Si Si7 0.018373 0.177496 0.584790
O O1 0.221698 0.500000 0.418057
O O2 0.250000 0.750000 0.500000
O O3 0.271373 0.756153 0.373644
O O4 0.129346 0.750809 0.345189
O O5 0.242261 0.256314 0.776338
O O6 0.111346 0.179812 0.649651
O O7 0.239997 0.000000 0.702213
O O8 0.842945 0.276971 0.928257
O O9 0.903120 0.000000 0.983645
O O10 0.924898 0.232619 0.081705
O O11 0.000000 0.235001 0.000000
O O12 0.469487 0.743589 0.229139
O O13 0.312170 0.764300 0.121438
O O14 0.403313 0.000000 0.135079
O O15 0.040820 0.500000 0.294232
O O16 0.025060 0.706947 0.385165
O O17 0.736781 0.500000 0.853014
O O18 0.000000 0.246150 0.500000
O O19 0.983328 0.000000 0.573368
#
# Coordination Sequence:
#
# PCOD8091993 Si02
#       7
#     8   8   8   8   8   8   8
#     4  10  21  39  58  83 118 158 203 249 301 356
#     4   9  19  35  58  86 117 154 198 246 292 348
#     4  11  26  45  65  93 127 158 195 249 303 361
#     4  11  23  41  65  93 125 162 203 249 302 363
#     4  10  22  37  58  87 121 156 195 248 300 353
#     4  11  22  40  67  93 122 163 205 249 301 362
#     4  10  19  34  58  86 116 154 200 245 290 346
#
# _framework density 20.596682000000001
#
# number of rings (size 3 to 8) (size 9 to 14) (size 15 to 20)
#    0.000    1.714    1.429    2.571    2.000    3.714 
#    0.000    2.143    0.000    0.000    0.000    0.000 
#    0.000    0.000    0.000    0.000    0.000    0.000 
#
# Total GULP energy -347096.937334 kJ/mol
# GULP energy per Si atom -12396.319190 kJ/mol
# Density = 2.054980 g / cm^3
# Si number density = 20.596682 Si / 1000 Ang^3
#
#
#
# Elastic Constant Matrix: (Units=GPa)
#
#
# Indices 1 2 3 4 5 6 
#
# 1 106.3373 21.6997 29.1043 0.0000 -14.2768 0.0000
# 2 21.6997 26.2532 15.5851 0.0000 -0.2002 0.0000
# 3 29.1043 15.5851 116.4490 0.0000 -12.5487 0.0000
# 4 0.0000 0.0000 0.0000 28.3909 0.0000 -3.2178
# 5 -14.2768 -0.2002 -12.5487 0.0000 44.2365 0.0000
# 6 0.0000 0.0000 0.0000 -3.2178 0.0000 21.8145
#
#
#
# Elastic Compliance Matrix: (Units=1/GPa)
#
#
# Indices 1 2 3 4 5 6 
#
# 1 0.012128 -0.009147 -0.001433 0.000000 0.003466 0.000000
# 2 -0.009147 0.048365 -0.004623 0.000000 -0.004045 0.000000
# 3 -0.001433 -0.004623 0.009812 0.000000 0.002300 0.000000
# 4 0.000000 0.000000 0.000000 0.035821 0.000000 0.005284
# 5 0.003466 -0.004045 0.002300 0.000000 0.024359 0.000000
# 6 0.000000 0.000000 0.000000 0.005284 0.000000 0.046621
#
#
# Mechanical properties :
#
#
# Convention : Reuss Voigt Hill
#
# Bulk Modulus (GPa) = 25.06366 42.42421 33.74393
# Shear Modulus (GPa) = 22.64365 31.06507 26.85436
#
# Velocity S-wave (km/s) = 3.31929 3.88784 3.61476
# Velocity P-wave (km/s) = 5.18512 6.38718 5.81728
#
# Compressibility (1/GPa) = 0.03989841
#
# Stress axis : x y z
#
# Youngs Moduli (GPa) = 82.45094 20.67622 101.91349
#
# Poissons Ratio (x) = 0.18913 0.14609
# Poissons Ratio (y) = 0.75421 0.47111
# Poissons Ratio (z) = 0.11819 0.09558
#
# Static dielectric constant tensor:
#      x y z
#    x 3.939150 0.000000 -0.018070 
#    y 0.000000 3.526790 0.000000 
#    z -0.018070 0.000000 4.030480 
# 
# 
# High freq. dielectric constant tensor:
#      x y z
#    x 1.816440 0.000000 -0.000220 
#    y 0.000000 1.778000 0.000000 
#    z -0.000220 0.000000 1.825840 
# 
# From -- ./inp_files/275654.got.cif
#   From: 2010.06.25/outbox.cif.g09.slc.cpg/sg12_138_cif.got.tgz:275654.got - 2010.06.28 00:19:55.
