data_PCOD8091588
_publ_section_title
;
Structure prediction by ZEFSAII (Michael W. Deem and Ramdas Pophale) SiO2 
 PCOD8091588
Probable space group: C 2/M
;
_chemical_formula_sum "Si O2"
_cell_formula_units_Z 56
_cell_length_a 19.689693
_cell_length_b 18.692929
_cell_length_c 8.809641
_cell_angle_alpha 90.000000
_cell_angle_beta 66.602353
_cell_angle_gamma 90.000000
_cell_volume 2975.834756
_symmetry_space_group_name_H-M "C 2/M"
_symmetry_group_IT_number 12
_symmetry_cell_setting 'monoclinic'
loop_
_space_group_symop_operation_xyz
x,y,z
-x,y,-z
-x,-y,-z
x,-y,z
1/2+x,1/2+y,z
1/2-x,1/2+y,-z
1/2-x,1/2-y,-z
1/2+x,1/2-y,z
loop_
_atom_site_type_symbol
_atom_site_label
_atom_site_fract_x
_atom_site_fract_y
_atom_site_fract_z
Si Si1 0.967873 0.420288 0.364423
Si Si2 0.694395 0.179785 0.880425
Si Si3 0.297223 0.078450 0.575541
Si Si4 0.922559 0.798867 0.494585
Si Si5 0.816117 0.298268 0.772345
Si Si6 0.051803 0.707898 0.818373
Si Si7 0.799754 0.084051 0.623975
O O1 0.997660 0.500000 0.292160
O O2 0.880037 0.420859 0.440879
O O3 0.990865 0.359505 0.222742
O O4 0.000000 0.398705 0.500000
O O5 0.745650 0.248474 0.818840
O O6 0.630306 0.181888 0.812869
O O7 0.746558 0.110101 0.808952
O O8 0.659124 0.182443 0.079184
O O9 0.288185 0.128294 0.727007
O O10 0.242808 0.103545 0.491761
O O11 0.274440 0.000000 0.651700
O O12 0.885706 0.734008 0.620894
O O13 0.933947 0.772625 0.311618
O O14 0.875605 0.871575 0.548580
O O15 0.000000 0.818579 0.500000
O O16 0.000000 0.736927 0.000000
O O17 0.816818 0.000000 0.628850
#
# Coordination Sequence:
#
# PCOD8091588 Si02
#       7
#     8   8   8   8   8   8   8
#     4  10  21  36  52  76 112 150 184 218 266 329
#     4  10  21  35  55  85 113 142 184 236 275 328
#     4  10  19  34  57  79 108 148 186 220 266 332
#     4  11  22  38  59  83 114 149 187 231 284 340
#     4  10  20  36  57  81 114 148 183 225 283 333
#     4  12  23  34  57  84 115 148 190 232 276 326
#     4  10  21  39  62  84 109 146 190 236 282 331
#
# _framework density 18.818249000000002
#
# number of rings (size 3 to 8) (size 9 to 14) (size 15 to 20)
#    0.000    1.571    2.857    2.143    2.000    3.429 
#    0.000    0.000    0.000    0.429    0.000    0.000 
#    0.000    0.000    0.000    0.000    0.000    0.000 
#
# Total GULP energy -347169.304914 kJ/mol
# GULP energy per Si atom -12398.903747 kJ/mol
# Density = 1.877542 g / cm^3
# Si number density = 18.818249 Si / 1000 Ang^3
#
#
#
# Elastic Constant Matrix: (Units=GPa)
#
#
# Indices 1 2 3 4 5 6 
#
# 1 118.2345 42.1515 43.7748 0.0000 6.7289 0.0000
# 2 42.1515 99.6881 51.9553 0.0000 3.6090 0.0000
# 3 43.7748 51.9553 113.8310 0.0000 0.7244 0.0000
# 4 0.0000 0.0000 0.0000 17.0661 0.0000 13.6213
# 5 6.7289 3.6090 0.7244 0.0000 18.7262 0.0000
# 6 0.0000 0.0000 0.0000 13.6213 0.0000 27.0722
#
#
#
# Elastic Compliance Matrix: (Units=1/GPa)
#
#
# Indices 1 2 3 4 5 6 
#
# 1 0.010717 -0.002991 -0.002736 0.000000 -0.003169 0.000000
# 2 -0.002991 0.014097 -0.005275 0.000000 -0.001438 0.000000
# 3 -0.002736 -0.005275 0.012235 0.000000 0.001527 0.000000
# 4 0.000000 0.000000 0.000000 0.097919 0.000000 -0.049268
# 5 -0.003169 -0.001438 0.001527 0.000000 0.054758 0.000000
# 6 0.000000 0.000000 0.000000 -0.049268 0.000000 0.061727
#
#
# Mechanical properties :
#
#
# Convention : Reuss Voigt Hill
#
# Bulk Modulus (GPa) = 66.46480 67.50185 66.98333
# Shear Modulus (GPa) = 17.95501 25.49770 21.72636
#
# Velocity S-wave (km/s) = 3.09225 3.68495 3.40153
# Velocity P-wave (km/s) = 6.93868 7.35211 7.14838
#
# Compressibility (1/GPa) = 0.01504556
#
# Stress axis : x y z
#
# Youngs Moduli (GPa) = 93.30590 70.93593 81.73210
#
# Poissons Ratio (x) = 0.21216 0.22363
# Poissons Ratio (y) = 0.27907 0.43113
# Poissons Ratio (z) = 0.25530 0.37419
#
# Static dielectric constant tensor:
#      x y z
#    x 3.465490 0.000000 0.089840 
#    y 0.000000 3.564570 0.000000 
#    z 0.089840 0.000000 3.473110 
# 
# 
# High freq. dielectric constant tensor:
#      x y z
#    x 1.740400 0.000000 0.008560 
#    y 0.000000 1.727910 0.000000 
#    z 0.008560 0.000000 1.720330 
# 
# From -- ./inp_files/87830.got.cif
#   From: 2010.06.25/outbox.cif.g09.slc.cpg/sg12_44_cif.got.tgz:87830.got - 2010.06.28 00:19:55.
