data_PCOD8091148
_publ_section_title
;
Structure prediction by ZEFSAII (Michael W. Deem and Ramdas Pophale) SiO2 
 PCOD8091148
Probable space group: C 2/M
;
_chemical_formula_sum "Si O2"
_cell_formula_units_Z 44
_cell_length_a 22.320667
_cell_length_b 15.166339
_cell_length_c 7.950176
_cell_angle_alpha 90.000000
_cell_angle_beta 121.727222
_cell_angle_gamma 90.000000
_cell_volume 2289.129263
_symmetry_space_group_name_H-M "C 2/M"
_symmetry_group_IT_number 12
_symmetry_cell_setting 'monoclinic'
loop_
_space_group_symop_operation_xyz
x,y,z
-x,y,-z
-x,-y,-z
x,-y,z
1/2+x,1/2+y,z
1/2-x,1/2+y,-z
1/2-x,1/2-y,-z
1/2+x,1/2-y,z
loop_
_atom_site_type_symbol
_atom_site_label
_atom_site_fract_x
_atom_site_fract_y
_atom_site_fract_z
Si Si1 0.631316 0.735029 0.097724
Si Si2 0.778304 0.289475 0.212773
Si Si3 0.367180 0.903957 0.131751
Si Si4 0.000000 0.354784 0.500000
Si Si5 0.090592 0.774945 0.415693
Si Si6 0.479713 0.597516 0.162625
O O1 0.710457 0.694311 0.231831
O O2 0.598722 0.749991 0.231999
O O3 0.636532 0.830340 0.018012
O O4 0.584421 0.667829 0.915085
O O5 0.817878 0.379601 0.219932
O O6 0.833223 0.221477 0.381929
O O7 0.750000 0.250000 0.000000
O O8 0.446534 0.914382 0.315835
O O9 0.343915 0.000000 0.026891
O O10 0.958014 0.297408 0.572509
O O11 0.048489 0.867901 0.366901
O O12 0.458674 0.500000 0.200730
O O13 0.500000 0.588445 0.000000
#
# Coordination Sequence:
#
# PCOD8091148 Si02
#       6
#     8   8   8   4   8   8
#     4  10  19  36  58  84 113 150 190 237 286 337
#     4   9  20  36  56  77 111 152 188 231 286 335
#     4  10  20  35  55  80 112 147 187 231 280 337
#     4  10  19  34  55  78 114 148 181 228 285 334
#     4  10  19  35  59  80 114 151 191 233 282 343
#     4   9  18  33  57  85 112 143 183 234 288 341
#
# _framework density 19.221281000000001
#
# number of rings (size 3 to 8) (size 9 to 14) (size 15 to 20)
#    0.000    2.364    1.818    0.818    0.000    0.727 
#    0.000    9.545    0.000    4.364    0.000    0.000 
#    0.000    0.000    0.000    0.000    0.000    0.000 
#
# Total GULP energy -272585.973334 kJ/mol
# GULP energy per Si atom -12390.271515 kJ/mol
# Density = 1.917753 g / cm^3
# Si number density = 19.221281 Si / 1000 Ang^3
#
#
#
# Elastic Constant Matrix: (Units=GPa)
#
#
# Indices 1 2 3 4 5 6 
#
# 1 108.2471 41.4816 31.5587 0.0000 13.0928 0.0000
# 2 41.4816 139.9535 44.2068 0.0000 8.9477 0.0000
# 3 31.5587 44.2068 99.0375 0.0000 22.5215 0.0000
# 4 0.0000 0.0000 0.0000 15.3147 0.0000 0.1337
# 5 13.0928 8.9477 22.5215 0.0000 36.6140 0.0000
# 6 0.0000 0.0000 0.0000 0.1337 0.0000 12.4364
#
#
#
# Elastic Compliance Matrix: (Units=1/GPa)
#
#
# Indices 1 2 3 4 5 6 
#
# 1 0.011021 -0.002531 -0.001891 0.000000 -0.002159 0.000000
# 2 -0.002531 0.008902 -0.003346 0.000000 0.000788 0.000000
# 3 -0.001891 -0.003346 0.013781 0.000000 -0.006983 0.000000
# 4 0.000000 0.000000 0.000000 0.065303 0.000000 -0.000702
# 5 -0.002159 0.000788 -0.006983 0.000000 0.032187 0.000000
# 6 0.000000 0.000000 0.000000 -0.000702 0.000000 0.080417
#
#
# Mechanical properties :
#
#
# Convention : Reuss Voigt Hill
#
# Bulk Modulus (GPa) = 55.04349 64.63692 59.84020
# Shear Modulus (GPa) = 21.44060 28.20576 24.82318
#
# Velocity S-wave (km/s) = 3.34348 3.83485 3.59756
# Velocity P-wave (km/s) = 6.60333 7.30130 6.96107
#
# Compressibility (1/GPa) = 0.01816745
#
# Stress axis : x y z
#
# Youngs Moduli (GPa) = 90.73986 112.33426 72.56196
#
# Poissons Ratio (x) = 0.28433 0.13721
# Poissons Ratio (y) = 0.22967 0.24280
# Poissons Ratio (z) = 0.17158 0.37589
#
# Static dielectric constant tensor:
#      x y z
#    x 4.205930 0.000000 0.437720 
#    y 0.000000 3.432400 0.000000 
#    z 0.437720 0.000000 3.674630 
# 
# 
# High freq. dielectric constant tensor:
#      x y z
#    x 1.756800 0.000000 0.014090 
#    y 0.000000 1.722990 0.000000 
#    z 0.014090 0.000000 1.745090 
# 
# From -- ./inp_files/85229.got.cif
#   From: 2010.06.25/outbox.cif.g09.slc.cpg/sg12_43_cif.got.tgz:85229.got - 2010.06.28 00:19:55.
