data_PCOD8091997
_publ_section_title
;
Structure prediction by ZEFSAII (Michael W. Deem and Ramdas Pophale) SiO2 
 PCOD8091997
Probable space group: C 2/M
;
_chemical_formula_sum "Si O2"
_cell_formula_units_Z 64
_cell_length_a 15.479042
_cell_length_b 8.921331
_cell_length_c 23.684961
_cell_angle_alpha 90.000000
_cell_angle_beta 89.937176
_cell_angle_gamma 90.000000
_cell_volume 3270.740920
_symmetry_space_group_name_H-M "C 2/M"
_symmetry_group_IT_number 12
_symmetry_cell_setting 'monoclinic'
loop_
_space_group_symop_operation_xyz
x,y,z
-x,y,-z
-x,-y,-z
x,-y,z
1/2+x,1/2+y,z
1/2-x,1/2+y,-z
1/2-x,1/2-y,-z
1/2+x,1/2-y,z
loop_
_atom_site_type_symbol
_atom_site_label
_atom_site_fract_x
_atom_site_fract_y
_atom_site_fract_z
Si Si1 0.154512 0.178476 0.863916
Si Si2 0.753734 0.176503 0.560510
Si Si3 0.413016 0.172672 0.370724
Si Si4 0.492065 0.176049 0.065602
Si Si5 0.338896 0.825612 0.736633
Si Si6 0.651578 0.173129 0.135783
Si Si7 0.916286 0.823686 0.633526
Si Si8 0.659940 0.826975 0.748758
O O1 0.252294 0.239363 0.875510
O O2 0.123621 0.237228 0.802716
O O3 0.092977 0.240673 0.912447
O O4 0.151893 0.000000 0.862715
O O5 0.750000 0.250000 0.500000
O O6 0.672668 0.230579 0.597766
O O7 0.840950 0.228934 0.591486
O O8 0.753083 0.000000 0.552892
O O9 0.492261 0.273641 0.392929
O O10 0.404894 0.193396 0.303330
O O11 0.430975 0.000000 0.385900
O O12 0.577417 0.244587 0.096174
O O13 0.481806 0.000000 0.078095
O O14 0.500000 0.211350 0.000000
O O15 0.376066 0.800431 0.799449
O O16 0.408386 0.763097 0.692828
O O17 0.251554 0.734030 0.727971
O O18 0.319957 0.000000 0.725890
O O19 0.656494 0.000000 0.120347
O O20 0.913383 0.000000 0.644379
O O21 0.669809 0.000000 0.765669
#
# Coordination Sequence:
#
# PCOD8091997 Si02
#       8
#     8   8   8   8   8   8   8   8
#     4  10  21  37  56  83 116 151 191 240 297 352
#     4  10  23  44  64  85 119 159 199 246 294 343
#     4  10  22  40  60  86 120 157 194 238 296 353
#     4  10  21  38  59  82 111 154 202 241 288 353
#     4  10  19  34  58  86 119 156 194 236 297 356
#     4   8  18  36  55  79 114 151 186 234 291 345
#     4  11  23  39  59  89 123 154 197 245 290 346
#     4  10  19  36  60  85 120 156 192 241 295 350
#
# _framework density 19.567430999999999
#
# number of rings (size 3 to 8) (size 9 to 14) (size 15 to 20)
#    0.000    2.125    1.250    2.250    1.750    3.750 
#    0.000    5.625    0.000    0.000    0.000    0.000 
#    0.000    0.000    0.000    0.000    0.000    0.000 
#
# Total GULP energy -396833.294956 kJ/mol
# GULP energy per Si atom -12401.040467 kJ/mol
# Density = 1.952289 g / cm^3
# Si number density = 19.567431 Si / 1000 Ang^3
#
#
#
# Elastic Constant Matrix: (Units=GPa)
#
#
# Indices 1 2 3 4 5 6 
#
# 1 134.1176 43.0411 68.2801 0.0000 9.2771 0.0000
# 2 43.0411 62.0533 46.7029 0.0000 1.2325 0.0000
# 3 68.2801 46.7029 117.0086 0.0000 2.4727 0.0000
# 4 0.0000 0.0000 0.0000 31.2702 0.0000 -6.2290
# 5 9.2771 1.2325 2.4727 0.0000 24.6840 0.0000
# 6 0.0000 0.0000 0.0000 -6.2290 0.0000 32.9898
#
#
#
# Elastic Compliance Matrix: (Units=1/GPa)
#
#
# Indices 1 2 3 4 5 6 
#
# 1 0.011615 -0.004203 -0.005023 0.000000 -0.003652 0.000000
# 2 -0.004203 0.024557 -0.007372 0.000000 0.001092 0.000000
# 3 -0.005023 -0.007372 0.014403 0.000000 0.000813 0.000000
# 4 0.000000 0.000000 0.000000 0.033229 0.000000 0.006274
# 5 -0.003652 0.001092 0.000813 0.000000 0.041749 0.000000
# 6 0.000000 0.000000 0.000000 0.006274 0.000000 0.031497
#
#
# Mechanical properties :
#
#
# Convention : Reuss Voigt Hill
#
# Bulk Modulus (GPa) = 57.54271 69.91419 63.72845
# Shear Modulus (GPa) = 25.50504 28.13249 26.81876
#
# Velocity S-wave (km/s) = 3.61424 3.79584 3.70615
# Velocity P-wave (km/s) = 6.84750 7.41746 7.13817
#
# Compressibility (1/GPa) = 0.01737839
#
# Stress axis : x y z
#
# Youngs Moduli (GPa) = 86.09606 40.72095 69.43078
#
# Poissons Ratio (x) = 0.17116 0.34875
# Poissons Ratio (y) = 0.36189 0.51185
# Poissons Ratio (z) = 0.43246 0.30020
#
# Static dielectric constant tensor:
#      x y z
#    x 3.737880 0.000000 0.049370 
#    y 0.000000 3.413290 0.000000 
#    z 0.049370 0.000000 3.515410 
# 
# 
# High freq. dielectric constant tensor:
#      x y z
#    x 1.769930 0.000000 -0.000730 
#    y 0.000000 1.750000 0.000000 
#    z -0.000730 0.000000 1.757390 
# 
# From -- ./inp_files/338774.got.cif
#   From: 2010.06.25/outbox.cif.g09.slc.cpg/sg12_170_cif.got.tgz:338774.got - 2010.06.28 00:19:55.
