data_PCOD8091253
_publ_section_title
;
Structure prediction by ZEFSAII (Michael W. Deem and Ramdas Pophale) SiO2 
 PCOD8091253
Probable space group: C 2/M
;
_chemical_formula_sum "Si O2"
_cell_formula_units_Z 56
_cell_length_a 19.669175
_cell_length_b 13.670947
_cell_length_c 18.806446
_cell_angle_alpha 90.000000
_cell_angle_beta 30.497115
_cell_angle_gamma 90.000000
_cell_volume 2566.393362
_symmetry_space_group_name_H-M "C 2/M"
_symmetry_group_IT_number 12
_symmetry_cell_setting 'monoclinic'
loop_
_space_group_symop_operation_xyz
x,y,z
-x,y,-z
-x,-y,-z
x,-y,z
1/2+x,1/2+y,z
1/2-x,1/2+y,-z
1/2-x,1/2-y,-z
1/2+x,1/2-y,z
loop_
_atom_site_type_symbol
_atom_site_label
_atom_site_fract_x
_atom_site_fract_y
_atom_site_fract_z
Si Si1 0.589232 0.800803 0.853051
Si Si2 0.363835 0.892310 0.711771
Si Si3 0.896091 0.279606 0.445932
Si Si4 0.633030 0.613254 0.426165
Si Si5 0.789923 0.109775 0.290671
Si Si6 0.707393 0.611240 0.986818
Si Si7 0.962767 0.706657 0.823251
O O1 0.737422 0.844827 0.732791
O O2 0.593306 0.682418 0.840714
O O3 0.522457 0.841674 0.840897
O O4 0.500000 0.831993 0.000000
O O5 0.471089 0.810921 0.632171
O O6 0.327629 0.887527 0.661769
O O7 0.232546 0.874791 0.879575
O O8 0.423103 0.000000 0.676445
O O9 0.872594 0.168636 0.493038
O O10 0.772044 0.349389 0.579813
O O11 0.916727 0.285908 0.342766
O O12 0.500000 0.631766 0.500000
O O13 0.653400 0.500000 0.424564
O O14 0.847409 0.000000 0.248965
O O15 0.665400 0.500000 0.043062
O O16 0.845528 0.635603 0.903043
O O17 0.589904 0.682944 0.117390
#
# Coordination Sequence:
#
# PCOD8091253 Si02
#       7
#     8   8   8   8   8   8   8
#     4  11  24  42  63  87 120 159 199 251 305 353
#     4   9  16  30  56  87 115 147 189 234 291 364
#     4  10  19  34  55  81 116 153 190 240 296 352
#     4  10  23  42  63  88 118 159 211 256 293 339
#     4  10  20  33  55  87 118 149 185 230 293 363
#     4   9  19  36  58  85 120 158 196 245 297 351
#     4  10  22  37  56  86 119 156 202 243 297 366
#
# _framework density 21.820505000000001
#
# number of rings (size 3 to 8) (size 9 to 14) (size 15 to 20)
#    0.000    2.143    0.000    3.429    0.000    8.571 
#    0.000    2.857    0.000    0.000    0.000    0.000 
#    0.000    0.000    0.000    0.000    0.000    0.000 
#
# Total GULP energy -347175.584146 kJ/mol
# GULP energy per Si atom -12399.128005 kJ/mol
# Density = 2.177084 g / cm^3
# Si number density = 21.820505 Si / 1000 Ang^3
#
#
#
# Elastic Constant Matrix: (Units=GPa)
#
#
# Indices 1 2 3 4 5 6 
#
# 1 86.0195 15.8245 47.8182 -0.0004 14.5209 0.0004
# 2 15.8245 98.0025 33.0150 -0.0007 7.7518 0.0007
# 3 47.8182 33.0150 129.1310 -0.0007 20.9926 0.0008
# 4 -0.0004 -0.0007 -0.0007 21.0343 0.0005 2.0263
# 5 14.5209 7.7518 20.9926 0.0005 34.1674 -0.0005
# 6 0.0004 0.0007 0.0008 2.0263 -0.0005 19.4309
#
#
#
# Elastic Compliance Matrix: (Units=1/GPa)
#
#
# Indices 1 2 3 4 5 6 
#
# 1 0.014987 -0.000516 -0.004890 0.000000 -0.003248 0.000000
# 2 -0.000516 0.011206 -0.002551 0.000000 -0.000756 0.000000
# 3 -0.004890 -0.002551 0.010860 0.000000 -0.004015 0.000000
# 4 0.000000 0.000000 0.000000 0.048024 -0.000001 -0.005008
# 5 -0.003248 -0.000756 -0.004015 -0.000001 0.033287 0.000001
# 6 0.000000 0.000000 0.000000 -0.005008 0.000001 0.051987
#
#
# Mechanical properties :
#
#
# Convention : Reuss Voigt Hill
#
# Bulk Modulus (GPa) = 47.30544 56.27427 51.78986
# Shear Modulus (GPa) = 25.86521 29.35955 27.61238
#
# Velocity S-wave (km/s) = 3.44664 3.67209 3.56115
# Velocity P-wave (km/s) = 6.12908 6.62002 6.37927
#
# Compressibility (1/GPa) = 0.02113922
#
# Stress axis : x y z
#
# Youngs Moduli (GPa) = 66.72594 89.23510 92.08201
#
# Poissons Ratio (x) = 0.04602 0.45026
# Poissons Ratio (y) = 0.03441 0.23493
# Poissons Ratio (z) = 0.32628 0.22767
#
# Static dielectric constant tensor:
#      x y z
#    x 3.809960 0.000000 0.099890 
#    y 0.000000 3.983120 0.000000 
#    z 0.099890 0.000000 3.938940 
# 
# 
# High freq. dielectric constant tensor:
#      x y z
#    x 1.847080 0.000000 0.000160 
#    y 0.000000 1.852450 0.000000 
#    z 0.000160 0.000000 1.858560 
# 
# From -- ./inp_files/284530.got.cif
#   From: 2010.06.25/outbox.cif.g09.slc.cpg/sg12_143_cif.got.tgz:284530.got - 2010.06.28 00:19:55.
