data_PCOD8091988
_publ_section_title
;
Structure prediction by ZEFSAII (Michael W. Deem and Ramdas Pophale) SiO2 
 PCOD8091988
Probable space group: C 2/M
;
_chemical_formula_sum "Si O2"
_cell_formula_units_Z 56
_cell_length_a 18.626414
_cell_length_b 8.822837
_cell_length_c 27.310066
_cell_angle_alpha 90.000000
_cell_angle_beta 39.319135
_cell_angle_gamma 90.000000
_cell_volume 2843.821583
_symmetry_space_group_name_H-M "C 2/M"
_symmetry_group_IT_number 12
_symmetry_cell_setting 'monoclinic'
loop_
_space_group_symop_operation_xyz
x,y,z
-x,y,-z
-x,-y,-z
x,-y,z
1/2+x,1/2+y,z
1/2-x,1/2+y,-z
1/2-x,1/2-y,-z
1/2+x,1/2-y,z
loop_
_atom_site_type_symbol
_atom_site_label
_atom_site_fract_x
_atom_site_fract_y
_atom_site_fract_z
Si Si1 0.907413 0.820605 0.152584
Si Si2 0.614003 0.168489 0.469248
Si Si3 0.340155 0.321960 0.294850
Si Si4 0.163076 0.819918 0.007463
Si Si5 0.237604 0.820035 0.861537
Si Si6 0.494397 0.820519 0.716268
Si Si7 0.371387 0.323269 0.441354
O O1 0.844987 0.771158 0.235608
O O2 0.838861 0.751980 0.142361
O O3 0.909147 0.000000 0.146316
O O4 0.036463 0.760935 0.085834
O O5 0.500000 0.159839 0.500000
O O6 0.717463 0.223794 0.380594
O O7 0.589328 0.289445 0.524475
O O8 0.642363 0.000000 0.475338
O O9 0.363476 0.500000 0.287819
O O10 0.437215 0.234235 0.272643
O O11 0.191255 0.761846 0.937980
O O12 0.172587 0.000000 0.006173
O O13 0.250000 0.750000 0.000000
O O14 0.365948 0.762836 0.788313
O O15 0.233015 0.000000 0.861966
O O16 0.541971 0.750404 0.641708
O O17 0.502780 0.000000 0.708360
O O18 0.364951 0.500000 0.434264
O O19 0.250000 0.250000 0.500000
#
# Coordination Sequence:
#
# PCOD8091988 Si02
#       7
#     8   8   8   8   8   8   8
#     4   9  18  33  56  84 113 148 190 236 279 330
#     4  10  22  38  59  85 115 153 193 235 286 345
#     4  10  20  35  56  81 112 149 190 235 281 340
#     4  10  19  34  58  86 115 148 186 232 280 332
#     4   9  19  34  56  85 113 146 191 234 277 332
#     4  11  22  36  58  83 113 150 189 238 288 341
#     4  12  24  40  61  85 114 150 194 241 290 342
#
# _framework density 19.691813
#
# number of rings (size 3 to 8) (size 9 to 14) (size 15 to 20)
#    0.000    1.857    1.429    3.000    2.000    2.000 
#    0.000    0.714    0.000    4.286    0.000    0.000 
#    0.000    0.000    0.000    0.000    0.000    0.000 
#
# Total GULP energy -347216.502426 kJ/mol
# GULP energy per Si atom -12400.589372 kJ/mol
# Density = 1.964699 g / cm^3
# Si number density = 19.691813 Si / 1000 Ang^3
#
#
#
# Elastic Constant Matrix: (Units=GPa)
#
#
# Indices 1 2 3 4 5 6 
#
# 1 157.4835 31.2211 76.4554 0.0001 3.9614 -0.0003
# 2 31.2211 49.8481 29.6417 0.0004 2.8387 -0.0003
# 3 76.4554 29.6417 137.9735 0.0000 11.1897 0.0001
# 4 0.0001 0.0004 0.0000 10.3927 0.0000 0.7134
# 5 3.9614 2.8387 11.1897 0.0000 41.5390 0.0001
# 6 -0.0003 -0.0003 0.0001 0.7134 0.0001 30.7737
#
#
#
# Elastic Compliance Matrix: (Units=1/GPa)
#
#
# Indices 1 2 3 4 5 6 
#
# 1 0.009096 -0.003101 -0.004417 0.000000 0.000534 0.000000
# 2 -0.003101 0.024058 -0.003416 -0.000001 -0.000428 0.000000
# 3 -0.004417 -0.003416 0.010608 0.000000 -0.002203 0.000000
# 4 0.000000 -0.000001 0.000000 0.096375 0.000000 -0.002234
# 5 0.000534 -0.000428 -0.002203 0.000000 0.024645 0.000000
# 6 0.000000 0.000000 0.000000 -0.002234 0.000000 0.032547
#
#
# Mechanical properties :
#
#
# Convention : Reuss Voigt Hill
#
# Bulk Modulus (GPa) = 45.67308 68.88238 57.27773
# Shear Modulus (GPa) = 22.07551 30.40687 26.24119
#
# Velocity S-wave (km/s) = 3.35184 3.93381 3.65443
# Velocity P-wave (km/s) = 6.18256 7.46253 6.85250
#
# Compressibility (1/GPa) = 0.02189473
#
# Stress axis : x y z
#
# Youngs Moduli (GPa) = 109.94204 41.56546 94.26745
#
# Poissons Ratio (x) = 0.12887 0.41642
# Poissons Ratio (y) = 0.34088 0.32200
# Poissons Ratio (z) = 0.48566 0.14198
#
# Static dielectric constant tensor:
#      x y z
#    x 3.730950 0.000000 0.025020 
#    y 0.000000 3.336060 0.000000 
#    z 0.025020 0.000000 3.823840 
# 
# 
# High freq. dielectric constant tensor:
#      x y z
#    x 1.779950 0.000000 0.001940 
#    y 0.000000 1.731590 0.000000 
#    z 0.001940 0.000000 1.786060 
# 
# From -- ./inp_files/363010.got.cif
#   From: 2010.06.25/outbox.cif.g09.slc.cpg/sg12_182_cif.got.tgz:363010.got - 2010.06.28 00:19:55.
