data_PCOD8091276
_publ_section_title
;
Structure prediction by ZEFSAII (Michael W. Deem and Ramdas Pophale) SiO2 
 PCOD8091276
Probable space group: C 2/M
;
_chemical_formula_sum "Si O2"
_cell_formula_units_Z 56
_cell_length_a 19.989036
_cell_length_b 8.965021
_cell_length_c 16.337332
_cell_angle_alpha 90.000000
_cell_angle_beta 92.284852
_cell_angle_gamma 90.000000
_cell_volume 2925.357056
_symmetry_space_group_name_H-M "C 2/M"
_symmetry_group_IT_number 12
_symmetry_cell_setting 'monoclinic'
loop_
_space_group_symop_operation_xyz
x,y,z
-x,y,-z
-x,-y,-z
x,-y,z
1/2+x,1/2+y,z
1/2-x,1/2+y,-z
1/2-x,1/2-y,-z
1/2+x,1/2-y,z
loop_
_atom_site_type_symbol
_atom_site_label
_atom_site_fract_x
_atom_site_fract_y
_atom_site_fract_z
Si Si1 0.179065 0.823497 0.982480
Si Si2 0.700701 0.826295 0.434198
Si Si3 0.874030 0.174124 0.852789
Si Si4 0.743542 0.674787 0.271738
Si Si5 0.547318 0.172601 0.428896
Si Si6 0.634391 0.675955 0.801607
Si Si7 0.487524 0.676894 0.741787
O O1 0.147115 0.772430 0.895409
O O2 0.189223 0.000000 0.986715
O O3 0.250000 0.750000 0.000000
O O4 0.129390 0.769599 0.053356
O O5 0.750000 0.750000 0.500000
O O6 0.709948 0.753595 0.346725
O O7 0.624245 0.799936 0.458674
O O8 0.718261 0.000000 0.430058
O O9 0.802840 0.211227 0.808162
O O10 0.934899 0.247521 0.804650
O O11 0.887756 0.000000 0.852548
O O12 0.749403 0.500000 0.290323
O O13 0.816515 0.740398 0.258063
O O14 0.500000 0.228705 0.500000
O O15 0.528645 0.264963 0.348453
O O16 0.534110 0.000000 0.408733
O O17 0.644876 0.500000 0.792100
O O18 0.560549 0.728181 0.773765
O O19 0.481663 0.500000 0.738429
#
# Coordination Sequence:
#
# PCOD8091276 Si02
#       7
#     8   8   8   8   8   8   8
#     4  10  19  34  55  83 116 151 193 241 290 339
#     4  11  24  41  62  90 121 151 192 239 288 343
#     4   9  18  34  58  83 110 151 195 233 282 342
#     4  11  21  37  61  85 115 155 198 239 285 343
#     4  10  23  42  61  84 115 151 189 232 286 344
#     4  10  22  36  56  88 120 151 193 245 292 339
#     4  10  21  39  59  84 116 151 193 236 288 350
#
# _framework density 19.142963000000002
#
# number of rings (size 3 to 8) (size 9 to 14) (size 15 to 20)
#    0.000    1.857    2.857    0.857    2.000    2.000 
#    0.000    3.571    0.000    0.000    0.000    3.000 
#    0.000    0.000    0.000    0.000    0.000    0.000 
#
# Total GULP energy -347226.534193 kJ/mol
# GULP energy per Si atom -12400.947650 kJ/mol
# Density = 1.909939 g / cm^3
# Si number density = 19.142963 Si / 1000 Ang^3
#
#
#
# Elastic Constant Matrix: (Units=GPa)
#
#
# Indices 1 2 3 4 5 6 
#
# 1 136.6084 33.2103 42.7417 0.0000 -12.7345 0.0000
# 2 33.2103 38.1902 12.0831 0.0000 4.5479 0.0000
# 3 42.7417 12.0831 79.6592 0.0000 -11.5856 0.0000
# 4 0.0000 0.0000 0.0000 26.2020 0.0000 0.9486
# 5 -12.7345 4.5479 -11.5856 0.0000 37.3222 0.0000
# 6 0.0000 0.0000 0.0000 0.9486 0.0000 26.1392
#
#
#
# Elastic Compliance Matrix: (Units=1/GPa)
#
#
# Indices 1 2 3 4 5 6 
#
# 1 0.011059 -0.008749 -0.004087 0.000000 0.003571 0.000000
# 2 -0.008749 0.035297 -0.001801 0.000000 -0.007845 0.000000
# 3 -0.004087 -0.001801 0.015551 0.000000 0.003652 0.000000
# 4 0.000000 0.000000 0.000000 0.038215 0.000000 -0.001387
# 5 0.003571 -0.007845 0.003652 0.000000 0.030102 0.000000
# 6 0.000000 0.000000 0.000000 -0.001387 0.000000 0.038307
#
#
# Mechanical properties :
#
#
# Convention : Reuss Voigt Hill
#
# Bulk Modulus (GPa) = 30.64419 47.83645 39.24032
# Shear Modulus (GPa) = 23.96001 29.02755 26.49378
#
# Velocity S-wave (km/s) = 3.54168 3.89827 3.72425
# Velocity P-wave (km/s) = 5.72429 6.73092 6.24791
#
# Compressibility (1/GPa) = 0.03263261
#
# Stress axis : x y z
#
# Youngs Moduli (GPa) = 90.42644 28.33136 64.30518
#
# Poissons Ratio (x) = 0.24786 0.26283
# Poissons Ratio (y) = 0.79111 0.11580
# Poissons Ratio (z) = 0.36960 0.05102
#
# Static dielectric constant tensor:
#      x y z
#    x 3.802160 0.000000 -0.086090 
#    y 0.000000 3.346520 0.000000 
#    z -0.086090 0.000000 3.642970 
# 
# 
# High freq. dielectric constant tensor:
#      x y z
#    x 1.753620 0.000000 -0.008460 
#    y 0.000000 1.726330 0.000000 
#    z -0.008460 0.000000 1.757070 
# 
# From -- ./inp_files/230858.got.cif
#   From: 2010.06.25/outbox.cif.g09.slc.cpg/sg12_116_cif.got.tgz:230858.got - 2010.06.28 00:19:55.
