data_PCOD8091694
_publ_section_title
;
Structure prediction by ZEFSAII (Michael W. Deem and Ramdas Pophale) SiO2 
 PCOD8091694
Probable space group: C 2/M
;
_chemical_formula_sum "Si O2"
_cell_formula_units_Z 40
_cell_length_a 24.714051
_cell_length_b 9.221131
_cell_length_c 9.540320
_cell_angle_alpha 90.000000
_cell_angle_beta 78.729096
_cell_angle_gamma 90.000000
_cell_volume 2132.227126
_symmetry_space_group_name_H-M "C 2/M"
_symmetry_group_IT_number 12
_symmetry_cell_setting 'monoclinic'
loop_
_space_group_symop_operation_xyz
x,y,z
-x,y,-z
-x,-y,-z
x,-y,z
1/2+x,1/2+y,z
1/2-x,1/2+y,-z
1/2-x,1/2-y,-z
1/2+x,1/2-y,z
loop_
_atom_site_type_symbol
_atom_site_label
_atom_site_fract_x
_atom_site_fract_y
_atom_site_fract_z
Si Si1 0.900993 0.671702 0.890304
Si Si2 0.994517 0.327862 0.345048
Si Si3 0.775564 0.663236 0.361588
Si Si4 0.291866 0.335024 0.881942
Si Si5 0.394259 0.827728 0.211848
O O1 0.890103 0.500000 0.885696
O O2 0.953865 0.720699 0.774735
O O3 0.849931 0.754651 0.848842
O O4 0.909547 0.721769 0.046648
O O5 0.991106 0.500000 0.353367
O O6 0.000000 0.264197 0.500000
O O7 0.939312 0.265889 0.298654
O O8 0.786488 0.500000 0.407381
O O9 0.750000 0.750000 0.500000
O O10 0.731271 0.666888 0.261804
O O11 0.833859 0.733048 0.283108
O O12 0.298286 0.500000 0.933175
O O13 0.250000 0.250000 0.000000
O O14 0.393875 0.000000 0.215487
#
# Coordination Sequence:
#
# PCOD8091694 Si02
#       5
#     8   8   8   8   8
#     4  10  19  34  57  82 111 146 181 226 280 327
#     4   9  18  30  51  83 110 139 184 231 274 322
#     4  10  22  37  55  81 114 146 183 228 278 331
#     4  11  22  38  58  84 114 145 186 230 275 333
#     4   9  17  33  52  77 111 143 180 227 272 321
#
# _framework density 18.759727000000002
#
# number of rings (size 3 to 8) (size 9 to 14) (size 15 to 20)
#    0.000    2.200    2.000    1.200    2.800    4.000 
#    0.000    0.000    0.000    4.200    0.000    0.000 
#    0.000    0.000    0.000    0.000    0.000    0.000 
#
# Total GULP energy -247989.528523 kJ/mol
# GULP energy per Si atom -12399.476426 kJ/mol
# Density = 1.871703 g / cm^3
# Si number density = 18.759727 Si / 1000 Ang^3
#
#
#
# Elastic Constant Matrix: (Units=GPa)
#
#
# Indices 1 2 3 4 5 6 
#
# 1 162.5844 29.6090 78.2398 0.0000 2.6849 0.0000
# 2 29.6090 46.3258 32.8897 0.0000 -1.7070 0.0000
# 3 78.2398 32.8897 157.5890 0.0000 -13.7052 0.0000
# 4 0.0000 0.0000 0.0000 23.8367 0.0000 -1.2237
# 5 2.6849 -1.7070 -13.7052 0.0000 30.9028 0.0000
# 6 0.0000 0.0000 0.0000 -1.2237 0.0000 27.0352
#
#
#
# Elastic Compliance Matrix: (Units=1/GPa)
#
#
# Indices 1 2 3 4 5 6 
#
# 1 0.008585 -0.002812 -0.003904 0.000000 -0.002633 0.000000
# 2 -0.002812 0.026291 -0.004102 0.000000 -0.000122 0.000000
# 3 -0.003904 -0.004102 0.009517 0.000000 0.004333 0.000000
# 4 0.000000 0.000000 0.000000 0.042050 0.000000 0.001903
# 5 -0.002633 -0.000122 0.004333 0.000000 0.034503 0.000000
# 6 0.000000 0.000000 0.000000 0.001903 0.000000 0.037075
#
#
# Mechanical properties :
#
#
# Convention : Reuss Voigt Hill
#
# Bulk Modulus (GPa) = 43.94268 71.99735 57.97001
# Shear Modulus (GPa) = 26.70323 31.40567 29.05445
#
# Velocity S-wave (km/s) = 3.77694 4.09602 3.93971
# Velocity P-wave (km/s) = 6.51883 7.79947 7.18773
#
# Compressibility (1/GPa) = 0.02275692
#
# Stress axis : x y z
#
# Youngs Moduli (GPa) = 116.47971 38.03567 105.07551
#
# Poissons Ratio (x) = 0.10696 0.41026
# Poissons Ratio (y) = 0.32757 0.43097
# Poissons Ratio (z) = 0.45479 0.15600
#
# Static dielectric constant tensor:
#      x y z
#    x 3.545110 0.000000 -0.034870 
#    y 0.000000 3.107050 0.000000 
#    z -0.034870 0.000000 3.522230 
# 
# 
# High freq. dielectric constant tensor:
#      x y z
#    x 1.745090 0.000000 0.000700 
#    y 0.000000 1.679530 0.000000 
#    z 0.000700 0.000000 1.738900 
# 
# From -- ./inp_files/92717.got.cif
#   From: 2010.06.25/outbox.cif.g09.slc.cpg/sg12_47_cif.got.tgz:92717.got - 2010.06.28 00:19:55.
