data_PCOD8091162
_publ_section_title
;
Structure prediction by ZEFSAII (Michael W. Deem and Ramdas Pophale) SiO2 
 PCOD8091162
Probable space group: C 2/M
;
_chemical_formula_sum "Si O2"
_cell_formula_units_Z 40
_cell_length_a 14.804400
_cell_length_b 14.049107
_cell_length_c 18.185888
_cell_angle_alpha 90.000000
_cell_angle_beta 32.088453
_cell_angle_gamma 90.000000
_cell_volume 2009.346684
_symmetry_space_group_name_H-M "C 2/M"
_symmetry_group_IT_number 12
_symmetry_cell_setting 'monoclinic'
loop_
_space_group_symop_operation_xyz
x,y,z
-x,y,-z
-x,-y,-z
x,-y,z
1/2+x,1/2+y,z
1/2-x,1/2+y,-z
1/2-x,1/2-y,-z
1/2+x,1/2-y,z
loop_
_atom_site_type_symbol
_atom_site_label
_atom_site_fract_x
_atom_site_fract_y
_atom_site_fract_z
Si Si1 0.802494 0.890794 0.771867
Si Si2 0.380438 0.731103 0.016986
Si Si3 0.433678 0.108773 0.752166
Si Si4 0.101509 0.244282 0.544138
Si Si5 0.857380 0.317741 0.261376
O O1 0.707815 0.831246 0.900481
O O2 0.695872 0.883819 0.769826
O O3 0.993209 0.852174 0.629002
O O4 0.811345 0.000000 0.790980
O O5 0.242091 0.650616 0.094730
O O6 0.500000 0.693741 0.000000
O O7 0.493078 0.745599 0.866074
O O8 0.480748 0.164734 0.643864
O O9 0.578299 0.118436 0.714986
O O10 0.409385 0.000000 0.747194
O O11 0.250000 0.250000 0.500000
O O12 0.190323 0.243030 0.402325
#
# Coordination Sequence:
#
# PCOD8091162 Si02
#       5
#     8   8   8   8   8
#     4  10  20  34  55  82 108 134 168 214 268 318
#     4   9  20  36  54  77 109 141 172 214 260 310
#     4  10  20  35  54  76 105 142 179 214 255 307
#     4   9  20  35  50  73 106 139 171 210 254 306
#     4  10  19  34  55  79 107 135 170 218 269 310
#
# _framework density 19.906967999999999
#
# number of rings (size 3 to 8) (size 9 to 14) (size 15 to 20)
#    0.000    2.400    0.000    1.800    0.000    9.600 
#    0.000    1.000    0.000   15.600    0.000    0.000 
#    0.000    0.000    0.000    0.000    0.000    0.000 
#
# Total GULP energy -247956.565958 kJ/mol
# GULP energy per Si atom -12397.828298 kJ/mol
# Density = 1.986166 g / cm^3
# Si number density = 19.906968 Si / 1000 Ang^3
#
#
#
# Elastic Constant Matrix: (Units=GPa)
#
#
# Indices 1 2 3 4 5 6 
#
# 1 37.3366 17.7936 4.5969 -0.0029 -10.9744 0.0010
# 2 17.7936 127.3601 40.9833 -0.0012 -8.0734 0.0020
# 3 4.5969 40.9833 139.4043 0.0022 -2.9952 0.0032
# 4 -0.0029 -0.0012 0.0022 10.3941 0.0017 -3.6233
# 5 -10.9744 -8.0734 -2.9952 0.0017 33.8479 -0.0014
# 6 0.0010 0.0020 0.0032 -3.6233 -0.0014 21.1663
#
#
#
# Elastic Compliance Matrix: (Units=1/GPa)
#
#
# Indices 1 2 3 4 5 6 
#
# 1 0.031319 -0.003888 0.000309 0.000007 0.009254 0.000001
# 2 -0.003888 0.009272 -0.002582 0.000000 0.000722 0.000000
# 3 0.000309 -0.002582 0.007926 -0.000002 0.000186 -0.000001
# 4 0.000007 0.000000 -0.000002 0.102314 -0.000002 0.017514
# 5 0.009254 0.000722 0.000186 -0.000002 0.032733 0.000001
# 6 0.000001 0.000000 -0.000001 0.017514 0.000001 0.050243
#
#
# Mechanical properties :
#
#
# Convention : Reuss Voigt Hill
#
# Bulk Modulus (GPa) = 27.62882 47.87206 37.75044
# Shear Modulus (GPa) = 19.36535 29.13015 24.24775
#
# Velocity S-wave (km/s) = 3.12235 3.82948 3.49385
# Velocity P-wave (km/s) = 5.18727 6.60707 5.93974
#
# Compressibility (1/GPa) = 0.03619409
#
# Stress axis : x y z
#
# Youngs Moduli (GPa) = 31.92995 107.85549 126.16292
#
# Poissons Ratio (x) = 0.41939 -0.03902
# Poissons Ratio (y) = 0.12416 0.32576
# Poissons Ratio (z) = -0.00987 0.27849
#
# Static dielectric constant tensor:
#      x y z
#    x 3.580320 0.000010 -0.012310 
#    y 0.000010 3.304160 0.000030 
#    z -0.012310 0.000030 4.243060 
# 
# 
# High freq. dielectric constant tensor:
#      x y z
#    x 1.770420 0.000000 -0.013230 
#    y 0.000000 1.738900 0.000000 
#    z -0.013230 0.000000 1.798700 
# 
# From -- ./inp_files/59076.got.cif
#   From: 2010.06.25/outbox.cif.g09.slc.cpg/sg12_30_cif.got.tgz:59076.got - 2010.06.28 00:19:55.
