data_PCOD8091729
_publ_section_title
;
Structure prediction by ZEFSAII (Michael W. Deem and Ramdas Pophale) SiO2 
 PCOD8091729
Probable space group: C 2/M
;
_chemical_formula_sum "Si O2"
_cell_formula_units_Z 64
_cell_length_a 30.371396
_cell_length_b 9.259443
_cell_length_c 15.633903
_cell_angle_alpha 90.000000
_cell_angle_beta 48.859518
_cell_angle_gamma 90.000000
_cell_volume 3311.074486
_symmetry_space_group_name_H-M "C 2/M"
_symmetry_group_IT_number 12
_symmetry_cell_setting 'monoclinic'
loop_
_space_group_symop_operation_xyz
x,y,z
-x,y,-z
-x,-y,-z
x,-y,z
1/2+x,1/2+y,z
1/2-x,1/2+y,-z
1/2-x,1/2-y,-z
1/2+x,1/2-y,z
loop_
_atom_site_type_symbol
_atom_site_label
_atom_site_fract_x
_atom_site_fract_y
_atom_site_fract_z
Si Si1 0.738454 0.171173 0.426728
Si Si2 0.591180 0.664497 0.233940
Si Si3 0.995380 0.335608 0.763280
Si Si4 0.176091 0.829257 0.838488
Si Si5 0.613264 0.167874 0.541034
Si Si6 0.432578 0.830478 0.578265
Si Si7 0.054094 0.332573 0.987767
Si Si8 0.209042 0.165169 0.985546
O O1 0.750000 0.250000 0.500000
O O2 0.782635 0.213123 0.293816
O O3 0.675249 0.236899 0.483683
O O4 0.738882 0.000000 0.441649
O O5 0.579252 0.500000 0.273250
O O6 0.532604 0.729734 0.269280
O O7 0.606379 0.751556 0.300338
O O8 0.642953 0.681794 0.100612
O O9 0.985418 0.500000 0.743723
O O10 0.966656 0.308994 0.890094
O O11 0.065097 0.303303 0.676987
O O12 0.165017 0.000000 0.858439
O O13 0.113878 0.754782 0.898609
O O14 0.207069 0.778230 0.888785
O O15 0.589618 0.232479 0.482898
O O16 0.624322 0.000000 0.513640
O O17 0.500000 0.787939 0.500000
O O18 0.422518 0.000000 0.601077
O O19 0.066493 0.500000 0.950147
O O20 0.000000 0.273702 0.000000
O O21 0.230620 0.000000 0.960136
O O22 0.250000 0.250000 0.000000
#
# Coordination Sequence:
#
# PCOD8091729 Si02
#       8
#     8   8   8   8   8   8   8   8
#     4  10  23  42  64  86 114 156 201 246 294 342
#     4  11  22  36  54  82 120 153 185 235 296 344
#     4  10  19  36  59  84 114 149 193 239 288 347
#     4  10  22  42  62  87 123 159 196 239 298 364
#     4   9  19  36  59  84 111 150 197 241 282 339
#     4  10  19  34  57  83 111 149 195 231 275 343
#     4  10  22  37  61  93 116 146 193 245 295 342
#     4  10  23  40  59  84 117 157 199 241 290 351
#
# _framework density 19.329073000000001
#
# number of rings (size 3 to 8) (size 9 to 14) (size 15 to 20)
#    0.000    2.000    2.500    0.375    3.500    2.500 
#    0.000    1.250    0.000    0.000    0.000    0.000 
#    0.000    0.000    0.000    0.000    0.000    0.000 
#
# Total GULP energy -396654.136154 kJ/mol
# GULP energy per Si atom -12395.441755 kJ/mol
# Density = 1.928508 g / cm^3
# Si number density = 19.329073 Si / 1000 Ang^3
#
#
#
# Elastic Constant Matrix: (Units=GPa)
#
#
# Indices 1 2 3 4 5 6 
#
# 1 154.3650 46.7922 60.7459 0.0000 -6.3779 0.0000
# 2 46.7922 52.0633 46.7075 0.0002 0.3039 -0.0003
# 3 60.7459 46.7075 124.6920 0.0000 -4.7669 0.0000
# 4 0.0000 0.0002 0.0000 30.4210 0.0000 -0.8721
# 5 -6.3779 0.3039 -4.7669 0.0000 29.8182 0.0000
# 6 0.0000 -0.0003 0.0000 -0.8721 0.0000 26.4972
#
#
#
# Elastic Compliance Matrix: (Units=1/GPa)
#
#
# Indices 1 2 3 4 5 6 
#
# 1 0.009343 -0.006603 -0.002012 0.000000 0.001744 0.000000
# 2 -0.006603 0.033719 -0.009539 0.000000 -0.003281 0.000000
# 3 -0.002012 -0.009539 0.012638 0.000000 0.001687 0.000000
# 4 0.000000 0.000000 0.000000 0.032903 0.000000 0.001083
# 5 0.001744 -0.003281 0.001687 0.000000 0.034213 0.000000
# 6 0.000000 0.000000 0.000000 0.001083 0.000000 0.037775
#
#
# Mechanical properties :
#
#
# Convention : Reuss Voigt Hill
#
# Bulk Modulus (GPa) = 51.56746 71.06794 61.31770
# Shear Modulus (GPa) = 24.58661 29.13893 26.86277
#
# Velocity S-wave (km/s) = 3.57038 3.88689 3.73199
# Velocity P-wave (km/s) = 6.61313 7.54924 7.09664
#
# Compressibility (1/GPa) = 0.01939208
#
# Stress axis : x y z
#
# Youngs Moduli (GPa) = 107.02757 29.65710 79.12889
#
# Poissons Ratio (x) = 0.19582 0.15920
# Poissons Ratio (y) = 0.70667 0.75483
# Poissons Ratio (z) = 0.21532 0.28291
#
# Static dielectric constant tensor:
#      x y z
#    x 3.835130 0.000000 -0.039340 
#    y 0.000000 3.350920 0.000000 
#    z -0.039340 0.000000 3.778800 
# 
# 
# High freq. dielectric constant tensor:
#      x y z
#    x 1.756170 0.000000 0.002550 
#    y 0.000000 1.726440 0.000000 
#    z 0.002550 0.000000 1.767720 
# 
# From -- ./inp_files/249840.got.cif
#   From: 2010.06.25/outbox.cif.g09.slc.cpg/sg12_125_cif.got.tgz:249840.got - 2010.06.28 00:19:55.
