data_PCOD8091903
_publ_section_title
;
Structure prediction by ZEFSAII (Michael W. Deem and Ramdas Pophale) SiO2 
 PCOD8091903
Probable space group: C 2/M
;
_chemical_formula_sum "Si O2"
_cell_formula_units_Z 64
_cell_length_a 24.997815
_cell_length_b 18.685315
_cell_length_c 20.314900
_cell_angle_alpha 90.000000
_cell_angle_beta 158.380400
_cell_angle_gamma 90.000000
_cell_volume 3496.125327
_symmetry_space_group_name_H-M "C 2/M"
_symmetry_group_IT_number 12
_symmetry_cell_setting 'monoclinic'
loop_
_space_group_symop_operation_xyz
x,y,z
-x,y,-z
-x,-y,-z
x,-y,z
1/2+x,1/2+y,z
1/2-x,1/2+y,-z
1/2-x,1/2-y,-z
1/2+x,1/2-y,z
loop_
_atom_site_type_symbol
_atom_site_label
_atom_site_fract_x
_atom_site_fract_y
_atom_site_fract_z
Si Si1 0.121660 0.652449 0.834545
Si Si2 0.103824 0.581014 0.178184
Si Si3 0.565203 0.307807 0.818618
Si Si4 0.324692 0.297241 0.448378
Si Si5 0.316421 0.670676 0.631880
Si Si6 0.421563 0.171967 0.479267
Si Si7 0.926414 0.580524 0.709597
Si Si8 0.346511 0.584509 0.795515
O O1 0.107434 0.725379 0.859065
O O2 0.028513 0.649132 0.661013
O O3 0.062558 0.591840 0.816405
O O4 0.292022 0.641774 0.012964
O O5 0.162024 0.500000 0.236127
O O6 0.235296 0.635440 0.322427
O O7 0.024005 0.589796 0.157579
O O8 0.000000 0.602121 0.000000
O O9 0.469997 0.330341 0.646627
O O10 0.473249 0.316535 0.779922
O O11 0.246447 0.245509 0.412622
O O12 0.360656 0.250954 0.424828
O O13 0.202026 0.637880 0.449132
O O14 0.335471 0.611138 0.708805
O O15 0.500000 0.173617 0.500000
O O16 0.288097 0.117150 0.318012
O O17 0.867855 0.500000 0.631160
O O18 0.333094 0.500000 0.782916
O O19 0.500000 0.611147 0.000000
#
# Coordination Sequence:
#
# PCOD8091903 Si02
#       8
#     8   8   8   8   8   8   8   8
#     4  10  21  37  54  85 118 154 186 237 293 350
#     4  10  22  39  60  88 117 148 193 242 299 358
#     4  10  19  34  58  83 114 142 187 244 294 336
#     4  10  19  38  58  87 113 147 190 246 293 343
#     4  11  19  34  63  86 113 146 201 245 290 341
#     4  10  22  38  56  81 120 154 197 232 283 349
#     4  11  20  37  62  84 116 159 196 240 292 351
#     4  10  22  38  55  81 118 155 196 240 286 335
#
# _framework density 18.305980000000002
#
# number of rings (size 3 to 8) (size 9 to 14) (size 15 to 20)
#    0.000    1.750    5.000    1.500    1.750    2.250 
#    6.750    1.875    0.000    0.375    0.000    0.000 
#    0.000    0.000    0.000    0.000    0.000    0.000 
#
# Total GULP energy -396723.010211 kJ/mol
# GULP energy per Si atom -12397.594069 kJ/mol
# Density = 1.826431 g / cm^3
# Si number density = 18.305980 Si / 1000 Ang^3
#
#
#
# Elastic Constant Matrix: (Units=GPa)
#
#
# Indices 1 2 3 4 5 6 
#
# 1 124.1845 33.7979 47.2769 -0.0068 14.5757 -0.0097
# 2 33.7979 74.3403 54.5806 -0.0078 1.0429 -0.0126
# 3 47.2769 54.5806 123.1574 -0.0078 14.7577 -0.0129
# 4 -0.0068 -0.0078 -0.0078 28.9481 -0.0008 0.7545
# 5 14.5757 1.0429 14.7577 -0.0008 34.0266 -0.0004
# 6 -0.0097 -0.0126 -0.0129 0.7545 -0.0004 12.8491
#
#
#
# Elastic Compliance Matrix: (Units=1/GPa)
#
#
# Indices 1 2 3 4 5 6 
#
# 1 0.010062 -0.002937 -0.002168 0.000001 -0.003280 0.000002
# 2 -0.002937 0.021176 -0.008787 0.000003 0.004420 0.000010
# 3 -0.002168 -0.008787 0.013399 0.000001 -0.004613 0.000003
# 4 0.000001 0.000003 0.000001 0.034598 0.000000 -0.002032
# 5 -0.003280 0.004420 -0.004613 0.000000 0.032659 -0.000002
# 6 0.000002 0.000010 0.000003 -0.002032 -0.000002 0.077946
#
#
# Mechanical properties :
#
#
# Convention : Reuss Voigt Hill
#
# Bulk Modulus (GPa) = 59.33498 65.88812 62.61155
# Shear Modulus (GPa) = 22.39723 27.56653 24.98188
#
# Velocity S-wave (km/s) = 3.50164 3.88477 3.69817
# Velocity P-wave (km/s) = 6.98798 7.49618 7.24654
#
# Compressibility (1/GPa) = 0.01685346
#
# Stress axis : x y z
#
# Youngs Moduli (GPa) = 99.38217 47.22243 74.63240
#
# Poissons Ratio (x) = 0.13869 0.16180
# Poissons Ratio (y) = 0.29187 0.65581
# Poissons Ratio (z) = 0.21546 0.41495
#
# Static dielectric constant tensor:
#      x y z
#    x 3.413060 -0.000010 0.047200 
#    y -0.000010 3.336370 -0.000010 
#    z 0.047200 -0.000010 3.606580 
# 
# 
# High freq. dielectric constant tensor:
#      x y z
#    x 1.708290 0.000000 -0.002990 
#    y 0.000000 1.703820 0.000000 
#    z -0.002990 0.000000 1.707560 
# 
# From -- ./inp_files/328680.got.cif
#   From: 2010.06.25/outbox.cif.g09.slc.cpg/sg12_165_cif.got.tgz:328680.got - 2010.06.28 00:19:55.
