data_PCOD8091567
_publ_section_title
;
Structure prediction by ZEFSAII (Michael W. Deem and Ramdas Pophale) SiO2 
 PCOD8091567
Probable space group: C 2/M
;
_chemical_formula_sum "Si O2"
_cell_formula_units_Z 52
_cell_length_a 19.041240
_cell_length_b 15.544143
_cell_length_c 11.937419
_cell_angle_alpha 90.000000
_cell_angle_beta 48.153602
_cell_angle_gamma 90.000000
_cell_volume 2632.033482
_symmetry_space_group_name_H-M "C 2/M"
_symmetry_group_IT_number 12
_symmetry_cell_setting 'monoclinic'
loop_
_space_group_symop_operation_xyz
x,y,z
-x,y,-z
-x,-y,-z
x,-y,z
1/2+x,1/2+y,z
1/2-x,1/2+y,-z
1/2-x,1/2-y,-z
1/2+x,1/2-y,z
loop_
_atom_site_type_symbol
_atom_site_label
_atom_site_fract_x
_atom_site_fract_y
_atom_site_fract_z
Si Si1 0.254847 0.658363 0.223310
Si Si2 0.938385 0.000000 0.286777
Si Si3 0.733593 0.500000 0.390673
Si Si4 0.252862 0.500000 0.376338
Si Si5 0.518096 0.165118 0.150988
Si Si6 0.339704 0.157314 0.192629
Si Si7 0.951278 0.147148 0.929823
Si Si8 0.072823 0.599632 0.326624
O O1 0.220955 0.589268 0.353101
O O2 0.285472 0.751087 0.240481
O O3 0.164465 0.662321 0.237420
O O4 0.342975 0.619618 0.061529
O O5 0.002692 0.082860 0.206650
O O6 0.879911 0.000000 0.466012
O O7 0.867038 0.000000 0.256958
O O8 0.787327 0.500000 0.453821
O O9 0.760483 0.584984 0.293224
O O10 0.411198 0.157857 0.220822
O O11 0.541338 0.264532 0.144874
O O12 0.523703 0.112821 0.259471
O O13 0.598078 0.130509 0.980838
O O14 0.000000 0.155175 0.000000
O O15 0.102901 0.500000 0.307736
O O16 0.000000 0.626797 0.500000
#
# Coordination Sequence:
#
# PCOD8091567 Si02
#       8
#     8   4   4   4   8   8   8   8
#     4  11  21  39  65  92 120 172 215 263 318 367
#     4  10  20  31  57  93 129 156 190 283 322 362
#     4  10  24  33  53  99 130 165 199 258 339 370
#     4  10  19  34  56  91 126 153 207 253 334 358
#     4  10  22  40  63  92 120 170 213 261 320 362
#     4  10  22  39  65  93 126 164 222 265 302 387
#     4  11  17  36  61  94 121 152 214 270 310 364
#     4  11  27  42  60  91 130 166 207 257 320 391
#
# _framework density 19.756588000000001
#
# number of rings (size 3 to 8) (size 9 to 14) (size 15 to 20)
#    0.462    1.077    5.385    0.692    4.308    4.923 
#    0.000    0.000    0.000    0.000    0.000    3.231 
#    0.000    0.000    0.000    0.000    0.000    0.000 
#
# Total GULP energy -322254.190410 kJ/mol
# GULP energy per Si atom -12394.391939 kJ/mol
# Density = 1.971162 g / cm^3
# Si number density = 19.756588 Si / 1000 Ang^3
#
#
#
# Elastic Constant Matrix: (Units=GPa)
#
#
# Indices 1 2 3 4 5 6 
#
# 1 101.2773 26.9751 44.9034 0.0000 -10.2443 0.0000
# 2 26.9751 105.8993 57.5826 0.0000 -7.7780 0.0000
# 3 44.9034 57.5826 106.1985 0.0000 -9.3369 0.0000
# 4 0.0000 0.0000 0.0000 8.7431 0.0000 -0.7319
# 5 -10.2443 -7.7780 -9.3369 0.0000 29.1635 0.0000
# 6 0.0000 0.0000 0.0000 -0.7319 0.0000 23.9569
#
#
#
# Elastic Compliance Matrix: (Units=1/GPa)
#
#
# Indices 1 2 3 4 5 6 
#
# 1 0.012371 -0.000337 -0.004809 0.000000 0.002716 0.000000
# 2 -0.000337 0.013447 -0.007042 0.000000 0.001214 0.000000
# 3 -0.004809 -0.007042 0.015388 0.000000 0.001359 0.000000
# 4 0.000000 0.000000 0.000000 0.114670 0.000000 0.003503
# 5 0.002716 0.001214 0.001359 0.000000 0.036002 0.000000
# 6 0.000000 0.000000 0.000000 0.003503 0.000000 0.041849
#
#
# Mechanical properties :
#
#
# Convention : Reuss Voigt Hill
#
# Bulk Modulus (GPa) = 59.42080 63.58860 61.50470
# Shear Modulus (GPa) = 18.96011 24.63363 21.79687
#
# Velocity S-wave (km/s) = 3.10124 3.53492 3.32516
# Velocity P-wave (km/s) = 6.55479 6.99405 6.77798
#
# Compressibility (1/GPa) = 0.01682912
#
# Stress axis : x y z
#
# Youngs Moduli (GPa) = 80.83710 74.36631 64.98706
#
# Poissons Ratio (x) = 0.02503 0.31254
# Poissons Ratio (y) = 0.02721 0.45765
# Poissons Ratio (z) = 0.38877 0.52370
#
# Static dielectric constant tensor:
#      x y z
#    x 3.410380 0.000000 -0.175100 
#    y 0.000000 3.604630 0.000000 
#    z -0.175100 0.000000 3.493480 
# 
# 
# High freq. dielectric constant tensor:
#      x y z
#    x 1.746540 0.000000 -0.018900 
#    y 0.000000 1.771520 0.000000 
#    z -0.018900 0.000000 1.765540 
# 
# From -- ./inp_files/167167.got.cif
#   From: 2010.06.25/outbox.cif.g09.slc.cpg/sg12_84_cif.got.tgz:167167.got - 2010.06.28 00:19:55.
