data_PCOD8091344
_publ_section_title
;
Structure prediction by ZEFSAII (Michael W. Deem and Ramdas Pophale) SiO2 
 PCOD8091344
Probable space group: C 2/M
;
_chemical_formula_sum "Si O2"
_cell_formula_units_Z 48
_cell_length_a 19.339887
_cell_length_b 9.547417
_cell_length_c 14.633416
_cell_angle_alpha 90.000000
_cell_angle_beta 108.448267
_cell_angle_gamma 90.000000
_cell_volume 2563.144758
_symmetry_space_group_name_H-M "C 2/M"
_symmetry_group_IT_number 12
_symmetry_cell_setting 'monoclinic'
loop_
_space_group_symop_operation_xyz
x,y,z
-x,y,-z
-x,-y,-z
x,-y,z
1/2+x,1/2+y,z
1/2-x,1/2+y,-z
1/2-x,1/2-y,-z
1/2+x,1/2-y,z
loop_
_atom_site_type_symbol
_atom_site_label
_atom_site_fract_x
_atom_site_fract_y
_atom_site_fract_z
Si Si1 0.725953 0.834095 0.078768
Si Si2 0.791930 0.343074 0.587781
Si Si3 0.449849 0.835106 0.394156
Si Si4 0.568469 0.833277 0.085977
Si Si5 0.057376 0.665749 0.284426
Si Si6 0.686583 0.343338 0.707387
O O1 0.645173 0.782882 0.075158
O O2 0.785117 0.795685 0.181379
O O3 0.725569 0.000000 0.058544
O O4 0.750000 0.750000 0.000000
O O5 0.794228 0.500000 0.548734
O O6 0.750000 0.250000 0.500000
O O7 0.872573 0.278696 0.631049
O O8 0.757186 0.341643 0.673263
O O9 0.500000 0.785398 0.500000
O O10 0.486613 0.792623 0.313141
O O11 0.372530 0.758946 0.362080
O O12 0.435621 0.000000 0.395777
O O13 0.556085 0.769776 0.182316
O O14 0.567737 0.000000 0.088748
O O15 0.500000 0.775363 0.000000
O O16 0.064987 0.500000 0.279403
O O17 0.653465 0.500000 0.698398
#
# Coordination Sequence:
#
# PCOD8091344 Si02
#       6
#     8   8   8   8   8   8
#     4  10  21  37  57  83 111 141 181 227 275 327
#     4  10  19  34  56  79 105 139 178 222 269 318
#     4  10  21  35  54  83 112 140 182 232 271 308
#     4   9  17  31  54  81 103 133 180 223 262 317
#     4   9  17  32  52  75 106 138 174 222 266 308
#     4  10  21  37  55  78 113 149 179 217 273 338
#
# _framework density 18.726996
#
# number of rings (size 3 to 8) (size 9 to 14) (size 15 to 20)
#    0.000    2.333    1.667    1.000    2.333    3.000 
#    0.000    0.833    0.000    1.500    0.000    0.000 
#    0.000    0.000    0.000    0.000    0.000    0.000 
#
# Total GULP energy -297547.949471 kJ/mol
# GULP energy per Si atom -12397.831228 kJ/mol
# Density = 1.868437 g / cm^3
# Si number density = 18.726996 Si / 1000 Ang^3
#
#
#
# Elastic Constant Matrix: (Units=GPa)
#
#
# Indices 1 2 3 4 5 6 
#
# 1 78.0517 19.6243 21.0443 0.0000 9.2049 0.0000
# 2 19.6243 37.6210 29.9596 0.0000 6.6700 0.0000
# 3 21.0443 29.9596 107.7795 0.0000 4.9612 0.0000
# 4 0.0000 0.0000 0.0000 27.7663 0.0000 -0.9017
# 5 9.2049 6.6700 4.9612 0.0000 37.5674 0.0000
# 6 0.0000 0.0000 0.0000 -0.9017 0.0000 23.8985
#
#
#
# Elastic Compliance Matrix: (Units=1/GPa)
#
#
# Indices 1 2 3 4 5 6 
#
# 1 0.015025 -0.006636 -0.000980 0.000000 -0.002374 0.000000
# 2 -0.006636 0.037966 -0.009077 0.000000 -0.003916 0.000000
# 3 -0.000980 -0.009077 0.011980 0.000000 0.000270 0.000000
# 4 0.000000 0.000000 0.000000 0.036059 0.000000 0.001361
# 5 -0.002374 -0.003916 0.000270 0.000000 0.027860 0.000000
# 6 0.000000 0.000000 0.000000 0.001361 0.000000 0.041895
#
#
# Mechanical properties :
#
#
# Convention : Reuss Voigt Hill
#
# Bulk Modulus (GPa) = 31.66163 40.52317 36.09240
# Shear Modulus (GPa) = 23.28838 28.03471 25.66154
#
# Velocity S-wave (km/s) = 3.53026 3.87333 3.70577
# Velocity P-wave (km/s) = 5.79315 6.45674 6.13393
#
# Compressibility (1/GPa) = 0.03158397
#
# Stress axis : x y z
#
# Youngs Moduli (GPa) = 66.55728 26.33960 83.47026
#
# Poissons Ratio (x) = 0.17480 0.08177
# Poissons Ratio (y) = 0.44170 0.75769
# Poissons Ratio (z) = 0.06520 0.23909
#
# Static dielectric constant tensor:
#      x y z
#    x 3.595690 0.000000 -0.117750 
#    y 0.000000 3.035920 0.000000 
#    z -0.117750 0.000000 3.706550 
# 
# 
# High freq. dielectric constant tensor:
#      x y z
#    x 1.737820 0.000000 -0.001260 
#    y 0.000000 1.678210 0.000000 
#    z -0.001260 0.000000 1.742390 
# 
# From -- ./inp_files/154301.got.cif
#   From: 2010.06.25/outbox.cif.g09.slc.cpg/sg12_78_cif.got.tgz:154301.got - 2010.06.28 00:19:55.
