data_PCOD8091980
_publ_section_title
;
Structure prediction by ZEFSAII (Michael W. Deem and Ramdas Pophale) SiO2 
 PCOD8091980
Probable space group: C 2/M
;
_chemical_formula_sum "Si O2"
_cell_formula_units_Z 36
_cell_length_a 8.973882
_cell_length_b 19.926045
_cell_length_c 10.115216
_cell_angle_alpha 90.000000
_cell_angle_beta 84.965172
_cell_angle_gamma 90.000000
_cell_volume 1801.763029
_symmetry_space_group_name_H-M "C 2/M"
_symmetry_group_IT_number 12
_symmetry_cell_setting 'monoclinic'
loop_
_space_group_symop_operation_xyz
x,y,z
-x,y,-z
-x,-y,-z
x,-y,z
1/2+x,1/2+y,z
1/2-x,1/2+y,-z
1/2-x,1/2-y,-z
1/2+x,1/2-y,z
loop_
_atom_site_type_symbol
_atom_site_label
_atom_site_fract_x
_atom_site_fract_y
_atom_site_fract_z
Si Si1 0.303587 0.920548 0.297047
Si Si2 0.136917 0.579014 0.203685
Si Si3 0.500000 0.743699 0.500000
Si Si4 0.843305 0.079564 0.959023
Si Si5 0.748924 0.657147 0.571801
O O1 0.467099 0.896975 0.235596
O O2 0.261424 0.879095 0.429492
O O3 0.299611 0.000000 0.328952
O O4 0.187154 0.900297 0.190608
O O5 0.141548 0.500000 0.204716
O O6 0.206697 0.606473 0.061138
O O7 0.243701 0.602471 0.314484
O O8 0.591732 0.696332 0.594155
O O9 0.617401 0.790015 0.412717
O O10 0.848398 0.000000 0.969783
O O11 0.000000 0.110127 0.000000
#
# Coordination Sequence:
#
# PCOD8091980 Si02
#       5
#     8   8   4   8   8
#     4  10  19  34  58  86 114 143 177 222 277 332
#     4  10  19  34  58  86 114 143 177 222 277 332
#     4  10  24  38  56  76 112 148 188 224 276 314
#     4   9  19  33  51  82 119 146 172 216 279 335
#     4  11  21  39  58  83 106 145 186 232 267 327
#
# _framework density 19.980429000000001
#
# number of rings (size 3 to 8) (size 9 to 14) (size 15 to 20)
#    0.000    2.000    2.222    1.333    3.111    4.444 
#    0.000    1.111    0.000    8.000    0.000    0.000 
#    0.000    0.000    0.000    0.000    0.000    0.000 
#
# Total GULP energy -223128.016284 kJ/mol
# GULP energy per Si atom -12396.000905 kJ/mol
# Density = 1.993495 g / cm^3
# Si number density = 19.980429 Si / 1000 Ang^3
#
#
#
# Elastic Constant Matrix: (Units=GPa)
#
#
# Indices 1 2 3 4 5 6 
#
# 1 81.2301 28.5760 35.0554 0.0000 18.0703 0.0000
# 2 28.5760 21.2475 29.0377 0.0000 1.7767 0.0000
# 3 35.0554 29.0377 122.3775 0.0000 7.1309 0.0000
# 4 0.0000 0.0000 0.0000 8.3940 0.0000 11.6252
# 5 18.0703 1.7767 7.1309 0.0000 31.5383 0.0000
# 6 0.0000 0.0000 0.0000 11.6252 0.0000 22.8306
#
#
#
# Elastic Compliance Matrix: (Units=1/GPa)
#
#
# Indices 1 2 3 4 5 6 
#
# 1 0.029008 -0.040842 0.002246 0.000000 -0.014827 0.000000
# 2 -0.040842 0.127156 -0.019678 0.000000 0.020687 0.000000
# 3 0.002246 -0.019678 0.012371 0.000000 -0.002975 0.000000
# 4 0.000000 0.000000 0.000000 0.404105 0.000000 -0.205767
# 5 -0.014827 0.020687 -0.002975 0.000000 0.039710 0.000000
# 6 0.000000 0.000000 0.000000 -0.205767 0.000000 0.148576
#
#
# Mechanical properties :
#
#
# Convention : Reuss Voigt Hill
#
# Bulk Modulus (GPa) = 19.23587 45.57703 32.40645
# Shear Modulus (GPa) = 5.58782 21.36497 13.47639
#
# Velocity S-wave (km/s) = 1.67413 3.27355 2.59989
# Velocity P-wave (km/s) = 3.65858 6.09496 5.02662
#
# Compressibility (1/GPa) = 0.05198622
#
# Stress axis : x y z
#
# Youngs Moduli (GPa) = 34.47325 7.86435 80.83653
#
# Poissons Ratio (x) = 0.32120 -0.18153
# Poissons Ratio (y) = 1.40797 1.59067
# Poissons Ratio (z) = -0.07741 0.15475
#
# Static dielectric constant tensor:
#      x y z
#    x 4.011990 0.000000 0.114070 
#    y 0.000000 3.465270 0.000000 
#    z 0.114070 0.000000 3.649030 
# 
# 
# High freq. dielectric constant tensor:
#      x y z
#    x 1.789780 0.000000 0.012830 
#    y 0.000000 1.747880 0.000000 
#    z 0.012830 0.000000 1.773720 
# 
# From -- ./inp_files/119772.got.cif
#   From: 2010.06.25/outbox.cif.g09.slc.cpg/sg12_60_cif.got.tgz:119772.got - 2010.06.28 00:19:55.
