data_PCOD8091701
_publ_section_title
;
Structure prediction by ZEFSAII (Michael W. Deem and Ramdas Pophale) SiO2 
 PCOD8091701
Probable space group: C 2/M
;
_chemical_formula_sum "Si O2"
_cell_formula_units_Z 64
_cell_length_a 8.311572
_cell_length_b 19.301583
_cell_length_c 23.992182
_cell_angle_alpha 90.000000
_cell_angle_beta 57.832625
_cell_angle_gamma 90.000000
_cell_volume 3258.149376
_symmetry_space_group_name_H-M "C 2/M"
_symmetry_group_IT_number 12
_symmetry_cell_setting 'monoclinic'
loop_
_space_group_symop_operation_xyz
x,y,z
-x,y,-z
-x,-y,-z
x,-y,z
1/2+x,1/2+y,z
1/2-x,1/2+y,-z
1/2-x,1/2-y,-z
1/2+x,1/2-y,z
loop_
_atom_site_type_symbol
_atom_site_label
_atom_site_fract_x
_atom_site_fract_y
_atom_site_fract_z
Si Si1 0.593832 0.159707 0.424162
Si Si2 0.038296 0.580464 0.179179
Si Si3 0.907896 0.328250 0.928830
Si Si4 0.218980 0.165537 0.291456
Si Si5 0.608669 0.421230 0.684223
Si Si6 0.298821 0.320443 0.920080
Si Si7 0.103705 0.080409 0.811237
Si Si8 0.086293 0.726758 0.642847
O O1 0.500000 0.141827 0.500000
O O2 0.685116 0.090254 0.381350
O O3 0.760782 0.215089 0.399038
O O4 0.435349 0.186810 0.411061
O O5 0.971447 0.500000 0.186739
O O6 0.129148 0.605545 0.104146
O O7 0.185949 0.588556 0.202334
O O8 0.862244 0.634262 0.219150
O O9 0.877345 0.257571 0.899610
O O10 0.119769 0.329957 0.913372
O O11 0.753081 0.334556 0.006126
O O12 0.335035 0.171935 0.327243
O O13 0.048893 0.110795 0.327646
O O14 0.114064 0.239524 0.297482
O O15 0.560580 0.500000 0.698284
O O16 0.605908 0.389727 0.747586
O O17 0.458008 0.375306 0.874175
O O18 0.040904 0.000000 0.824894
#
# Coordination Sequence:
#
# PCOD8091701 Si02
#       8
#     8   8   8   8   8   8   8   8
#     4  10  19  34  57  82 113 145 177 224 274 328
#     4  11  23  37  55  81 111 147 185 224 276 329
#     4  10  22  37  58  82 111 145 183 229 275 332
#     4  10  20  36  57  80 112 144 179 229 274 323
#     4  10  21  37  56  80 109 145 186 224 270 325
#     4  10  21  39  58  82 110 144 184 227 280 325
#     4  10  22  39  59  81 109 145 185 229 274 327
#     4   9  20  35  55  85 110 141 184 224 276 325
#
# _framework density 19.643052999999998
#
# number of rings (size 3 to 8) (size 9 to 14) (size 15 to 20)
#    0.000    2.000    0.000    3.000    0.000    8.750 
#    0.000    3.125    0.000    0.750    0.000    0.000 
#    0.000    0.000    0.000    0.000    0.000    0.000 
#
# Total GULP energy -396692.806764 kJ/mol
# GULP energy per Si atom -12396.650211 kJ/mol
# Density = 1.959834 g / cm^3
# Si number density = 19.643053 Si / 1000 Ang^3
#
#
#
# Elastic Constant Matrix: (Units=GPa)
#
#
# Indices 1 2 3 4 5 6 
#
# 1 95.2143 40.5942 42.4379 0.0000 12.6960 0.0000
# 2 40.5942 74.5064 56.6911 0.0000 8.2938 0.0000
# 3 42.4379 56.6911 114.1751 0.0000 2.7692 0.0000
# 4 0.0000 0.0000 0.0000 24.8147 0.0000 3.7104
# 5 12.6960 8.2938 2.7692 0.0000 29.3994 0.0000
# 6 0.0000 0.0000 0.0000 3.7104 0.0000 29.3006
#
#
#
# Elastic Compliance Matrix: (Units=1/GPa)
#
#
# Indices 1 2 3 4 5 6 
#
# 1 0.014596 -0.005473 -0.002598 0.000000 -0.004515 0.000000
# 2 -0.005473 0.024411 -0.009999 0.000000 -0.003581 0.000000
# 3 -0.002598 -0.009999 0.014627 0.000000 0.002565 0.000000
# 4 0.000000 0.000000 0.000000 0.041077 0.000000 -0.005202
# 5 -0.004515 -0.003581 0.002565 0.000000 0.036733 0.000000
# 6 0.000000 0.000000 0.000000 -0.005202 0.000000 0.034788
#
#
# Mechanical properties :
#
#
# Convention : Reuss Voigt Hill
#
# Bulk Modulus (GPa) = 57.16787 62.59356 59.88072
# Shear Modulus (GPa) = 24.01506 26.31444 25.16475
#
# Velocity S-wave (km/s) = 3.50032 3.66407 3.58313
# Velocity P-wave (km/s) = 6.74558 7.05940 6.90428
#
# Compressibility (1/GPa) = 0.01749234
#
# Stress axis : x y z
#
# Youngs Moduli (GPa) = 68.51171 40.96563 68.36673
#
# Poissons Ratio (x) = 0.22421 0.17763
# Poissons Ratio (y) = 0.37497 0.68363
# Poissons Ratio (z) = 0.17801 0.40963
#
# Static dielectric constant tensor:
#      x y z
#    x 3.744700 0.000000 0.033410 
#    y 0.000000 3.560690 0.000000 
#    z 0.033410 0.000000 3.510970 
# 
# 
# High freq. dielectric constant tensor:
#      x y z
#    x 1.780660 0.000000 0.003140 
#    y 0.000000 1.758630 0.000000 
#    z 0.003140 0.000000 1.753310 
# 
# From -- ./inp_files/301685.got.cif
#   From: 2010.06.25/outbox.cif.g09.slc.cpg/sg12_151_cif.got.tgz:301685.got - 2010.06.28 00:19:55.
