data_PCOD8091784
_publ_section_title
;
Structure prediction by ZEFSAII (Michael W. Deem and Ramdas Pophale) SiO2 
 PCOD8091784
Probable space group: C 2/M
;
_chemical_formula_sum "Si O2"
_cell_formula_units_Z 56
_cell_length_a 31.532437
_cell_length_b 7.624331
_cell_length_c 19.241451
_cell_angle_alpha 90.000000
_cell_angle_beta 140.890548
_cell_angle_gamma 90.000000
_cell_volume 2918.041165
_symmetry_space_group_name_H-M "C 2/M"
_symmetry_group_IT_number 12
_symmetry_cell_setting 'monoclinic'
loop_
_space_group_symop_operation_xyz
x,y,z
-x,y,-z
-x,-y,-z
x,-y,z
1/2+x,1/2+y,z
1/2-x,1/2+y,-z
1/2-x,1/2-y,-z
1/2+x,1/2-y,z
loop_
_atom_site_type_symbol
_atom_site_label
_atom_site_fract_x
_atom_site_fract_y
_atom_site_fract_z
Si Si1 0.387324 0.202614 0.106835
Si Si2 0.188268 0.706544 0.125066
Si Si3 0.533932 0.800365 0.248646
Si Si4 0.659689 0.291810 0.675754
Si Si5 0.560339 0.708638 0.430886
Si Si6 0.398028 0.500000 0.915734
Si Si7 0.915740 0.801869 0.288052
Si Si8 0.547435 0.500000 0.163686
O O1 0.457960 0.267710 0.164767
O O2 0.372612 0.296866 0.161631
O O3 0.393300 0.000000 0.132085
O O4 0.328648 0.243762 0.977430
O O5 0.177426 0.500000 0.128771
O O6 0.263936 0.773485 0.233174
O O7 0.140465 0.822022 0.112716
O O8 0.575027 0.786088 0.373203
O O9 0.565471 0.673822 0.230800
O O10 0.536210 0.000000 0.223787
O O11 0.660540 0.500000 0.682203
O O12 0.619345 0.226669 0.556793
O O13 0.624640 0.209647 0.700219
O O14 0.557057 0.500000 0.421579
O O15 0.489099 0.784906 0.368865
O O16 0.403700 0.500000 0.840009
O O17 0.470219 0.500000 0.043106
O O18 0.927884 0.000000 0.327022
#
# Coordination Sequence:
#
# PCOD8091784 Si02
#       8
#     8   8   8   8   8   4   8   4
#     4   9  18  31  49  74 109 147 181 222 275 320
#     4  10  21  38  56  77 114 152 186 223 274 336
#     4  10  19  34  57  85 114 143 177 222 282 335
#     4   9  18  33  51  78 111 155 194 228 274 320
#     4   9  16  30  55  81 111 150 190 235 275 315
#     4  11  24  38  62  90 110 138 179 223 282 343
#     4   9  17  28  50  79 110 146 192 238 273 312
#     4  11  22  38  62  92 112 131 176 228 281 347
#
# _framework density 19.190956
#
# number of rings (size 3 to 8) (size 9 to 14) (size 15 to 20)
#    0.000    2.429    2.143    0.429    2.000    2.857 
#    2.571    1.429    0.000    4.286    0.000    0.000 
#    0.000    0.000    0.000    0.000    0.000    0.000 
#
# Total GULP energy -347127.700812 kJ/mol
# GULP energy per Si atom -12397.417886 kJ/mol
# Density = 1.914728 g / cm^3
# Si number density = 19.190956 Si / 1000 Ang^3
#
#
#
# Elastic Constant Matrix: (Units=GPa)
#
#
# Indices 1 2 3 4 5 6 
#
# 1 104.1669 36.5536 64.6471 0.0000 -18.6717 0.0000
# 2 36.5536 64.7424 24.6948 -0.0001 -7.6901 -0.0001
# 3 64.6471 24.6948 135.6903 0.0000 -8.5453 0.0000
# 4 0.0000 -0.0001 0.0000 17.5485 0.0000 -2.7751
# 5 -18.6717 -7.6901 -8.5453 0.0000 25.9023 0.0000
# 6 0.0000 -0.0001 0.0000 -2.7751 0.0000 10.8341
#
#
#
# Elastic Compliance Matrix: (Units=1/GPa)
#
#
# Indices 1 2 3 4 5 6 
#
# 1 0.017460 -0.006316 -0.006632 0.000000 0.008523 0.000000
# 2 -0.006316 0.019302 -0.000439 0.000000 0.001033 0.000000
# 3 -0.006632 -0.000439 0.010519 0.000000 -0.001441 0.000000
# 4 0.000000 0.000000 0.000000 0.059391 0.000000 0.015213
# 5 0.008523 0.001033 -0.001441 0.000000 0.044582 0.000000
# 6 0.000000 0.000000 0.000000 0.015213 0.000000 0.096198
#
#
# Mechanical properties :
#
#
# Convention : Reuss Voigt Hill
#
# Bulk Modulus (GPa) = 48.76428 61.82117 55.29272
# Shear Modulus (GPa) = 17.78980 22.77059 20.28019
#
# Velocity S-wave (km/s) = 3.04795 3.44834 3.25431
# Velocity P-wave (km/s) = 6.15239 6.93818 6.55707
#
# Compressibility (1/GPa) = 0.02050682
#
# Stress axis : x y z
#
# Youngs Moduli (GPa) = 57.27332 51.80867 95.06897
#
# Poissons Ratio (x) = 0.32721 0.63053
# Poissons Ratio (y) = 0.36173 0.04171
# Poissons Ratio (z) = 0.37986 0.02273
#
# Static dielectric constant tensor:
#      x y z
#    x 3.345270 0.000000 -0.115740 
#    y 0.000000 3.341990 0.000000 
#    z -0.115740 0.000000 3.604540 
# 
# 
# High freq. dielectric constant tensor:
#      x y z
#    x 1.716440 0.000000 -0.019490 
#    y 0.000000 1.740000 0.000000 
#    z -0.019490 0.000000 1.741800 
# 
# From -- ./inp_files/292633.got.cif
#   From: 2010.06.25/outbox.cif.g09.slc.cpg/sg12_147_cif.got.tgz:292633.got - 2010.06.28 00:19:55.
