data_PCOD8091831
_publ_section_title
;
Structure prediction by ZEFSAII (Michael W. Deem and Ramdas Pophale) SiO2 
 PCOD8091831
Probable space group: C 2/M
;
_chemical_formula_sum "Si O2"
_cell_formula_units_Z 48
_cell_length_a 19.604631
_cell_length_b 13.370445
_cell_length_c 17.511976
_cell_angle_alpha 90.000000
_cell_angle_beta 29.387289
_cell_angle_gamma 90.000000
_cell_volume 2252.501073
_symmetry_space_group_name_H-M "C 2/M"
_symmetry_group_IT_number 12
_symmetry_cell_setting 'monoclinic'
loop_
_space_group_symop_operation_xyz
x,y,z
-x,y,-z
-x,-y,-z
x,-y,z
1/2+x,1/2+y,z
1/2-x,1/2+y,-z
1/2-x,1/2-y,-z
1/2+x,1/2-y,z
loop_
_atom_site_type_symbol
_atom_site_label
_atom_site_fract_x
_atom_site_fract_y
_atom_site_fract_z
Si Si1 0.232532 0.788292 0.360115
Si Si2 0.965504 0.888639 0.343344
Si Si3 0.535523 0.884052 0.554755
Si Si4 0.489462 0.112724 0.888172
Si Si5 0.803872 0.887160 0.754121
Si Si6 0.100048 0.708171 0.169541
O O1 0.180573 0.675727 0.430241
O O2 0.397797 0.804124 0.196334
O O3 0.158542 0.814876 0.352205
O O4 0.180834 0.868878 0.473430
O O5 0.092741 0.868197 0.277410
O O6 0.994761 0.801574 0.253606
O O7 0.969790 0.000000 0.303882
O O8 0.500000 0.873966 0.500000
O O9 0.416679 0.835296 0.726853
O O10 0.558107 0.000000 0.554265
O O11 0.448070 0.120196 0.839611
O O12 0.543457 0.000000 0.851389
O O13 0.353819 0.136219 0.069390
O O14 0.819795 0.000000 0.709114
O O15 0.250000 0.750000 0.000000
#
# Coordination Sequence:
#
# PCOD8091831 Si02
#       6
#     8   8   8   8   8   8
#     4  11  21  36  59  89 123 158 198 253 307 372
#     4  10  20  34  56  86 116 151 203 251 299 359
#     4  10  23  42  66  92 123 169 217 256 301 365
#     4  11  23  37  58  90 126 163 201 252 320 377
#     4  10  19  34  57  87 122 161 200 248 311 373
#     4  11  22  39  62  87 119 163 209 259 305 365
#
# _framework density 21.309646000000001
#
# number of rings (size 3 to 8) (size 9 to 14) (size 15 to 20)
#    0.000    1.500    1.667    5.000    0.000    6.000 
#    0.000    2.500    0.000    2.000    0.000    0.000 
#    0.000    0.000    0.000    0.000    0.000    0.000 
#
# Total GULP energy -297380.091188 kJ/mol
# GULP energy per Si atom -12390.837133 kJ/mol
# Density = 2.126114 g / cm^3
# Si number density = 21.309646 Si / 1000 Ang^3
#
#
#
# Elastic Constant Matrix: (Units=GPa)
#
#
# Indices 1 2 3 4 5 6 
#
# 1 31.4550 4.2115 -3.8680 0.0002 6.1015 -0.0001
# 2 4.2115 121.7255 32.5955 0.0001 9.3283 0.0000
# 3 -3.8680 32.5955 68.6924 0.0007 7.4683 -0.0003
# 4 0.0002 0.0001 0.0007 25.1741 -0.0003 -0.1405
# 5 6.1015 9.3283 7.4683 -0.0003 35.8339 0.0001
# 6 -0.0001 0.0000 -0.0003 -0.1405 0.0001 28.3174
#
#
#
# Elastic Compliance Matrix: (Units=1/GPa)
#
#
# Indices 1 2 3 4 5 6 
#
# 1 0.033570 -0.001584 0.003293 0.000000 -0.005990 0.000000
# 2 -0.001584 0.009571 -0.004491 0.000000 -0.001286 0.000000
# 3 0.003293 -0.004491 0.017198 -0.000001 -0.002976 0.000000
# 4 0.000000 0.000000 -0.000001 0.039724 0.000000 0.000197
# 5 -0.005990 -0.001286 -0.002976 0.000000 0.029881 0.000000
# 6 0.000000 0.000000 0.000000 0.000197 0.000000 0.035315
#
#
# Mechanical properties :
#
#
# Convention : Reuss Voigt Hill
#
# Bulk Modulus (GPa) = 18.25643 31.97234 25.11438
# Shear Modulus (GPa) = 26.44346 30.46068 28.45207
#
# Velocity S-wave (km/s) = 3.52648 3.78488 3.65797
# Velocity P-wave (km/s) = 5.01670 5.84266 5.44536
#
# Compressibility (1/GPa) = 0.05477521
#
# Stress axis : x y z
#
# Youngs Moduli (GPa) = 29.78809 104.48039 58.14726
#
# Poissons Ratio (x) = 0.16553 -0.19150
# Poissons Ratio (y) = 0.04719 0.26114
# Poissons Ratio (z) = -0.09810 0.46923
#
# Static dielectric constant tensor:
#      x y z
#    x 3.586660 0.000000 0.156160 
#    y 0.000000 4.039550 0.000000 
#    z 0.156160 0.000000 3.958660 
# 
# 
# High freq. dielectric constant tensor:
#      x y z
#    x 1.808590 0.000000 0.007080 
#    y 0.000000 1.838550 0.000000 
#    z 0.007080 0.000000 1.846070 
# 
# From -- ./inp_files/283983.got.cif
#   From: 2010.06.25/outbox.cif.g09.slc.cpg/sg12_142_cif.got.tgz:283983.got - 2010.06.28 00:19:55.
