data_PCOD8091719
_publ_section_title
;
Structure prediction by ZEFSAII (Michael W. Deem and Ramdas Pophale) SiO2 
 PCOD8091719
Probable space group: C 2/M
;
_chemical_formula_sum "Si O2"
_cell_formula_units_Z 64
_cell_length_a 32.086607
_cell_length_b 8.923948
_cell_length_c 11.887022
_cell_angle_alpha 90.000000
_cell_angle_beta 79.635580
_cell_angle_gamma 90.000000
_cell_volume 3348.183307
_symmetry_space_group_name_H-M "C 2/M"
_symmetry_group_IT_number 12
_symmetry_cell_setting 'monoclinic'
loop_
_space_group_symop_operation_xyz
x,y,z
-x,y,-z
-x,-y,-z
x,-y,z
1/2+x,1/2+y,z
1/2-x,1/2+y,-z
1/2-x,1/2-y,-z
1/2+x,1/2-y,z
loop_
_atom_site_type_symbol
_atom_site_label
_atom_site_fract_x
_atom_site_fract_y
_atom_site_fract_z
Si Si1 0.764503 0.823749 0.607529
Si Si2 0.852649 0.328532 0.580354
Si Si3 0.870096 0.671053 0.822521
Si Si4 0.795466 0.173006 0.981586
Si Si5 0.459483 0.323186 0.157065
Si Si6 0.193425 0.171195 0.769615
Si Si7 0.385328 0.676893 0.348493
Si Si8 0.053766 0.177115 0.086553
O O1 0.750000 0.750000 0.500000
O O2 0.810985 0.769802 0.614732
O O3 0.732987 0.776981 0.722371
O O4 0.764682 0.000000 0.592317
O O5 0.840527 0.500000 0.558271
O O6 0.877792 0.316747 0.685155
O O7 0.881861 0.263240 0.467465
O O8 0.865569 0.500000 0.863473
O O9 0.910622 0.742238 0.860167
O O10 0.826724 0.753751 0.876332
O O11 0.817030 0.190942 0.093854
O O12 0.789409 0.000000 0.952591
O O13 0.750000 0.250000 0.000000
O O14 0.455477 0.500000 0.150839
O O15 0.428419 0.263342 0.269422
O O16 0.507909 0.278846 0.160908
O O17 0.444879 0.262440 0.042234
O O18 0.153242 0.219722 0.715235
O O19 0.206151 0.000000 0.736527
O O20 0.386476 0.500000 0.371150
O O21 0.061639 0.000000 0.088828
#
# Coordination Sequence:
#
# PCOD8091719 Si02
#       8
#     8   8   8   8   8   8   8   8
#     4  12  23  36  56  81 110 146 188 233 278 331
#     4  11  24  40  55  76 110 152 195 238 280 329
#     4  11  24  40  57  80 115 154 194 236 281 334
#     4  11  23  39  59  84 115 149 187 232 284 337
#     4   8  16  33  60  92 118 141 177 230 286 340
#     4  10  21  36  56  83 113 144 182 232 283 332
#     4  10  19  34  57  83 110 142 182 231 284 335
#     4   9  17  35  63  89 114 147 185 225 280 345
#
# _framework density 19.114844000000002
#
# number of rings (size 3 to 8) (size 9 to 14) (size 15 to 20)
#    0.000    1.750    1.250    4.500    0.000    8.000 
#    0.000    4.375    0.000    3.750    0.000    0.000 
#    0.000    0.000    0.000    0.000    0.000    0.000 
#
# Total GULP energy -396864.235676 kJ/mol
# GULP energy per Si atom -12402.007365 kJ/mol
# Density = 1.907134 g / cm^3
# Si number density = 19.114844 Si / 1000 Ang^3
#
#
#
# Elastic Constant Matrix: (Units=GPa)
#
#
# Indices 1 2 3 4 5 6 
#
# 1 131.6879 54.8028 60.8388 0.0000 -11.6543 0.0000
# 2 54.8028 109.3952 49.8503 0.0000 -4.3623 0.0000
# 3 60.8388 49.8503 111.2297 0.0000 -12.7018 0.0000
# 4 0.0000 0.0000 0.0000 30.1688 0.0000 1.1798
# 5 -11.6543 -4.3623 -12.7018 0.0000 36.1838 0.0000
# 6 0.0000 0.0000 0.0000 1.1798 0.0000 29.2975
#
#
#
# Elastic Compliance Matrix: (Units=1/GPa)
#
#
# Indices 1 2 3 4 5 6 
#
# 1 0.011243 -0.003582 -0.004355 0.000000 0.001661 0.000000
# 2 -0.003582 0.012635 -0.003814 0.000000 -0.000969 0.000000
# 3 -0.004355 -0.003814 0.013406 0.000000 0.002844 0.000000
# 4 0.000000 0.000000 0.000000 0.033199 0.000000 -0.001337
# 5 0.001661 -0.000969 0.002844 0.000000 0.029053 0.000000
# 6 0.000000 0.000000 0.000000 -0.001337 0.000000 0.034186
#
#
# Mechanical properties :
#
#
# Convention : Reuss Voigt Hill
#
# Bulk Modulus (GPa) = 72.55250 75.92184 74.23717
# Shear Modulus (GPa) = 30.89876 31.58474 31.24175
#
# Velocity S-wave (km/s) = 4.02491 4.06934 4.04719
# Velocity P-wave (km/s) = 7.72259 7.86666 7.79496
#
# Compressibility (1/GPa) = 0.01378312
#
# Stress axis : x y z
#
# Youngs Moduli (GPa) = 88.94350 79.14548 74.59096
#
# Poissons Ratio (x) = 0.28348 0.32482
# Poissons Ratio (y) = 0.31857 0.28451
# Poissons Ratio (z) = 0.38732 0.30188
#
# Static dielectric constant tensor:
#      x y z
#    x 2.684730 0.000000 -0.482290 
#    y 0.000000 3.476980 0.000000 
#    z -0.482290 0.000000 3.675460 
# 
# 
# High freq. dielectric constant tensor:
#      x y z
#    x 1.739870 0.000000 -0.003890 
#    y 0.000000 1.734000 0.000000 
#    z -0.003890 0.000000 1.749510 
# 
# From -- ./inp_files/187515.got.cif
#   From: 2010.06.25/outbox.cif.g09.slc.cpg/sg12_94_cif.got.tgz:187515.got - 2010.06.28 00:19:55.
