data_PCOD8091638
_publ_section_title
;
Structure prediction by ZEFSAII (Michael W. Deem and Ramdas Pophale) SiO2 
 PCOD8091638
Probable space group: C 2/M
;
_chemical_formula_sum "Si O2"
_cell_formula_units_Z 48
_cell_length_a 18.189569
_cell_length_b 7.724246
_cell_length_c 17.181217
_cell_angle_alpha 90.000000
_cell_angle_beta 89.697124
_cell_angle_gamma 90.000000
_cell_volume 2413.939384
_symmetry_space_group_name_H-M "C 2/M"
_symmetry_group_IT_number 12
_symmetry_cell_setting 'monoclinic'
loop_
_space_group_symop_operation_xyz
x,y,z
-x,y,-z
-x,-y,-z
x,-y,z
1/2+x,1/2+y,z
1/2-x,1/2+y,-z
1/2-x,1/2-y,-z
1/2+x,1/2-y,z
loop_
_atom_site_type_symbol
_atom_site_label
_atom_site_fract_x
_atom_site_fract_y
_atom_site_fract_z
Si Si1 0.329827 0.295237 0.646632
Si Si2 0.915548 0.794982 0.496314
Si Si3 0.588731 0.000000 0.084752
Si Si4 0.335007 0.802498 0.343171
Si Si5 0.080916 0.808775 0.804112
Si Si6 0.410375 0.700422 0.802184
Si Si7 0.585749 0.000000 0.911411
O O1 0.331344 0.500000 0.641033
O O2 0.374738 0.220837 0.573000
O O3 0.246592 0.224617 0.644267
O O4 0.367844 0.235169 0.726054
O O5 0.879352 0.705883 0.422549
O O6 0.000000 0.738011 0.500000
O O7 0.907512 0.000000 0.488237
O O8 0.615960 0.175014 0.127548
O O9 0.501339 0.000000 0.081196
O O10 0.621547 0.000000 0.997187
O O11 0.375217 0.693684 0.276618
O O12 0.330497 0.000000 0.314665
O O13 0.112733 0.670858 0.865460
O O14 0.996204 0.770685 0.784632
O O15 0.089293 0.000000 0.841154
O O16 0.392849 0.500000 0.823561
#
# Coordination Sequence:
#
# PCOD8091638 Si02
#       7
#     8   8   4   8   8   8   4
#     4   9  19  35  53  76 109 150 183 229 277 323
#     4  10  20  36  55  76 108 146 189 233 274 323
#     4   9  18  32  56  87 113 141 175 227 285 329
#     4  11  21  34  52  78 111 147 184 234 274 324
#     4  10  19  34  57  81 109 148 186 225 277 329
#     4   9  18  35  56  80 110 144 185 228 274 329
#     4   9  18  34  54  85 119 137 175 233 277 331
#
# _framework density 19.884509000000001
#
# number of rings (size 3 to 8) (size 9 to 14) (size 15 to 20)
#    0.000    2.333    0.833    2.000    0.000    3.667 
#    4.500    3.333    0.000    1.000    0.000    0.000 
#    0.000    0.000    0.000    0.000    0.000    0.000 
#
# Total GULP energy -297620.713414 kJ/mol
# GULP energy per Si atom -12400.863059 kJ/mol
# Density = 1.983925 g / cm^3
# Si number density = 19.884509 Si / 1000 Ang^3
#
#
#
# Elastic Constant Matrix: (Units=GPa)
#
#
# Indices 1 2 3 4 5 6 
#
# 1 100.1476 29.0307 54.9517 0.0000 -1.0832 0.0000
# 2 29.0307 90.5439 53.6767 0.0000 -0.6842 0.0000
# 3 54.9517 53.6767 169.1273 0.0000 1.8037 0.0000
# 4 0.0000 0.0000 0.0000 29.1893 0.0000 4.6481
# 5 -1.0832 -0.6842 1.8037 0.0000 2.9232 0.0000
# 6 0.0000 0.0000 0.0000 4.6481 0.0000 12.4519
#
#
#
# Elastic Compliance Matrix: (Units=1/GPa)
#
#
# Indices 1 2 3 4 5 6 
#
# 1 0.012545 -0.001869 -0.003551 0.000000 0.006403 0.000000
# 2 -0.001869 0.013984 -0.003884 0.000000 0.004977 0.000000
# 3 -0.003551 -0.003884 0.008378 0.000000 -0.007395 0.000000
# 4 0.000000 0.000000 0.000000 0.036424 0.000000 -0.013597
# 5 0.006403 0.004977 -0.007395 0.000000 0.350192 0.000000
# 6 0.000000 0.000000 0.000000 -0.013597 0.000000 0.085385
#
#
# Mechanical properties :
#
#
# Convention : Reuss Voigt Hill
#
# Bulk Modulus (GPa) = 61.35370 70.57075 65.96222
# Shear Modulus (GPa) = 9.41713 23.72353 16.57033
#
# Velocity S-wave (km/s) = 2.17858 3.45783 2.88988
# Velocity P-wave (km/s) = 6.10330 7.17701 6.66182
#
# Compressibility (1/GPa) = 0.01629894
#
# Stress axis : x y z
#
# Youngs Moduli (GPa) = 79.71467 71.51226 119.35894
#
# Poissons Ratio (x) = 0.13362 0.42387
# Poissons Ratio (y) = 0.14895 0.46359
# Poissons Ratio (z) = 0.28308 0.27775
#
# Static dielectric constant tensor:
#      x y z
#    x 3.538830 0.000000 -0.020420 
#    y 0.000000 3.562960 0.000000 
#    z -0.020420 0.000000 3.709880 
# 
# 
# High freq. dielectric constant tensor:
#      x y z
#    x 1.756260 0.000000 -0.000180 
#    y 0.000000 1.774330 0.000000 
#    z -0.000180 0.000000 1.771730 
# 
# From -- ./inp_files/221748.got.cif
#   From: 2010.06.25/outbox.cif.g09.slc.cpg/sg12_111_cif.got.tgz:221748.got - 2010.06.28 00:19:55.
