data_PCOD8091848
_publ_section_title
;
Structure prediction by ZEFSAII (Michael W. Deem and Ramdas Pophale) SiO2 
 PCOD8091848
Probable space group: C 2/M
;
_chemical_formula_sum "Si O2"
_cell_formula_units_Z 56
_cell_length_a 20.616257
_cell_length_b 9.092378
_cell_length_c 30.986857
_cell_angle_alpha 90.000000
_cell_angle_beta 32.562780
_cell_angle_gamma 90.000000
_cell_volume 3126.276665
_symmetry_space_group_name_H-M "C 2/M"
_symmetry_group_IT_number 12
_symmetry_cell_setting 'monoclinic'
loop_
_space_group_symop_operation_xyz
x,y,z
-x,y,-z
-x,-y,-z
x,-y,z
1/2+x,1/2+y,z
1/2-x,1/2+y,-z
1/2-x,1/2-y,-z
1/2+x,1/2-y,z
loop_
_atom_site_type_symbol
_atom_site_label
_atom_site_fract_x
_atom_site_fract_y
_atom_site_fract_z
Si Si1 0.823869 0.326145 0.735760
Si Si2 0.554452 0.826109 0.755870
Si Si3 0.088853 0.329839 0.833871
Si Si4 0.528288 0.326105 0.415071
Si Si5 0.415054 0.829675 0.009130
Si Si6 0.824164 0.325738 0.834513
Si Si7 0.815422 0.174252 0.591731
O O1 0.828215 0.500000 0.729009
O O2 0.701800 0.267920 0.783322
O O3 0.940043 0.257908 0.646720
O O4 0.829925 0.274651 0.781822
O O5 0.543260 0.781949 0.812270
O O6 0.441790 0.760734 0.792745
O O7 0.679550 0.762104 0.665730
O O8 0.554679 0.000000 0.750533
O O9 0.130292 0.500000 0.811357
O O10 0.979126 0.301460 0.927731
O O11 0.534874 0.500000 0.403375
O O12 0.623223 0.273630 0.398174
O O13 0.394581 0.276514 0.505918
O O14 0.292048 0.740117 0.077058
O O15 0.385054 0.000000 0.033756
O O16 0.500000 0.770528 0.000000
O O17 0.816596 0.500000 0.842912
O O18 0.813731 0.000000 0.594064
#
# Coordination Sequence:
#
# PCOD8091848 Si02
#       7
#     8   8   8   8   8   8   8
#     4  11  21  32  48  76 108 137 168 206 256 309
#     4   9  17  33  55  77 101 134 174 212 249 300
#     4  10  19  34  58  78  96 131 177 217 251 297
#     4   9  16  29  53  81 100 127 175 219 250 288
#     4  10  20  34  54  80 104 129 168 218 263 297
#     4  10  22  36  52  74 105 142 171 202 255 315
#     4   8  14  27  53  81 100 125 172 220 248 288
#
# _framework density 17.912682
#
# number of rings (size 3 to 8) (size 9 to 14) (size 15 to 20)
#    0.000    2.429    2.857    1.286    0.000    2.000 
#    0.000    2.857    0.000    0.000    0.000    0.000 
#    0.000    0.000    0.000    0.000    0.000    0.000 
#
# Total GULP energy -347154.162075 kJ/mol
# GULP energy per Si atom -12398.362931 kJ/mol
# Density = 1.787191 g / cm^3
# Si number density = 17.912682 Si / 1000 Ang^3
#
#
#
# Elastic Constant Matrix: (Units=GPa)
#
#
# Indices 1 2 3 4 5 6 
#
# 1 100.0593 20.6784 68.0211 0.0020 -6.0649 -0.0024
# 2 20.6784 29.2253 32.2384 0.0033 4.9489 -0.0065
# 3 68.0211 32.2384 155.6792 0.0004 -2.2593 -0.0013
# 4 0.0020 0.0033 0.0004 25.4997 0.0000 -0.8152
# 5 -6.0649 4.9489 -2.2593 0.0000 32.2184 0.0020
# 6 -0.0024 -0.0065 -0.0013 -0.8152 0.0020 15.0670
#
#
#
# Elastic Compliance Matrix: (Units=1/GPa)
#
#
# Indices 1 2 3 4 5 6 
#
# 1 0.014931 -0.005139 -0.005413 0.000000 0.003220 -0.000001
# 2 -0.005139 0.047984 -0.007820 -0.000005 -0.008886 0.000020
# 3 -0.005413 -0.007820 0.010421 0.000001 0.000913 -0.000003
# 4 0.000000 -0.000005 0.000001 0.039284 0.000001 0.002126
# 5 0.003220 -0.008886 0.000913 0.000001 0.033073 -0.000008
# 6 -0.000001 0.000020 -0.000003 0.002126 -0.000008 0.066485
#
#
# Mechanical properties :
#
#
# Convention : Reuss Voigt Hill
#
# Bulk Modulus (GPa) = 27.32807 58.53775 42.93291
# Shear Modulus (GPa) = 19.14820 25.49206 22.32013
#
# Velocity S-wave (km/s) = 3.27306 3.77653 3.53378
# Velocity P-wave (km/s) = 5.43814 7.19491 6.37730
#
# Compressibility (1/GPa) = 0.03659242
#
# Stress axis : x y z
#
# Youngs Moduli (GPa) = 66.97462 20.84013 95.95761
#
# Poissons Ratio (x) = 0.10709 0.51941
# Poissons Ratio (y) = 0.34417 0.75043
# Poissons Ratio (z) = 0.36253 0.16298
#
# Static dielectric constant tensor:
#      x y z
#    x 3.371430 0.000000 -0.021650 
#    y 0.000000 2.957050 0.000000 
#    z -0.021650 0.000000 3.678430 
# 
# 
# High freq. dielectric constant tensor:
#      x y z
#    x 1.678080 0.000000 0.005610 
#    y 0.000000 1.657150 0.000000 
#    z 0.005610 0.000000 1.713260 
# 
# From -- ./inp_files/319682.got.cif
#   From: 2010.06.25/outbox.cif.g09.slc.cpg/sg12_160_cif.got.tgz:319682.got - 2010.06.28 00:19:55.
