data_PCOD8091692
_publ_section_title
;
Structure prediction by ZEFSAII (Michael W. Deem and Ramdas Pophale) SiO2 
 PCOD8091692
Probable space group: C 2/M
;
_chemical_formula_sum "Si O2"
_cell_formula_units_Z 56
_cell_length_a 19.738975
_cell_length_b 8.584923
_cell_length_c 27.984726
_cell_angle_alpha 90.000000
_cell_angle_beta 142.263840
_cell_angle_gamma 90.000000
_cell_volume 2902.365633
_symmetry_space_group_name_H-M "C 2/M"
_symmetry_group_IT_number 12
_symmetry_cell_setting 'monoclinic'
loop_
_space_group_symop_operation_xyz
x,y,z
-x,y,-z
-x,-y,-z
x,-y,z
1/2+x,1/2+y,z
1/2-x,1/2+y,-z
1/2-x,1/2-y,-z
1/2+x,1/2-y,z
loop_
_atom_site_type_symbol
_atom_site_label
_atom_site_fract_x
_atom_site_fract_y
_atom_site_fract_z
Si Si1 0.633831 0.178346 0.447861
Si Si2 0.968842 0.683247 0.130128
Si Si3 0.117594 0.321297 0.550524
Si Si4 0.922635 0.315723 0.999516
Si Si5 0.494972 0.681147 0.704070
Si Si6 0.183554 0.317231 0.869498
Si Si7 0.841879 0.318248 0.694993
O O1 0.750000 0.250000 0.500000
O O2 0.619703 0.197800 0.495614
O O3 0.534580 0.271048 0.366452
O O4 0.630086 0.000000 0.429029
O O5 0.954942 0.500000 0.118742
O O6 0.871355 0.744382 0.111301
O O7 0.088826 0.727154 0.218791
O O8 0.959019 0.755932 0.071460
O O9 0.129851 0.500000 0.573788
O O10 0.213637 0.223757 0.630597
O O11 0.000000 0.250844 0.500000
O O12 0.935330 0.500000 0.007246
O O13 0.795820 0.272088 0.920127
O O14 0.000000 0.247072 0.000000
O O15 0.524419 0.500000 0.723498
O O16 0.599382 0.781285 0.779640
O O17 0.387125 0.718496 0.675847
O O18 0.207241 0.500000 0.884915
O O19 0.857580 0.500000 0.692227
#
# Coordination Sequence:
#
# PCOD8091692 Si02
#       7
#     8   8   8   8   8   8   8
#     4  11  21  35  58  84 114 148 185 230 278 328
#     4   8  17  34  56  82 108 141 181 226 274 323
#     4  10  22  39  56  78 113 152 190 228 274 331
#     4  10  20  36  57  81 115 149 179 219 275 336
#     4  11  21  35  57  85 113 143 186 234 282 332
#     4  10  20  36  58  82 111 142 185 233 273 325
#     4  10  19  34  57  82 111 144 187 236 280 328
#
# _framework density 19.294605000000001
#
# number of rings (size 3 to 8) (size 9 to 14) (size 15 to 20)
#    0.000    2.000    1.429    3.857    0.000    1.143 
#    2.571    3.571    0.000    0.000    0.000    0.000 
#    0.000    0.000    0.000    0.000    0.000    0.000 
#
# Total GULP energy -347191.125933 kJ/mol
# GULP energy per Si atom -12399.683069 kJ/mol
# Density = 1.925069 g / cm^3
# Si number density = 19.294605 Si / 1000 Ang^3
#
#
#
# Elastic Constant Matrix: (Units=GPa)
#
#
# Indices 1 2 3 4 5 6 
#
# 1 96.4989 19.3661 59.1208 0.0000 14.3216 0.0000
# 2 19.3661 41.7901 9.6679 0.0000 -3.1358 0.0004
# 3 59.1208 9.6679 127.0704 0.0000 7.8909 -0.0001
# 4 0.0000 0.0000 0.0000 31.6889 0.0000 4.8927
# 5 14.3216 -3.1358 7.8909 0.0000 28.4588 0.0000
# 6 0.0000 0.0004 -0.0001 4.8927 0.0000 18.8656
#
#
#
# Elastic Compliance Matrix: (Units=1/GPa)
#
#
# Indices 1 2 3 4 5 6 
#
# 1 0.017125 -0.006879 -0.006982 0.000000 -0.007440 0.000000
# 2 -0.006879 0.027421 0.000724 0.000000 0.006283 -0.000001
# 3 -0.006982 0.000724 0.011030 0.000000 0.000535 0.000000
# 4 0.000000 0.000000 0.000000 0.032873 0.000000 -0.008525
# 5 -0.007440 0.006283 0.000535 0.000000 0.039427 0.000000
# 6 0.000000 -0.000001 0.000000 -0.008525 0.000000 0.055217
#
#
# Mechanical properties :
#
#
# Convention : Reuss Voigt Hill
#
# Bulk Modulus (GPa) = 34.12778 49.07432 41.60105
# Shear Modulus (GPa) = 22.81697 27.61630 25.21664
#
# Velocity S-wave (km/s) = 3.44256 3.78735 3.61907
# Velocity P-wave (km/s) = 5.79032 6.67943 6.25070
#
# Compressibility (1/GPa) = 0.02930164
#
# Stress axis : x y z
#
# Youngs Moduli (GPa) = 58.39292 36.46855 90.66251
#
# Poissons Ratio (x) = 0.25087 0.63304
# Poissons Ratio (y) = 0.40169 -0.06566
# Poissons Ratio (z) = 0.40772 -0.02641
#
# Static dielectric constant tensor:
#      x y z
#    x 3.493030 0.000000 -0.145970 
#    y 0.000000 3.398570 0.000000 
#    z -0.145970 0.000000 3.699800 
# 
# 
# High freq. dielectric constant tensor:
#      x y z
#    x 1.731580 0.000000 -0.004150 
#    y 0.000000 1.737730 0.000000 
#    z -0.004150 0.000000 1.765940 
# 
# From -- ./inp_files/380783.got.cif
#   From: 2010.06.25/outbox.cif.g09.slc.cpg/sg12_191_cif.got.tgz:380783.got - 2010.06.28 00:19:55.
