data_PCOD8091620
_publ_section_title
;
Structure prediction by ZEFSAII (Michael W. Deem and Ramdas Pophale) SiO2 
 PCOD8091620
Probable space group: C 2/M
;
_chemical_formula_sum "Si O2"
_cell_formula_units_Z 64
_cell_length_a 13.910170
_cell_length_b 11.156176
_cell_length_c 30.042933
_cell_angle_alpha 90.000000
_cell_angle_beta 44.408629
_cell_angle_gamma 90.000000
_cell_volume 3262.466225
_symmetry_space_group_name_H-M "C 2/M"
_symmetry_group_IT_number 12
_symmetry_cell_setting 'monoclinic'
loop_
_space_group_symop_operation_xyz
x,y,z
-x,y,-z
-x,-y,-z
x,-y,z
1/2+x,1/2+y,z
1/2-x,1/2+y,-z
1/2-x,1/2-y,-z
1/2+x,1/2-y,z
loop_
_atom_site_type_symbol
_atom_site_label
_atom_site_fract_x
_atom_site_fract_y
_atom_site_fract_z
Si Si1 0.211318 0.867540 0.727758
Si Si2 0.594172 0.632654 0.005542
Si Si3 0.591007 0.688835 0.856035
Si Si4 0.614131 0.363022 0.428455
Si Si5 0.875327 0.363199 0.795417
Si Si6 0.908196 0.862388 0.665526
Si Si7 0.392854 0.727120 0.327632
Si Si8 0.112625 0.364332 0.106183
O O1 0.101411 0.874074 0.804286
O O2 0.303402 0.748965 0.708436
O O3 0.134989 0.857668 0.705643
O O4 0.287093 0.000000 0.702327
O O5 0.626443 0.500000 0.975278
O O6 0.512600 0.614628 0.078477
O O7 0.500000 0.701151 0.000000
O O8 0.743729 0.697234 0.957880
O O9 0.740000 0.712219 0.828185
O O10 0.518536 0.816792 0.876526
O O11 0.500000 0.312326 0.500000
O O12 0.650711 0.500000 0.427960
O O13 0.551079 0.351846 0.399743
O O14 0.750988 0.285688 0.390401
O O15 0.835848 0.500000 0.798824
O O16 0.915484 0.340539 0.832674
O O17 0.002426 0.330415 0.721994
O O18 0.041277 0.846940 0.653114
O O19 0.848642 0.000000 0.693229
O O20 0.115968 0.500000 0.091300
#
# Coordination Sequence:
#
# PCOD8091620 Si02
#       8
#     8   8   8   8   8   8   8   8
#     4  11  23  37  57  88 122 154 197 249 296 356
#     4  10  19  34  57  81 106 146 195 248 299 356
#     4  12  21  35  58  84 112 149 198 247 297 352
#     4   9  20  39  62  91 125 162 203 243 287 351
#     4  11  21  36  57  86 116 150 197 245 293 353
#     4  10  22  39  62  88 122 162 196 239 299 356
#     4  11  21  37  59  89 123 155 195 242 299 350
#     4  10  22  38  56  81 114 151 196 243 301 363
#
# _framework density 19.617063000000002
#
# number of rings (size 3 to 8) (size 9 to 14) (size 15 to 20)
#    0.000    1.500    3.750    2.250    0.000    2.000 
#    0.000    0.000    0.000    9.750    0.000    0.000 
#    0.000    0.000    0.000    0.000    0.000    0.000 
#
# Total GULP energy -396422.860950 kJ/mol
# GULP energy per Si atom -12388.214405 kJ/mol
# Density = 1.957241 g / cm^3
# Si number density = 19.617063 Si / 1000 Ang^3
#
#
#
# Elastic Constant Matrix: (Units=GPa)
#
#
# Indices 1 2 3 4 5 6 
#
# 1 110.7187 55.2949 34.6435 0.0000 -6.1089 0.0000
# 2 55.2949 100.0328 42.2500 0.0000 -5.8759 0.0000
# 3 34.6435 42.2500 126.0024 0.0000 -6.1321 0.0000
# 4 0.0000 0.0000 0.0000 20.6433 0.0000 -4.7895
# 5 -6.1089 -5.8759 -6.1321 0.0000 31.0679 0.0000
# 6 0.0000 0.0000 0.0000 -4.7895 0.0000 22.2081
#
#
#
# Elastic Compliance Matrix: (Units=1/GPa)
#
#
# Indices 1 2 3 4 5 6 
#
# 1 0.012695 -0.006412 -0.001290 0.000000 0.001029 0.000000
# 2 -0.006412 0.014949 -0.003204 0.000000 0.000934 0.000000
# 3 -0.001290 -0.003204 0.009414 0.000000 0.000998 0.000000
# 4 0.000000 0.000000 0.000000 0.050993 0.000000 0.010997
# 5 0.001029 0.000934 0.000998 0.000000 0.032764 0.000000
# 6 0.000000 0.000000 0.000000 0.010997 0.000000 0.047400
#
#
# Mechanical properties :
#
#
# Convention : Reuss Voigt Hill
#
# Bulk Modulus (GPa) = 65.59438 66.79230 66.19334
# Shear Modulus (GPa) = 25.62662 28.42156 27.02409
#
# Velocity S-wave (km/s) = 3.61826 3.81046 3.71560
# Velocity P-wave (km/s) = 7.13903 7.31310 7.22659
#
# Compressibility (1/GPa) = 0.01524521
#
# Stress axis : x y z
#
# Youngs Moduli (GPa) = 78.77417 66.89339 106.22329
#
# Poissons Ratio (x) = 0.42890 0.13706
# Poissons Ratio (y) = 0.50508 0.34037
# Poissons Ratio (z) = 0.10164 0.21435
#
# Static dielectric constant tensor:
#      x y z
#    x 3.681370 0.000000 0.081570 
#    y 0.000000 3.510320 0.000000 
#    z 0.081570 0.000000 3.611750 
# 
# 
# High freq. dielectric constant tensor:
#      x y z
#    x 1.769150 0.000000 0.009020 
#    y 0.000000 1.745910 0.000000 
#    z 0.009020 0.000000 1.761120 
# 
# From -- ./inp_files/376069.got.cif
#   From: 2010.06.25/outbox.cif.g09.slc.cpg/sg12_189_cif.got.tgz:376069.got - 2010.06.28 00:19:55.
