data_PCOD8091653
_publ_section_title
;
Structure prediction by ZEFSAII (Michael W. Deem and Ramdas Pophale) SiO2 
 PCOD8091653
Probable space group: C 2/M
;
_chemical_formula_sum "Si O2"
_cell_formula_units_Z 56
_cell_length_a 20.157259
_cell_length_b 17.897196
_cell_length_c 15.676574
_cell_angle_alpha 90.000000
_cell_angle_beta 149.800245
_cell_angle_gamma 90.000000
_cell_volume 2844.786270
_symmetry_space_group_name_H-M "C 2/M"
_symmetry_group_IT_number 12
_symmetry_cell_setting 'monoclinic'
loop_
_space_group_symop_operation_xyz
x,y,z
-x,y,-z
-x,-y,-z
x,-y,z
1/2+x,1/2+y,z
1/2-x,1/2+y,-z
1/2-x,1/2-y,-z
1/2+x,1/2-y,z
loop_
_atom_site_type_symbol
_atom_site_label
_atom_site_fract_x
_atom_site_fract_y
_atom_site_fract_z
Si Si1 0.859686 0.314437 0.362883
Si Si2 0.136980 0.418215 0.198740
Si Si3 0.103666 0.851964 0.546718
Si Si4 0.233326 0.165365 0.387299
Si Si5 0.323604 0.285973 0.002513
Si Si6 0.528631 0.588346 0.277096
Si Si7 0.575090 0.198814 0.258333
O O1 0.899401 0.237227 0.453876
O O2 0.774915 0.362180 0.338259
O O3 0.777974 0.302792 0.185998
O O4 0.000000 0.355439 0.500000
O O5 0.191278 0.500000 0.280101
O O6 0.248083 0.377684 0.264880
O O7 0.107592 0.380989 0.256034
O O8 0.000000 0.419759 0.000000
O O9 0.000000 0.885423 0.500000
O O10 0.072286 0.883351 0.418216
O O11 0.366565 0.193635 0.581971
O O12 0.144674 0.238782 0.277417
O O13 0.148820 0.103034 0.344254
O O14 0.250000 0.250000 0.000000
O O15 0.399691 0.363349 0.108369
O O16 0.421966 0.219304 0.086184
O O17 0.494357 0.500000 0.238669
#
# Coordination Sequence:
#
# PCOD8091653 Si02
#       7
#     8   8   8   8   8   8   8
#     4  11  21  37  64  93 122 159 216 270 320 375
#     4  11  22  34  52  85 126 165 203 250 314 391
#     4  11  21  38  63  92 128 170 209 263 322 394
#     4  10  19  36  59  86 113 159 210 257 304 364
#     4  11  23  40  63  93 127 165 213 270 323 385
#     4  11  24  41  64  93 129 171 213 262 327 387
#     4  10  19  34  57  81 119 158 206 252 305 368
#
# _framework density 19.685134999999999
#
# number of rings (size 3 to 8) (size 9 to 14) (size 15 to 20)
#    0.000    1.286    2.857    5.571    0.000    2.857 
#    0.000    3.571    0.000    3.429    0.000    0.000 
#    0.000    0.000    0.000    0.000    0.000    0.000 
#
# Total GULP energy -347013.064191 kJ/mol
# GULP energy per Si atom -12393.323721 kJ/mol
# Density = 1.964033 g / cm^3
# Si number density = 19.685135 Si / 1000 Ang^3
#
#
#
# Elastic Constant Matrix: (Units=GPa)
#
#
# Indices 1 2 3 4 5 6 
#
# 1 158.8722 29.0939 63.1441 -0.0001 -1.5568 0.0000
# 2 29.0939 76.2371 14.9664 0.0000 0.5896 0.0000
# 3 63.1441 14.9664 108.2050 -0.0001 9.2929 -0.0001
# 4 -0.0001 0.0000 -0.0001 26.1895 -0.0001 0.3736
# 5 -1.5568 0.5896 9.2929 -0.0001 30.5118 -0.0001
# 6 0.0000 0.0000 -0.0001 0.3736 -0.0001 19.8722
#
#
#
# Elastic Compliance Matrix: (Units=1/GPa)
#
#
# Indices 1 2 3 4 5 6 
#
# 1 0.008704 -0.002371 -0.004923 0.000000 0.001989 0.000000
# 2 -0.002371 0.014132 -0.000552 0.000000 -0.000226 0.000000
# 3 -0.004923 -0.000552 0.012539 0.000000 -0.004060 0.000000
# 4 0.000000 0.000000 0.000000 0.038193 0.000000 -0.000718
# 5 0.001989 -0.000226 -0.004060 0.000000 0.034117 0.000000
# 6 0.000000 0.000000 0.000000 -0.000718 0.000000 0.050335
#
#
# Mechanical properties :
#
#
# Convention : Reuss Voigt Hill
#
# Bulk Modulus (GPa) = 50.79899 61.96922 56.38410
# Shear Modulus (GPa) = 27.73580 31.05536 29.39558
#
# Velocity S-wave (km/s) = 3.75770 3.97622 3.86850
# Velocity P-wave (km/s) = 6.68497 7.25458 6.97559
#
# Compressibility (1/GPa) = 0.01968543
#
# Stress axis : x y z
#
# Youngs Moduli (GPa) = 114.88320 70.76235 79.74963
#
# Poissons Ratio (x) = 0.16777 0.39257
# Poissons Ratio (y) = 0.27237 0.04400
# Poissons Ratio (z) = 0.56551 0.03904
#
# Static dielectric constant tensor:
#      x y z
#    x 4.102890 0.000000 0.003260 
#    y 0.000000 3.612910 0.000000 
#    z 0.003260 0.000000 4.393760 
# 
# 
# High freq. dielectric constant tensor:
#      x y z
#    x 1.778980 0.000000 0.010430 
#    y 0.000000 1.734900 0.000000 
#    z 0.010430 0.000000 1.775100 
# 
# From -- ./inp_files/234739.got.cif
#   From: 2010.06.25/outbox.cif.g09.slc.cpg/sg12_118_cif.got.tgz:234739.got - 2010.06.28 00:19:55.
