data_PCOD8091629
_publ_section_title
;
Structure prediction by ZEFSAII (Michael W. Deem and Ramdas Pophale) SiO2 
 PCOD8091629
Probable space group: C 2/M
;
_chemical_formula_sum "Si O2"
_cell_formula_units_Z 64
_cell_length_a 15.645375
_cell_length_b 9.217635
_cell_length_c 30.519191
_cell_angle_alpha 90.000000
_cell_angle_beta 129.169922
_cell_angle_gamma 90.000000
_cell_volume 3412.203605
_symmetry_space_group_name_H-M "C 2/M"
_symmetry_group_IT_number 12
_symmetry_cell_setting 'monoclinic'
loop_
_space_group_symop_operation_xyz
x,y,z
-x,y,-z
-x,-y,-z
x,-y,z
1/2+x,1/2+y,z
1/2-x,1/2+y,-z
1/2-x,1/2-y,-z
1/2+x,1/2-y,z
loop_
_atom_site_type_symbol
_atom_site_label
_atom_site_fract_x
_atom_site_fract_y
_atom_site_fract_z
Si Si1 0.005476 0.831826 0.824666
Si Si2 0.675178 0.171916 0.569461
Si Si3 0.385281 0.667067 0.942009
Si Si4 0.221265 0.832926 0.946652
Si Si5 0.599634 0.829173 0.369380
Si Si6 0.181643 0.168095 0.175356
Si Si7 0.923625 0.670771 0.238941
Si Si8 0.529034 0.828471 0.441341
O O1 0.094408 0.812718 0.892227
O O2 0.031377 0.739770 0.790597
O O3 0.890089 0.771032 0.807277
O O4 0.997523 0.000000 0.808358
O O5 0.790639 0.252137 0.612380
O O6 0.592567 0.222247 0.581889
O O7 0.621478 0.221117 0.505983
O O8 0.694749 0.000000 0.577161
O O9 0.358929 0.500000 0.945483
O O10 0.290376 0.769193 0.929151
O O11 0.389333 0.692259 0.891505
O O12 0.500000 0.716290 0.000000
O O13 0.251580 0.000000 0.963612
O O14 0.250000 0.750000 0.000000
O O15 0.503304 0.790587 0.304582
O O16 0.560981 0.765632 0.404043
O O17 0.622491 0.000000 0.379431
O O18 0.303355 0.238667 0.211463
O O19 0.199689 0.000000 0.190152
O O20 0.915279 0.500000 0.227742
O O21 0.526292 0.000000 0.438452
#
# Coordination Sequence:
#
# PCOD8091629 Si02
#       8
#     8   8   8   8   8   8   8   8
#     4  10  21  38  59  81 105 137 181 228 268 316
#     4   9  17  32  55  80 106 141 183 224 267 316
#     4  10  19  34  57  81 108 140 177 220 268 327
#     4  11  22  35  54  82 114 142 175 221 275 330
#     4  10  20  33  51  77 109 142 179 223 272 323
#     4   9  18  35  57  77 102 139 179 215 266 326
#     4  10  21  37  55  76 105 144 184 222 268 326
#     4   8  16  32  53  78 109 143 180 221 266 322
#
# _framework density 18.756207
#
# number of rings (size 3 to 8) (size 9 to 14) (size 15 to 20)
#    0.000    2.375    1.250    2.250    0.000    4.250 
#    0.000    5.625    0.000    0.000    0.000    0.000 
#    0.000    0.000    0.000    0.000    0.000    0.000 
#
# Total GULP energy -396728.462774 kJ/mol
# GULP energy per Si atom -12397.764462 kJ/mol
# Density = 1.871352 g / cm^3
# Si number density = 18.756207 Si / 1000 Ang^3
#
#
#
# Elastic Constant Matrix: (Units=GPa)
#
#
# Indices 1 2 3 4 5 6 
#
# 1 156.1139 35.2319 59.6095 0.0000 10.1472 0.0000
# 2 35.2319 41.3148 30.8333 0.0000 2.7806 0.0000
# 3 59.6095 30.8333 92.5699 0.0000 10.1166 0.0000
# 4 0.0000 0.0000 0.0000 22.3241 0.0000 2.8571
# 5 10.1472 2.7806 10.1166 0.0000 28.8231 0.0000
# 6 0.0000 0.0000 0.0000 2.8571 0.0000 28.3735
#
#
#
# Elastic Compliance Matrix: (Units=1/GPa)
#
#
# Indices 1 2 3 4 5 6 
#
# 1 0.009128 -0.004546 -0.004222 0.000000 -0.001293 0.000000
# 2 -0.004546 0.034488 -0.008705 0.000000 0.001329 0.000000
# 3 -0.004222 -0.008705 0.016812 0.000000 -0.003574 0.000000
# 4 0.000000 0.000000 0.000000 0.045379 0.000000 -0.004570
# 5 -0.001293 0.001329 -0.003574 0.000000 0.036276 0.000000
# 6 0.000000 0.000000 0.000000 -0.004570 0.000000 0.035704
#
#
# Mechanical properties :
#
#
# Convention : Reuss Voigt Hill
#
# Bulk Modulus (GPa) = 39.24506 60.14978 49.69742
# Shear Modulus (GPa) = 22.60108 26.85904 24.73006
#
# Velocity S-wave (km/s) = 3.47507 3.78829 3.63505
# Velocity P-wave (km/s) = 6.08857 7.16057 6.64622
#
# Compressibility (1/GPa) = 0.02548091
#
# Stress axis : x y z
#
# Youngs Moduli (GPa) = 109.55643 28.99533 59.48186
#
# Poissons Ratio (x) = 0.13180 0.25115
# Poissons Ratio (y) = 0.49801 0.51782
# Poissons Ratio (z) = 0.46258 0.25242
#
# Static dielectric constant tensor:
#      x y z
#    x 3.910810 0.000000 -0.016740 
#    y 0.000000 3.213260 0.000000 
#    z -0.016740 0.000000 3.574350 
# 
# 
# High freq. dielectric constant tensor:
#      x y z
#    x 1.744910 0.000000 0.000680 
#    y 0.000000 1.693790 0.000000 
#    z 0.000680 0.000000 1.728700 
# 
# From -- ./inp_files/375091.got.cif
#   From: 2010.06.25/outbox.cif.g09.slc.cpg/sg12_188_cif.got.tgz:375091.got - 2010.06.28 00:19:55.
