data_PCOD8091813
_publ_section_title
;
Structure prediction by ZEFSAII (Michael W. Deem and Ramdas Pophale) SiO2 
 PCOD8091813
Probable space group: C 2/M
;
_chemical_formula_sum "Si O2"
_cell_formula_units_Z 32
_cell_length_a 23.330902
_cell_length_b 7.685665
_cell_length_c 22.786070
_cell_angle_alpha 90.000000
_cell_angle_beta 154.364133
_cell_angle_gamma 90.000000
_cell_volume 1767.743809
_symmetry_space_group_name_H-M "C 2/M"
_symmetry_group_IT_number 12
_symmetry_cell_setting 'monoclinic'
loop_
_space_group_symop_operation_xyz
x,y,z
-x,y,-z
-x,-y,-z
x,-y,z
1/2+x,1/2+y,z
1/2-x,1/2+y,-z
1/2-x,1/2-y,-z
1/2+x,1/2-y,z
loop_
_atom_site_type_symbol
_atom_site_label
_atom_site_fract_x
_atom_site_fract_y
_atom_site_fract_z
Si Si1 0.905287 0.000000 0.357046
Si Si2 0.624998 0.000000 0.156837
Si Si3 0.106658 0.299591 0.346311
Si Si4 0.471303 0.201661 0.600903
Si Si5 0.828333 0.806237 0.713341
O O1 0.754169 0.000000 0.236067
O O2 0.000000 0.000000 0.500000
O O3 0.928687 0.825418 0.341215
O O4 0.618142 0.827407 0.189710
O O5 0.500000 0.000000 0.000000
O O6 0.099795 0.500000 0.323420
O O7 0.250000 0.250000 0.500000
O O8 0.009849 0.257612 0.311881
O O9 0.079085 0.197950 0.260029
O O10 0.321990 0.244057 0.442479
O O11 0.505554 0.000000 0.619339
O O12 0.835678 0.000000 0.746800
#
# Coordination Sequence:
#
# PCOD8091813 Si02
#       5
#     4   4   8   8   8
#     4  12  22  36  60  80 116 156 186 232 283 338
#     4  12  26  42  56  80 118 158 196 231 275 344
#     4   9  16  27  50  86 121 141 175 235 290 334
#     4   9  19  32  54  91 118 140 180 237 289 332
#     4  10  19  34  57  86 115 149 187 238 282 330
#
# _framework density 18.102170999999998
#
# number of rings (size 3 to 8) (size 9 to 14) (size 15 to 20)
#    0.000    2.000    3.750    2.250    7.000    2.000 
#    0.000    0.000    0.000    1.500    0.000    0.000 
#    0.000    0.000    0.000    0.000    0.000    0.000 
#
# Total GULP energy -198288.780881 kJ/mol
# GULP energy per Si atom -12393.048805 kJ/mol
# Density = 1.806097 g / cm^3
# Si number density = 18.102171 Si / 1000 Ang^3
#
#
#
# Elastic Constant Matrix: (Units=GPa)
#
#
# Indices 1 2 3 4 5 6 
#
# 1 138.5428 71.9012 52.8283 0.0000 -10.5498 0.0000
# 2 71.9012 117.3112 41.6294 0.0000 -12.3403 0.0000
# 3 52.8283 41.6294 73.8455 0.0000 -6.6522 0.0000
# 4 0.0000 0.0000 0.0000 13.1202 0.0000 -5.4267
# 5 -10.5498 -12.3403 -6.6522 0.0000 16.1329 0.0000
# 6 0.0000 0.0000 0.0000 -5.4267 0.0000 35.7293
#
#
#
# Elastic Compliance Matrix: (Units=1/GPa)
#
#
# Indices 1 2 3 4 5 6 
#
# 1 0.012256 -0.005354 -0.005605 0.000000 0.001608 0.000000
# 2 -0.005354 0.013563 -0.003320 0.000000 0.005505 0.000000
# 3 -0.005605 -0.003320 0.019592 0.000000 0.001874 0.000000
# 4 0.000000 0.000000 0.000000 0.081327 0.000000 0.012352
# 5 0.001608 0.005505 0.001874 0.000000 0.068020 0.000000
# 6 0.000000 0.000000 0.000000 0.012352 0.000000 0.029864
#
#
# Mechanical properties :
#
#
# Convention : Reuss Voigt Hill
#
# Bulk Modulus (GPa) = 59.33467 73.60192 66.46830
# Shear Modulus (GPa) = 19.32006 23.88584 21.60295
#
# Velocity S-wave (km/s) = 3.27047 3.63643 3.45830
# Velocity P-wave (km/s) = 6.86368 7.64061 7.26254
#
# Compressibility (1/GPa) = 0.01685355
#
# Stress axis : x y z
#
# Youngs Moduli (GPa) = 81.59109 73.73053 51.04143
#
# Poissons Ratio (x) = 0.39474 0.28609
# Poissons Ratio (y) = 0.43682 0.16946
# Poissons Ratio (z) = 0.45732 0.24479
#
# Static dielectric constant tensor:
#      x y z
#    x 3.774050 0.000000 -0.259970 
#    y 0.000000 3.423920 0.000000 
#    z -0.259970 0.000000 2.684300 
# 
# 
# High freq. dielectric constant tensor:
#      x y z
#    x 1.719410 0.000000 -0.019570 
#    y 0.000000 1.720270 0.000000 
#    z -0.019570 0.000000 1.621240 
# 
# From -- ./inp_files/81871.got.cif
#   From: 2010.06.25/outbox.cif.g09.slc.cpg/sg12_41_cif.got.tgz:81871.got - 2010.06.28 00:19:55.
