data_PCOD8091366
_publ_section_title
;
Structure prediction by ZEFSAII (Michael W. Deem and Ramdas Pophale) SiO2 
 PCOD8091366
Probable space group: C 2/M
;
_chemical_formula_sum "Si O2"
_cell_formula_units_Z 44
_cell_length_a 29.119536
_cell_length_b 16.361767
_cell_length_c 6.885743
_cell_angle_alpha 90.000000
_cell_angle_beta 132.793472
_cell_angle_gamma 90.000000
_cell_volume 2407.395669
_symmetry_space_group_name_H-M "C 2/M"
_symmetry_group_IT_number 12
_symmetry_cell_setting 'monoclinic'
loop_
_space_group_symop_operation_xyz
x,y,z
-x,y,-z
-x,-y,-z
x,-y,z
1/2+x,1/2+y,z
1/2-x,1/2+y,-z
1/2-x,1/2-y,-z
1/2+x,1/2-y,z
loop_
_atom_site_type_symbol
_atom_site_label
_atom_site_fract_x
_atom_site_fract_y
_atom_site_fract_z
Si Si1 0.630925 0.296864 0.872883
Si Si2 0.500000 0.224008 0.500000
Si Si3 0.336990 0.841498 0.309322
Si Si4 0.707573 0.593636 0.826255
Si Si5 0.473505 0.909408 0.711063
Si Si6 0.689912 0.718250 0.438634
O O1 0.557569 0.283883 0.625239
O O2 0.667737 0.218727 0.890533
O O3 0.654495 0.376211 0.824404
O O4 0.640512 0.306870 0.130665
O O5 0.488477 0.161846 0.288685
O O6 0.398882 0.896184 0.483009
O O7 0.338472 0.790300 0.512377
O O8 0.275324 0.897103 0.122478
O O9 0.694210 0.500000 0.742090
O O10 0.704639 0.640029 0.612849
O O11 0.486864 0.000000 0.662708
O O12 0.500000 0.905286 0.000000
O O13 0.750000 0.750000 0.500000
#
# Coordination Sequence:
#
# PCOD8091366 Si02
#       6
#     8   4   8   8   8   8
#     4  10  20  37  57  79 106 141 181 221 258 318
#     4  10  21  36  59  76  98 146 190 212 257 320
#     4  10  19  34  56  79 109 145 176 214 264 322
#     4  11  22  35  53  83 113 137 172 228 281 314
#     4  10  20  34  51  79 114 142 173 217 262 312
#     4  11  18  35  58  79 106 142 183 216 259 324
#
# _framework density 18.277013
#
# number of rings (size 3 to 8) (size 9 to 14) (size 15 to 20)
#    0.000    1.636    3.636    3.000    0.000    0.727 
#    0.000    0.455    0.000    1.091    0.000    0.000 
#    0.000    0.000    0.000    0.000    0.000    0.000 
#
# Total GULP energy -272777.476348 kJ/mol
# GULP energy per Si atom -12398.976198 kJ/mol
# Density = 1.823541 g / cm^3
# Si number density = 18.277013 Si / 1000 Ang^3
#
#
#
# Elastic Constant Matrix: (Units=GPa)
#
#
# Indices 1 2 3 4 5 6 
#
# 1 87.3601 33.2179 26.1326 0.0000 -4.7296 0.0000
# 2 33.2179 93.6468 38.3808 0.0000 -4.1392 0.0000
# 3 26.1326 38.3808 90.7572 0.0000 -21.1417 0.0000
# 4 0.0000 0.0000 0.0000 1.1468 0.0000 -15.9861
# 5 -4.7296 -4.1392 -21.1417 0.0000 28.8962 0.0000
# 6 0.0000 0.0000 0.0000 -15.9861 0.0000 11.3346
#
#
#
# Elastic Compliance Matrix: (Units=1/GPa)
#
#
# Indices 1 2 3 4 5 6 
#
# 1 0.013608 -0.003897 -0.002268 0.000000 0.000010 0.000000
# 2 -0.003897 0.014196 -0.005492 0.000000 -0.002623 0.000000
# 3 -0.002268 -0.005492 0.016544 0.000000 0.010946 0.000000
# 4 0.000000 0.000000 0.000000 -0.046730 0.000000 -0.065907
# 5 0.000010 -0.002623 0.010946 0.000000 0.042241 0.000000
# 6 0.000000 0.000000 0.000000 -0.065907 0.000000 -0.004728
#
#
# Mechanical properties :
#
#
# Convention : Reuss Voigt Hill
#
# Bulk Modulus (GPa) = 47.54364 51.91406 49.72885
# Shear Modulus (GPa) = 76.38724 19.87772 48.13248
#
# Velocity S-wave (km/s) = 6.47185 3.30143 5.13733
# Velocity P-wave (km/s) = 9.05073 6.55730 7.90298
#
# Compressibility (1/GPa) = 0.02103331
#
# Stress axis : x y z
#
# Youngs Moduli (GPa) = 73.48857 70.44376 60.44498
#
# Poissons Ratio (x) = 0.27451 0.13708
# Poissons Ratio (y) = 0.28638 0.33198
# Poissons Ratio (z) = 0.16667 0.38689
#
# Static dielectric constant tensor:
#      x y z
#    x 3.685930 0.000000 -0.141810 
#    y 0.000000 3.240260 0.000000 
#    z -0.141810 0.000000 3.599460 
# 
# 
# High freq. dielectric constant tensor:
#      x y z
#    x 1.711760 0.000000 -0.007820 
#    y 0.000000 1.690300 0.000000 
#    z -0.007820 0.000000 1.712610 
# 
# From -- ./inp_files/24329.got.cif
#   From: 2010.06.25/outbox.cif.g09.slc.cpg/sg12_13_cif.got.tgz:24329.got - 2010.06.28 00:19:55.
