data_PCOD8091212
_publ_section_title
;
Structure prediction by ZEFSAII (Michael W. Deem and Ramdas Pophale) SiO2 
 PCOD8091212
Probable space group: C 2/M
;
_chemical_formula_sum "Si O2"
_cell_formula_units_Z 56
_cell_length_a 19.159485
_cell_length_b 8.577562
_cell_length_c 31.497306
_cell_angle_alpha 90.000000
_cell_angle_beta 34.276602
_cell_angle_gamma 90.000000
_cell_volume 2915.244589
_symmetry_space_group_name_H-M "C 2/M"
_symmetry_group_IT_number 12
_symmetry_cell_setting 'monoclinic'
loop_
_space_group_symop_operation_xyz
x,y,z
-x,y,-z
-x,-y,-z
x,-y,z
1/2+x,1/2+y,z
1/2-x,1/2+y,-z
1/2-x,1/2-y,-z
1/2+x,1/2-y,z
loop_
_atom_site_type_symbol
_atom_site_label
_atom_site_fract_x
_atom_site_fract_y
_atom_site_fract_z
Si Si1 0.575708 0.319105 0.753317
Si Si2 0.359931 0.819489 0.191748
Si Si3 0.985295 0.683373 0.443316
Si Si4 0.576771 0.317385 0.315424
Si Si5 0.880521 0.317494 0.794271
Si Si6 0.815444 0.817691 0.594431
Si Si7 0.897866 0.816993 0.084979
O O1 0.603001 0.500000 0.733282
O O2 0.579446 0.279094 0.801076
O O3 0.440765 0.273965 0.803360
O O4 0.674939 0.221637 0.676348
O O5 0.214856 0.779757 0.262141
O O6 0.425645 0.772393 0.114779
O O7 0.382725 0.000000 0.189764
O O8 0.008345 0.500000 0.433494
O O9 0.856519 0.726350 0.531202
O O10 0.980708 0.743766 0.397302
O O11 0.098102 0.769782 0.409855
O O12 0.552821 0.500000 0.322328
O O13 0.552672 0.234568 0.282748
O O14 0.898894 0.500000 0.791761
O O15 0.736272 0.270054 0.865824
O O16 0.829387 0.000000 0.579054
O O17 0.905207 0.000000 0.090581
O O18 0.000000 0.762169 0.000000
#
# Coordination Sequence:
#
# PCOD8091212 Si02
#       7
#     8   8   8   8   8   8   8
#     4  12  23  37  56  81 114 149 189 232 281 336
#     4  10  20  34  57  85 113 146 187 230 274 328
#     4  11  20  32  52  80 110 145 190 236 283 329
#     4  10  19  34  55  80 110 146 190 236 280 329
#     4  10  21  37  58  83 114 148 184 227 281 337
#     4  11  21  34  52  77 110 147 187 236 287 329
#     4   9  19  38  63  89 116 146 182 225 273 329
#
# _framework density 19.209367
#
# number of rings (size 3 to 8) (size 9 to 14) (size 15 to 20)
#    0.000    1.571    1.429    6.000    0.000    2.000 
#    0.000    1.429    0.000    0.000    0.000    0.000 
#    0.000    0.000    0.000    0.000    0.000    0.000 
#
# Total GULP energy -347346.616631 kJ/mol
# GULP energy per Si atom -12405.236308 kJ/mol
# Density = 1.916565 g / cm^3
# Si number density = 19.209367 Si / 1000 Ang^3
#
#
#
# Elastic Constant Matrix: (Units=GPa)
#
#
# Indices 1 2 3 4 5 6 
#
# 1 94.1893 27.9550 34.9882 0.0040 8.2364 0.0484
# 2 27.9550 79.3131 15.8391 0.0175 3.2945 0.0257
# 3 34.9882 15.8391 104.3301 0.0058 15.3799 0.0039
# 4 0.0040 0.0175 0.0058 27.4591 0.0000 4.7048
# 5 8.2364 3.2945 15.3799 0.0000 21.8777 0.0129
# 6 0.0484 0.0257 0.0039 4.7048 0.0129 31.8998
#
#
#
# Elastic Compliance Matrix: (Units=1/GPa)
#
#
# Indices 1 2 3 4 5 6 
#
# 1 0.013264 -0.003882 -0.003580 0.000004 -0.001892 -0.000016
# 2 -0.003882 0.014146 -0.000834 -0.000008 -0.000083 -0.000004
# 3 -0.003580 -0.000834 0.011931 -0.000003 -0.006914 0.000008
# 4 0.000004 -0.000008 -0.000003 0.037362 0.000005 -0.005510
# 5 -0.001892 -0.000083 -0.006914 0.000005 0.051294 -0.000018
# 6 -0.000016 -0.000004 0.000008 -0.005510 -0.000018 0.032161
#
#
# Mechanical properties :
#
#
# Convention : Reuss Voigt Hill
#
# Bulk Modulus (GPa) = 43.95355 48.37745 46.16550
# Shear Modulus (GPa) = 27.12473 29.51736 28.32104
#
# Velocity S-wave (km/s) = 3.76181 3.92422 3.84387
# Velocity P-wave (km/s) = 6.46524 6.76547 6.61706
#
# Compressibility (1/GPa) = 0.02275129
#
# Stress axis : x y z
#
# Youngs Moduli (GPa) = 75.39016 70.68975 83.81222
#
# Poissons Ratio (x) = 0.27439 0.30005
# Poissons Ratio (y) = 0.29264 0.06987
# Poissons Ratio (z) = 0.26990 0.05893
#
# Static dielectric constant tensor:
#      x y z
#    x 3.395180 -0.000100 0.139470 
#    y -0.000100 3.552730 -0.000060 
#    z 0.139470 -0.000060 3.526850 
# 
# 
# High freq. dielectric constant tensor:
#      x y z
#    x 1.731950 0.000000 0.017060 
#    y 0.000000 1.761070 0.000000 
#    z 0.017060 0.000000 1.736190 
# 
# From -- ./inp_files/377650.got.cif
#   From: 2010.06.25/outbox.cif.g09.slc.cpg/sg12_189_cif.got.tgz:377650.got - 2010.06.28 00:19:55.
