data_PCOD8091515
_publ_section_title
;
Structure prediction by ZEFSAII (Michael W. Deem and Ramdas Pophale) SiO2 
 PCOD8091515
Probable space group: C 2/M
;
_chemical_formula_sum "Si O2"
_cell_formula_units_Z 48
_cell_length_a 17.808157
_cell_length_b 14.369283
_cell_length_c 10.357199
_cell_angle_alpha 90.000000
_cell_angle_beta 102.659927
_cell_angle_gamma 90.000000
_cell_volume 2585.874171
_symmetry_space_group_name_H-M "C 2/M"
_symmetry_group_IT_number 12
_symmetry_cell_setting 'monoclinic'
loop_
_space_group_symop_operation_xyz
x,y,z
-x,y,-z
-x,-y,-z
x,-y,z
1/2+x,1/2+y,z
1/2-x,1/2+y,-z
1/2-x,1/2-y,-z
1/2+x,1/2-y,z
loop_
_atom_site_type_symbol
_atom_site_label
_atom_site_fract_x
_atom_site_fract_y
_atom_site_fract_z
Si Si1 0.935233 0.000000 0.799526
Si Si2 0.683900 0.182989 0.599285
Si Si3 0.753096 0.500000 0.705227
Si Si4 0.448483 0.296519 0.364374
Si Si5 0.586121 0.500000 0.685303
Si Si6 0.824145 0.314918 0.688448
Si Si7 0.728140 0.500000 0.390913
Si Si8 0.955625 0.800090 0.859619
O O1 0.862855 0.000000 0.674483
O O2 0.929614 0.906268 0.882469
O O3 0.019880 0.000000 0.767601
O O4 0.619208 0.219546 0.674593
O O5 0.745113 0.264598 0.627810
O O6 0.641935 0.170876 0.443311
O O7 0.726931 0.087698 0.654245
O O8 0.675939 0.500000 0.765768
O O9 0.805849 0.410974 0.754948
O O10 0.728959 0.500000 0.545457
O O11 0.500000 0.259834 0.500000
O O12 0.421891 0.401970 0.395321
O O13 0.490485 0.297967 0.244164
O O14 0.880183 0.260083 0.804624
O O15 0.000000 0.758701 0.000000
#
# Coordination Sequence:
#
# PCOD8091515 Si02
#       8
#     4   8   4   8   4   8   4   8
#     4  10  21  35  57  83 116 152 184 230 284 348
#     4  10  19  34  56  86 115 146 186 235 284 333
#     4  10  20  31  54  88 118 143 187 236 284 332
#     4  11  21  35  57  85 117 144 188 239 282 328
#     4  10  21  27  53  89 117 138 177 239 293 322
#     4  10  19  34  56  83 117 149 187 231 280 337
#     4  10  20  32  56  87 115 148 186 230 290 335
#     4  11  23  39  58  83 117 156 187 226 286 345
#
# _framework density 18.562387999999999
#
# number of rings (size 3 to 8) (size 9 to 14) (size 15 to 20)
#    0.000    1.667    5.000    0.500    4.667    0.000 
#    0.000    2.500    0.000    0.000    0.000    0.000 
#    0.000    0.000    0.000    0.000    0.000    0.000 
#
# Total GULP energy -297320.908628 kJ/mol
# GULP energy per Si atom -12388.371193 kJ/mol
# Density = 1.852014 g / cm^3
# Si number density = 18.562388 Si / 1000 Ang^3
#
#
#
# Elastic Constant Matrix: (Units=GPa)
#
#
# Indices 1 2 3 4 5 6 
#
# 1 90.3903 53.2706 29.8805 0.0000 9.5619 0.0000
# 2 53.2706 119.2827 17.9859 0.0000 6.6371 0.0000
# 3 29.8805 17.9859 82.7705 0.0000 14.2615 0.0000
# 4 0.0000 0.0000 0.0000 13.5547 0.0000 9.0739
# 5 9.5619 6.6371 14.2615 0.0000 19.2939 0.0000
# 6 0.0000 0.0000 0.0000 9.0739 0.0000 22.7597
#
#
#
# Elastic Compliance Matrix: (Units=1/GPa)
#
#
# Indices 1 2 3 4 5 6 
#
# 1 0.016637 -0.006654 -0.004050 0.000000 -0.002963 0.000000
# 2 -0.006654 0.011385 0.000040 0.000000 -0.000648 0.000000
# 3 -0.004050 0.000040 0.015117 0.000000 -0.009181 0.000000
# 4 0.000000 0.000000 0.000000 0.100633 0.000000 -0.040120
# 5 -0.002963 -0.000648 -0.009181 0.000000 0.060307 0.000000
# 6 0.000000 0.000000 0.000000 -0.040120 0.000000 0.059933
#
#
# Mechanical properties :
#
#
# Convention : Reuss Voigt Hill
#
# Bulk Modulus (GPa) = 45.84869 54.96859 50.40864
# Shear Modulus (GPa) = 17.08760 23.87543 20.48151
#
# Velocity S-wave (km/s) = 3.03735 3.59029 3.32533
# Velocity P-wave (km/s) = 6.08720 6.84573 6.47758
#
# Compressibility (1/GPa) = 0.02181088
#
# Stress axis : x y z
#
# Youngs Moduli (GPa) = 60.10719 87.83250 66.15221
#
# Poissons Ratio (x) = 0.58448 0.26788
# Poissons Ratio (y) = 0.39998 -0.00264
# Poissons Ratio (z) = 0.24341 -0.00351
#
# Static dielectric constant tensor:
#      x y z
#    x 3.449100 0.000000 0.076100 
#    y 0.000000 3.749740 0.000000 
#    z 0.076100 0.000000 2.971970 
# 
# 
# High freq. dielectric constant tensor:
#      x y z
#    x 1.720040 0.000000 0.015940 
#    y 0.000000 1.727710 0.000000 
#    z 0.015940 0.000000 1.669960 
# 
# From -- ./inp_files/155292.got.cif
#   From: 2010.06.25/outbox.cif.g09.slc.cpg/sg12_78_cif.got.tgz:155292.got - 2010.06.28 00:19:55.
