data_PCOD8091657
_publ_section_title
;
Structure prediction by ZEFSAII (Michael W. Deem and Ramdas Pophale) SiO2 
 PCOD8091657
Probable space group: C 2/M
;
_chemical_formula_sum "Si O2"
_cell_formula_units_Z 48
_cell_length_a 23.947586
_cell_length_b 8.889332
_cell_length_c 12.133488
_cell_angle_alpha 90.000000
_cell_angle_beta 101.744287
_cell_angle_gamma 90.000000
_cell_volume 2528.881046
_symmetry_space_group_name_H-M "C 2/M"
_symmetry_group_IT_number 12
_symmetry_cell_setting 'monoclinic'
loop_
_space_group_symop_operation_xyz
x,y,z
-x,y,-z
-x,-y,-z
x,-y,z
1/2+x,1/2+y,z
1/2-x,1/2+y,-z
1/2-x,1/2-y,-z
1/2+x,1/2-y,z
loop_
_atom_site_type_symbol
_atom_site_label
_atom_site_fract_x
_atom_site_fract_y
_atom_site_fract_z
Si Si1 0.535898 0.676116 0.222211
Si Si2 0.376748 0.672056 0.933509
Si Si3 0.375182 0.822227 0.592109
Si Si4 0.787532 0.175433 0.716392
Si Si5 0.913517 0.322575 0.161643
Si Si6 0.840775 0.322126 0.337465
O O1 0.532800 0.500000 0.243357
O O2 0.571052 0.712400 0.126111
O O3 0.566599 0.751039 0.339191
O O4 0.473743 0.741625 0.181547
O O5 0.381851 0.500000 0.975705
O O6 0.317388 0.700449 0.846494
O O7 0.377987 0.781849 0.038261
O O8 0.319791 0.766256 0.634698
O O9 0.369202 0.770637 0.463122
O O10 0.379254 0.000000 0.605226
O O11 0.723635 0.240320 0.698154
O O12 0.789768 0.000000 0.684415
O O13 0.922960 0.500000 0.172092
O O14 0.878824 0.259664 0.252711
O O15 0.837489 0.500000 0.328022
#
# Coordination Sequence:
#
# PCOD8091657 Si02
#       6
#     8   8   8   8   8   8
#     4  10  21  38  57  77 105 139 175 217 268 317
#     4   9  19  35  55  77 103 137 175 217 265 312
#     4  10  19  34  57  82 106 134 176 222 261 305
#     4   9  18  36  58  78 106 142 176 211 260 315
#     4  11  22  35  53  78 108 141 178 217 259 310
#     4   9  20  36  53  77 111 146 172 208 265 316
#
# _framework density 18.980727000000002
#
# number of rings (size 3 to 8) (size 9 to 14) (size 15 to 20)
#    0.000    2.333    0.000    3.500    0.000    6.667 
#    0.000    9.167    0.000    0.000    0.000    0.000 
#    0.000    0.000    0.000    0.000    0.000    0.000 
#
# Total GULP energy -297660.110689 kJ/mol
# GULP energy per Si atom -12402.504612 kJ/mol
# Density = 1.893753 g / cm^3
# Si number density = 18.980727 Si / 1000 Ang^3
#
#
#
# Elastic Constant Matrix: (Units=GPa)
#
#
# Indices 1 2 3 4 5 6 
#
# 1 31.4172 23.1546 41.7330 0.0000 -1.7213 0.0000
# 2 23.1546 63.1590 46.2789 0.0000 -2.1793 0.0000
# 3 41.7330 46.2789 141.5203 0.0000 -4.9807 0.0000
# 4 0.0000 0.0000 0.0000 30.4351 0.0000 4.8253
# 5 -1.7213 -2.1793 -4.9807 0.0000 22.0558 0.0000
# 6 0.0000 0.0000 0.0000 4.8253 0.0000 22.6970
#
#
#
# Elastic Compliance Matrix: (Units=1/GPa)
#
#
# Indices 1 2 3 4 5 6 
#
# 1 0.058047 -0.011487 -0.013348 0.000000 0.000381 0.000000
# 2 -0.011487 0.023102 -0.004151 0.000000 0.000449 0.000000
# 3 -0.013348 -0.004151 0.012407 0.000000 0.001350 0.000000
# 4 0.000000 0.000000 0.000000 0.034003 0.000000 -0.007229
# 5 0.000381 0.000449 0.001350 0.000000 0.045719 0.000000
# 6 0.000000 0.000000 0.000000 -0.007229 0.000000 0.045596
#
#
# Mechanical properties :
#
#
# Convention : Reuss Voigt Hill
#
# Bulk Modulus (GPa) = 28.10268 50.93659 39.51963
# Shear Modulus (GPa) = 17.31866 23.36623 20.34244
#
# Velocity S-wave (km/s) = 3.02393 3.51244 3.27730
# Velocity P-wave (km/s) = 5.19906 6.58360 5.93187
#
# Compressibility (1/GPa) = 0.03558380
#
# Stress axis : x y z
#
# Youngs Moduli (GPa) = 17.22744 43.28713 80.59793
#
# Poissons Ratio (x) = 0.49724 1.07580
# Poissons Ratio (y) = 0.19789 0.33459
# Poissons Ratio (z) = 0.22995 0.17970
#
# Static dielectric constant tensor:
#      x y z
#    x 3.597210 0.000000 0.041920 
#    y 0.000000 3.336660 0.000000 
#    z 0.041920 0.000000 3.613780 
# 
# 
# High freq. dielectric constant tensor:
#      x y z
#    x 1.737480 0.000000 0.010360 
#    y 0.000000 1.726580 0.000000 
#    z 0.010360 0.000000 1.747010 
# 
# From -- ./inp_files/172119.got.cif
#   From: 2010.06.25/outbox.cif.g09.slc.cpg/sg12_87_cif.got.tgz:172119.got - 2010.06.28 00:19:55.
