data_PCOD8091006
_publ_section_title
;
Structure prediction by ZEFSAII (Michael W. Deem and Ramdas Pophale) SiO2 
 PCOD8091006
Probable space group: C 2/M
;
_chemical_formula_sum "Si O2"
_cell_formula_units_Z 64
_cell_length_a 25.515990
_cell_length_b 18.174660
_cell_length_c 15.292654
_cell_angle_alpha 90.000000
_cell_angle_beta 150.054534
_cell_angle_gamma 90.000000
_cell_volume 3540.094343
_symmetry_space_group_name_H-M "C 2/M"
_symmetry_group_IT_number 12
_symmetry_cell_setting 'monoclinic'
loop_
_space_group_symop_operation_xyz
x,y,z
-x,y,-z
-x,-y,-z
x,-y,z
1/2+x,1/2+y,z
1/2-x,1/2+y,-z
1/2-x,1/2-y,-z
1/2+x,1/2-y,z
loop_
_atom_site_type_symbol
_atom_site_label
_atom_site_fract_x
_atom_site_fract_y
_atom_site_fract_z
Si Si1 0.126730 0.583813 0.061552
Si Si2 0.836980 0.684044 0.228135
Si Si3 0.810493 0.849669 0.228607
Si Si4 0.747432 0.915399 0.408403
Si Si5 0.566542 0.656273 0.418249
Si Si6 0.958470 0.678710 0.580939
Si Si7 0.407453 0.086038 0.671575
Si Si8 0.152171 0.084362 0.895607
O O1 0.147351 0.500000 0.060765
O O2 0.195555 0.637981 0.101493
O O3 0.155241 0.593168 0.203960
O O4 0.006780 0.607206 0.875125
O O5 0.812173 0.770649 0.183050
O O6 0.878393 0.671852 0.385391
O O7 0.923680 0.661196 0.281305
O O8 0.735132 0.634412 0.067517
O O9 0.897224 0.859742 0.429817
O O10 0.834415 0.909469 0.189241
O O11 0.845597 0.864674 0.525763
O O12 0.697812 0.888842 0.428911
O O13 0.785299 0.000000 0.467432
O O14 0.542836 0.742095 0.375119
O O15 0.464438 0.609378 0.246997
O O16 0.916696 0.621089 0.590260
O O17 0.402380 0.000000 0.648516
O O18 0.168735 0.000000 0.947801
#
# Coordination Sequence:
#
# PCOD8091006 Si02
#       8
#     8   8   8   8   8   8   8   8
#     4   9  17  29  51  83 111 135 168 216 270 321
#     4  10  22  38  54  76 109 146 176 221 272 311
#     4  10  19  34  54  78 109 143 177 210 267 328
#     4   9  18  34  52  76 113 142 168 217 276 325
#     4  10  21  35  54  80 107 142 177 220 270 320
#     4  10  21  38  57  76 104 142 187 226 264 314
#     4  10  20  33  54  79 103 140 183 222 267 318
#     4  12  23  33  53  83 112 144 181 218 264 324
#
# _framework density 18.078613000000001
#
# number of rings (size 3 to 8) (size 9 to 14) (size 15 to 20)
#    0.000    2.000    1.250    2.625    1.750    6.000 
#    0.000    1.250    0.000    0.750    0.000    2.625 
#    0.000    0.000    0.000    0.000    0.000    0.000 
#
# Total GULP energy -396832.875978 kJ/mol
# GULP energy per Si atom -12401.027374 kJ/mol
# Density = 1.803747 g / cm^3
# Si number density = 18.078613 Si / 1000 Ang^3
#
#
#
# Elastic Constant Matrix: (Units=GPa)
#
#
# Indices 1 2 3 4 5 6 
#
# 1 113.1928 39.2341 34.6354 0.0000 12.2814 0.0000
# 2 39.2341 63.1357 52.3708 0.0000 7.5428 0.0000
# 3 34.6354 52.3708 76.5395 0.0000 16.9397 0.0000
# 4 0.0000 0.0000 0.0000 20.6356 0.0000 0.7647
# 5 12.2814 7.5428 16.9397 0.0000 19.0606 0.0000
# 6 0.0000 0.0000 0.0000 0.7647 0.0000 32.6756
#
#
#
# Elastic Compliance Matrix: (Units=1/GPa)
#
#
# Indices 1 2 3 4 5 6 
#
# 1 0.011706 -0.007477 0.001038 0.000000 -0.005506 0.000000
# 2 -0.007477 0.042898 -0.028977 0.000000 0.013595 0.000000
# 3 0.001038 -0.028977 0.037387 0.000000 -0.022428 0.000000
# 4 0.000000 0.000000 0.000000 0.048502 0.000000 -0.001135
# 5 -0.005506 0.013595 -0.022428 0.000000 0.070564 0.000000
# 6 0.000000 0.000000 0.000000 -0.001135 0.000000 0.030630
#
#
# Mechanical properties :
#
#
# Convention : Reuss Voigt Hill
#
# Bulk Modulus (GPa) = 47.26711 56.14986 51.70849
# Shear Modulus (GPa) = 15.64582 22.91621 19.28101
#
# Velocity S-wave (km/s) = 2.94502 3.56418 3.26929
# Velocity P-wave (km/s) = 6.14542 6.93282 6.55096
#
# Compressibility (1/GPa) = 0.02115636
#
# Stress axis : x y z
#
# Youngs Moduli (GPa) = 85.42534 23.31108 26.74749
#
# Poissons Ratio (x) = 0.17431 -0.02775
# Poissons Ratio (y) = 0.63876 0.77507
# Poissons Ratio (z) = -0.08864 0.67550
#
# Static dielectric constant tensor:
#      x y z
#    x 3.323720 0.000000 0.090410 
#    y 0.000000 3.280130 0.000000 
#    z 0.090410 0.000000 3.284980 
# 
# 
# High freq. dielectric constant tensor:
#      x y z
#    x 1.696170 0.000000 0.011400 
#    y 0.000000 1.691350 0.000000 
#    z 0.011400 0.000000 1.695160 
# 
# From -- ./inp_files/216381.got.cif
#   From: 2010.06.25/outbox.cif.g09.slc.cpg/sg12_109_cif.got.tgz:216381.got - 2010.06.28 00:19:55.
