data_PCOD8091113
_publ_section_title
;
Structure prediction by ZEFSAII (Michael W. Deem and Ramdas Pophale) SiO2 
 PCOD8091113
Probable space group: C 2/M
;
_chemical_formula_sum "Si O2"
_cell_formula_units_Z 64
_cell_length_a 12.643722
_cell_length_b 13.397739
_cell_length_c 28.664406
_cell_angle_alpha 90.000000
_cell_angle_beta 43.466142
_cell_angle_gamma 90.000000
_cell_volume 3340.342508
_symmetry_space_group_name_H-M "C 2/M"
_symmetry_group_IT_number 12
_symmetry_cell_setting 'monoclinic'
loop_
_space_group_symop_operation_xyz
x,y,z
-x,y,-z
-x,-y,-z
x,-y,z
1/2+x,1/2+y,z
1/2-x,1/2+y,-z
1/2-x,1/2-y,-z
1/2+x,1/2-y,z
loop_
_atom_site_type_symbol
_atom_site_label
_atom_site_fract_x
_atom_site_fract_y
_atom_site_fract_z
Si Si1 0.290725 0.888707 0.974104
Si Si2 0.354908 0.613297 0.673766
Si Si3 0.829867 0.692652 0.543033
Si Si4 0.057458 0.258638 0.776406
Si Si5 0.355200 0.386511 0.481354
Si Si6 0.997903 0.210982 0.899459
Si Si7 0.926507 0.115707 0.311059
Si Si8 0.240421 0.614552 0.123409
O O1 0.438594 0.819338 0.935657
O O2 0.227336 0.876654 0.941849
O O3 0.347932 0.000000 0.966023
O O4 0.149385 0.862480 0.053394
O O5 0.294862 0.500000 0.688511
O O6 0.216336 0.689124 0.712146
O O7 0.478627 0.636971 0.594002
O O8 0.430531 0.628991 0.700096
O O9 0.774382 0.629098 0.516363
O O10 0.826945 0.811632 0.533257
O O11 0.722488 0.672292 0.621495
O O12 0.000000 0.655167 0.500000
O O13 0.065258 0.216070 0.826085
O O14 0.028081 0.164564 0.752478
O O15 0.924298 0.339496 0.811772
O O16 0.345465 0.500000 0.503070
O O17 0.128483 0.175419 0.892457
O O18 0.886201 0.000000 0.316423
O O19 0.242670 0.500000 0.139449
#
# Coordination Sequence:
#
# PCOD8091113 Si02
#       8
#     8   8   8   8   8   8   8   8
#     4   9  19  36  57  79 105 141 178 212 260 317
#     4   9  18  36  57  74 101 139 175 213 259 315
#     4  10  19  34  55  77 105 137 173 217 265 319
#     4  11  21  35  54  78 106 138 179 217 254 306
#     4   9  19  34  54  80 104 132 174 221 268 313
#     4  10  20  33  55  82 109 136 174 222 262 303
#     4  10  22  37  52  74 106 144 178 210 260 319
#     4  10  20  35  57  82 106 135 173 217 265 313
#
# _framework density 19.159711000000001
#
# number of rings (size 3 to 8) (size 9 to 14) (size 15 to 20)
#    0.000    2.250    0.000    3.750    0.000    3.750 
#    0.000    1.875    0.000   10.500    0.000    0.000 
#    0.000    0.000    0.000    0.000    0.000    0.000 
#
# Total GULP energy -396884.393693 kJ/mol
# GULP energy per Si atom -12402.637303 kJ/mol
# Density = 1.911610 g / cm^3
# Si number density = 19.159711 Si / 1000 Ang^3
#
#
#
# Elastic Constant Matrix: (Units=GPa)
#
#
# Indices 1 2 3 4 5 6 
#
# 1 57.0874 48.8353 26.0659 0.0000 -17.3226 0.0000
# 2 48.8353 145.4153 52.0579 0.0000 -2.9809 0.0000
# 3 26.0659 52.0579 64.9089 0.0000 -6.8062 0.0000
# 4 0.0000 0.0000 0.0000 26.9161 0.0000 2.3009
# 5 -17.3226 -2.9809 -6.8062 0.0000 21.7468 0.0000
# 6 0.0000 0.0000 0.0000 2.3009 0.0000 26.4841
#
#
#
# Elastic Compliance Matrix: (Units=1/GPa)
#
#
# Indices 1 2 3 4 5 6 
#
# 1 0.035719 -0.010245 -0.003403 0.000000 0.025983 0.000000
# 2 -0.010245 0.012612 -0.006902 0.000000 -0.008592 0.000000
# 3 -0.003403 -0.006902 0.022669 0.000000 0.003438 0.000000
# 4 0.000000 0.000000 0.000000 0.037430 0.000000 -0.003252
# 5 0.025983 -0.008592 0.003438 0.000000 0.066579 0.000000
# 6 0.000000 0.000000 0.000000 -0.003252 0.000000 0.038041
#
#
# Mechanical properties :
#
#
# Convention : Reuss Voigt Hill
#
# Bulk Modulus (GPa) = 33.44435 57.92553 45.68494
# Shear Modulus (GPa) = 18.93108 24.39291 21.66200
#
# Velocity S-wave (km/s) = 3.14676 3.57197 3.36609
# Velocity P-wave (km/s) = 5.54042 6.87827 6.24527
#
# Compressibility (1/GPa) = 0.02990042
#
# Stress axis : x y z
#
# Youngs Moduli (GPa) = 27.99651 79.28887 44.11364
#
# Poissons Ratio (x) = 0.81229 0.15011
# Poissons Ratio (y) = 0.28682 0.30447
# Poissons Ratio (z) = 0.09527 0.54725
#
# Static dielectric constant tensor:
#      x y z
#    x 3.369530 0.000000 -0.018650 
#    y 0.000000 3.576510 0.000000 
#    z -0.018650 0.000000 3.447480 
# 
# 
# High freq. dielectric constant tensor:
#      x y z
#    x 1.738000 0.000000 -0.005270 
#    y 0.000000 1.751710 0.000000 
#    z -0.005270 0.000000 1.742980 
# 
# From -- ./inp_files/374083.got.cif
#   From: 2010.06.25/outbox.cif.g09.slc.cpg/sg12_188_cif.got.tgz:374083.got - 2010.06.28 00:19:55.
