data_PCOD8091028
_publ_section_title
;
Structure prediction by ZEFSAII (Michael W. Deem and Ramdas Pophale) SiO2 
 PCOD8091028
Probable space group: C 2/M
;
_chemical_formula_sum "Si O2"
_cell_formula_units_Z 48
_cell_length_a 16.760504
_cell_length_b 17.569969
_cell_length_c 12.246443
_cell_angle_alpha 90.000000
_cell_angle_beta 131.311603
_cell_angle_gamma 90.000000
_cell_volume 2708.840345
_symmetry_space_group_name_H-M "C 2/M"
_symmetry_group_IT_number 12
_symmetry_cell_setting 'monoclinic'
loop_
_space_group_symop_operation_xyz
x,y,z
-x,y,-z
-x,-y,-z
x,-y,z
1/2+x,1/2+y,z
1/2-x,1/2+y,-z
1/2-x,1/2-y,-z
1/2+x,1/2-y,z
loop_
_atom_site_type_symbol
_atom_site_label
_atom_site_fract_x
_atom_site_fract_y
_atom_site_fract_z
Si Si1 0.113072 0.693228 0.156877
Si Si2 0.561727 0.684003 0.658738
Si Si3 0.255486 0.089971 0.883476
Si Si4 0.866069 0.589032 0.208430
Si Si5 0.788389 0.308744 0.310734
Si Si6 0.066006 0.311472 0.360751
O O1 0.181915 0.627958 0.160351
O O2 0.169880 0.775272 0.204586
O O3 0.099790 0.668174 0.269402
O O4 0.000000 0.702838 0.000000
O O5 0.500000 0.646825 0.500000
O O6 0.633505 0.619261 0.780095
O O7 0.635337 0.750353 0.680761
O O8 0.480824 0.724886 0.671004
O O9 0.255673 0.000000 0.865920
O O10 0.312232 0.114551 0.046416
O O11 0.882110 0.500000 0.228503
O O12 0.790516 0.614255 0.240871
O O13 0.980799 0.627024 0.324009
O O14 0.829339 0.322208 0.470541
#
# Coordination Sequence:
#
# PCOD8091028 Si02
#       6
#     8   8   8   8   8   8
#     4  11  21  33  53  77 104 136 166 204 257 304
#     4   8  17  33  54  76  99 131 173 213 248 291
#     4  10  21  34  50  76 107 135 167 207 252 302
#     4  10  20  34  54  78 103 133 169 209 251 298
#     4   9  20  34  53  76 103 132 170 212 247 293
#     4  10  19  34  54  80 103 128 166 213 253 299
#
# _framework density 17.719760000000001
#
# number of rings (size 3 to 8) (size 9 to 14) (size 15 to 20)
#    0.000    2.333    1.667    2.000    2.333    4.667 
#    0.000    0.000    0.000    1.500    0.000    0.000 
#    0.000    0.000    0.000    0.000    0.000    0.000 
#
# Total GULP energy -297570.729206 kJ/mol
# GULP energy per Si atom -12398.780384 kJ/mol
# Density = 1.767943 g / cm^3
# Si number density = 17.719760 Si / 1000 Ang^3
#
#
#
# Elastic Constant Matrix: (Units=GPa)
#
#
# Indices 1 2 3 4 5 6 
#
# 1 65.2621 32.6318 35.2706 0.0000 -10.1181 0.0000
# 2 32.6318 71.6117 49.8432 0.0000 2.2849 0.0000
# 3 35.2706 49.8432 103.8399 0.0000 -9.7831 0.0000
# 4 0.0000 0.0000 0.0000 23.5309 0.0000 -1.7623
# 5 -10.1181 2.2849 -9.7831 0.0000 28.5600 0.0000
# 6 0.0000 0.0000 0.0000 -1.7623 0.0000 16.4616
#
#
#
# Elastic Compliance Matrix: (Units=1/GPa)
#
#
# Indices 1 2 3 4 5 6 
#
# 1 0.022220 -0.008428 -0.002787 0.000000 0.007592 0.000000
# 2 -0.008428 0.024972 -0.009913 0.000000 -0.008379 0.000000
# 3 -0.002787 -0.009913 0.015828 0.000000 0.005228 0.000000
# 4 0.000000 0.000000 0.000000 0.042841 0.000000 0.004586
# 5 0.007592 -0.008379 0.005228 0.000000 0.040165 0.000000
# 6 0.000000 0.000000 0.000000 0.004586 0.000000 0.061238
#
#
# Mechanical properties :
#
#
# Convention : Reuss Voigt Hill
#
# Bulk Modulus (GPa) = 48.16083 52.91166 50.53624
# Shear Modulus (GPa) = 19.49777 21.90838 20.70308
#
# Velocity S-wave (km/s) = 3.32074 3.52004 3.42184
# Velocity P-wave (km/s) = 6.47620 6.81513 6.64783
#
# Compressibility (1/GPa) = 0.02076376
#
# Stress axis : x y z
#
# Youngs Moduli (GPa) = 45.00487 40.04530 63.18054
#
# Poissons Ratio (x) = 0.33749 0.17607
# Poissons Ratio (y) = 0.37929 0.62633
# Poissons Ratio (z) = 0.12542 0.39698
#
# Static dielectric constant tensor:
#      x y z
#    x 3.434690 0.000000 0.113930 
#    y 0.000000 3.150380 0.000000 
#    z 0.113930 0.000000 3.668330 
# 
# 
# High freq. dielectric constant tensor:
#      x y z
#    x 1.673150 0.000000 -0.001450 
#    y 0.000000 1.662560 0.000000 
#    z -0.001450 0.000000 1.702560 
# 
# From -- ./inp_files/157640.got.cif
#   From: 2010.06.25/outbox.cif.g09.slc.cpg/sg12_79_cif.got.tgz:157640.got - 2010.06.28 00:19:55.
