data_PCOD8091380
_publ_section_title
;
Structure prediction by ZEFSAII (Michael W. Deem and Ramdas Pophale) SiO2 
 PCOD8091380
Probable space group: C 2/M
;
_chemical_formula_sum "Si O2"
_cell_formula_units_Z 48
_cell_length_a 32.063023
_cell_length_b 14.010203
_cell_length_c 8.705169
_cell_angle_alpha 90.000000
_cell_angle_beta 39.797441
_cell_angle_gamma 90.000000
_cell_volume 2502.979125
_symmetry_space_group_name_H-M "C 2/M"
_symmetry_group_IT_number 12
_symmetry_cell_setting 'monoclinic'
loop_
_space_group_symop_operation_xyz
x,y,z
-x,y,-z
-x,-y,-z
x,-y,z
1/2+x,1/2+y,z
1/2-x,1/2+y,-z
1/2-x,1/2-y,-z
1/2+x,1/2-y,z
loop_
_atom_site_type_symbol
_atom_site_label
_atom_site_fract_x
_atom_site_fract_y
_atom_site_fract_z
Si Si1 0.543585 0.778554 0.678554
Si Si2 0.562687 0.395067 0.423327
Si Si3 0.711966 0.894077 0.367903
Si Si4 0.651499 0.110634 0.213789
Si Si5 0.902447 0.302207 0.156092
Si Si6 0.664971 0.274818 0.944470
O O1 0.537504 0.673142 0.628456
O O2 0.580568 0.852442 0.464122
O O3 0.581335 0.751648 0.728311
O O4 0.473572 0.832042 0.891106
O O5 0.500000 0.410918 0.500000
O O6 0.585435 0.500000 0.419305
O O7 0.623154 0.347288 0.164766
O O8 0.699603 0.874741 0.222036
O O9 0.646285 0.887890 0.658096
O O10 0.763547 0.817819 0.283474
O O11 0.739859 0.000000 0.310947
O O12 0.647633 0.000000 0.175201
O O13 0.673956 0.172397 0.003131
O O14 0.867679 0.234847 0.130126
#
# Coordination Sequence:
#
# PCOD8091380 Si02
#       6
#     8   8   8   8   8   8
#     4   9  19  37  56  79 113 144 176 221 274 319
#     4  10  19  34  56  80 105 140 183 224 264 314
#     4  10  21  37  54  79 110 147 183 220 269 327
#     4   9  20  36  58  82 107 139 183 227 272 320
#     4  10  20  35  55  78 111 148 177 218 270 324
#     4  11  20  35  58  80 111 142 181 226 272 315
#
# _framework density 19.177147000000001
#
# number of rings (size 3 to 8) (size 9 to 14) (size 15 to 20)
#    0.000    2.167    1.667    1.500    0.000    1.333 
#    0.000    7.500    0.000    1.000    0.000    0.000 
#    0.000    0.000    0.000    0.000    0.000    0.000 
#
# Total GULP energy -297367.700421 kJ/mol
# GULP energy per Si atom -12390.320851 kJ/mol
# Density = 1.913350 g / cm^3
# Si number density = 19.177147 Si / 1000 Ang^3
#
#
#
# Elastic Constant Matrix: (Units=GPa)
#
#
# Indices 1 2 3 4 5 6 
#
# 1 94.7339 47.2946 38.2845 0.0000 -7.1932 0.0000
# 2 47.2946 127.4608 45.0397 0.0000 -6.9242 0.0000
# 3 38.2845 45.0397 81.6889 0.0000 -5.9245 0.0000
# 4 0.0000 0.0000 0.0000 19.6017 0.0000 -4.1645
# 5 -7.1932 -6.9242 -5.9245 0.0000 22.7780 0.0000
# 6 0.0000 0.0000 0.0000 -4.1645 0.0000 24.7319
#
#
#
# Elastic Compliance Matrix: (Units=1/GPa)
#
#
# Indices 1 2 3 4 5 6 
#
# 1 0.014375 -0.003588 -0.004596 0.000000 0.002254 0.000000
# 2 -0.003588 0.010696 -0.004141 0.000000 0.001042 0.000000
# 3 -0.004596 -0.004141 0.016799 0.000000 0.001659 0.000000
# 4 0.000000 0.000000 0.000000 0.052909 0.000000 0.008909
# 5 0.002254 0.001042 0.001659 0.000000 0.045362 0.000000
# 6 0.000000 0.000000 0.000000 0.008909 0.000000 0.041934
#
#
# Mechanical properties :
#
#
# Convention : Reuss Voigt Hill
#
# Bulk Modulus (GPa) = 58.06315 62.79126 60.42721
# Shear Modulus (GPa) = 23.53346 24.97333 24.25339
#
# Velocity S-wave (km/s) = 3.50689 3.61258 3.56012
# Velocity P-wave (km/s) = 6.83671 7.08624 6.96259
#
# Compressibility (1/GPa) = 0.01722263
#
# Stress axis : x y z
#
# Youngs Moduli (GPa) = 69.56364 93.48872 59.52844
#
# Poissons Ratio (x) = 0.33540 0.27357
# Poissons Ratio (y) = 0.24957 0.24649
# Poissons Ratio (z) = 0.31969 0.38710
#
# Static dielectric constant tensor:
#      x y z
#    x 3.536080 0.000000 -0.014180 
#    y 0.000000 3.452900 0.000000 
#    z -0.014180 0.000000 3.578520 
# 
# 
# High freq. dielectric constant tensor:
#      x y z
#    x 1.747540 0.000000 -0.006110 
#    y 0.000000 1.730260 0.000000 
#    z -0.006110 0.000000 1.749070 
# 
# From -- ./inp_files/111492.got.cif
#   From: 2010.06.25/outbox.cif.g09.slc.cpg/sg12_56_cif.got.tgz:111492.got - 2010.06.28 00:19:55.
