data_PCOD8091643
_publ_section_title
;
Structure prediction by ZEFSAII (Michael W. Deem and Ramdas Pophale) SiO2 
 PCOD8091643
Probable space group: C 2/M
;
_chemical_formula_sum "Si O2"
_cell_formula_units_Z 56
_cell_length_a 29.570356
_cell_length_b 9.283463
_cell_length_c 11.063489
_cell_angle_alpha 90.000000
_cell_angle_beta 69.542450
_cell_angle_gamma 90.000000
_cell_volume 2845.551600
_symmetry_space_group_name_H-M "C 2/M"
_symmetry_group_IT_number 12
_symmetry_cell_setting 'monoclinic'
loop_
_space_group_symop_operation_xyz
x,y,z
-x,y,-z
-x,-y,-z
x,-y,z
1/2+x,1/2+y,z
1/2-x,1/2+y,-z
1/2-x,1/2-y,-z
1/2+x,1/2-y,z
loop_
_atom_site_type_symbol
_atom_site_label
_atom_site_fract_x
_atom_site_fract_y
_atom_site_fract_z
Si Si1 0.628210 0.836395 0.901039
Si Si2 0.361573 0.338415 0.732450
Si Si3 0.535758 0.670510 0.077912
Si Si4 0.527811 0.666745 0.358701
Si Si5 0.305166 0.667577 0.314375
Si Si6 0.701591 0.839498 0.037483
Si Si7 0.215183 0.161716 0.392373
O O1 0.644568 0.745373 0.768701
O O2 0.612000 0.000000 0.884612
O O3 0.585314 0.755692 0.010502
O O4 0.678341 0.838349 0.927398
O O5 0.355379 0.500000 0.791739
O O6 0.417035 0.301385 0.661978
O O7 0.340153 0.222665 0.841287
O O8 0.334738 0.323104 0.631055
O O9 0.546858 0.500000 0.069378
O O10 0.515757 0.719688 0.230680
O O11 0.500000 0.709438 0.000000
O O12 0.500000 0.740745 0.500000
O O13 0.514387 0.500000 0.372368
O O14 0.308854 0.500000 0.277685
O O15 0.256390 0.733246 0.299291
O O16 0.299681 0.701776 0.459437
O O17 0.714726 0.000000 0.066887
O O18 0.750000 0.750000 0.000000
O O19 0.236173 0.000000 0.363902
#
# Coordination Sequence:
#
# PCOD8091643 Si02
#       7
#     8   8   8   8   8   8   8
#     4  11  23  38  56  80 114 152 191 235 288 348
#     4  10  19  34  57  81 110 146 186 232 284 344
#     4  10  21  38  62  89 114 146 194 249 297 351
#     4   9  18  34  58  86 114 146 187 239 297 352
#     4  10  20  34  54  80 113 151 190 235 283 340
#     4  11  23  36  54  82 115 151 190 234 283 340
#     4   9  19  34  52  79 113 150 190 234 285 344
#
# _framework density 19.679841
#
# number of rings (size 3 to 8) (size 9 to 14) (size 15 to 20)
#    0.000    2.000    1.429    2.143    0.000    7.714 
#    0.000    4.286    0.000    1.714    0.000    0.000 
#    0.000    0.000    0.000    0.000    0.000    0.000 
#
# Total GULP energy -346970.258133 kJ/mol
# GULP energy per Si atom -12391.794933 kJ/mol
# Density = 1.963505 g / cm^3
# Si number density = 19.679841 Si / 1000 Ang^3
#
#
#
# Elastic Constant Matrix: (Units=GPa)
#
#
# Indices 1 2 3 4 5 6 
#
# 1 83.2159 33.4463 47.9089 0.0000 2.0343 0.0000
# 2 33.4463 103.2088 50.7564 0.0000 -14.4239 0.0000
# 3 47.9089 50.7564 132.2563 0.0000 -12.0006 0.0000
# 4 0.0000 0.0000 0.0000 21.4823 0.0000 -4.7584
# 5 2.0343 -14.4239 -12.0006 0.0000 26.7870 0.0000
# 6 0.0000 0.0000 0.0000 -4.7584 0.0000 24.3328
#
#
#
# Elastic Compliance Matrix: (Units=1/GPa)
#
#
# Indices 1 2 3 4 5 6 
#
# 1 0.016543 -0.003619 -0.005102 0.000000 -0.005491 0.000000
# 2 -0.003619 0.013295 -0.003249 0.000000 0.005978 0.000000
# 3 -0.005102 -0.003249 0.010979 0.000000 0.003557 0.000000
# 4 0.000000 0.000000 0.000000 0.048657 0.000000 0.009515
# 5 -0.005491 0.005978 0.003557 0.000000 0.042561 0.000000
# 6 0.000000 0.000000 0.000000 0.009515 0.000000 0.042958
#
#
# Mechanical properties :
#
#
# Convention : Reuss Voigt Hill
#
# Bulk Modulus (GPa) = 59.25227 64.76713 62.00970
# Shear Modulus (GPa) = 24.44286 26.95839 25.70062
#
# Velocity S-wave (km/s) = 3.52806 3.70516 3.61769
# Velocity P-wave (km/s) = 6.83884 7.16143 7.00200
#
# Compressibility (1/GPa) = 0.01687699
#
# Stress axis : x y z
#
# Youngs Moduli (GPa) = 60.44814 75.21491 91.08564
#
# Poissons Ratio (x) = 0.27223 0.46470
# Poissons Ratio (y) = 0.21879 0.29592
# Poissons Ratio (z) = 0.30840 0.24436
#
# Static dielectric constant tensor:
#      x y z
#    x 3.516250 0.000000 0.151300 
#    y 0.000000 3.651520 0.000000 
#    z 0.151300 0.000000 3.958480 
# 
# 
# High freq. dielectric constant tensor:
#      x y z
#    x 1.760500 0.000000 0.001250 
#    y 0.000000 1.751510 0.000000 
#    z 0.001250 0.000000 1.776440 
# 
# From -- ./inp_files/180755.got.cif
#   From: 2010.06.25/outbox.cif.g09.slc.cpg/sg12_91_cif.got.tgz:180755.got - 2010.06.28 00:19:55.
