data_PCOD8091577
_publ_section_title
;
Structure prediction by ZEFSAII (Michael W. Deem and Ramdas Pophale) SiO2 
 PCOD8091577
Probable space group: C 2/M
;
_chemical_formula_sum "Si O2"
_cell_formula_units_Z 48
_cell_length_a 18.097178
_cell_length_b 23.494851
_cell_length_c 9.496484
_cell_angle_alpha 90.000000
_cell_angle_beta 146.552498
_cell_angle_gamma 90.000000
_cell_volume 2225.533258
_symmetry_space_group_name_H-M "C 2/M"
_symmetry_group_IT_number 12
_symmetry_cell_setting 'monoclinic'
loop_
_space_group_symop_operation_xyz
x,y,z
-x,y,-z
-x,-y,-z
x,-y,z
1/2+x,1/2+y,z
1/2-x,1/2+y,-z
1/2-x,1/2-y,-z
1/2+x,1/2-y,z
loop_
_atom_site_type_symbol
_atom_site_label
_atom_site_fract_x
_atom_site_fract_y
_atom_site_fract_z
Si Si1 0.702817 0.500000 0.395391
Si Si2 0.544691 0.713161 0.729181
Si Si3 0.559941 0.158612 0.751749
Si Si4 0.629246 0.707060 0.295735
Si Si5 0.689622 0.109917 0.524072
Si Si6 0.938111 0.000000 0.133903
Si Si7 0.286785 0.605235 0.976965
O O1 0.799726 0.555098 0.560606
O O2 0.597792 0.500000 0.358807
O O3 0.628090 0.500000 0.125694
O O4 0.500000 0.702906 0.500000
O O5 0.603863 0.776295 0.855084
O O6 0.413798 0.698808 0.612034
O O7 0.655012 0.668153 0.952808
O O8 0.500000 0.160603 0.500000
O O9 0.456092 0.140333 0.710779
O O10 0.684306 0.113340 0.946885
O O11 0.750000 0.750000 0.500000
O O12 0.685065 0.649310 0.317578
O O13 0.500000 0.728396 0.000000
O O14 0.703064 0.089021 0.705777
O O15 0.897028 0.054927 0.165480
#
# Coordination Sequence:
#
# PCOD8091577 Si02
#       7
#     4   8   8   8   8   4   8
#     4   9  18  29  53  81 117 149 201 257 311 355
#     4  11  22  37  57  86 121 161 205 244 310 370
#     4   9  19  32  51  81 114 149 193 239 311 360
#     4  12  24  40  63  93 127 161 208 261 309 368
#     4  10  19  35  55  87 116 155 201 256 306 362
#     4   9  18  31  50  83 104 153 203 246 310 358
#     4  10  19  34  57  78 118 154 196 257 300 370
#
# _framework density 21.567865000000001
#
# number of rings (size 3 to 8) (size 9 to 14) (size 15 to 20)
#    0.000    1.833    3.333    1.500    2.333    2.000 
#    0.000    3.750    0.000    0.000    0.000    0.583 
#    0.000    0.000    0.000    0.000    0.000    0.000 
#
# Total GULP energy -297336.066568 kJ/mol
# GULP energy per Si atom -12389.002774 kJ/mol
# Density = 2.151878 g / cm^3
# Si number density = 21.567865 Si / 1000 Ang^3
#
#
#
# Elastic Constant Matrix: (Units=GPa)
#
#
# Indices 1 2 3 4 5 6 
#
# 1 133.4038 46.5718 39.0148 0.0000 37.3006 0.0000
# 2 46.5718 151.5269 41.4011 0.0000 31.4834 0.0000
# 3 39.0148 41.4011 51.0009 0.0000 22.8560 0.0000
# 4 0.0000 0.0000 0.0000 19.7921 0.0000 10.2443
# 5 37.3006 31.4834 22.8560 0.0000 37.2007 0.0000
# 6 0.0000 0.0000 0.0000 10.2443 0.0000 29.7647
#
#
#
# Elastic Compliance Matrix: (Units=1/GPa)
#
#
# Indices 1 2 3 4 5 6 
#
# 1 0.011270 -0.000544 -0.004584 0.000000 -0.008023 0.000000
# 2 -0.000544 0.008977 -0.005121 0.000000 -0.003906 0.000000
# 3 -0.004584 -0.005121 0.032110 0.000000 -0.010798 0.000000
# 4 0.000000 0.000000 0.000000 0.061477 0.000000 -0.021159
# 5 -0.008023 -0.003906 -0.010798 0.000000 0.044866 0.000000
# 6 0.000000 0.000000 0.000000 -0.021159 0.000000 0.040879
#
#
# Mechanical properties :
#
#
# Convention : Reuss Voigt Hill
#
# Bulk Modulus (GPa) = 31.38767 65.54521 48.46644
# Shear Modulus (GPa) = 21.67335 31.28110 26.47722
#
# Velocity S-wave (km/s) = 3.17344 3.81249 3.50755
# Velocity P-wave (km/s) = 5.29266 7.05948 6.23893
#
# Compressibility (1/GPa) = 0.03185964
#
# Stress axis : x y z
#
# Youngs Moduli (GPa) = 88.73096 111.39011 31.14257
#
# Poissons Ratio (x) = 0.06064 0.14275
# Poissons Ratio (y) = 0.04830 0.15948
# Poissons Ratio (z) = 0.40673 0.57042
#
# Static dielectric constant tensor:
#      x y z
#    x 4.893080 0.000000 0.884040 
#    y 0.000000 4.006760 0.000000 
#    z 0.884040 0.000000 3.678370 
# 
# 
# High freq. dielectric constant tensor:
#      x y z
#    x 1.854760 0.000000 0.038230 
#    y 0.000000 1.846060 0.000000 
#    z 0.038230 0.000000 1.795430 
# 
# From -- ./inp_files/135227.got.cif
#   From: 2010.06.25/outbox.cif.g09.slc.cpg/sg12_68_cif.got.tgz:135227.got - 2010.06.28 00:19:55.
