data_PCOD8091600
_publ_section_title
;
Structure prediction by ZEFSAII (Michael W. Deem and Ramdas Pophale) SiO2 
 PCOD8091600
Probable space group: C 2/M
;
_chemical_formula_sum "Si O2"
_cell_formula_units_Z 64
_cell_length_a 18.449955
_cell_length_b 9.074845
_cell_length_c 20.721521
_cell_angle_alpha 90.000000
_cell_angle_beta 90.372222
_cell_angle_gamma 90.000000
_cell_volume 3469.341034
_symmetry_space_group_name_H-M "C 2/M"
_symmetry_group_IT_number 12
_symmetry_cell_setting 'monoclinic'
loop_
_space_group_symop_operation_xyz
x,y,z
-x,y,-z
-x,-y,-z
x,-y,z
1/2+x,1/2+y,z
1/2-x,1/2+y,-z
1/2-x,1/2-y,-z
1/2+x,1/2-y,z
loop_
_atom_site_type_symbol
_atom_site_label
_atom_site_fract_x
_atom_site_fract_y
_atom_site_fract_z
Si Si1 0.793601 0.833343 0.053832
Si Si2 0.458271 0.330279 0.565106
Si Si3 0.202887 0.169850 0.666589
Si Si4 0.309761 0.333737 0.191665
Si Si5 0.460110 0.672908 0.062442
Si Si6 0.451004 0.172619 0.329396
Si Si7 0.210633 0.827372 0.440842
Si Si8 0.045356 0.331182 0.813523
O O1 0.760705 0.810965 0.126592
O O2 0.876553 0.779799 0.056258
O O3 0.789851 0.000000 0.031197
O O4 0.750000 0.750000 0.000000
O O5 0.500000 0.292102 0.500000
O O6 0.470146 0.500000 0.585236
O O7 0.488081 0.224930 0.620831
O O8 0.374236 0.294390 0.554037
O O9 0.232622 0.180571 0.740816
O O10 0.122300 0.235242 0.659444
O O11 0.259862 0.260817 0.625414
O O12 0.200028 0.000000 0.643312
O O13 0.344265 0.500000 0.187050
O O14 0.370584 0.210059 0.191191
O O15 0.472119 0.500000 0.066333
O O16 0.493217 0.739682 0.129163
O O17 0.500000 0.739230 0.000000
O O18 0.485777 0.200780 0.258384
O O19 0.433421 0.000000 0.339015
O O20 0.250000 0.750000 0.500000
O O21 0.227534 0.000000 0.442880
O O22 0.037376 0.500000 0.832714
#
# Coordination Sequence:
#
# PCOD8091600 Si02
#       8
#     8   8   8   8   8   8   8   8
#     4   9  17  30  48  71  97 127 166 209 253 299
#     4  10  22  39  57  78 105 138 176 215 256 306
#     4  10  19  34  57  80 105 139 175 213 260 312
#     4   8  16  31  50  71  97 134 175 208 246 303
#     4   9  18  33  51  70  96 133 175 212 248 301
#     4  10  20  34  55  82 108 135 172 217 262 310
#     4  11  23  38  57  82 110 138 172 215 259 307
#     4   9  17  29  48  76 104 129 164 211 258 303
#
# _framework density 18.447306000000001
#
# number of rings (size 3 to 8) (size 9 to 14) (size 15 to 20)
#    0.000    2.500    0.000    3.000    0.000    6.500 
#    0.000    1.250    0.000    6.000    0.000    0.000 
#    0.000    0.000    0.000    0.000    0.000    0.000 
#
# Total GULP energy -396590.122790 kJ/mol
# GULP energy per Si atom -12393.441337 kJ/mol
# Density = 1.840532 g / cm^3
# Si number density = 18.447306 Si / 1000 Ang^3
#
#
#
# Elastic Constant Matrix: (Units=GPa)
#
#
# Indices 1 2 3 4 5 6 
#
# 1 72.9249 46.1348 63.5391 0.0000 -2.7748 0.0000
# 2 46.1348 85.3439 69.1128 0.0000 1.5191 0.0000
# 3 63.5391 69.1128 169.3754 0.0000 -2.9652 0.0000
# 4 0.0000 0.0000 0.0000 36.3804 0.0000 1.8970
# 5 -2.7748 1.5191 -2.9652 0.0000 31.9815 0.0000
# 6 0.0000 0.0000 0.0000 1.8970 0.0000 24.5492
#
#
#
# Elastic Compliance Matrix: (Units=1/GPa)
#
#
# Indices 1 2 3 4 5 6 
#
# 1 0.023966 -0.008570 -0.005459 0.000000 0.001980 0.000000
# 2 -0.008570 0.020636 -0.005244 0.000000 -0.002210 0.000000
# 3 -0.005459 -0.005244 0.010104 0.000000 0.000712 0.000000
# 4 0.000000 0.000000 0.000000 0.027599 0.000000 -0.002133
# 5 0.001980 -0.002210 0.000712 0.000000 0.031611 0.000000
# 6 0.000000 0.000000 0.000000 -0.002133 0.000000 0.040899
#
#
# Mechanical properties :
#
#
# Convention : Reuss Voigt Hill
#
# Bulk Modulus (GPa) = 61.88051 76.13529 69.00790
# Shear Modulus (GPa) = 25.15739 28.50604 26.83172
#
# Velocity S-wave (km/s) = 3.69690 3.93526 3.81794
# Velocity P-wave (km/s) = 7.20000 7.87462 7.54486
#
# Compressibility (1/GPa) = 0.01616018
#
# Stress axis : x y z
#
# Youngs Moduli (GPa) = 41.72550 48.45845 98.96777
#
# Poissons Ratio (x) = 0.41529 0.54027
# Poissons Ratio (y) = 0.35759 0.51901
# Poissons Ratio (z) = 0.22778 0.25413
#
# Static dielectric constant tensor:
#      x y z
#    x 2.942870 0.000000 -0.070170 
#    y 0.000000 3.465140 0.000000 
#    z -0.070170 0.000000 3.883190 
# 
# 
# High freq. dielectric constant tensor:
#      x y z
#    x 1.669270 0.000000 -0.003640 
#    y 0.000000 1.721190 0.000000 
#    z -0.003640 0.000000 1.742070 
# 
# From -- ./inp_files/314055.got.cif
#   From: 2010.06.25/outbox.cif.g09.slc.cpg/sg12_158_cif.got.tgz:314055.got - 2010.06.28 00:19:55.
