data_PCOD8091856
_publ_section_title
;
Structure prediction by ZEFSAII (Michael W. Deem and Ramdas Pophale) SiO2 
 PCOD8091856
Probable space group: C 2/M
;
_chemical_formula_sum "Si O2"
_cell_formula_units_Z 40
_cell_length_a 24.608733
_cell_length_b 9.358730
_cell_length_c 17.129544
_cell_angle_alpha 90.000000
_cell_angle_beta 146.878873
_cell_angle_gamma 90.000000
_cell_volume 2155.615340
_symmetry_space_group_name_H-M "C 2/M"
_symmetry_group_IT_number 12
_symmetry_cell_setting 'monoclinic'
loop_
_space_group_symop_operation_xyz
x,y,z
-x,y,-z
-x,-y,-z
x,-y,z
1/2+x,1/2+y,z
1/2-x,1/2+y,-z
1/2-x,1/2-y,-z
1/2+x,1/2-y,z
loop_
_atom_site_type_symbol
_atom_site_label
_atom_site_fract_x
_atom_site_fract_y
_atom_site_fract_z
Si Si1 0.843296 0.835761 0.140164
Si Si2 0.462118 0.667075 0.710861
Si Si3 0.392005 0.663990 0.373741
Si Si4 0.280490 0.330000 0.389864
Si Si5 0.424671 0.667381 0.840979
O O1 0.839587 0.818642 0.228312
O O2 0.943699 0.768799 0.223099
O O3 0.832296 0.000000 0.101365
O O4 0.750000 0.750000 0.000000
O O5 0.462843 0.500000 0.695878
O O6 0.357476 0.723240 0.549625
O O7 0.473564 0.704115 0.815983
O O8 0.500000 0.740325 0.500000
O O9 0.409973 0.500000 0.419358
O O10 0.322870 0.728312 0.358267
O O11 0.263191 0.500000 0.370839
O O12 0.176035 0.254738 0.275701
O O13 0.400169 0.500000 0.818522
O O14 0.500000 0.715891 0.000000
#
# Coordination Sequence:
#
# PCOD8091856 Si02
#       5
#     8   8   8   8   8
#     4  10  20  34  54  79 107 136 168 209 257 308
#     4   9  18  35  56  75 100 139 178 208 250 308
#     4   9  16  31  55  80 102 130 170 212 254 304
#     4  10  19  34  58  80  99 130 176 221 254 293
#     4  10  22  37  52  74 106 141 172 206 256 312
#
# _framework density 18.556186
#
# number of rings (size 3 to 8) (size 9 to 14) (size 15 to 20)
#    0.000    2.400    2.000    0.600    2.800    0.400 
#    0.000    2.000    0.000    1.200    0.000    0.000 
#    0.000    0.000    0.000    0.000    0.000    0.000 
#
# Total GULP energy -247926.167543 kJ/mol
# GULP energy per Si atom -12396.308377 kJ/mol
# Density = 1.851395 g / cm^3
# Si number density = 18.556186 Si / 1000 Ang^3
#
#
#
# Elastic Constant Matrix: (Units=GPa)
#
#
# Indices 1 2 3 4 5 6 
#
# 1 114.2652 23.2414 58.2399 0.0000 -8.1383 0.0000
# 2 23.2414 29.8338 38.6913 0.0000 2.2765 0.0000
# 3 58.2399 38.6913 146.9608 0.0000 4.1129 0.0000
# 4 0.0000 0.0000 0.0000 25.1432 0.0000 8.0427
# 5 -8.1383 2.2765 4.1129 0.0000 33.9225 0.0000
# 6 0.0000 0.0000 0.0000 8.0427 0.0000 19.0832
#
#
#
# Elastic Compliance Matrix: (Units=1/GPa)
#
#
# Indices 1 2 3 4 5 6 
#
# 1 0.011780 -0.004959 -0.003463 0.000000 0.003579 0.000000
# 2 -0.004959 0.053094 -0.011921 0.000000 -0.003308 0.000000
# 3 -0.003463 -0.011921 0.011355 0.000000 -0.001407 0.000000
# 4 0.000000 0.000000 0.000000 0.045969 0.000000 -0.019374
# 5 0.003579 -0.003308 -0.001407 0.000000 0.030730 0.000000
# 6 0.000000 0.000000 0.000000 -0.019374 0.000000 0.060568
#
#
# Mechanical properties :
#
#
# Convention : Reuss Voigt Hill
#
# Bulk Modulus (GPa) = 28.13422 59.04501 43.58962
# Shear Modulus (GPa) = 18.79488 27.02228 22.90858
#
# Velocity S-wave (km/s) = 3.18600 3.82021 3.51743
# Velocity P-wave (km/s) = 5.35992 7.16571 6.32756
#
# Compressibility (1/GPa) = 0.03554390
#
# Stress axis : x y z
#
# Youngs Moduli (GPa) = 84.88841 18.83435 88.06902
#
# Poissons Ratio (x) = 0.09340 0.30498
# Poissons Ratio (y) = 0.42097 1.04984
# Poissons Ratio (z) = 0.29397 0.22452
#
# Static dielectric constant tensor:
#      x y z
#    x 35.451490 0.000000 -9.463830 
#    y 0.000000 2.952800 0.000000 
#    z -9.463830 0.000000 6.235080 
# 
# 
# High freq. dielectric constant tensor:
#      x y z
#    x 1.739910 0.000000 -0.004150 
#    y 0.000000 1.665790 0.000000 
#    z -0.004150 0.000000 1.730420 
# 
# From -- ./inp_files/71404.got.cif
#   From: 2010.06.25/outbox.cif.g09.slc.cpg/sg12_36_cif.got.tgz:71404.got - 2010.06.28 00:19:55.
