data_PCOD8091961
_publ_section_title
;
Structure prediction by ZEFSAII (Michael W. Deem and Ramdas Pophale) SiO2 
 PCOD8091961
Probable space group: C 2/M
;
_chemical_formula_sum "Si O2"
_cell_formula_units_Z 48
_cell_length_a 27.989193
_cell_length_b 13.589705
_cell_length_c 10.772242
_cell_angle_alpha 90.000000
_cell_angle_beta 38.059208
_cell_angle_gamma 90.000000
_cell_volume 2525.935744
_symmetry_space_group_name_H-M "C 2/M"
_symmetry_group_IT_number 12
_symmetry_cell_setting 'monoclinic'
loop_
_space_group_symop_operation_xyz
x,y,z
-x,y,-z
-x,-y,-z
x,-y,z
1/2+x,1/2+y,z
1/2-x,1/2+y,-z
1/2-x,1/2-y,-z
1/2+x,1/2-y,z
loop_
_atom_site_type_symbol
_atom_site_label
_atom_site_fract_x
_atom_site_fract_y
_atom_site_fract_z
Si Si1 0.428787 0.108776 0.533795
Si Si2 0.157087 0.610375 0.541860
Si Si3 0.589018 0.891087 0.097417
Si Si4 0.580086 0.246507 0.896121
Si Si5 0.168656 0.886163 0.892499
Si Si6 0.168830 0.740577 0.099708
O O1 0.406508 0.115001 0.435220
O O2 0.523333 0.112586 0.341770
O O3 0.393020 0.205189 0.671797
O O4 0.400428 0.000000 0.642594
O O5 0.157239 0.500000 0.600897
O O6 0.138058 0.693779 0.681489
O O7 0.240714 0.633740 0.312552
O O8 0.667408 0.842975 0.993814
O O9 0.608754 0.000000 0.013350
O O10 0.556622 0.833308 0.046520
O O11 0.621820 0.339374 0.873655
O O12 0.500000 0.283999 0.000000
O O13 0.146827 0.000000 0.942166
O O14 0.145676 0.840957 0.074967
O O15 0.250000 0.750000 0.000000
#
# Coordination Sequence:
#
# PCOD8091961 Si02
#       6
#     8   8   8   8   8   8
#     4  10  19  34  58  86 115 145 176 223 288 343
#     4  10  19  34  58  85 115 146 177 222 285 340
#     4  10  21  35  56  88 118 142 175 225 288 342
#     4  11  21  35  59  87 113 146 184 230 274 330
#     4  10  23  40  56  77 110 155 194 227 269 321
#     4  11  21  34  55  80 108 145 189 228 266 324
#
# _framework density 19.002859999999998
#
# number of rings (size 3 to 8) (size 9 to 14) (size 15 to 20)
#    0.000    1.667    3.333    2.000    0.000    3.000 
#    0.000    0.000    0.000   10.000    0.000    0.000 
#    0.000    0.000    0.000    0.000    0.000    0.000 
#
# Total GULP energy -297469.971177 kJ/mol
# GULP energy per Si atom -12394.582132 kJ/mol
# Density = 1.895961 g / cm^3
# Si number density = 19.002860 Si / 1000 Ang^3
#
#
#
# Elastic Constant Matrix: (Units=GPa)
#
#
# Indices 1 2 3 4 5 6 
#
# 1 111.2140 57.5575 28.1638 0.0000 -16.2376 0.0000
# 2 57.5575 144.1517 52.8107 0.0000 1.1670 0.0000
# 3 28.1638 52.8107 67.3271 0.0000 4.2057 0.0000
# 4 0.0000 0.0000 0.0000 28.1184 0.0000 6.2995
# 5 -16.2376 1.1670 4.2057 0.0000 33.7609 0.0000
# 6 0.0000 0.0000 0.0000 6.2995 0.0000 26.1923
#
#
#
# Elastic Compliance Matrix: (Units=1/GPa)
#
#
# Indices 1 2 3 4 5 6 
#
# 1 0.012774 -0.004273 -0.002403 0.000000 0.006591 0.000000
# 2 -0.004273 0.011177 -0.006880 0.000000 -0.001585 0.000000
# 3 -0.002403 -0.006880 0.021480 0.000000 -0.003594 0.000000
# 4 0.000000 0.000000 0.000000 0.037589 0.000000 -0.009041
# 5 0.006591 -0.001585 -0.003594 0.000000 0.033293 0.000000
# 6 0.000000 0.000000 0.000000 -0.009041 0.000000 0.040354
#
#
# Mechanical properties :
#
#
# Convention : Reuss Voigt Hill
#
# Bulk Modulus (GPa) = 54.59580 66.63964 60.61772
# Shear Modulus (GPa) = 26.33153 29.89169 28.11161
#
# Velocity S-wave (km/s) = 3.72649 3.97042 3.85039
# Velocity P-wave (km/s) = 6.87810 7.49422 7.19276
#
# Compressibility (1/GPa) = 0.01831643
#
# Stress axis : x y z
#
# Youngs Moduli (GPa) = 78.28226 89.46949 46.55557
#
# Poissons Ratio (x) = 0.38234 0.11189
# Poissons Ratio (y) = 0.33454 0.32033
# Poissons Ratio (z) = 0.18814 0.61559
#
# Static dielectric constant tensor:
#      x y z
#    x 3.744040 0.000000 0.045780 
#    y 0.000000 3.464350 0.000000 
#    z 0.045780 0.000000 3.307160 
# 
# 
# High freq. dielectric constant tensor:
#      x y z
#    x 1.769250 0.000000 0.003340 
#    y 0.000000 1.727970 0.000000 
#    z 0.003340 0.000000 1.715260 
# 
# From -- ./inp_files/189351.got.cif
#   From: 2010.06.25/outbox.cif.g09.slc.cpg/sg12_95_cif.got.tgz:189351.got - 2010.06.28 00:19:55.
