data_PCOD8091321
_publ_section_title
;
Structure prediction by ZEFSAII (Michael W. Deem and Ramdas Pophale) SiO2 
 PCOD8091321
Probable space group: C 2/M
;
_chemical_formula_sum "Si O2"
_cell_formula_units_Z 56
_cell_length_a 18.749021
_cell_length_b 9.074625
_cell_length_c 24.651265
_cell_angle_alpha 90.000000
_cell_angle_beta 45.994581
_cell_angle_gamma 90.000000
_cell_volume 3016.761059
_symmetry_space_group_name_H-M "C 2/M"
_symmetry_group_IT_number 12
_symmetry_cell_setting 'monoclinic'
loop_
_space_group_symop_operation_xyz
x,y,z
-x,y,-z
-x,-y,-z
x,-y,z
1/2+x,1/2+y,z
1/2-x,1/2+y,-z
1/2-x,1/2-y,-z
1/2+x,1/2-y,z
loop_
_atom_site_type_symbol
_atom_site_label
_atom_site_fract_x
_atom_site_fract_y
_atom_site_fract_z
Si Si1 0.146653 0.173514 0.569015
Si Si2 0.587704 0.323618 0.914746
Si Si3 0.207806 0.660087 0.307881
Si Si4 0.396756 0.830105 0.205918
Si Si5 0.487397 0.172885 0.271739
Si Si6 0.479893 0.340170 0.573053
Si Si7 0.201059 0.660423 0.184400
O O1 0.250000 0.250000 0.500000
O O2 0.095502 0.241973 0.649715
O O3 0.077894 0.206428 0.553598
O O4 0.163655 0.000000 0.569700
O O5 0.591338 0.500000 0.907352
O O6 0.566960 0.258423 0.866001
O O7 0.692164 0.265278 0.887174
O O8 0.500000 0.269632 0.000000
O O9 0.224867 0.500000 0.326372
O O10 0.290788 0.773837 0.284209
O O11 0.099565 0.713812 0.379300
O O12 0.213641 0.642374 0.241216
O O13 0.472075 0.805487 0.215705
O O14 0.387026 0.000000 0.194934
O O15 0.597753 0.243254 0.224900
O O16 0.482973 0.000000 0.290518
O O17 0.500000 0.357181 0.500000
O O18 0.442612 0.500000 0.615148
O O19 0.193598 0.500000 0.159999
#
# Coordination Sequence:
#
# PCOD8091321 Si02
#       7
#     8   8   8   8   8   8   8
#     4  11  24  39  56  79 110 147 186 232 281 330
#     4   9  18  35  59  85 113 144 181 226 272 323
#     4  10  19  34  56  78 102 137 182 229 271 323
#     4  10  21  34  54  81 111 144 180 226 276 326
#     4  10  20  37  57  77 108 148 188 229 275 328
#     4  10  22  38  54  75 106 141 180 227 281 331
#     4   8  15  31  55  78 101 137 179 216 262 320
#
# _framework density 18.562954999999999
#
# number of rings (size 3 to 8) (size 9 to 14) (size 15 to 20)
#    0.000    2.286    1.429    2.143    2.000    2.286 
#    0.000    0.714    0.000    0.000    0.000    0.000 
#    0.000    0.000    0.000    0.000    0.000    0.000 
#
# Total GULP energy -346932.512375 kJ/mol
# GULP energy per Si atom -12390.446871 kJ/mol
# Density = 1.852070 g / cm^3
# Si number density = 18.562955 Si / 1000 Ang^3
#
#
#
# Elastic Constant Matrix: (Units=GPa)
#
#
# Indices 1 2 3 4 5 6 
#
# 1 94.5784 32.8804 48.8395 0.0000 -11.1287 0.0000
# 2 32.8804 73.6145 43.7002 0.0000 -3.2252 -0.0002
# 3 48.8395 43.7002 114.3253 0.0000 -24.8899 0.0000
# 4 0.0000 0.0000 0.0000 25.2905 0.0000 0.8991
# 5 -11.1287 -3.2252 -24.8899 0.0000 28.9174 0.0000
# 6 0.0000 -0.0002 0.0000 0.8991 0.0000 25.0393
#
#
#
# Elastic Compliance Matrix: (Units=1/GPa)
#
#
# Indices 1 2 3 4 5 6 
#
# 1 0.014290 -0.003712 -0.004404 0.000000 0.001295 0.000000
# 2 -0.003712 0.019071 -0.006832 0.000000 -0.005182 0.000000
# 3 -0.004404 -0.006832 0.015635 0.000000 0.011001 0.000000
# 4 0.000000 0.000000 0.000000 0.039591 0.000000 -0.001422
# 5 0.001295 -0.005182 0.011001 0.000000 0.043970 0.000000
# 6 0.000000 0.000000 0.000000 -0.001422 0.000000 0.039988
#
#
# Mechanical properties :
#
#
# Convention : Reuss Voigt Hill
#
# Bulk Modulus (GPa) = 52.35627 59.26205 55.80916
# Shear Modulus (GPa) = 23.94538 26.32264 25.13401
#
# Velocity S-wave (km/s) = 3.59549 3.76975 3.68365
# Velocity P-wave (km/s) = 6.74557 7.13738 6.94424
#
# Compressibility (1/GPa) = 0.01909991
#
# Stress axis : x y z
#
# Youngs Moduli (GPa) = 69.97800 52.43554 63.95913
#
# Poissons Ratio (x) = 0.19462 0.28168
# Poissons Ratio (y) = 0.25973 0.43700
# Poissons Ratio (z) = 0.30819 0.35826
#
# Static dielectric constant tensor:
#      x y z
#    x 3.545130 0.000000 -0.206310 
#    y 0.000000 3.222540 0.000000 
#    z -0.206310 0.000000 3.244600 
# 
# 
# High freq. dielectric constant tensor:
#      x y z
#    x 1.725540 0.000000 -0.013550 
#    y 0.000000 1.711440 0.000000 
#    z -0.013550 0.000000 1.706090 
# 
# From -- ./inp_files/342307.got.cif
#   From: 2010.06.25/outbox.cif.g09.slc.cpg/sg12_172_cif.got.tgz:342307.got - 2010.06.28 00:19:55.
