data_PCOD8091245
_publ_section_title
;
Structure prediction by ZEFSAII (Michael W. Deem and Ramdas Pophale) SiO2 
 PCOD8091245
Probable space group: C 2/M
;
_chemical_formula_sum "Si O2"
_cell_formula_units_Z 56
_cell_length_a 10.948467
_cell_length_b 18.402739
_cell_length_c 14.478236
_cell_angle_alpha 90.000000
_cell_angle_beta 105.138467
_cell_angle_gamma 90.000000
_cell_volume 2815.870130
_symmetry_space_group_name_H-M "C 2/M"
_symmetry_group_IT_number 12
_symmetry_cell_setting 'monoclinic'
loop_
_space_group_symop_operation_xyz
x,y,z
-x,y,-z
-x,-y,-z
x,-y,z
1/2+x,1/2+y,z
1/2-x,1/2+y,-z
1/2-x,1/2-y,-z
1/2+x,1/2-y,z
loop_
_atom_site_type_symbol
_atom_site_label
_atom_site_fract_x
_atom_site_fract_y
_atom_site_fract_z
Si Si1 0.586920 0.084602 0.750571
Si Si2 0.070496 0.187962 0.225599
Si Si3 0.175710 0.347280 0.272924
Si Si4 0.707783 0.675905 0.884642
Si Si5 0.224935 0.163249 0.088534
Si Si6 0.215976 0.082107 0.364173
Si Si7 0.144480 0.916706 0.550518
O O1 0.440623 0.105545 0.712432
O O2 0.644325 0.129447 0.848051
O O3 0.657471 0.104602 0.667944
O O4 0.599918 0.000000 0.775474
O O5 0.144638 0.261762 0.265048
O O6 0.115624 0.146200 0.140969
O O7 0.097576 0.132309 0.313543
O O8 0.922834 0.200913 0.187572
O O9 0.213332 0.370545 0.175275
O O10 0.296101 0.362865 0.361979
O O11 0.780436 0.749969 0.920416
O O12 0.696339 0.631951 0.979614
O O13 0.233779 0.090616 0.477377
O O14 0.177924 0.000000 0.331737
O O15 0.000000 0.893396 0.500000
O O16 0.146408 0.000000 0.587070
#
# Coordination Sequence:
#
# PCOD8091245 Si02
#       7
#     8   8   8   8   8   8   8
#     4  10  20  38  57  82 118 149 190 235 280 337
#     4  10  19  35  59  83 112 141 190 240 277 332
#     4  11  22  34  56  85 113 147 190 234 288 332
#     4  10  19  34  55  81 114 146 189 230 275 338
#     4   9  19  34  55  81 109 152 188 224 278 334
#     4   9  20  38  60  80 107 152 189 228 284 338
#     4  10  21  39  59  83 115 151 190 229 284 347
#
# _framework density 19.887281000000002
#
# number of rings (size 3 to 8) (size 9 to 14) (size 15 to 20)
#    0.000    2.143    1.429    1.714    0.000    1.714 
#    0.000    5.714    0.000    3.429    0.000    0.000 
#    0.000    0.000    0.000    0.000    0.000    0.000 
#
# Total GULP energy -347050.110510 kJ/mol
# GULP energy per Si atom -12394.646804 kJ/mol
# Density = 1.984202 g / cm^3
# Si number density = 19.887281 Si / 1000 Ang^3
#
#
#
# Elastic Constant Matrix: (Units=GPa)
#
#
# Indices 1 2 3 4 5 6 
#
# 1 89.0004 17.6254 43.9956 0.0000 0.3344 0.0000
# 2 17.6254 47.7482 37.4237 0.0000 -5.6922 0.0000
# 3 43.9956 37.4237 114.4026 0.0000 -10.0495 0.0000
# 4 0.0000 0.0000 0.0000 20.0270 0.0000 1.3069
# 5 0.3344 -5.6922 -10.0495 0.0000 29.3677 0.0000
# 6 0.0000 0.0000 0.0000 1.3069 0.0000 25.9075
#
#
#
# Elastic Compliance Matrix: (Units=1/GPa)
#
#
# Indices 1 2 3 4 5 6 
#
# 1 0.014065 -0.001429 -0.005134 0.000000 -0.002194 0.000000
# 2 -0.001429 0.028471 -0.008534 0.000000 0.002614 0.000000
# 3 -0.005134 -0.008534 0.013781 0.000000 0.003120 0.000000
# 4 0.000000 0.000000 0.000000 0.050098 0.000000 -0.002527
# 5 -0.002194 0.002614 0.003120 0.000000 0.035650 0.000000
# 6 0.000000 0.000000 0.000000 -0.002527 0.000000 0.038726
#
#
# Mechanical properties :
#
#
# Convention : Reuss Voigt Hill
#
# Bulk Modulus (GPa) = 38.28164 49.91561 44.09863
# Shear Modulus (GPa) = 22.75877 25.20087 23.97982
#
# Velocity S-wave (km/s) = 3.38655 3.56362 3.47621
# Velocity P-wave (km/s) = 5.88071 6.48739 6.19148
#
# Compressibility (1/GPa) = 0.02612218
#
# Stress axis : x y z
#
# Youngs Moduli (GPa) = 71.09743 35.12291 72.56195
#
# Poissons Ratio (x) = 0.05021 0.37254
# Poissons Ratio (y) = 0.10163 0.61926
# Poissons Ratio (z) = 0.36502 0.29975
#
# Static dielectric constant tensor:
#      x y z
#    x 3.686150 0.000000 -0.298570 
#    y 0.000000 3.370690 0.000000 
#    z -0.298570 0.000000 3.791470 
# 
# 
# High freq. dielectric constant tensor:
#      x y z
#    x 1.778950 0.000000 -0.015270 
#    y 0.000000 1.749930 0.000000 
#    z -0.015270 0.000000 1.775960 
# 
# From -- ./inp_files/206240.got.cif
#   From: 2010.06.25/outbox.cif.g09.slc.cpg/sg12_104_cif.got.tgz:206240.got - 2010.06.28 00:19:55.
