data_PCOD8091735
_publ_section_title
;
Structure prediction by ZEFSAII (Michael W. Deem and Ramdas Pophale) SiO2 
 PCOD8091735
Probable space group: C 2/M
;
_chemical_formula_sum "Si O2"
_cell_formula_units_Z 48
_cell_length_a 19.064349
_cell_length_b 8.695181
_cell_length_c 29.172555
_cell_angle_alpha 90.000000
_cell_angle_beta 31.616588
_cell_angle_gamma 90.000000
_cell_volume 2535.122748
_symmetry_space_group_name_H-M "C 2/M"
_symmetry_group_IT_number 12
_symmetry_cell_setting 'monoclinic'
loop_
_space_group_symop_operation_xyz
x,y,z
-x,y,-z
-x,-y,-z
x,-y,z
1/2+x,1/2+y,z
1/2-x,1/2+y,-z
1/2-x,1/2-y,-z
1/2+x,1/2-y,z
loop_
_atom_site_type_symbol
_atom_site_label
_atom_site_fract_x
_atom_site_fract_y
_atom_site_fract_z
Si Si1 0.621100 0.679072 0.466347
Si Si2 0.032960 0.679022 0.370230
Si Si3 0.887464 0.179593 0.279393
Si Si4 0.811100 0.677314 0.232438
Si Si5 0.588703 0.820971 0.236116
Si Si6 0.366231 0.822061 0.099300
O O1 0.500000 0.722598 0.500000
O O2 0.656356 0.500000 0.444797
O O3 0.582102 0.726013 0.539782
O O4 0.751278 0.772570 0.379954
O O5 0.009610 0.500000 0.391976
O O6 0.176412 0.724225 0.310724
O O7 0.026376 0.721152 0.320273
O O8 0.906406 0.266725 0.220381
O O9 0.013742 0.221670 0.240091
O O10 0.887045 0.000000 0.270166
O O11 0.771283 0.500000 0.261595
O O12 0.886146 0.703513 0.142576
O O13 0.744857 0.779131 0.147875
O O14 0.571188 0.000000 0.235028
O O15 0.336420 0.000000 0.104800
O O16 0.500000 0.764364 0.000000
#
# Coordination Sequence:
#
# PCOD8091735 Si02
#       6
#     8   8   8   8   8   8
#     4  11  22  35  55  81 111 149 192 234 275 324
#     4  10  20  35  56  81 109 147 191 233 274 325
#     4  12  24  37  56  81 113 151 190 233 279 327
#     4  10  19  34  57  83 113 147 183 226 277 330
#     4  10  22  39  58  83 116 148 184 230 282 333
#     4   9  19  38  64  90 114 143 181 224 274 337
#
# _framework density 18.933993999999998
#
# number of rings (size 3 to 8) (size 9 to 14) (size 15 to 20)
#    0.000    1.667    1.667    3.500    0.000    4.333 
#    0.000    0.833    0.000    0.000    0.000    0.000 
#    0.000    0.000    0.000    0.000    0.000    0.000 
#
# Total GULP energy -297717.420416 kJ/mol
# GULP energy per Si atom -12404.892517 kJ/mol
# Density = 1.889090 g / cm^3
# Si number density = 18.933994 Si / 1000 Ang^3
#
#
#
# Elastic Constant Matrix: (Units=GPa)
#
#
# Indices 1 2 3 4 5 6 
#
# 1 108.3461 26.2677 38.7806 0.0000 1.6842 0.0002
# 2 26.2677 44.9527 21.5653 0.0000 0.5774 0.0016
# 3 38.7806 21.5653 98.5591 0.0000 12.8894 0.0001
# 4 0.0000 0.0000 0.0000 27.3277 -0.0001 -2.4408
# 5 1.6842 0.5774 12.8894 -0.0001 21.4224 0.0001
# 6 0.0002 0.0016 0.0001 -2.4408 0.0001 32.8462
#
#
#
# Elastic Compliance Matrix: (Units=1/GPa)
#
#
# Indices 1 2 3 4 5 6 
#
# 1 0.011774 -0.005123 -0.003700 0.000000 0.001438 0.000000
# 2 -0.005123 0.027243 -0.004235 0.000000 0.002217 -0.000001
# 3 -0.003700 -0.004235 0.013541 0.000000 -0.007742 0.000000
# 4 0.000000 0.000000 0.000000 0.036837 0.000000 0.002737
# 5 0.001438 0.002217 -0.007742 0.000000 0.051166 0.000000
# 6 0.000000 -0.000001 0.000000 0.002737 0.000000 0.030648
#
#
# Mechanical properties :
#
#
# Convention : Reuss Voigt Hill
#
# Bulk Modulus (GPa) = 37.81944 47.23167 42.52556
# Shear Modulus (GPa) = 24.25555 27.33555 25.79555
#
# Velocity S-wave (km/s) = 3.58307 3.80376 3.69507
# Velocity P-wave (km/s) = 6.09390 6.65516 6.38070
#
# Compressibility (1/GPa) = 0.02644143
#
# Stress axis : x y z
#
# Youngs Moduli (GPa) = 84.93492 36.70734 73.84946
#
# Poissons Ratio (x) = 0.18807 0.27322
# Poissons Ratio (y) = 0.43516 0.31273
# Poissons Ratio (z) = 0.31424 0.15545
#
# Static dielectric constant tensor:
#      x y z
#    x 3.552680 0.000000 0.178200 
#    y 0.000000 3.511710 0.000000 
#    z 0.178200 0.000000 3.370170 
# 
# 
# High freq. dielectric constant tensor:
#      x y z
#    x 1.736790 0.000000 0.012190 
#    y 0.000000 1.746540 0.000000 
#    z 0.012190 0.000000 1.719300 
# 
# From -- ./inp_files/274601.got.cif
#   From: 2010.06.25/outbox.cif.g09.slc.cpg/sg12_138_cif.got.tgz:274601.got - 2010.06.28 00:19:55.
