data_PCOD8091386
_publ_section_title
;
Structure prediction by ZEFSAII (Michael W. Deem and Ramdas Pophale) SiO2 
 PCOD8091386
Probable space group: C 2/M
;
_chemical_formula_sum "Si O2"
_cell_formula_units_Z 56
_cell_length_a 14.461302
_cell_length_b 8.802197
_cell_length_c 23.961721
_cell_angle_alpha 90.000000
_cell_angle_beta 98.208453
_cell_angle_gamma 90.000000
_cell_volume 3018.869011
_symmetry_space_group_name_H-M "C 2/M"
_symmetry_group_IT_number 12
_symmetry_cell_setting 'monoclinic'
loop_
_space_group_symop_operation_xyz
x,y,z
-x,y,-z
-x,-y,-z
x,-y,z
1/2+x,1/2+y,z
1/2-x,1/2+y,-z
1/2-x,1/2-y,-z
1/2+x,1/2-y,z
loop_
_atom_site_type_symbol
_atom_site_label
_atom_site_fract_x
_atom_site_fract_y
_atom_site_fract_z
Si Si1 0.676282 0.180872 0.650029
Si Si2 0.941830 0.820521 0.265278
Si Si3 0.981352 0.179447 0.435641
Si Si4 0.465179 0.673669 0.936462
Si Si5 0.083803 0.321885 0.855729
Si Si6 0.884489 0.178605 0.649228
Si Si7 0.745511 0.327887 0.058761
O O1 0.639892 0.241782 0.706178
O O2 0.611697 0.238708 0.594084
O O3 0.781121 0.247795 0.649259
O O4 0.675262 0.000000 0.651015
O O5 0.043657 0.767282 0.296358
O O6 0.933914 0.773259 0.200976
O O7 0.930227 0.000000 0.271016
O O8 0.071345 0.227900 0.406507
O O9 0.000000 0.233663 0.500000
O O10 0.963970 0.000000 0.430006
O O11 0.498516 0.500000 0.929028
O O12 0.502981 0.786267 0.892943
O O13 0.354669 0.688217 0.922034
O O14 0.500000 0.728876 0.000000
O O15 0.085465 0.500000 0.841613
O O16 0.180365 0.260910 0.890914
O O17 0.873597 0.000000 0.650687
O O18 0.773387 0.500000 0.049216
O O19 0.750000 0.250000 0.000000
#
# Coordination Sequence:
#
# PCOD8091386 Si02
#       7
#     8   8   8   8   8   8   8
#     4  10  19  34  56  80 108 140 180 230 276 314
#     4  10  21  39  58  76 104 142 182 220 267 329
#     4   9  18  34  54  79 114 153 189 220 260 321
#     4  10  20  36  57  78 103 139 178 210 255 324
#     4  11  23  37  55  82 111 137 172 223 275 317
#     4   8  17  34  55  77 105 144 181 221 273 318
#     4  10  21  36  55  78 106 138 172 213 263 318
#
# _framework density 18.549993000000001
#
# number of rings (size 3 to 8) (size 9 to 14) (size 15 to 20)
#    0.000    2.286    1.429    2.143    0.000    3.429 
#    0.000   12.857    0.000    0.000    0.000    0.000 
#    0.000    0.000    0.000    0.000    0.000    0.000 
#
# Total GULP energy -347189.071661 kJ/mol
# GULP energy per Si atom -12399.609702 kJ/mol
# Density = 1.850777 g / cm^3
# Si number density = 18.549993 Si / 1000 Ang^3
#
#
#
# Elastic Constant Matrix: (Units=GPa)
#
#
# Indices 1 2 3 4 5 6 
#
# 1 147.6621 32.1574 68.2873 0.0000 5.6576 0.0000
# 2 32.1574 45.3725 30.4038 0.0000 1.9157 0.0000
# 3 68.2873 30.4038 151.0011 0.0000 -2.4485 0.0000
# 4 0.0000 0.0000 0.0000 31.4727 0.0000 -1.7537
# 5 5.6576 1.9157 -2.4485 0.0000 19.7574 0.0000
# 6 0.0000 0.0000 0.0000 -1.7537 0.0000 26.3059
#
#
#
# Elastic Compliance Matrix: (Units=1/GPa)
#
#
# Indices 1 2 3 4 5 6 
#
# 1 0.009387 -0.004237 -0.003436 0.000000 -0.002703 0.000000
# 2 -0.004237 0.027582 -0.003669 0.000000 -0.001916 0.000000
# 3 -0.003436 -0.003669 0.008955 0.000000 0.002449 0.000000
# 4 0.000000 0.000000 0.000000 0.031892 0.000000 0.002126
# 5 -0.002703 -0.001916 0.002449 0.000000 0.051877 0.000000
# 6 0.000000 0.000000 0.000000 0.002126 0.000000 0.038156
#
#
# Mechanical properties :
#
#
# Convention : Reuss Voigt Hill
#
# Bulk Modulus (GPa) = 43.02712 67.30366 55.16539
# Shear Modulus (GPa) = 25.21694 29.71966 27.46830
#
# Velocity S-wave (km/s) = 3.69101 4.00701 3.85225
# Velocity P-wave (km/s) = 6.43509 7.60061 7.04200
#
# Compressibility (1/GPa) = 0.02324115
#
# Stress axis : x y z
#
# Youngs Moduli (GPa) = 106.52483 36.25587 111.67229
#
# Poissons Ratio (x) = 0.15360 0.38372
# Poissons Ratio (y) = 0.45131 0.40969
# Poissons Ratio (z) = 0.36603 0.13301
#
# Static dielectric constant tensor:
#      x y z
#    x 3.717770 0.000000 0.146610 
#    y 0.000000 3.285370 0.000000 
#    z 0.146610 0.000000 3.440490 
# 
# 
# High freq. dielectric constant tensor:
#      x y z
#    x 1.727700 0.000000 0.003350 
#    y 0.000000 1.707420 0.000000 
#    z 0.003350 0.000000 1.722300 
# 
# From -- ./inp_files/338158.got.cif
#   From: 2010.06.25/outbox.cif.g09.slc.cpg/sg12_170_cif.got.tgz:338158.got - 2010.06.28 00:19:55.
