data_PCOD8091537
_publ_section_title
;
Structure prediction by ZEFSAII (Michael W. Deem and Ramdas Pophale) SiO2 
 PCOD8091537
Probable space group: C 2/M
;
_chemical_formula_sum "Si O2"
_cell_formula_units_Z 64
_cell_length_a 30.049229
_cell_length_b 9.020744
_cell_length_c 14.533438
_cell_angle_alpha 90.000000
_cell_angle_beta 48.833279
_cell_angle_gamma 90.000000
_cell_volume 2965.665366
_symmetry_space_group_name_H-M "C 2/M"
_symmetry_group_IT_number 12
_symmetry_cell_setting 'monoclinic'
loop_
_space_group_symop_operation_xyz
x,y,z
-x,y,-z
-x,-y,-z
x,-y,z
1/2+x,1/2+y,z
1/2-x,1/2+y,-z
1/2-x,1/2-y,-z
1/2+x,1/2-y,z
loop_
_atom_site_type_symbol
_atom_site_label
_atom_site_fract_x
_atom_site_fract_y
_atom_site_fract_z
Si Si1 0.135138 0.835366 0.313684
Si Si2 0.236955 0.670029 0.922340
Si Si3 0.161496 0.827019 0.875308
Si Si4 0.582096 0.166762 0.730793
Si Si5 0.549405 0.174562 0.072126
Si Si6 0.555737 0.329816 0.254483
Si Si7 0.698570 0.671311 0.626924
Si Si8 0.944317 0.666411 0.446426
O O1 0.205318 0.821401 0.219754
O O2 0.113171 0.808028 0.239386
O O3 0.110500 0.713969 0.416557
O O4 0.115347 0.000000 0.372511
O O5 0.218355 0.500000 0.966503
O O6 0.186072 0.751440 0.933966
O O7 0.250000 0.750000 0.000000
O O8 0.204152 0.799957 0.729182
O O9 0.153501 0.000000 0.906374
O O10 0.096548 0.756589 0.941580
O O11 0.518685 0.212870 0.862152
O O12 0.633271 0.278505 0.688162
O O13 0.576321 0.174236 0.629777
O O14 0.598901 0.000000 0.739356
O O15 0.563345 0.226143 0.156430
O O16 0.559611 0.000000 0.051924
O O17 0.547174 0.500000 0.235439
O O18 0.499135 0.275860 0.390503
O O19 0.704471 0.500000 0.595063
O O20 0.750000 0.750000 0.500000
O O21 0.963268 0.500000 0.447029
#
# Coordination Sequence:
#
# PCOD8091537 Si02
#       8
#     8   8   8   8   8   8   8   8
#     4  10  22  36  53  81 116 157 207 258 311 373
#     4  11  24  42  64  92 125 165 212 262 319 380
#     4  11  25  44  65  94 129 168 214 265 322 384
#     4   9  21  41  63  92 127 161 205 258 317 379
#     4  10  21  39  65  95 125 162 207 259 317 378
#     4  10  19  34  56  84 123 164 202 255 313 370
#     4  11  26  45  68  95 128 169 213 264 321 380
#     4  10  21  35  55  85 120 159 205 256 309 372
#
# _framework density 21.580317000000001
#
# number of rings (size 3 to 8) (size 9 to 14) (size 15 to 20)
#    0.000    1.750    0.000    4.125    1.750   10.000 
#    0.000    2.500    0.000    0.000    0.000    0.000 
#    0.000    0.000    0.000    0.000    0.000    0.000 
#
# Total GULP energy -396836.430172 kJ/mol
# GULP energy per Si atom -12401.138443 kJ/mol
# Density = 2.153120 g / cm^3
# Si number density = 21.580317 Si / 1000 Ang^3
#
#
#
# Elastic Constant Matrix: (Units=GPa)
#
#
# Indices 1 2 3 4 5 6 
#
# 1 81.3606 53.7326 30.1539 0.0000 -19.2467 0.0001
# 2 53.7326 137.3133 59.5181 0.0000 -5.0460 0.0002
# 3 30.1539 59.5181 111.6081 0.0000 -13.7015 0.0000
# 4 0.0000 0.0000 0.0000 39.3597 0.0000 -3.0255
# 5 -19.2467 -5.0460 -13.7015 0.0000 22.1761 0.0000
# 6 0.0001 0.0002 0.0000 -3.0255 0.0000 33.5461
#
#
#
# Elastic Compliance Matrix: (Units=1/GPa)
#
#
# Indices 1 2 3 4 5 6 
#
# 1 0.021409 -0.008002 0.000585 0.000000 0.017122 0.000000
# 2 -0.008002 0.012485 -0.005410 0.000000 -0.007447 0.000000
# 3 0.000585 -0.005410 0.012550 0.000000 0.007031 0.000000
# 4 0.000000 0.000000 0.000000 0.025584 0.000000 0.002307
# 5 0.017122 -0.007447 0.007031 0.000000 0.062603 0.000000
# 6 0.000000 0.000000 0.000000 0.002307 0.000000 0.030018
#
#
# Mechanical properties :
#
#
# Convention : Reuss Voigt Hill
#
# Bulk Modulus (GPa) = 48.10030 68.56568 58.33299
# Shear Modulus (GPa) = 25.35046 31.47489 28.41267
#
# Velocity S-wave (km/s) = 3.43111 3.82317 3.63244
# Velocity P-wave (km/s) = 6.16718 7.16451 6.68447
#
# Compressibility (1/GPa) = 0.02078989
#
# Stress axis : x y z
#
# Youngs Moduli (GPa) = 46.70872 80.09324 79.67959
#
# Poissons Ratio (x) = 0.64092 -0.04662
# Poissons Ratio (y) = 0.37377 0.43110
# Poissons Ratio (z) = -0.02733 0.43334
#
# Static dielectric constant tensor:
#      x y z
#    x 3.828900 0.000000 -0.179430 
#    y 0.000000 3.988740 0.000000 
#    z -0.179430 0.000000 4.034600 
# 
# 
# High freq. dielectric constant tensor:
#      x y z
#    x 1.841300 0.000000 -0.005630 
#    y 0.000000 1.853990 0.000000 
#    z -0.005630 0.000000 1.856920 
# 
# From -- ./inp_files/249843.got.cif
#   From: 2010.06.25/outbox.cif.g09.slc.cpg/sg12_125_cif.got.tgz:249843.got - 2010.06.28 00:19:55.
