data_PCOD8091510
_publ_section_title
;
Structure prediction by ZEFSAII (Michael W. Deem and Ramdas Pophale) SiO2 
 PCOD8091510
Probable space group: C 2/M
;
_chemical_formula_sum "Si O2"
_cell_formula_units_Z 40
_cell_length_a 12.381821
_cell_length_b 16.667410
_cell_length_c 12.296060
_cell_angle_alpha 90.000000
_cell_angle_beta 59.488449
_cell_angle_gamma 90.000000
_cell_volume 2186.187549
_symmetry_space_group_name_H-M "C 2/M"
_symmetry_group_IT_number 12
_symmetry_cell_setting 'monoclinic'
loop_
_space_group_symop_operation_xyz
x,y,z
-x,y,-z
-x,-y,-z
x,-y,z
1/2+x,1/2+y,z
1/2-x,1/2+y,-z
1/2-x,1/2-y,-z
1/2+x,1/2-y,z
loop_
_atom_site_type_symbol
_atom_site_label
_atom_site_fract_x
_atom_site_fract_y
_atom_site_fract_z
Si Si1 0.492856 0.155674 0.841609
Si Si2 0.808184 0.592917 0.104009
Si Si3 0.163130 0.907536 0.841176
Si Si4 0.918637 0.160869 0.894538
Si Si5 0.060310 0.406088 0.359312
O O1 0.626212 0.142727 0.832526
O O2 0.445860 0.245769 0.875528
O O3 0.508240 0.133979 0.707930
O O4 0.390290 0.098412 0.951591
O O5 0.794353 0.500000 0.143547
O O6 0.671482 0.632002 0.156556
O O7 0.292023 0.885911 0.715147
O O8 0.048489 0.888352 0.818490
O O9 0.158902 0.000000 0.879206
O O10 0.149982 0.854366 0.955734
O O11 0.034636 0.500000 0.365394
O O12 0.000000 0.370156 0.500000
#
# Coordination Sequence:
#
# PCOD8091510 Si02
#       5
#     8   8   8   8   8
#     4  11  22  33  55  84 115 145 183 229 283 336
#     4  11  20  33  54  83 117 146 176 226 288 344
#     4  10  19  34  56  83 115 146 187 226 276 341
#     4  11  21  32  55  85 117 143 173 232 295 334
#     4  10  21  38  59  79 107 151 197 231 261 323
#
# _framework density 18.296692
#
# number of rings (size 3 to 8) (size 9 to 14) (size 15 to 20)
#    0.000    1.400    2.000    7.800    2.800    0.000 
#    0.000    1.000    0.000    0.000    0.000    5.600 
#    0.000    0.000    0.000    0.000    0.000    0.000 
#
# Total GULP energy -248052.500015 kJ/mol
# GULP energy per Si atom -12402.625001 kJ/mol
# Density = 1.825505 g / cm^3
# Si number density = 18.296692 Si / 1000 Ang^3
#
#
#
# Elastic Constant Matrix: (Units=GPa)
#
#
# Indices 1 2 3 4 5 6 
#
# 1 169.9036 55.5730 61.8544 0.0000 -4.9310 0.0000
# 2 55.5730 107.2543 38.7639 0.0000 0.3645 0.0000
# 3 61.8544 38.7639 116.2963 0.0000 7.8098 0.0000
# 4 0.0000 0.0000 0.0000 -18.3497 0.0000 42.5505
# 5 -4.9310 0.3645 7.8098 0.0000 27.5670 0.0000
# 6 0.0000 0.0000 0.0000 42.5505 0.0000 -19.4590
#
#
#
# Elastic Compliance Matrix: (Units=1/GPa)
#
#
# Indices 1 2 3 4 5 6 
#
# 1 0.008229 -0.002989 -0.003549 0.000000 0.002517 0.000000
# 2 -0.002989 0.011708 -0.002310 0.000000 -0.000035 0.000000
# 3 -0.003549 -0.002310 0.011516 0.000000 -0.003867 0.000000
# 4 0.000000 0.000000 0.000000 0.013388 0.000000 0.029275
# 5 0.002517 -0.000035 -0.003867 0.000000 0.037821 0.000000
# 6 0.000000 0.000000 0.000000 0.029275 0.000000 0.012625
#
#
# Mechanical properties :
#
#
# Convention : Reuss Voigt Hill
#
# Bulk Modulus (GPa) = 72.70040 78.42631 75.56336
# Shear Modulus (GPa) = 42.52844 13.76919 28.14882
#
# Velocity S-wave (km/s) = 4.82641 2.74624 3.92658
# Velocity P-wave (km/s) = 8.41899 7.28097 7.87058
#
# Compressibility (1/GPa) = 0.01375508
#
# Stress axis : x y z
#
# Youngs Moduli (GPa) = 121.52719 85.41464 86.83528
#
# Poissons Ratio (x) = 0.25534 0.30819
# Poissons Ratio (y) = 0.36330 0.20059
# Poissons Ratio (z) = 0.43132 0.19731
#
# Static dielectric constant tensor:
#      x y z
#    x 3.734040 0.000000 -0.166000 
#    y 0.000000 3.402770 0.000000 
#    z -0.166000 0.000000 3.165760 
# 
# 
# High freq. dielectric constant tensor:
#      x y z
#    x 1.727350 0.000000 -0.014020 
#    y 0.000000 1.716780 0.000000 
#    z -0.014020 0.000000 1.657630 
# 
# From -- ./inp_files/166479.got.cif
#   From: 2010.06.25/outbox.cif.g09.slc.cpg/sg12_84_cif.got.tgz:166479.got - 2010.06.28 00:19:55.
