data_PCOD8091675
_publ_section_title
;
Structure prediction by ZEFSAII (Michael W. Deem and Ramdas Pophale) SiO2 
 PCOD8091675
Probable space group: C 2/M
;
_chemical_formula_sum "Si O2"
_cell_formula_units_Z 56
_cell_length_a 8.960296
_cell_length_b 26.625203
_cell_length_c 14.934965
_cell_angle_alpha 90.000000
_cell_angle_beta 121.892307
_cell_angle_gamma 90.000000
_cell_volume 3025.164471
_symmetry_space_group_name_H-M "C 2/M"
_symmetry_group_IT_number 12
_symmetry_cell_setting 'monoclinic'
loop_
_space_group_symop_operation_xyz
x,y,z
-x,y,-z
-x,-y,-z
x,-y,z
1/2+x,1/2+y,z
1/2-x,1/2+y,-z
1/2-x,1/2-y,-z
1/2+x,1/2-y,z
loop_
_atom_site_type_symbol
_atom_site_label
_atom_site_fract_x
_atom_site_fract_y
_atom_site_fract_z
Si Si1 0.738467 0.296833 0.867164
Si Si2 0.116003 0.106524 0.739079
Si Si3 0.918114 0.057415 0.092571
Si Si4 0.773394 0.407795 0.134187
Si Si5 0.886334 0.304279 0.104717
Si Si6 0.374705 0.057176 0.688666
Si Si7 0.137590 0.055481 0.463170
O O1 0.612931 0.336839 0.777080
O O2 0.656529 0.241386 0.841252
O O3 0.919160 0.297198 0.870558
O O4 0.757586 0.310320 0.978374
O O5 0.150398 0.067647 0.830226
O O6 0.278024 0.096435 0.723853
O O7 0.927661 0.095365 0.632103
O O8 0.088844 0.092034 0.128191
O O9 0.975237 0.000000 0.097740
O O10 0.758188 0.069998 0.974911
O O11 0.856313 0.352571 0.156227
O O12 0.916043 0.440644 0.232971
O O13 0.323407 0.070735 0.568728
O O14 0.310105 0.000000 0.687648
O O15 0.000000 0.054650 0.500000
O O16 0.150121 0.000000 0.422596
#
# Coordination Sequence:
#
# PCOD8091675 Si02
#       7
#     8   8   8   8   8   8   8
#     4  10  21  35  55  79 106 140 181 228 278 322
#     4  11  19  34  55  82 107 140 184 229 265 322
#     4  11  23  34  50  79 117 154 177 212 272 332
#     4  11  21  36  52  75 113 148 184 215 272 329
#     4  10  21  36  54  79 107 139 184 225 273 328
#     4  10  19  34  57  82 109 143 182 227 269 324
#     4   8  16  31  53  81 109 139 180 225 273 318
#
# _framework density 18.511389999999999
#
# number of rings (size 3 to 8) (size 9 to 14) (size 15 to 20)
#    0.000    1.857    2.857    3.857    2.000    1.714 
#    0.000    2.143    0.000    3.429    0.000    0.000 
#    0.000    0.000    0.000    0.000    0.000    0.000 
#
# Total GULP energy -347068.697640 kJ/mol
# GULP energy per Si atom -12395.310630 kJ/mol
# Density = 1.846926 g / cm^3
# Si number density = 18.511390 Si / 1000 Ang^3
#
#
#
# Elastic Constant Matrix: (Units=GPa)
#
#
# Indices 1 2 3 4 5 6 
#
# 1 39.2090 31.3670 27.7126 0.0000 12.7956 0.0000
# 2 31.3670 121.2717 49.5189 0.0000 -1.7462 0.0000
# 3 27.7126 49.5189 134.9857 0.0000 24.1847 0.0000
# 4 0.0000 0.0000 0.0000 32.3053 0.0000 -2.7389
# 5 12.7956 -1.7462 24.1847 0.0000 24.2268 0.0000
# 6 0.0000 0.0000 0.0000 -2.7389 0.0000 23.3737
#
#
#
# Elastic Compliance Matrix: (Units=1/GPa)
#
#
# Indices 1 2 3 4 5 6 
#
# 1 0.041970 -0.010932 -0.000601 0.000000 -0.022355 0.000000
# 2 -0.010932 0.013110 -0.004590 0.000000 0.011301 0.000000
# 3 -0.000601 -0.004590 0.011225 0.000000 -0.011219 0.000000
# 4 0.000000 0.000000 0.000000 0.031265 0.000000 0.003664
# 5 -0.022355 0.011301 -0.011219 0.000000 0.065098 0.000000
# 6 0.000000 0.000000 0.000000 0.003664 0.000000 0.043212
#
#
# Mechanical properties :
#
#
# Convention : Reuss Voigt Hill
#
# Bulk Modulus (GPa) = 29.35966 56.96262 43.16114
# Shear Modulus (GPa) = 20.04160 28.43900 24.24030
#
# Velocity S-wave (km/s) = 3.29395 3.92382 3.62260
# Velocity P-wave (km/s) = 5.51014 7.16707 6.39252
#
# Compressibility (1/GPa) = 0.03406034
#
# Stress axis : x y z
#
# Youngs Moduli (GPa) = 23.82650 76.27495 89.08332
#
# Poissons Ratio (x) = 0.83385 0.05352
# Poissons Ratio (y) = 0.26048 0.40888
# Poissons Ratio (z) = 0.01431 0.35009
#
# Static dielectric constant tensor:
#      x y z
#    x 3.104070 0.000000 0.122170 
#    y 0.000000 3.368530 0.000000 
#    z 0.122170 0.000000 3.688200 
# 
# 
# High freq. dielectric constant tensor:
#      x y z
#    x 1.697500 0.000000 0.005770 
#    y 0.000000 1.709710 0.000000 
#    z 0.005770 0.000000 1.709430 
# 
# From -- ./inp_files/198947.got.cif
#   From: 2010.06.25/outbox.cif.g09.slc.cpg/sg12_100_cif.got.tgz:198947.got - 2010.06.28 00:19:55.
