data_PCOD8091103
_publ_section_title
;
Structure prediction by ZEFSAII (Michael W. Deem and Ramdas Pophale) SiO2 
 PCOD8091103
Probable space group: C 2/M
;
_chemical_formula_sum "Si O2"
_cell_formula_units_Z 64
_cell_length_a 20.979925
_cell_length_b 9.025086
_cell_length_c 23.458975
_cell_angle_alpha 90.000000
_cell_angle_beta 49.707800
_cell_angle_gamma 90.000000
_cell_volume 3388.052709
_symmetry_space_group_name_H-M "C 2/M"
_symmetry_group_IT_number 12
_symmetry_cell_setting 'monoclinic'
loop_
_space_group_symop_operation_xyz
x,y,z
-x,y,-z
-x,-y,-z
x,-y,z
1/2+x,1/2+y,z
1/2-x,1/2+y,-z
1/2-x,1/2-y,-z
1/2+x,1/2-y,z
loop_
_atom_site_type_symbol
_atom_site_label
_atom_site_fract_x
_atom_site_fract_y
_atom_site_fract_z
Si Si1 0.123099 0.333417 0.689897
Si Si2 0.040604 0.332868 0.141380
Si Si3 0.581344 0.836702 0.488642
Si Si4 0.965239 0.824866 0.080749
Si Si5 0.973933 0.677417 0.358202
Si Si6 0.773963 0.174849 0.196675
Si Si7 0.869258 0.325395 0.801146
Si Si8 0.218372 0.176014 0.340027
O O1 0.150802 0.500000 0.660623
O O2 0.048494 0.329632 0.777442
O O3 0.094944 0.260118 0.646649
O O4 0.202822 0.253839 0.671407
O O5 0.065059 0.500000 0.109230
O O6 0.029741 0.236562 0.090628
O O7 0.109395 0.265452 0.146830
O O8 0.500000 0.864287 0.500000
O O9 0.553442 0.761610 0.564538
O O10 0.637930 0.721706 0.422097
O O11 0.624102 0.000000 0.472491
O O12 0.869371 0.765433 0.140740
O O13 0.965474 0.000000 0.086367
O O14 0.000000 0.772177 0.000000
O O15 0.975762 0.500000 0.358448
O O16 0.064666 0.735944 0.284339
O O17 0.724988 0.212800 0.165377
O O18 0.719667 0.251972 0.277021
O O19 0.772028 0.000000 0.208275
O O20 0.884171 0.500000 0.797224
O O21 0.221951 0.000000 0.330667
#
# Coordination Sequence:
#
# PCOD8091103 Si02
#       8
#     8   8   8   8   8   8   8   8
#     4   8  15  28  47  71  96 125 159 204 257 303
#     4   9  16  32  56  78 101 131 172 212 251 303
#     4  10  20  33  49  69  95 132 176 216 253 302
#     4  10  21  35  52  77 110 142 167 203 257 310
#     4   8  14  27  47  69  95 126 165 210 254 295
#     4  10  19  34  55  77 101 133 178 215 248 307
#     4   8  15  29  54  80  97 127 175 222 254 287
#     4  11  21  32  49  73 102 131 165 213 268 309
#
# _framework density 18.889907999999998
#
# number of rings (size 3 to 8) (size 9 to 14) (size 15 to 20)
#    0.000    2.750    1.250    2.625    0.000    3.000 
#    0.000    1.250    0.000    3.750    0.000    0.000 
#    0.000    0.000    0.000    0.000    0.000    0.000 
#
# Total GULP energy -396457.107198 kJ/mol
# GULP energy per Si atom -12389.284600 kJ/mol
# Density = 1.884691 g / cm^3
# Si number density = 18.889908 Si / 1000 Ang^3
#
#
#
# Elastic Constant Matrix: (Units=GPa)
#
#
# Indices 1 2 3 4 5 6 
#
# 1 125.5987 23.7878 42.9838 0.0003 20.4842 0.0007
# 2 23.7878 26.5482 17.2576 0.0005 5.4441 0.0019
# 3 42.9838 17.2576 79.0609 -0.0003 25.0237 0.0004
# 4 0.0003 0.0005 -0.0003 25.2861 0.0001 -1.7252
# 5 20.4842 5.4441 25.0237 0.0001 29.8627 -0.0001
# 6 0.0007 0.0019 0.0004 -1.7252 -0.0001 21.0906
#
#
#
# Elastic Compliance Matrix: (Units=1/GPa)
#
#
# Indices 1 2 3 4 5 6 
#
# 1 0.010994 -0.006955 -0.003366 0.000000 -0.003453 0.000000
# 2 -0.006955 0.048295 -0.007464 -0.000001 0.002220 -0.000004
# 3 -0.003366 -0.007464 0.020341 0.000000 -0.013375 0.000000
# 4 0.000000 -0.000001 0.000000 0.039769 0.000000 0.003253
# 5 -0.003453 0.002220 -0.013375 0.000000 0.046658 0.000000
# 6 0.000000 -0.000004 0.000000 0.003253 0.000000 0.047681
#
#
# Mechanical properties :
#
#
# Convention : Reuss Voigt Hill
#
# Bulk Modulus (GPa) = 22.69559 44.36290 33.52925
# Shear Modulus (GPa) = 18.93968 25.05979 21.99973
#
# Velocity S-wave (km/s) = 3.16988 3.64624 3.41637
# Velocity P-wave (km/s) = 5.04363 6.42360 5.77498
#
# Compressibility (1/GPa) = 0.04406142
#
# Stress axis : x y z
#
# Youngs Moduli (GPa) = 90.95641 20.70590 49.16077
#
# Poissons Ratio (x) = 0.14400 0.16550
# Poissons Ratio (y) = 0.63258 0.36692
# Poissons Ratio (z) = 0.30620 0.15454
#
# Static dielectric constant tensor:
#      x y z
#    x 3.865740 0.000000 0.134010 
#    y 0.000000 3.053300 0.000000 
#    z 0.134010 0.000000 3.376440 
# 
# 
# High freq. dielectric constant tensor:
#      x y z
#    x 1.753240 0.000000 0.011250 
#    y 0.000000 1.684050 0.000000 
#    z 0.011250 0.000000 1.715140 
# 
# From -- ./inp_files/346014.got.cif
#   From: 2010.06.25/outbox.cif.g09.slc.cpg/sg12_174_cif.got.tgz:346014.got - 2010.06.28 00:19:55.
