data_PCOD8091605
_publ_section_title
;
Structure prediction by ZEFSAII (Michael W. Deem and Ramdas Pophale) SiO2 
 PCOD8091605
Probable space group: C 2/M
;
_chemical_formula_sum "Si O2"
_cell_formula_units_Z 56
_cell_length_a 15.758077
_cell_length_b 9.490846
_cell_length_c 19.924686
_cell_angle_alpha 90.000000
_cell_angle_beta 77.344994
_cell_angle_gamma 90.000000
_cell_volume 2907.495165
_symmetry_space_group_name_H-M "C 2/M"
_symmetry_group_IT_number 12
_symmetry_cell_setting 'monoclinic'
loop_
_space_group_symop_operation_xyz
x,y,z
-x,y,-z
-x,-y,-z
x,-y,z
1/2+x,1/2+y,z
1/2-x,1/2+y,-z
1/2-x,1/2-y,-z
1/2+x,1/2-y,z
loop_
_atom_site_type_symbol
_atom_site_label
_atom_site_fract_x
_atom_site_fract_y
_atom_site_fract_z
Si Si1 0.924901 0.159510 0.201135
Si Si2 0.044952 0.165112 0.654796
Si Si3 0.618189 0.167087 0.347797
Si Si4 0.269564 0.838863 0.792362
Si Si5 0.209213 0.659284 0.065463
Si Si6 0.991339 0.341324 0.927206
Si Si7 0.764684 0.165323 0.430188
O O1 0.967388 0.203639 0.264422
O O2 0.821870 0.174247 0.229329
O O3 0.952436 0.256166 0.135264
O O4 0.950451 0.000000 0.178097
O O5 0.141602 0.209345 0.615630
O O6 0.973358 0.252969 0.625005
O O7 0.029517 0.000000 0.644877
O O8 0.657855 0.223522 0.270227
O O9 0.686785 0.207334 0.393540
O O10 0.601613 0.000000 0.349701
O O11 0.267101 0.768434 0.866814
O O12 0.294888 0.000000 0.801496
O O13 0.245893 0.500000 0.052771
O O14 0.106652 0.661362 0.079002
O O15 0.250000 0.750000 0.000000
O O16 0.028805 0.500000 0.922371
O O17 0.000000 0.273814 0.000000
O O18 0.750000 0.250000 0.500000
O O19 0.762412 0.000000 0.445940
#
# Coordination Sequence:
#
# PCOD8091605 Si02
#       7
#     8   8   8   8   8   8   8
#     4  10  19  34  57  80 105 142 188 235 283 340
#     4  10  21  38  59  87 120 151 188 242 297 339
#     4  10  20  38  63  87 114 154 199 236 280 349
#     4   9  17  33  56  78 103 141 188 232 276 331
#     4  10  20  33  50  72 101 139 181 226 278 334
#     4  10  21  35  49  73 110 145 180 232 293 342
#     4  10  22  41  63  87 121 158 193 237 290 348
#
# _framework density 19.260563999999999
#
# number of rings (size 3 to 8) (size 9 to 14) (size 15 to 20)
#    0.000    2.143    1.429    1.714    0.000    4.286 
#    0.000    4.286    0.000    0.000    0.000    0.000 
#    0.000    0.000    0.000    0.000    0.000    0.000 
#
# Total GULP energy -347148.067576 kJ/mol
# GULP energy per Si atom -12398.145271 kJ/mol
# Density = 1.921673 g / cm^3
# Si number density = 19.260564 Si / 1000 Ang^3
#
#
#
# Elastic Constant Matrix: (Units=GPa)
#
#
# Indices 1 2 3 4 5 6 
#
# 1 111.4230 41.8470 53.4484 0.0000 11.6794 0.0000
# 2 41.8470 56.0977 52.7813 0.0000 -1.8427 0.0000
# 3 53.4484 52.7813 132.5527 0.0000 4.4103 0.0000
# 4 0.0000 0.0000 0.0000 32.2360 0.0000 3.5041
# 5 11.6794 -1.8427 4.4103 0.0000 28.9622 0.0000
# 6 0.0000 0.0000 0.0000 3.5041 0.0000 20.1699
#
#
#
# Elastic Compliance Matrix: (Units=1/GPa)
#
#
# Indices 1 2 3 4 5 6 
#
# 1 0.013747 -0.008654 -0.001904 0.000000 -0.005804 0.000000
# 2 -0.008654 0.034323 -0.010419 0.000000 0.007260 0.000000
# 3 -0.001904 -0.010419 0.012521 0.000000 -0.001802 0.000000
# 4 0.000000 0.000000 0.000000 0.031618 0.000000 -0.005493
# 5 -0.005804 0.007260 -0.001802 0.000000 0.037605 0.000000
# 6 0.000000 0.000000 0.000000 -0.005493 0.000000 0.050533
#
#
# Mechanical properties :
#
#
# Convention : Reuss Voigt Hill
#
# Bulk Modulus (GPa) = 53.65835 66.24744 59.95289
# Shear Modulus (GPa) = 21.88058 26.40673 24.14366
#
# Velocity S-wave (km/s) = 3.37416 3.70675 3.54436
# Velocity P-wave (km/s) = 6.56503 7.26568 6.92422
#
# Compressibility (1/GPa) = 0.01863643
#
# Stress axis : x y z
#
# Youngs Moduli (GPa) = 72.74528 29.13469 79.86712
#
# Poissons Ratio (x) = 0.25212 0.15207
# Poissons Ratio (y) = 0.62952 0.83217
# Poissons Ratio (z) = 0.13851 0.30357
#
# Static dielectric constant tensor:
#      x y z
#    x 3.173630 0.000000 0.249500 
#    y 0.000000 3.505430 0.000000 
#    z 0.249500 0.000000 3.534680 
# 
# 
# High freq. dielectric constant tensor:
#      x y z
#    x 1.757350 0.000000 0.007680 
#    y 0.000000 1.721840 0.000000 
#    z 0.007680 0.000000 1.758520 
# 
# From -- ./inp_files/268855.got.cif
#   From: 2010.06.25/outbox.cif.g09.slc.cpg/sg12_135_cif.got.tgz:268855.got - 2010.06.28 00:19:55.
