data_PCOD8091617
_publ_section_title
;
Structure prediction by ZEFSAII (Michael W. Deem and Ramdas Pophale) SiO2 
 PCOD8091617
Probable space group: C 2/M
;
_chemical_formula_sum "Si O2"
_cell_formula_units_Z 64
_cell_length_a 20.201988
_cell_length_b 10.152565
_cell_length_c 24.462109
_cell_angle_alpha 90.000000
_cell_angle_beta 42.789967
_cell_angle_gamma 90.000000
_cell_volume 3408.266843
_symmetry_space_group_name_H-M "C 2/M"
_symmetry_group_IT_number 12
_symmetry_cell_setting 'monoclinic'
loop_
_space_group_symop_operation_xyz
x,y,z
-x,y,-z
-x,-y,-z
x,-y,z
1/2+x,1/2+y,z
1/2-x,1/2+y,-z
1/2-x,1/2-y,-z
1/2+x,1/2-y,z
loop_
_atom_site_type_symbol
_atom_site_label
_atom_site_fract_x
_atom_site_fract_y
_atom_site_fract_z
Si Si1 0.559350 0.347534 0.690074
Si Si2 0.630425 0.728389 0.140006
Si Si3 0.774653 0.344887 0.591693
Si Si4 0.289596 0.852388 0.801856
Si Si5 0.562452 0.154319 0.586842
Si Si6 0.630384 0.846649 0.357096
Si Si7 0.165218 0.640563 0.013464
Si Si8 0.591914 0.351824 0.975544
O O1 0.564825 0.500000 0.666489
O O2 0.475858 0.338231 0.787923
O O3 0.661936 0.302119 0.654796
O O4 0.537398 0.248695 0.653093
O O5 0.658145 0.769496 0.183767
O O6 0.628993 0.850014 0.098367
O O7 0.716610 0.636158 0.063161
O O8 0.783419 0.500000 0.591779
O O9 0.833616 0.302318 0.501410
O O10 0.826972 0.279449 0.613471
O O11 0.310959 0.787017 0.730276
O O12 0.333562 0.000000 0.776921
O O13 0.174817 0.852851 0.879788
O O14 0.484261 0.176974 0.585058
O O15 0.561267 0.000000 0.606104
O O16 0.653431 0.000000 0.347812
O O17 0.127178 0.500000 0.014112
O O18 0.117833 0.761919 0.010853
O O19 0.572214 0.500000 0.009593
O O20 0.500000 0.292209 0.000000
#
# Coordination Sequence:
#
# PCOD8091617 Si02
#       8
#     8   8   8   8   8   8   8   8
#     4  11  22  35  54  81 112 145 178 221 275 327
#     4  10  20  34  52  77 107 140 177 219 272 323
#     4   9  19  33  51  81 113 140 177 225 272 321
#     4   9  16  29  51  77 102 133 178 224 263 312
#     4  10  19  34  57  81 106 142 184 225 267 318
#     4   9  16  29  53  80 104 136 180 225 265 308
#     4  10  21  35  55  79 106 139 179 226 269 321
#     4   9  19  34  52  76 107 141 177 220 272 327
#
# _framework density 18.777871999999999
#
# number of rings (size 3 to 8) (size 9 to 14) (size 15 to 20)
#    0.000    2.375    1.250    1.500    0.000    6.750 
#    0.000    2.500    0.000    2.250    0.000    0.000 
#    0.000    0.000    0.000    0.000    0.000    0.000 
#
# Total GULP energy -396471.946552 kJ/mol
# GULP energy per Si atom -12389.748330 kJ/mol
# Density = 1.873513 g / cm^3
# Si number density = 18.777872 Si / 1000 Ang^3
#
#
#
# Elastic Constant Matrix: (Units=GPa)
#
#
# Indices 1 2 3 4 5 6 
#
# 1 96.4162 30.4614 51.1271 0.0000 -8.0608 0.0000
# 2 30.4614 68.9289 27.8083 0.0000 1.3334 -0.0001
# 3 51.1271 27.8083 115.8470 0.0000 -4.5704 0.0000
# 4 0.0000 0.0000 0.0000 12.1139 0.0000 -0.5138
# 5 -8.0608 1.3334 -4.5704 0.0000 28.0831 0.0000
# 6 0.0000 -0.0001 0.0000 -0.5138 0.0000 14.1026
#
#
#
# Elastic Compliance Matrix: (Units=1/GPa)
#
#
# Indices 1 2 3 4 5 6 
#
# 1 0.014948 -0.004509 -0.005372 0.000000 0.003631 0.000000
# 2 -0.004509 0.017478 -0.002304 0.000000 -0.002499 0.000000
# 3 -0.005372 -0.002304 0.011574 0.000000 0.000451 0.000000
# 4 0.000000 0.000000 0.000000 0.082677 0.000000 0.003012
# 5 0.003631 -0.002499 0.000451 0.000000 0.036843 0.000000
# 6 0.000000 0.000000 0.000000 0.003012 0.000000 0.071019
#
#
# Mechanical properties :
#
#
# Convention : Reuss Voigt Hill
#
# Bulk Modulus (GPa) = 50.94102 55.55397 53.24750
# Shear Modulus (GPa) = 18.83580 22.31294 20.57437
#
# Velocity S-wave (km/s) = 3.17059 3.45085 3.31368
# Velocity P-wave (km/s) = 6.37108 6.74736 6.56192
#
# Compressibility (1/GPa) = 0.01963055
#
# Stress axis : x y z
#
# Youngs Moduli (GPa) = 66.89764 57.21372 86.40369
#
# Poissons Ratio (x) = 0.25799 0.46412
# Poissons Ratio (y) = 0.30165 0.19908
# Poissons Ratio (z) = 0.35934 0.13183
#
# Static dielectric constant tensor:
#      x y z
#    x 3.519750 0.000000 -0.076350 
#    y 0.000000 3.128120 0.000000 
#    z -0.076350 0.000000 3.805400 
# 
# 
# High freq. dielectric constant tensor:
#      x y z
#    x 1.724020 0.000000 -0.005950 
#    y 0.000000 1.687230 0.000000 
#    z -0.005950 0.000000 1.743130 
# 
# From -- ./inp_files/315672.got.cif
#   From: 2010.06.25/outbox.cif.g09.slc.cpg/sg12_158_cif.got.tgz:315672.got - 2010.06.28 00:19:55.
