data_PCOD8091731
_publ_section_title
;
Structure prediction by ZEFSAII (Michael W. Deem and Ramdas Pophale) SiO2 
 PCOD8091731
Probable space group: C 2/M
;
_chemical_formula_sum "Si O2"
_cell_formula_units_Z 64
_cell_length_a 19.874169
_cell_length_b 17.194608
_cell_length_c 14.827912
_cell_angle_alpha 90.000000
_cell_angle_beta 140.962249
_cell_angle_gamma 90.000000
_cell_volume 3191.436345
_symmetry_space_group_name_H-M "C 2/M"
_symmetry_group_IT_number 12
_symmetry_cell_setting 'monoclinic'
loop_
_space_group_symop_operation_xyz
x,y,z
-x,y,-z
-x,-y,-z
x,-y,z
1/2+x,1/2+y,z
1/2-x,1/2+y,-z
1/2-x,1/2-y,-z
1/2+x,1/2-y,z
loop_
_atom_site_type_symbol
_atom_site_label
_atom_site_fract_x
_atom_site_fract_y
_atom_site_fract_z
Si Si1 0.631521 0.656652 0.941123
Si Si2 0.327931 0.658938 0.818111
Si Si3 0.405872 0.407447 0.710054
Si Si4 0.675162 0.837955 0.973061
Si Si5 0.609056 0.087112 0.571811
Si Si6 0.219215 0.591991 0.383085
Si Si7 0.026033 0.413972 0.291215
Si Si8 0.875664 0.338970 0.882145
O O1 0.512088 0.636567 0.785019
O O2 0.667432 0.745926 0.977255
O O3 0.636390 0.622519 0.048356
O O4 0.718393 0.623437 0.960231
O O5 0.377732 0.614194 0.784295
O O6 0.200260 0.649698 0.686778
O O7 0.365625 0.747301 0.854220
O O8 0.421608 0.500000 0.721322
O O9 0.316651 0.376673 0.546242
O O10 0.578239 0.861556 0.806285
O O11 0.659966 0.871157 0.057532
O O12 0.500000 0.119889 0.500000
O O13 0.597043 0.080833 0.453480
O O14 0.635450 0.000000 0.637972
O O15 0.223690 0.500000 0.392389
O O16 0.105981 0.623936 0.302111
O O17 0.214099 0.621622 0.275493
O O18 0.988902 0.500000 0.223030
O O19 0.000000 0.363748 0.000000
#
# Coordination Sequence:
#
# PCOD8091731 Si02
#       8
#     8   8   8   8   8   8   8   8
#     4  10  23  39  58  83 119 159 191 232 290 343
#     4  11  21  36  58  87 119 152 196 238 283 347
#     4  11  23  40  60  86 121 156 195 238 286 350
#     4  10  21  40  59  84 119 151 192 244 286 341
#     4  10  20  34  54  84 120 153 189 235 286 343
#     4  10  22  39  59  86 114 144 188 240 291 340
#     4  10  19  34  57  83 112 146 186 236 289 336
#     4  11  22  38  61  88 114 147 196 245 291 345
#
# _framework density 20.053667000000001
#
# number of rings (size 3 to 8) (size 9 to 14) (size 15 to 20)
#    0.000    1.625    2.500    3.000    0.000    4.250 
#    0.000    0.625    0.000    1.500    0.000    0.000 
#    0.000    0.000    0.000    0.000    0.000    0.000 
#
# Total GULP energy -396517.853777 kJ/mol
# GULP energy per Si atom -12391.182931 kJ/mol
# Density = 2.000802 g / cm^3
# Si number density = 20.053667 Si / 1000 Ang^3
#
#
#
# Elastic Constant Matrix: (Units=GPa)
#
#
# Indices 1 2 3 4 5 6 
#
# 1 111.1291 21.8544 68.7063 0.0000 14.4591 0.0000
# 2 21.8544 11.6928 23.8806 0.0000 3.3688 0.0000
# 3 68.7063 23.8806 125.4783 0.0000 5.1718 0.0000
# 4 0.0000 0.0000 0.0000 31.4414 0.0000 3.4293
# 5 14.4591 3.3688 5.1718 0.0000 35.4272 0.0000
# 6 0.0000 0.0000 0.0000 3.4293 0.0000 14.7389
#
#
#
# Elastic Compliance Matrix: (Units=1/GPa)
#
#
# Indices 1 2 3 4 5 6 
#
# 1 0.016521 -0.018897 -0.005278 0.000000 -0.004175 0.000000
# 2 -0.018897 0.164749 -0.020805 0.000000 -0.004916 0.000000
# 3 -0.005278 -0.020805 0.014737 0.000000 0.001981 0.000000
# 4 0.000000 0.000000 0.000000 0.032633 0.000000 -0.007593
# 5 -0.004175 -0.004916 0.001981 0.000000 0.030109 0.000000
# 6 0.000000 0.000000 0.000000 -0.007593 0.000000 0.069614
#
#
# Mechanical properties :
#
#
# Convention : Reuss Voigt Hill
#
# Bulk Modulus (GPa) = 9.42962 53.02032 31.22497
# Shear Modulus (GPa) = 11.02115 25.24541 18.13328
#
# Velocity S-wave (km/s) = 2.34686 3.55194 3.01032
# Velocity P-wave (km/s) = 3.47219 6.58166 5.26186
#
# Compressibility (1/GPa) = 0.10604876
#
# Stress axis : x y z
#
# Youngs Moduli (GPa) = 60.52902 6.06982 67.85561
#
# Poissons Ratio (x) = 0.11470 0.35812
# Poissons Ratio (y) = 1.14381 1.41173
# Poissons Ratio (z) = 0.31945 0.12628
#
# Static dielectric constant tensor:
#      x y z
#    x 4.086220 0.000000 -0.154430 
#    y 0.000000 3.382950 0.000000 
#    z -0.154430 0.000000 3.821960 
# 
# 
# High freq. dielectric constant tensor:
#      x y z
#    x 1.789870 0.000000 -0.000700 
#    y 0.000000 1.756640 0.000000 
#    z -0.000700 0.000000 1.789290 
# 
# From -- ./inp_files/226902.got.cif
#   From: 2010.06.25/outbox.cif.g09.slc.cpg/sg12_114_cif.got.tgz:226902.got - 2010.06.28 00:19:55.
