data_PCOD8091448
_publ_section_title
;
Structure prediction by ZEFSAII (Michael W. Deem and Ramdas Pophale) SiO2 
 PCOD8091448
Probable space group: C 2/M
;
_chemical_formula_sum "Si O2"
_cell_formula_units_Z 56
_cell_length_a 28.446242
_cell_length_b 8.699310
_cell_length_c 14.580324
_cell_angle_alpha 90.000000
_cell_angle_beta 59.537428
_cell_angle_gamma 90.000000
_cell_volume 3110.027705
_symmetry_space_group_name_H-M "C 2/M"
_symmetry_group_IT_number 12
_symmetry_cell_setting 'monoclinic'
loop_
_space_group_symop_operation_xyz
x,y,z
-x,y,-z
-x,-y,-z
x,-y,z
1/2+x,1/2+y,z
1/2-x,1/2+y,-z
1/2-x,1/2-y,-z
1/2+x,1/2-y,z
loop_
_atom_site_type_symbol
_atom_site_label
_atom_site_fract_x
_atom_site_fract_y
_atom_site_fract_z
Si Si1 0.443094 0.683514 0.014074
Si Si2 0.627278 0.180201 0.451359
Si Si3 0.147671 0.679213 0.767371
Si Si4 0.551742 0.683737 0.388362
Si Si5 0.964796 0.827082 0.796988
Si Si6 0.753397 0.319469 0.598200
Si Si7 0.910583 0.172821 0.335574
O O1 0.443755 0.500000 0.015380
O O2 0.436189 0.745827 0.915608
O O3 0.500000 0.746886 0.000000
O O4 0.390939 0.741369 0.120524
O O5 0.607634 0.243338 0.372344
O O6 0.689859 0.222280 0.408921
O O7 0.589379 0.271305 0.560280
O O8 0.616645 0.000000 0.469736
O O9 0.150001 0.500000 0.785006
O O10 0.208219 0.749164 0.711213
O O11 0.125759 0.710209 0.686802
O O12 0.500000 0.739130 0.500000
O O13 0.554747 0.500000 0.385516
O O14 0.546851 0.753235 0.289454
O O15 0.028243 0.824714 0.760965
O O16 0.943826 0.000000 0.806449
O O17 0.744887 0.500000 0.597464
O O18 0.750000 0.250000 0.500000
O O19 0.886607 0.000000 0.351016
#
# Coordination Sequence:
#
# PCOD8091448 Si02
#       7
#     8   8   8   8   8   8   8
#     4  10  19  35  58  81 109 149 190 226 273 330
#     4  11  23  36  52  82 115 144 182 230 279 329
#     4  12  24  36  52  82 117 147 185 229 278 334
#     4  10  19  34  56  81 111 149 188 223 266 329
#     4   9  18  33  54  82 110 145 191 226 261 325
#     4  11  23  38  57  80 110 147 186 228 279 334
#     4  11  19  33  56  80 111 150 187 223 266 327
#
# _framework density 18.006271999999999
#
# number of rings (size 3 to 8) (size 9 to 14) (size 15 to 20)
#    0.000    1.429    4.286    2.571    0.000    2.286 
#    0.000    0.714    0.000    0.857    0.000    0.000 
#    0.000    0.000    0.000    0.000    0.000    0.000 
#
# Total GULP energy -347127.955601 kJ/mol
# GULP energy per Si atom -12397.426986 kJ/mol
# Density = 1.796529 g / cm^3
# Si number density = 18.006272 Si / 1000 Ang^3
#
#
#
# Elastic Constant Matrix: (Units=GPa)
#
#
# Indices 1 2 3 4 5 6 
#
# 1 105.9051 27.8106 52.8449 0.0000 8.8682 0.0000
# 2 27.8106 47.9245 30.1855 0.0000 2.0362 0.0000
# 3 52.8449 30.1855 126.8905 0.0000 4.8808 0.0000
# 4 0.0000 0.0000 0.0000 21.3015 0.0000 -0.4842
# 5 8.8682 2.0362 4.8808 0.0000 26.7126 0.0000
# 6 0.0000 0.0000 0.0000 -0.4842 0.0000 26.5391
#
#
#
# Elastic Compliance Matrix: (Units=1/GPa)
#
#
# Indices 1 2 3 4 5 6 
#
# 1 0.013055 -0.004814 -0.004168 0.000000 -0.003205 0.000000
# 2 -0.004814 0.026336 -0.004274 0.000000 0.000372 0.000000
# 3 -0.004168 -0.004274 0.010643 0.000000 -0.000235 0.000000
# 4 0.000000 0.000000 0.000000 0.046965 0.000000 0.000857
# 5 -0.003205 0.000372 -0.000235 0.000000 0.038514 0.000000
# 6 0.000000 0.000000 0.000000 0.000857 0.000000 0.037696
#
#
# Mechanical properties :
#
#
# Convention : Reuss Voigt Hill
#
# Bulk Modulus (GPa) = 42.51700 55.82246 49.16973
# Shear Modulus (GPa) = 24.08915 26.23593 25.16254
#
# Velocity S-wave (km/s) = 3.66159 3.82127 3.74228
# Velocity P-wave (km/s) = 6.44515 7.10904 6.78522
#
# Compressibility (1/GPa) = 0.02352000
#
# Stress axis : x y z
#
# Youngs Moduli (GPa) = 76.59930 37.97046 93.96176
#
# Poissons Ratio (x) = 0.18279 0.39167
# Poissons Ratio (y) = 0.36876 0.40163
# Poissons Ratio (z) = 0.31929 0.16230
#
# Static dielectric constant tensor:
#      x y z
#    x 3.394560 0.000000 0.055590 
#    y 0.000000 3.168950 0.000000 
#    z 0.055590 0.000000 3.478220 
# 
# 
# High freq. dielectric constant tensor:
#      x y z
#    x 1.687340 0.000000 0.004240 
#    y 0.000000 1.684890 0.000000 
#    z 0.004240 0.000000 1.692640 
# 
# From -- ./inp_files/243057.got.cif
#   From: 2010.06.25/outbox.cif.g09.slc.cpg/sg12_122_cif.got.tgz:243057.got - 2010.06.28 00:19:55.
