data_PCOD8091173
_publ_section_title
;
Structure prediction by ZEFSAII (Michael W. Deem and Ramdas Pophale) SiO2 
 PCOD8091173
Probable space group: C 2/M
;
_chemical_formula_sum "Si O2"
_cell_formula_units_Z 52
_cell_length_a 17.198407
_cell_length_b 10.774547
_cell_length_c 26.121461
_cell_angle_alpha 90.000000
_cell_angle_beta 32.909266
_cell_angle_gamma 90.000000
_cell_volume 2629.859742
_symmetry_space_group_name_H-M "C 2/M"
_symmetry_group_IT_number 12
_symmetry_cell_setting 'monoclinic'
loop_
_space_group_symop_operation_xyz
x,y,z
-x,y,-z
-x,-y,-z
x,-y,z
1/2+x,1/2+y,z
1/2-x,1/2+y,-z
1/2-x,1/2-y,-z
1/2+x,1/2-y,z
loop_
_atom_site_type_symbol
_atom_site_label
_atom_site_fract_x
_atom_site_fract_y
_atom_site_fract_z
Si Si1 0.649464 0.359236 0.660998
Si Si2 0.500000 0.216137 0.000000
Si Si3 0.031639 0.212359 0.148714
Si Si4 0.706099 0.362673 0.958162
Si Si5 0.368433 0.641500 0.534522
Si Si6 0.328530 0.138959 0.188750
Si Si7 0.985488 0.854805 0.651721
O O1 0.713203 0.500000 0.616652
O O2 0.541782 0.373739 0.768233
O O3 0.763429 0.251316 0.610905
O O4 0.566199 0.306624 0.657448
O O5 0.380047 0.298385 0.039443
O O6 0.421251 0.132473 0.085567
O O7 0.908661 0.289789 0.189047
O O8 0.141918 0.300136 0.117097
O O9 0.115596 0.130868 0.060759
O O10 0.737908 0.500000 0.921525
O O11 0.500000 0.642198 0.500000
O O12 0.302123 0.500000 0.571116
O O13 0.420243 0.679578 0.449432
O O14 0.173961 0.203992 0.264577
O O15 0.306449 0.000000 0.221351
O O16 0.963288 0.000000 0.670004
#
# Coordination Sequence:
#
# PCOD8091173 Si02
#       7
#     8   4   8   8   8   8   8
#     4  11  22  37  58  83 113 145 180 227 281 332
#     4  10  20  32  52  80 108 144 182 226 280 332
#     4  10  21  34  53  79 105 143 187 227 274 328
#     4  10  20  35  52  74 108 145 185 229 277 332
#     4  10  21  38  60  84 111 145 186 229 273 326
#     4  10  19  34  55  79 109 142 183 230 274 324
#     4   9  19  35  55  79 109 145 182 226 279 330
#
# _framework density 19.772918000000001
#
# number of rings (size 3 to 8) (size 9 to 14) (size 15 to 20)
#    0.000    2.000    0.000    3.692    0.000    2.769 
#    0.000    4.615    0.000    3.692    0.000    0.000 
#    0.000    0.000    0.000    0.000    0.000    0.000 
#
# Total GULP energy -322304.307753 kJ/mol
# GULP energy per Si atom -12396.319529 kJ/mol
# Density = 1.972791 g / cm^3
# Si number density = 19.772918 Si / 1000 Ang^3
#
#
#
# Elastic Constant Matrix: (Units=GPa)
#
#
# Indices 1 2 3 4 5 6 
#
# 1 95.4494 26.6379 31.2630 0.0000 -1.7426 0.0000
# 2 26.6379 92.2033 25.8187 0.0000 -15.7379 0.0000
# 3 31.2630 25.8187 70.8477 0.0003 -0.4931 0.0001
# 4 0.0000 0.0000 0.0003 15.3967 0.0000 5.3297
# 5 -1.7426 -15.7379 -0.4931 0.0000 39.4240 0.0000
# 6 0.0000 0.0000 0.0001 5.3297 0.0000 4.3776
#
#
#
# Elastic Compliance Matrix: (Units=1/GPa)
#
#
# Indices 1 2 3 4 5 6 
#
# 1 0.012691 -0.002424 -0.004720 0.000000 -0.000466 0.000000
# 2 -0.002424 0.013509 -0.003817 0.000000 0.005238 0.000000
# 3 -0.004720 -0.003817 0.017578 0.000000 -0.001512 0.000000
# 4 0.000000 0.000000 0.000000 0.112261 0.000000 -0.136677
# 5 -0.000466 0.005238 -0.001512 0.000000 0.027417 0.000001
# 6 0.000000 0.000000 0.000000 -0.136677 0.000001 0.394838
#
#
# Mechanical properties :
#
#
# Convention : Reuss Voigt Hill
#
# Bulk Modulus (GPa) = 45.75455 47.32660 46.54057
# Shear Modulus (GPa) = 8.23045 23.49173 15.86109
#
# Velocity S-wave (km/s) = 2.04243 3.45059 2.83532
# Velocity P-wave (km/s) = 5.36211 6.31367 5.85725
#
# Compressibility (1/GPa) = 0.02185575
#
# Stress axis : x y z
#
# Youngs Moduli (GPa) = 78.79774 74.02606 56.88974
#
# Poissons Ratio (x) = 0.17946 0.26851
# Poissons Ratio (y) = 0.19103 0.21713
# Poissons Ratio (z) = 0.37191 0.28254
#
# Static dielectric constant tensor:
#      x y z
#    x 3.779230 0.000000 0.023690 
#    y 0.000000 3.326120 0.000000 
#    z 0.023690 0.000000 3.505500 
# 
# 
# High freq. dielectric constant tensor:
#      x y z
#    x 1.787400 0.000000 0.003450 
#    y 0.000000 1.750990 0.000000 
#    z 0.003450 0.000000 1.768980 
# 
# From -- ./inp_files/363623.got.cif
#   From: 2010.06.25/outbox.cif.g09.slc.cpg/sg12_182_cif.got.tgz:363623.got - 2010.06.28 00:19:55.
