data_PCOD8091170
_publ_section_title
;
Structure prediction by ZEFSAII (Michael W. Deem and Ramdas Pophale) SiO2 
 PCOD8091170
Probable space group: C 2/M
;
_chemical_formula_sum "Si O2"
_cell_formula_units_Z 64
_cell_length_a 15.807506
_cell_length_b 9.213799
_cell_length_c 27.194986
_cell_angle_alpha 90.000000
_cell_angle_beta 54.684109
_cell_angle_gamma 90.000000
_cell_volume 3231.982499
_symmetry_space_group_name_H-M "C 2/M"
_symmetry_group_IT_number 12
_symmetry_cell_setting 'monoclinic'
loop_
_space_group_symop_operation_xyz
x,y,z
-x,y,-z
-x,-y,-z
x,-y,z
1/2+x,1/2+y,z
1/2-x,1/2+y,-z
1/2-x,1/2-y,-z
1/2+x,1/2-y,z
loop_
_atom_site_type_symbol
_atom_site_label
_atom_site_fract_x
_atom_site_fract_y
_atom_site_fract_z
Si Si1 0.813174 0.826166 0.936082
Si Si2 0.550133 0.328277 0.861755
Si Si3 0.598981 0.336924 0.502047
Si Si4 0.216805 0.335886 0.387621
Si Si5 0.596127 0.672382 0.740041
Si Si6 0.926056 0.334906 0.742301
Si Si7 0.479820 0.163065 0.615861
Si Si8 0.270846 0.333436 0.130182
O O1 0.931792 0.772367 0.903364
O O2 0.766910 0.772023 0.900030
O O3 0.803201 0.000000 0.942090
O O4 0.750000 0.750000 0.000000
O O5 0.548351 0.500000 0.861294
O O6 0.606165 0.272854 0.792934
O O7 0.617259 0.278424 0.886724
O O8 0.500000 0.330856 0.500000
O O9 0.633635 0.500000 0.501532
O O10 0.695859 0.256514 0.443807
O O11 0.571666 0.262107 0.563224
O O12 0.241863 0.500000 0.395500
O O13 0.311838 0.265643 0.325136
O O14 0.118069 0.331561 0.386292
O O15 0.597031 0.500000 0.737525
O O16 0.486855 0.729652 0.757953
O O17 0.965959 0.500000 0.734606
O O18 0.943178 0.279007 0.681078
O O19 0.805780 0.325074 0.797302
O O20 0.523133 0.000000 0.604751
O O21 0.277420 0.500000 0.108445
#
# Coordination Sequence:
#
# PCOD8091170 Si02
#       8
#     8   8   8   8   8   8   8   8
#     4  11  23  41  63  90 124 159 194 236 283 333
#     4   9  19  37  62  87 116 156 197 234 280 343
#     4   9  17  29  46  70 101 134 172 225 284 337
#     4   9  17  30  51  74  97 133 180 227 273 332
#     4  10  19  34  55  79 108 143 185 229 279 340
#     4  10  20  33  53  81 111 140 177 232 288 332
#     4   9  17  31  50  73 100 134 179 225 274 334
#     4  10  20  38  63  89 117 154 197 238 284 340
#
# _framework density 19.802088999999999
#
# number of rings (size 3 to 8) (size 9 to 14) (size 15 to 20)
#    0.000    2.375    1.250    1.500    0.000    6.000 
#    0.000    5.000    0.000    3.000    0.000    0.000 
#    0.000    0.000    0.000    0.000    0.000    0.000 
#
# Total GULP energy -396702.371256 kJ/mol
# GULP energy per Si atom -12396.949102 kJ/mol
# Density = 1.975702 g / cm^3
# Si number density = 19.802089 Si / 1000 Ang^3
#
#
#
# Elastic Constant Matrix: (Units=GPa)
#
#
# Indices 1 2 3 4 5 6 
#
# 1 89.4756 33.0320 52.5131 0.0000 -0.8178 0.0000
# 2 33.0320 68.0079 50.4748 0.0000 2.0112 0.0000
# 3 52.5131 50.4748 146.4603 0.0000 1.9628 0.0000
# 4 0.0000 0.0000 0.0000 26.6984 0.0000 1.3494
# 5 -0.8178 2.0112 1.9628 0.0000 29.5525 0.0000
# 6 0.0000 0.0000 0.0000 1.3494 0.0000 24.6402
#
#
#
# Elastic Compliance Matrix: (Units=1/GPa)
#
#
# Indices 1 2 3 4 5 6 
#
# 1 0.015125 -0.004489 -0.003889 0.000000 0.000982 0.000000
# 2 -0.004489 0.021114 -0.005651 0.000000 -0.001186 0.000000
# 3 -0.003889 -0.005651 0.010175 0.000000 -0.000399 0.000000
# 4 0.000000 0.000000 0.000000 0.037559 0.000000 -0.002057
# 5 0.000982 -0.001186 -0.000399 0.000000 0.033972 0.000000
# 6 0.000000 0.000000 0.000000 -0.002057 0.000000 0.040697
#
#
# Mechanical properties :
#
#
# Convention : Reuss Voigt Hill
#
# Bulk Modulus (GPa) = 54.47947 63.99818 59.23883
# Shear Modulus (GPa) = 25.93105 27.37314 26.65210
#
# Velocity S-wave (km/s) = 3.62264 3.72201 3.67266
# Velocity P-wave (km/s) = 6.71340 7.13164 6.92568
#
# Compressibility (1/GPa) = 0.01835554
#
# Stress axis : x y z
#
# Youngs Moduli (GPa) = 66.11599 47.36271 98.27874
#
# Poissons Ratio (x) = 0.21260 0.38223
# Poissons Ratio (y) = 0.29678 0.55538
# Poissons Ratio (z) = 0.25714 0.26765
#
# Static dielectric constant tensor:
#      x y z
#    x 3.503140 0.000000 -0.015010 
#    y 0.000000 3.484040 0.000000 
#    z -0.015010 0.000000 3.907050 
# 
# 
# High freq. dielectric constant tensor:
#      x y z
#    x 1.760110 0.000000 0.001680 
#    y 0.000000 1.749310 0.000000 
#    z 0.001680 0.000000 1.784450 
# 
# From -- ./inp_files/375422.got.cif
#   From: 2010.06.25/outbox.cif.g09.slc.cpg/sg12_188_cif.got.tgz:375422.got - 2010.06.28 00:19:55.
