data_PCOD8091333
_publ_section_title
;
Structure prediction by ZEFSAII (Michael W. Deem and Ramdas Pophale) SiO2 
 PCOD8091333
Probable space group: C 2/M
;
_chemical_formula_sum "Si O2"
_cell_formula_units_Z 64
_cell_length_a 20.377451
_cell_length_b 8.916248
_cell_length_c 17.688933
_cell_angle_alpha 90.000000
_cell_angle_beta 90.205546
_cell_angle_gamma 90.000000
_cell_volume 3213.888750
_symmetry_space_group_name_H-M "C 2/M"
_symmetry_group_IT_number 12
_symmetry_cell_setting 'monoclinic'
loop_
_space_group_symop_operation_xyz
x,y,z
-x,y,-z
-x,-y,-z
x,-y,z
1/2+x,1/2+y,z
1/2-x,1/2+y,-z
1/2-x,1/2-y,-z
1/2+x,1/2-y,z
loop_
_atom_site_type_symbol
_atom_site_label
_atom_site_fract_x
_atom_site_fract_y
_atom_site_fract_z
Si Si1 0.495395 0.672943 0.834749
Si Si2 0.363868 0.321688 0.913155
Si Si3 0.871260 0.172568 0.082876
Si Si4 0.612167 0.823516 0.569561
Si Si5 0.619164 0.677679 0.410998
Si Si6 0.761899 0.678169 0.178297
Si Si7 0.993763 0.675863 0.679104
Si Si8 0.242517 0.678006 0.651392
O O1 0.487085 0.500000 0.809642
O O2 0.429013 0.737246 0.871758
O O3 0.552575 0.690307 0.896387
O O4 0.513406 0.772538 0.762640
O O5 0.366212 0.500000 0.915175
O O6 0.300675 0.260043 0.868197
O O7 0.360985 0.260882 0.998828
O O8 0.828559 0.266700 0.141103
O O9 0.848910 0.000000 0.087236
O O10 0.597470 0.742829 0.490992
O O11 0.553659 0.780703 0.625151
O O12 0.679765 0.760847 0.605336
O O13 0.615844 0.000000 0.554589
O O14 0.615019 0.500000 0.413041
O O15 0.571323 0.737353 0.346034
O O16 0.692362 0.733550 0.391129
O O17 0.761649 0.500000 0.178547
O O18 0.758295 0.742236 0.263443
O O19 0.979809 0.500000 0.677411
O O20 0.239773 0.500000 0.655194
#
# Coordination Sequence:
#
# PCOD8091333 Si02
#       8
#     8   8   8   8   8   8   8   8
#     4  10  20  36  58  80 105 141 185 228 267 314
#     4   9  18  34  56  80 108 145 184 221 267 321
#     4  10  20  34  54  82 112 140 177 227 276 317
#     4  10  21  38  57  78 109 146 181 218 267 324
#     4  11  22  37  59  84 109 139 180 226 268 315
#     4  10  19  34  56  78 106 146 185 218 261 323
#     4  11  23  38  57  81 111 145 178 218 271 326
#     4   9  19  36  57  80 107 143 183 222 267 319
#
# _framework density 19.91357
#
# number of rings (size 3 to 8) (size 9 to 14) (size 15 to 20)
#    0.000    2.000    0.000    3.750    0.000    7.500 
#    0.000    5.000    0.000    1.500    0.000    0.000 
#    0.000    0.000    0.000    0.000    0.000    0.000 
#
# Total GULP energy -396950.380066 kJ/mol
# GULP energy per Si atom -12404.699377 kJ/mol
# Density = 1.986825 g / cm^3
# Si number density = 19.913570 Si / 1000 Ang^3
#
#
#
# Elastic Constant Matrix: (Units=GPa)
#
#
# Indices 1 2 3 4 5 6 
#
# 1 94.0706 20.0015 8.7359 0.0000 -1.5663 0.0000
# 2 20.0015 29.6495 19.1661 0.0000 -5.5138 0.0000
# 3 8.7359 19.1661 103.9561 0.0000 -3.4899 0.0000
# 4 0.0000 0.0000 0.0000 25.2991 0.0000 -1.1724
# 5 -1.5663 -5.5138 -3.4899 0.0000 41.3855 0.0000
# 6 0.0000 0.0000 0.0000 -1.1724 0.0000 26.5239
#
#
#
# Elastic Compliance Matrix: (Units=1/GPa)
#
#
# Indices 1 2 3 4 5 6 
#
# 1 0.012458 -0.008897 0.000571 0.000000 -0.000666 0.000000
# 2 -0.008897 0.045507 -0.007471 0.000000 0.005096 0.000000
# 3 0.000571 -0.007471 0.010947 0.000000 -0.000051 0.000000
# 4 0.000000 0.000000 0.000000 0.039608 0.000000 0.001751
# 5 -0.000666 0.005096 -0.000051 0.000000 0.024813 0.000000
# 6 0.000000 0.000000 0.000000 0.001751 0.000000 0.037779
#
#
# Mechanical properties :
#
#
# Convention : Reuss Voigt Hill
#
# Bulk Modulus (GPa) = 26.79715 35.94257 31.36986
# Shear Modulus (GPa) = 23.24013 30.62654 26.93333
#
# Velocity S-wave (km/s) = 3.41992 3.92595 3.68164
# Velocity P-wave (km/s) = 5.39262 6.21605 5.81892
#
# Compressibility (1/GPa) = 0.03731741
#
# Stress axis : x y z
#
# Youngs Moduli (GPa) = 80.27032 21.97484 91.34759
#
# Poissons Ratio (x) = 0.19551 -0.05217
# Poissons Ratio (y) = 0.71417 0.68247
# Poissons Ratio (z) = -0.04584 0.16418
#
# Static dielectric constant tensor:
#      x y z
#    x 3.778900 0.000000 0.060240 
#    y 0.000000 3.256010 0.000000 
#    z 0.060240 0.000000 3.752080 
# 
# 
# High freq. dielectric constant tensor:
#      x y z
#    x 1.792800 0.000000 0.002120 
#    y 0.000000 1.741770 0.000000 
#    z 0.002120 0.000000 1.792700 
# 
# From -- ./inp_files/281269.got.cif
#   From: 2010.06.25/outbox.cif.g09.slc.cpg/sg12_141_cif.got.tgz:281269.got - 2010.06.28 00:19:55.
