data_PCOD8091474
_publ_section_title
;
Structure prediction by ZEFSAII (Michael W. Deem and Ramdas Pophale) SiO2 
 PCOD8091474
Probable space group: C 2/M
;
_chemical_formula_sum "Si O2"
_cell_formula_units_Z 64
_cell_length_a 23.950684
_cell_length_b 9.311115
_cell_length_c 15.162199
_cell_angle_alpha 90.000000
_cell_angle_beta 91.882885
_cell_angle_gamma 90.000000
_cell_volume 3379.459562
_symmetry_space_group_name_H-M "C 2/M"
_symmetry_group_IT_number 12
_symmetry_cell_setting 'monoclinic'
loop_
_space_group_symop_operation_xyz
x,y,z
-x,y,-z
-x,-y,-z
x,-y,z
1/2+x,1/2+y,z
1/2-x,1/2+y,-z
1/2-x,1/2-y,-z
1/2+x,1/2-y,z
loop_
_atom_site_type_symbol
_atom_site_label
_atom_site_fract_x
_atom_site_fract_y
_atom_site_fract_z
Si Si1 0.458551 0.670913 0.420695
Si Si2 0.719165 0.833132 0.379233
Si Si3 0.512032 0.668495 0.770738
Si Si4 0.083967 0.167508 0.113352
Si Si5 0.214078 0.338574 0.929862
Si Si6 0.302974 0.340595 0.790105
Si Si7 0.664842 0.332369 0.531914
Si Si8 0.602635 0.668194 0.920895
O O1 0.500000 0.728142 0.500000
O O2 0.459929 0.500000 0.418558
O O3 0.478658 0.734523 0.326835
O O4 0.394719 0.722506 0.433988
O O5 0.701357 0.780351 0.283082
O O6 0.678876 0.752131 0.444342
O O7 0.785125 0.800639 0.396464
O O8 0.706447 0.000000 0.387876
O O9 0.503695 0.500000 0.757805
O O10 0.458181 0.738848 0.817268
O O11 0.564099 0.702161 0.835930
O O12 0.147374 0.204912 0.141483
O O13 0.071053 0.000000 0.115922
O O14 0.073835 0.218306 0.011781
O O15 0.204020 0.500000 0.965574
O O16 0.245540 0.344877 0.839077
O O17 0.156988 0.260033 0.906739
O O18 0.250000 0.250000 0.000000
O O19 0.314960 0.500000 0.750524
O O20 0.661736 0.500000 0.508246
O O21 0.618465 0.500000 0.927756
#
# Coordination Sequence:
#
# PCOD8091474 Si02
#       8
#     8   8   8   8   8   8   8   8
#     4   9  18  31  50  81 111 137 177 229 278 320
#     4  10  21  35  55  82 109 140 180 219 268 330
#     4   9  18  30  53  83 109 142 185 231 276 321
#     4   9  17  32  52  80 111 142 183 230 275 318
#     4  11  22  37  55  80 112 148 186 222 272 329
#     4  10  21  35  54  80 110 142 181 224 274 324
#     4   9  19  36  56  79 109 140 175 222 274 324
#     4  10  19  34  56  82 113 144 182 232 277 324
#
# _framework density 18.937939
#
# number of rings (size 3 to 8) (size 9 to 14) (size 15 to 20)
#    0.000    2.375    1.250    1.125    3.500    3.000 
#    0.000    0.000    0.000    2.625    0.000    0.000 
#    0.000    0.000    0.000    0.000    0.000    0.000 
#
# Total GULP energy -396669.255001 kJ/mol
# GULP energy per Si atom -12395.914219 kJ/mol
# Density = 1.889484 g / cm^3
# Si number density = 18.937939 Si / 1000 Ang^3
#
#
#
# Elastic Constant Matrix: (Units=GPa)
#
#
# Indices 1 2 3 4 5 6 
#
# 1 116.6880 30.9588 57.6220 0.0000 -19.8491 0.0000
# 2 30.9588 40.8182 29.6252 0.0000 -0.6433 0.0000
# 3 57.6220 29.6252 143.2196 0.0000 -3.6685 0.0000
# 4 0.0000 0.0000 0.0000 20.9536 0.0000 0.3226
# 5 -19.8491 -0.6433 -3.6685 0.0000 23.5819 0.0000
# 6 0.0000 0.0000 0.0000 0.3226 0.0000 23.8203
#
#
#
# Elastic Compliance Matrix: (Units=1/GPa)
#
#
# Indices 1 2 3 4 5 6 
#
# 1 0.014581 -0.008041 -0.003910 0.000000 0.011445 0.000000
# 2 -0.008041 0.033261 -0.003810 0.000000 -0.006454 0.000000
# 3 -0.003910 -0.003810 0.009294 0.000000 -0.001949 0.000000
# 4 0.000000 0.000000 0.000000 0.047735 0.000000 -0.000646
# 5 0.011445 -0.006454 -0.001949 0.000000 0.051560 0.000000
# 6 0.000000 0.000000 0.000000 -0.000646 0.000000 0.041990
#
#
# Mechanical properties :
#
#
# Convention : Reuss Voigt Hill
#
# Bulk Modulus (GPa) = 39.04187 59.68200 49.36193
# Shear Modulus (GPa) = 20.96613 25.83914 23.40264
#
# Velocity S-wave (km/s) = 3.33092 3.69780 3.51914
# Velocity P-wave (km/s) = 5.95431 7.05794 6.52949
#
# Compressibility (1/GPa) = 0.02561353
#
# Stress axis : x y z
#
# Youngs Moduli (GPa) = 68.58298 30.06500 107.60049
#
# Poissons Ratio (x) = 0.24175 0.42071
# Poissons Ratio (y) = 0.55146 0.41000
# Poissons Ratio (z) = 0.26816 0.11456
#
# Static dielectric constant tensor:
#      x y z
#    x 4.090560 0.000000 -0.055910 
#    y 0.000000 3.133200 0.000000 
#    z -0.055910 0.000000 3.626700 
# 
# 
# High freq. dielectric constant tensor:
#      x y z
#    x 1.745360 0.000000 -0.003130 
#    y 0.000000 1.688730 0.000000 
#    z -0.003130 0.000000 1.743570 
# 
# From -- ./inp_files/238592.got.cif
#   From: 2010.06.25/outbox.cif.g09.slc.cpg/sg12_120_cif.got.tgz:238592.got - 2010.06.28 00:19:55.
