data_PCOD8091355
_publ_section_title
;
Structure prediction by ZEFSAII (Michael W. Deem and Ramdas Pophale) SiO2 
 PCOD8091355
Probable space group: C 2/M
;
_chemical_formula_sum "Si O2"
_cell_formula_units_Z 56
_cell_length_a 13.099257
_cell_length_b 13.167579
_cell_length_c 16.057356
_cell_angle_alpha 90.000000
_cell_angle_beta 94.684302
_cell_angle_gamma 90.000000
_cell_volume 2760.409876
_symmetry_space_group_name_H-M "C 2/M"
_symmetry_group_IT_number 12
_symmetry_cell_setting 'monoclinic'
loop_
_space_group_symop_operation_xyz
x,y,z
-x,y,-z
-x,-y,-z
x,-y,z
1/2+x,1/2+y,z
1/2-x,1/2+y,-z
1/2-x,1/2-y,-z
1/2+x,1/2-y,z
loop_
_atom_site_type_symbol
_atom_site_label
_atom_site_fract_x
_atom_site_fract_y
_atom_site_fract_z
Si Si1 0.694193 0.115005 0.993068
Si Si2 0.856027 0.204832 0.899996
Si Si3 0.736269 0.879738 0.583266
Si Si4 0.775456 0.742328 0.256435
Si Si5 0.406929 0.230620 0.550197
Si Si6 0.951857 0.284858 0.150643
Si Si7 0.899325 0.618275 0.711973
O O1 0.811293 0.127381 0.966221
O O2 0.613575 0.148295 0.917279
O O3 0.674280 0.000000 0.017641
O O4 0.679702 0.181684 0.074549
O O5 0.803699 0.180715 0.807867
O O6 0.979787 0.202197 0.896843
O O7 0.693538 0.831978 0.666248
O O8 0.661361 0.851553 0.503097
O O9 0.847215 0.832826 0.570892
O O10 0.745082 0.000000 0.593045
O O11 0.877724 0.771656 0.211461
O O12 0.718432 0.843630 0.284987
O O13 0.500000 0.267743 0.500000
O O14 0.448223 0.174848 0.635570
O O15 0.031758 0.358022 0.202996
O O16 0.897014 0.500000 0.694493
#
# Coordination Sequence:
#
# PCOD8091355 Si02
#       7
#     8   8   8   8   8   8   8
#     4  10  20  35  56  80 106 139 179 221 267 321
#     4   9  20  35  52  78 110 136 171 225 271 308
#     4  10  21  37  57  80 108 144 182 219 263 317
#     4   9  20  35  52  76 108 140 176 221 266 312
#     4  10  21  36  55  82 113 142 177 222 268 314
#     4  10  19  34  56  79 106 142 181 221 264 319
#     4  10  20  34  53  80 112 142 176 221 270 316
#
# _framework density 20.286840999999999
#
# number of rings (size 3 to 8) (size 9 to 14) (size 15 to 20)
#    0.000    2.286    0.000    2.143    0.000    8.857 
#    0.000    0.714    0.000   24.857    0.000    0.000 
#    0.000    0.000    0.000    0.000    0.000    0.000 
#
# Total GULP energy -347111.736588 kJ/mol
# GULP energy per Si atom -12396.847735 kJ/mol
# Density = 2.024067 g / cm^3
# Si number density = 20.286841 Si / 1000 Ang^3
#
#
#
# Elastic Constant Matrix: (Units=GPa)
#
#
# Indices 1 2 3 4 5 6 
#
# 1 98.3803 25.3697 15.0408 0.0000 -27.3943 0.0000
# 2 25.3697 46.9091 19.2186 0.0000 14.4894 0.0000
# 3 15.0408 19.2186 79.9753 0.0000 -7.6947 0.0000
# 4 0.0000 0.0000 0.0000 15.9738 0.0000 4.9521
# 5 -27.3943 14.4894 -7.6947 0.0000 37.6791 0.0000
# 6 0.0000 0.0000 0.0000 4.9521 0.0000 13.0941
#
#
#
# Elastic Compliance Matrix: (Units=1/GPa)
#
#
# Indices 1 2 3 4 5 6 
#
# 1 0.021820 -0.020680 0.003221 0.000000 0.024474 0.000000
# 2 -0.020680 0.048119 -0.011119 0.000000 -0.035810 0.000000
# 3 0.003221 -0.011119 0.015512 0.000000 0.009785 0.000000
# 4 0.000000 0.000000 0.000000 0.070917 0.000000 -0.026820
# 5 0.024474 -0.035810 0.009785 0.000000 0.060103 0.000000
# 6 0.000000 0.000000 0.000000 -0.026820 0.000000 0.086514
#
#
# Mechanical properties :
#
#
# Convention : Reuss Voigt Hill
#
# Bulk Modulus (GPa) = 35.34450 38.28034 36.81242
# Shear Modulus (GPa) = 13.52914 24.39177 18.96045
#
# Velocity S-wave (km/s) = 2.58523 3.47125 3.06047
# Velocity P-wave (km/s) = 5.13531 5.91410 5.53841
#
# Compressibility (1/GPa) = 0.02829295
#
# Stress axis : x y z
#
# Youngs Moduli (GPa) = 45.82958 20.78191 64.46745
#
# Poissons Ratio (x) = 0.42977 -0.20763
# Poissons Ratio (y) = 0.94775 0.71684
# Poissons Ratio (z) = -0.14760 0.23108
#
# Static dielectric constant tensor:
#      x y z
#    x 3.870690 0.000000 -0.142770 
#    y 0.000000 3.250250 0.000000 
#    z -0.142770 0.000000 3.935400 
# 
# 
# High freq. dielectric constant tensor:
#      x y z
#    x 1.796630 0.000000 -0.008930 
#    y 0.000000 1.746220 0.000000 
#    z -0.008930 0.000000 1.815840 
# 
# From -- ./inp_files/213382.got.cif
#   From: 2010.06.25/outbox.cif.g09.slc.cpg/sg12_107_cif.got.tgz:213382.got - 2010.06.28 00:19:55.
