data_PCOD8091088
_publ_section_title
;
Structure prediction by ZEFSAII (Michael W. Deem and Ramdas Pophale) SiO2 
 PCOD8091088
Probable space group: C 2/M
;
_chemical_formula_sum "Si O2"
_cell_formula_units_Z 64
_cell_length_a 24.708401
_cell_length_b 8.957433
_cell_length_c 29.615698
_cell_angle_alpha 90.000000
_cell_angle_beta 149.248753
_cell_angle_gamma 90.000000
_cell_volume 3351.475041
_symmetry_space_group_name_H-M "C 2/M"
_symmetry_group_IT_number 12
_symmetry_cell_setting 'monoclinic'
loop_
_space_group_symop_operation_xyz
x,y,z
-x,y,-z
-x,-y,-z
x,-y,z
1/2+x,1/2+y,z
1/2-x,1/2+y,-z
1/2-x,1/2-y,-z
1/2+x,1/2-y,z
loop_
_atom_site_type_symbol
_atom_site_label
_atom_site_fract_x
_atom_site_fract_y
_atom_site_fract_z
Si Si1 0.907872 0.177075 0.672690
Si Si2 0.110976 0.824604 0.058464
Si Si3 0.519941 0.323342 0.372537
Si Si4 0.681949 0.823961 0.739894
Si Si5 0.896234 0.824145 0.129018
Si Si6 0.688658 0.826655 0.553136
Si Si7 0.386810 0.827173 0.405822
Si Si8 0.172171 0.675438 0.008616
O O1 0.924203 0.230848 0.633335
O O2 0.795860 0.241886 0.609307
O O3 0.002055 0.238043 0.771469
O O4 0.907124 0.000000 0.675498
O O5 0.201106 0.781803 0.159399
O O6 0.133688 0.743654 0.027855
O O7 0.108495 0.000000 0.046761
O O8 0.000000 0.769939 0.000000
O O9 0.512558 0.500000 0.370163
O O10 0.402209 0.257124 0.288236
O O11 0.586991 0.260890 0.462231
O O12 0.665407 0.760203 0.677058
O O13 0.663135 0.000000 0.729417
O O14 0.794563 0.783473 0.086734
O O15 0.901382 0.000000 0.123603
O O16 0.897081 0.742268 0.081642
O O17 0.694593 0.803942 0.611342
O O18 0.674444 0.000000 0.530285
O O19 0.500000 0.752243 0.500000
O O20 0.408288 0.000000 0.411393
O O21 0.154169 0.500000 0.997616
#
# Coordination Sequence:
#
# PCOD8091088 Si02
#       8
#     8   8   8   8   8   8   8   8
#     4   9  19  33  52  78 106 140 180 222 270 321
#     4  10  22  38  57  83 112 142 183 233 277 323
#     4  11  21  34  52  78 112 142 175 219 269 321
#     4  10  20  36  58  81 103 138 184 224 267 320
#     4   9  18  35  57  80 107 141 186 233 274 324
#     4  10  19  34  55  76 102 141 183 221 268 320
#     4   9  16  30  53  77 100 128 174 225 259 301
#     4  10  20  35  57  82 111 146 180 221 280 337
#
# _framework density 19.096069
#
# number of rings (size 3 to 8) (size 9 to 14) (size 15 to 20)
#    0.000    2.250    1.250    1.875    0.000    3.250 
#    0.000    7.500    0.000    0.000    0.000    0.000 
#    0.000    0.000    0.000    0.000    0.000    0.000 
#
# Total GULP energy -396813.378637 kJ/mol
# GULP energy per Si atom -12400.418082 kJ/mol
# Density = 1.905261 g / cm^3
# Si number density = 19.096069 Si / 1000 Ang^3
#
#
#
# Elastic Constant Matrix: (Units=GPa)
#
#
# Indices 1 2 3 4 5 6 
#
# 1 144.3807 38.1570 65.5406 -0.0001 -1.4788 -0.0002
# 2 38.1570 40.5159 31.4823 -0.0003 0.3604 -0.0008
# 3 65.5406 31.4823 114.7933 0.0001 3.8954 0.0000
# 4 -0.0001 -0.0003 0.0001 17.9275 0.0000 0.4644
# 5 -1.4788 0.3604 3.8954 0.0000 33.1363 -0.0001
# 6 -0.0002 -0.0008 0.0000 0.4644 -0.0001 27.7871
#
#
#
# Elastic Compliance Matrix: (Units=1/GPa)
#
#
# Indices 1 2 3 4 5 6 
#
# 1 0.010654 -0.006721 -0.004275 0.000000 0.001051 0.000000
# 2 -0.006721 0.035621 -0.005932 0.000001 0.000010 0.000001
# 3 -0.004275 -0.005932 0.012835 0.000000 -0.001635 0.000000
# 4 0.000000 0.000001 0.000000 0.055804 0.000000 -0.000933
# 5 0.001051 0.000010 -0.001635 0.000000 0.030417 0.000000
# 6 0.000000 0.000001 0.000000 -0.000933 0.000000 0.036003
#
#
# Mechanical properties :
#
#
# Convention : Reuss Voigt Hill
#
# Bulk Modulus (GPa) = 39.59985 63.33885 51.46935
# Shear Modulus (GPa) = 22.36056 26.73753 24.54904
#
# Velocity S-wave (km/s) = 3.42563 3.74593 3.58935
# Velocity P-wave (km/s) = 6.03562 7.20762 6.64750
#
# Compressibility (1/GPa) = 0.02525262
#
# Stress axis : x y z
#
# Youngs Moduli (GPa) = 93.86341 28.07365 77.91449
#
# Poissons Ratio (x) = 0.18868 0.33310
# Poissons Ratio (y) = 0.63084 0.46220
# Poissons Ratio (z) = 0.40128 0.16654
#
# Static dielectric constant tensor:
#      x y z
#    x 3.613300 0.000000 -0.014410 
#    y 0.000000 3.167990 0.000000 
#    z -0.014410 0.000000 3.674140 
# 
# 
# High freq. dielectric constant tensor:
#      x y z
#    x 1.753140 0.000000 -0.004550 
#    y 0.000000 1.709390 0.000000 
#    z -0.004550 0.000000 1.747410 
# 
# From -- ./inp_files/382485.got.cif
#   From: 2010.06.25/outbox.cif.g09.slc.cpg/sg12_192_cif.got.tgz:382485.got - 2010.06.28 00:19:55.
