data_PCOD8091016
_publ_section_title
;
Structure prediction by ZEFSAII (Michael W. Deem and Ramdas Pophale) SiO2 
 PCOD8091016
Probable space group: C 2/M
;
_chemical_formula_sum "Si O2"
_cell_formula_units_Z 56
_cell_length_a 21.416000
_cell_length_b 8.624303
_cell_length_c 29.864670
_cell_angle_alpha 90.000000
_cell_angle_beta 149.469263
_cell_angle_gamma 90.000000
_cell_volume 2802.103951
_symmetry_space_group_name_H-M "C 2/M"
_symmetry_group_IT_number 12
_symmetry_cell_setting 'monoclinic'
loop_
_space_group_symop_operation_xyz
x,y,z
-x,y,-z
-x,-y,-z
x,-y,z
1/2+x,1/2+y,z
1/2-x,1/2+y,-z
1/2-x,1/2-y,-z
1/2+x,1/2-y,z
loop_
_atom_site_type_symbol
_atom_site_label
_atom_site_fract_x
_atom_site_fract_y
_atom_site_fract_z
Si Si1 0.735066 0.679771 0.702216
Si Si2 0.601955 0.816443 0.277901
Si Si3 0.891030 0.182801 0.872792
Si Si4 0.986360 0.319152 0.542604
Si Si5 0.169040 0.315406 0.909558
Si Si6 0.659567 0.681530 0.061366
Si Si7 0.760288 0.817325 0.456670
O O1 0.698147 0.500000 0.677467
O O2 0.789337 0.738213 0.688145
O O3 0.840339 0.708248 0.803077
O O4 0.618824 0.782046 0.645752
O O5 0.470311 0.747800 0.180103
O O6 0.643461 0.763923 0.353687
O O7 0.589845 0.000000 0.268623
O O8 0.814662 0.220575 0.870909
O O9 0.883647 0.000000 0.856129
O O10 0.028901 0.246226 0.964249
O O11 0.956128 0.500000 0.525586
O O12 0.884573 0.231812 0.508527
O O13 0.000000 0.257047 0.500000
O O14 0.168323 0.500000 0.913225
O O15 0.231094 0.255203 0.901936
O O16 0.250000 0.250000 0.000000
O O17 0.647313 0.500000 0.048196
O O18 0.750000 0.750000 0.500000
O O19 0.761344 0.000000 0.462161
#
# Coordination Sequence:
#
# PCOD8091016 Si02
#       7
#     8   8   8   8   8   8   8
#     4  11  21  35  56  84 114 149 190 238 299 362
#     4   9  20  36  56  80 115 157 193 232 296 362
#     4   9  17  32  52  78 107 145 191 240 287 342
#     4  11  23  40  63  89 114 148 197 250 298 356
#     4  10  19  34  54  79 108 147 189 230 279 344
#     4   8  16  31  52  74 107 148 189 232 287 342
#     4  11  23  42  64  90 125 165 202 247 303 364
#
# _framework density 19.984981999999999
#
# number of rings (size 3 to 8) (size 9 to 14) (size 15 to 20)
#    0.000    2.143    1.429    3.000    0.000    1.714 
#    0.000    7.143    0.000    0.000    0.000    0.000 
#    0.000    0.000    0.000    0.000    0.000    0.000 
#
# Total GULP energy -347036.152454 kJ/mol
# GULP energy per Si atom -12394.148302 kJ/mol
# Density = 1.993950 g / cm^3
# Si number density = 19.984982 Si / 1000 Ang^3
#
#
#
# Elastic Constant Matrix: (Units=GPa)
#
#
# Indices 1 2 3 4 5 6 
#
# 1 131.8518 30.2259 62.0269 0.0000 -3.0246 0.0001
# 2 30.2259 41.4451 24.2940 -0.0001 -3.2412 -0.0002
# 3 62.0269 24.2940 126.5502 0.0001 -3.4914 0.0002
# 4 0.0000 -0.0001 0.0001 29.1897 0.0001 -4.0657
# 5 -3.0246 -3.2412 -3.4914 0.0001 36.9090 0.0000
# 6 0.0001 -0.0002 0.0002 -4.0657 0.0000 23.5555
#
#
#
# Elastic Compliance Matrix: (Units=1/GPa)
#
#
# Indices 1 2 3 4 5 6 
#
# 1 0.010831 -0.005394 -0.004273 0.000000 0.000010 0.000000
# 2 -0.005394 0.030007 -0.003064 0.000000 0.001903 0.000000
# 3 -0.004273 -0.003064 0.010595 0.000000 0.000383 0.000000
# 4 0.000000 0.000000 0.000000 0.035103 0.000000 0.006059
# 5 0.000010 0.001903 0.000383 0.000000 0.027298 0.000000
# 6 0.000000 0.000000 0.000000 0.006059 0.000000 0.043499
#
#
# Mechanical properties :
#
#
# Convention : Reuss Voigt Hill
#
# Bulk Modulus (GPa) = 38.50410 59.21564 48.85987
# Shear Modulus (GPa) = 26.11628 30.15085 28.13357
#
# Velocity S-wave (km/s) = 3.61888 3.88838 3.75605
# Velocity P-wave (km/s) = 6.06384 7.06072 6.58118
#
# Compressibility (1/GPa) = 0.02597126
#
# Stress axis : x y z
#
# Youngs Moduli (GPa) = 92.32668 33.32557 94.38227
#
# Poissons Ratio (x) = 0.17975 0.40330
# Poissons Ratio (y) = 0.49798 0.28922
# Poissons Ratio (z) = 0.39452 0.10212
#
# Static dielectric constant tensor:
#      x y z
#    x 4.494720 0.000000 0.348050 
#    y 0.000000 3.262320 0.000000 
#    z 0.348050 0.000000 3.917150 
# 
# 
# High freq. dielectric constant tensor:
#      x y z
#    x 1.786200 0.000000 -0.000750 
#    y 0.000000 1.748090 0.000000 
#    z -0.000750 0.000000 1.788280 
# 
# From -- ./inp_files/380727.got.cif
#   From: 2010.06.25/outbox.cif.g09.slc.cpg/sg12_191_cif.got.tgz:380727.got - 2010.06.28 00:19:55.
