data_PCOD8091966
_publ_section_title
;
Structure prediction by ZEFSAII (Michael W. Deem and Ramdas Pophale) SiO2 
 PCOD8091966
Probable space group: C 2/M
;
_chemical_formula_sum "Si O2"
_cell_formula_units_Z 56
_cell_length_a 27.201163
_cell_length_b 8.991414
_cell_length_c 12.609568
_cell_angle_alpha 90.000000
_cell_angle_beta 112.611703
_cell_angle_gamma 90.000000
_cell_volume 2846.946736
_symmetry_space_group_name_H-M "C 2/M"
_symmetry_group_IT_number 12
_symmetry_cell_setting 'monoclinic'
loop_
_space_group_symop_operation_xyz
x,y,z
-x,y,-z
-x,-y,-z
x,-y,z
1/2+x,1/2+y,z
1/2-x,1/2+y,-z
1/2-x,1/2-y,-z
1/2+x,1/2-y,z
loop_
_atom_site_type_symbol
_atom_site_label
_atom_site_fract_x
_atom_site_fract_y
_atom_site_fract_z
Si Si1 0.652633 0.825448 0.160489
Si Si2 0.538299 0.823687 0.122364
Si Si3 0.495846 0.329767 0.695999
Si Si4 0.303007 0.173998 0.582158
Si Si5 0.613733 0.670509 0.495437
Si Si6 0.115088 0.826469 0.737054
Si Si7 0.807057 0.677600 0.031864
O O1 0.595990 0.754018 0.144892
O O2 0.692800 0.787826 0.289465
O O3 0.645329 0.000000 0.141017
O O4 0.673057 0.761584 0.065779
O O5 0.516277 0.773655 0.215730
O O6 0.540734 0.000000 0.125626
O O7 0.500000 0.761968 0.000000
O O8 0.496416 0.500000 0.734374
O O9 0.449853 0.304617 0.569888
O O10 0.553160 0.283589 0.698075
O O11 0.250000 0.250000 0.500000
O O12 0.354573 0.228940 0.561297
O O13 0.298673 0.000000 0.559289
O O14 0.628692 0.500000 0.484014
O O15 0.630723 0.712056 0.629080
O O16 0.151663 0.728963 0.844207
O O17 0.124885 0.000000 0.769551
O O18 0.802062 0.500000 0.030994
O O19 0.750000 0.750000 0.000000
#
# Coordination Sequence:
#
# PCOD8091966 Si02
#       7
#     8   8   8   8   8   8   8
#     4   9  20  39  60  83 117 155 190 236 294 352
#     4  10  19  34  58  85 116 156 194 234 290 353
#     4  10  20  36  59  89 121 155 196 242 292 351
#     4  11  23  40  62  89 119 155 199 246 298 355
#     4  10  21  39  62  89 122 161 198 241 298 355
#     4  10  22  40  61  87 123 162 199 242 297 354
#     4  11  24  43  64  88 117 156 203 248 298 355
#
# _framework density 19.670195
#
# number of rings (size 3 to 8) (size 9 to 14) (size 15 to 20)
#    0.000    1.857    1.429    2.143    2.000    4.286 
#    0.000    3.571    0.000    2.571    0.000    0.000 
#    0.000    0.000    0.000    0.000    0.000    0.000 
#
# Total GULP energy -347207.286546 kJ/mol
# GULP energy per Si atom -12400.260234 kJ/mol
# Density = 1.962542 g / cm^3
# Si number density = 19.670195 Si / 1000 Ang^3
#
#
#
# Elastic Constant Matrix: (Units=GPa)
#
#
# Indices 1 2 3 4 5 6 
#
# 1 96.3694 39.0446 45.8294 0.0000 6.2458 0.0000
# 2 39.0446 58.4925 53.7453 0.0000 5.1025 0.0000
# 3 45.8294 53.7453 143.0671 0.0000 -0.2552 0.0000
# 4 0.0000 0.0000 0.0000 31.2361 0.0000 -0.7095
# 5 6.2458 5.1025 -0.2552 0.0000 39.9711 0.0000
# 6 0.0000 0.0000 0.0000 -0.7095 0.0000 30.5068
#
#
#
# Elastic Compliance Matrix: (Units=1/GPa)
#
#
# Indices 1 2 3 4 5 6 
#
# 1 0.014501 -0.008095 -0.001606 0.000000 -0.001243 0.000000
# 2 -0.008095 0.031097 -0.009094 0.000000 -0.002763 0.000000
# 3 -0.001606 -0.009094 0.010923 0.000000 0.001482 0.000000
# 4 0.000000 0.000000 0.000000 0.032031 0.000000 0.000745
# 5 -0.001243 -0.002763 0.001482 0.000000 0.025574 0.000000
# 6 0.000000 0.000000 0.000000 0.000745 0.000000 0.032797
#
#
# Mechanical properties :
#
#
# Convention : Reuss Voigt Hill
#
# Bulk Modulus (GPa) = 52.82554 63.90749 58.36652
# Shear Modulus (GPa) = 26.20224 30.96347 28.58285
#
# Velocity S-wave (km/s) = 3.65372 3.97184 3.81610
# Velocity P-wave (km/s) = 6.68682 7.32079 7.01098
#
# Compressibility (1/GPa) = 0.01893024
#
# Stress axis : x y z
#
# Youngs Moduli (GPa) = 68.96060 32.15795 91.54955
#
# Poissons Ratio (x) = 0.26033 0.14705
# Poissons Ratio (y) = 0.55826 0.83251
# Poissons Ratio (z) = 0.11077 0.29243
#
# Static dielectric constant tensor:
#      x y z
#    x 3.843970 0.000000 0.107310 
#    y 0.000000 3.395620 0.000000 
#    z 0.107310 0.000000 3.891580 
# 
# 
# High freq. dielectric constant tensor:
#      x y z
#    x 1.777040 0.000000 0.003270 
#    y 0.000000 1.746730 0.000000 
#    z 0.003270 0.000000 1.782550 
# 
# From -- ./inp_files/181054.got.cif
#   From: 2010.06.25/outbox.cif.g09.slc.cpg/sg12_91_cif.got.tgz:181054.got - 2010.06.28 00:19:55.
