data_PCOD8091830
_publ_section_title
;
Structure prediction by ZEFSAII (Michael W. Deem and Ramdas Pophale) SiO2 
 PCOD8091830
Probable space group: C 2/M
;
_chemical_formula_sum "Si O2"
_cell_formula_units_Z 48
_cell_length_a 27.846554
_cell_length_b 13.847670
_cell_length_c 6.563758
_cell_angle_alpha 90.000000
_cell_angle_beta 98.077403
_cell_angle_gamma 90.000000
_cell_volume 2505.939838
_symmetry_space_group_name_H-M "C 2/M"
_symmetry_group_IT_number 12
_symmetry_cell_setting 'monoclinic'
loop_
_space_group_symop_operation_xyz
x,y,z
-x,y,-z
-x,-y,-z
x,-y,z
1/2+x,1/2+y,z
1/2-x,1/2+y,-z
1/2-x,1/2-y,-z
1/2+x,1/2-y,z
loop_
_atom_site_type_symbol
_atom_site_label
_atom_site_fract_x
_atom_site_fract_y
_atom_site_fract_z
Si Si1 0.856893 0.392562 0.833013
Si Si2 0.307007 0.259043 0.520804
Si Si3 0.950583 0.784790 0.532689
Si Si4 0.133214 0.237301 0.831362
Si Si5 0.031876 0.606085 0.207685
Si Si6 0.124201 0.113742 0.212942
O O1 0.833856 0.500000 0.842153
O O2 0.831226 0.336977 0.630688
O O3 0.912803 0.400990 0.822388
O O4 0.852582 0.334814 0.041706
O O5 0.250000 0.250000 0.500000
O O6 0.321958 0.276332 0.295676
O O7 0.325332 0.352937 0.655191
O O8 0.916834 0.758669 0.321946
O O9 0.973084 0.683945 0.620120
O O10 0.921110 0.839399 0.692774
O O11 0.000000 0.844182 0.500000
O O12 0.125937 0.147670 0.980264
O O13 0.013843 0.500000 0.270569
O O14 0.000000 0.642280 0.000000
O O15 0.118896 0.000000 0.219311
#
# Coordination Sequence:
#
# PCOD8091830 Si02
#       6
#     8   8   8   8   8   8
#     4  10  20  36  57  87 121 152 192 239 291 357
#     4  10  22  41  63  88 118 154 196 246 304 363
#     4  11  22  36  62  87 122 162 205 247 301 353
#     4  10  20  39  59  85 115 161 192 249 297 358
#     4  10  19  34  57  87 122 156 192 236 292 356
#     4  10  23  42  60  86 119 157 205 256 302 352
#
# _framework density 19.154491
#
# number of rings (size 3 to 8) (size 9 to 14) (size 15 to 20)
#    0.000    1.833    5.000    1.000    0.000    8.000 
#    0.000    2.500    0.000    0.000    0.000    0.000 
#    0.000    0.000    0.000    0.000    0.000    0.000 
#
# Total GULP energy -297448.178853 kJ/mol
# GULP energy per Si atom -12393.674119 kJ/mol
# Density = 1.911089 g / cm^3
# Si number density = 19.154491 Si / 1000 Ang^3
#
#
#
# Elastic Constant Matrix: (Units=GPa)
#
#
# Indices 1 2 3 4 5 6 
#
# 1 137.6403 28.2394 55.8270 0.0000 -4.4409 0.0000
# 2 28.2394 142.0178 60.8129 0.0000 2.5807 0.0000
# 3 55.8270 60.8129 134.7662 0.0000 -5.8178 0.0000
# 4 0.0000 0.0000 0.0000 25.4055 0.0000 34.5922
# 5 -4.4409 2.5807 -5.8178 0.0000 22.7495 0.0000
# 6 0.0000 0.0000 0.0000 34.5922 0.0000 82.3612
#
#
#
# Elastic Compliance Matrix: (Units=1/GPa)
#
#
# Indices 1 2 3 4 5 6 
#
# 1 0.008755 -0.000272 -0.003467 0.000000 0.000853 0.000000
# 2 -0.000272 0.008829 -0.003961 0.000000 -0.002067 0.000000
# 3 -0.003467 -0.003961 0.010753 0.000000 0.002522 0.000000
# 4 0.000000 0.000000 0.000000 0.091940 0.000000 -0.038615
# 5 0.000853 -0.002067 0.002522 0.000000 0.045003 0.000000
# 6 0.000000 0.000000 0.000000 -0.038615 0.000000 0.028360
#
#
# Mechanical properties :
#
#
# Convention : Reuss Voigt Hill
#
# Bulk Modulus (GPa) = 77.29655 78.24257 77.76956
# Shear Modulus (GPa) = 23.43541 44.07290 33.75415
#
# Velocity S-wave (km/s) = 3.50164 4.80199 4.20242
# Velocity P-wave (km/s) = 7.53595 8.46654 8.01476
#
# Compressibility (1/GPa) = 0.01293719
#
# Stress axis : x y z
#
# Youngs Moduli (GPa) = 114.22146 113.26324 92.99912
#
# Poissons Ratio (x) = 0.03077 0.32246
# Poissons Ratio (y) = 0.03103 0.36835
# Poissons Ratio (z) = 0.39604 0.44861
#
# Static dielectric constant tensor:
#      x y z
#    x 3.421370 0.000000 -0.036310 
#    y 0.000000 3.944260 0.000000 
#    z -0.036310 0.000000 3.600210 
# 
# 
# High freq. dielectric constant tensor:
#      x y z
#    x 1.741140 0.000000 0.000070 
#    y 0.000000 1.733790 0.000000 
#    z 0.000070 0.000000 1.756210 
# 
# From -- ./inp_files/28165.got.cif
#   From: 2010.06.25/outbox.cif.g09.slc.cpg/sg12_15_cif.got.tgz:28165.got - 2010.06.28 00:19:55.
