data_PCOD8091459
_publ_section_title
;
Structure prediction by ZEFSAII (Michael W. Deem and Ramdas Pophale) SiO2 
 PCOD8091459
Probable space group: C 2/M
;
_chemical_formula_sum "Si O2"
_cell_formula_units_Z 60
_cell_length_a 9.153850
_cell_length_b 18.830884
_cell_length_c 30.223184
_cell_angle_alpha 90.000000
_cell_angle_beta 141.281892
_cell_angle_gamma 90.000000
_cell_volume 3258.626483
_symmetry_space_group_name_H-M "C 2/M"
_symmetry_group_IT_number 12
_symmetry_cell_setting 'monoclinic'
loop_
_space_group_symop_operation_xyz
x,y,z
-x,y,-z
-x,-y,-z
x,-y,z
1/2+x,1/2+y,z
1/2-x,1/2+y,-z
1/2-x,1/2-y,-z
1/2+x,1/2-y,z
loop_
_atom_site_type_symbol
_atom_site_label
_atom_site_fract_x
_atom_site_fract_y
_atom_site_fract_z
Si Si1 0.032089 0.415633 0.579531
Si Si2 0.333099 0.919254 0.723651
Si Si3 0.268974 0.420485 0.199145
Si Si4 0.795716 0.831471 0.710761
Si Si5 0.373848 0.208912 0.233573
Si Si6 0.992862 0.300465 0.095138
Si Si7 0.500000 0.759288 0.000000
Si Si8 0.353418 0.583150 0.576135
O O1 0.055927 0.500000 0.596181
O O2 0.078946 0.366989 0.633511
O O3 0.214550 0.387568 0.585837
O O4 0.771927 0.396566 0.499816
O O5 0.222402 0.914892 0.746003
O O6 0.549149 0.866046 0.769499
O O7 0.125591 0.894238 0.641092
O O8 0.416766 0.000000 0.733219
O O9 0.233259 0.500000 0.174111
O O10 0.510951 0.392169 0.236442
O O11 0.052586 0.376226 0.129686
O O12 0.708244 0.802978 0.736446
O O13 0.912524 0.764439 0.713655
O O14 0.160099 0.238556 0.153793
O O15 0.726183 0.289125 0.045787
O O16 0.029719 0.306713 0.050967
O O17 0.334673 0.500000 0.577877
#
# Coordination Sequence:
#
# PCOD8091459 Si02
#       8
#     8   8   8   8   8   8   4   8
#     4   9  16  30  54  80 104 142 190 230 271 325
#     4  10  19  34  56  82 109 144 184 229 276 323
#     4  10  19  34  58  84 113 143 179 219 268 324
#     4  11  21  34  54  78 108 148 186 230 276 324
#     4  11  23  37  56  80 113 141 180 230 279 318
#     4  10  20  37  57  83 106 142 178 218 262 319
#     4  10  20  36  62  80 104 138 184 214 256 324
#     4   8  15  29  53  79 105 141 187 230 270 322
#
# _framework density 18.412665000000001
#
# number of rings (size 3 to 8) (size 9 to 14) (size 15 to 20)
#    0.000    2.133    1.333    5.200    0.000    1.067 
#    0.000    2.000    0.000    5.600    0.000    0.000 
#    0.000    0.000    0.000    0.000    0.000    0.000 
#
# Total GULP energy -371877.225293 kJ/mol
# GULP energy per Si atom -12395.907510 kJ/mol
# Density = 1.837076 g / cm^3
# Si number density = 18.412665 Si / 1000 Ang^3
#
#
#
# Elastic Constant Matrix: (Units=GPa)
#
#
# Indices 1 2 3 4 5 6 
#
# 1 88.6383 42.3633 37.5847 0.0002 -3.5505 0.0003
# 2 42.3633 109.8710 56.3712 -0.0002 7.2761 -0.0001
# 3 37.5847 56.3712 116.0442 -0.0002 -5.6917 0.0007
# 4 0.0002 -0.0002 -0.0002 20.7971 0.0003 -3.5008
# 5 -3.5505 7.2761 -5.6917 0.0003 19.2279 0.0009
# 6 0.0003 -0.0001 0.0007 -3.5008 0.0009 21.4971
#
#
#
# Elastic Compliance Matrix: (Units=1/GPa)
#
#
# Indices 1 2 3 4 5 6 
#
# 1 0.014662 -0.004752 -0.002252 0.000000 0.003839 0.000000
# 2 -0.004752 0.014499 -0.005902 0.000000 -0.008111 0.000001
# 3 -0.002252 -0.005902 0.012484 0.000000 0.005513 -0.000001
# 4 0.000000 0.000000 0.000000 0.049439 -0.000001 0.008051
# 5 0.003839 -0.008111 0.005513 -0.000001 0.057418 -0.000003
# 6 0.000000 0.000001 -0.000001 0.008051 -0.000003 0.047829
#
#
# Mechanical properties :
#
#
# Convention : Reuss Voigt Hill
#
# Bulk Modulus (GPa) = 63.15916 65.24354 64.20135
# Shear Modulus (GPa) = 21.98572 24.18671 23.08622
#
# Velocity S-wave (km/s) = 3.45926 3.62828 3.54478
# Velocity P-wave (km/s) = 7.09449 7.28447 7.19011
#
# Compressibility (1/GPa) = 0.01583302
#
# Stress axis : x y z
#
# Youngs Moduli (GPa) = 68.20546 68.96979 80.10102
#
# Poissons Ratio (x) = 0.32774 0.18039
# Poissons Ratio (y) = 0.32411 0.47276
# Poissons Ratio (z) = 0.15360 0.40706
#
# Static dielectric constant tensor:
#      x y z
#    x 3.388970 0.000000 0.255440 
#    y 0.000000 3.354490 0.000000 
#    z 0.255440 0.000000 4.033670 
# 
# 
# High freq. dielectric constant tensor:
#      x y z
#    x 1.700330 0.000000 0.001320 
#    y 0.000000 1.698530 0.000000 
#    z 0.001320 0.000000 1.718670 
# 
# From -- ./inp_files/356929.got.cif
#   From: 2010.06.25/outbox.cif.g09.slc.cpg/sg12_179_cif.got.tgz:356929.got - 2010.06.28 00:19:55.
