data_PCOD8091318
_publ_section_title
;
Structure prediction by ZEFSAII (Michael W. Deem and Ramdas Pophale) SiO2 
 PCOD8091318
Probable space group: C 2/M
;
_chemical_formula_sum "Si O2"
_cell_formula_units_Z 56
_cell_length_a 19.574683
_cell_length_b 8.892806
_cell_length_c 20.635374
_cell_angle_alpha 90.000000
_cell_angle_beta 124.249707
_cell_angle_gamma 90.000000
_cell_volume 2969.186160
_symmetry_space_group_name_H-M "C 2/M"
_symmetry_group_IT_number 12
_symmetry_cell_setting 'monoclinic'
loop_
_space_group_symop_operation_xyz
x,y,z
-x,y,-z
-x,-y,-z
x,-y,z
1/2+x,1/2+y,z
1/2-x,1/2+y,-z
1/2-x,1/2-y,-z
1/2+x,1/2-y,z
loop_
_atom_site_type_symbol
_atom_site_label
_atom_site_fract_x
_atom_site_fract_y
_atom_site_fract_z
Si Si1 0.692291 0.323552 0.022183
Si Si2 0.591946 0.326492 0.534248
Si Si3 0.199078 0.821597 0.824268
Si Si4 0.834528 0.172642 0.561727
Si Si5 0.385044 0.678754 0.727328
Si Si6 0.436764 0.323989 0.145864
Si Si7 0.785129 0.322340 0.302938
O O1 0.709845 0.500000 0.037152
O O2 0.713415 0.245446 0.102117
O O3 0.750000 0.250000 0.000000
O O4 0.599117 0.292724 0.945891
O O5 0.500000 0.271095 0.500000
O O6 0.605570 0.500000 0.562096
O O7 0.601601 0.304454 0.462541
O O8 0.656811 0.223171 0.606448
O O9 0.124407 0.762136 0.830382
O O10 0.183144 0.761421 0.744002
O O11 0.205245 0.000000 0.826937
O O12 0.750000 0.250000 0.500000
O O13 0.873319 0.241200 0.648029
O O14 0.813390 0.000000 0.562663
O O15 0.389470 0.500000 0.729485
O O16 0.471517 0.747784 0.800232
O O17 0.308478 0.730809 0.731111
O O18 0.443309 0.500000 0.161855
O O19 0.790166 0.500000 0.295159
#
# Coordination Sequence:
#
# PCOD8091318 Si02
#       7
#     8   8   8   8   8   8   8
#     4   9  16  30  53  81 110 139 176 220 267 315
#     4  10  22  37  56  80 105 139 180 220 260 312
#     4  10  20  34  56  80 107 142 178 219 265 317
#     4  10  19  34  56  77 103 138 177 217 258 310
#     4   9  18  33  53  77 104 136 177 218 260 311
#     4   8  16  31  55  81 102 133 177 220 256 306
#     4  11  22  36  54  77 108 141 172 219 273 317
#
# _framework density 18.860386999999999
#
# number of rings (size 3 to 8) (size 9 to 14) (size 15 to 20)
#    0.000    2.429    1.429    2.143    2.000    0.286 
#    0.000    0.714    0.000   16.286    0.000    0.000 
#    0.000    0.000    0.000    0.000    0.000    0.000 
#
# Total GULP energy -347061.372863 kJ/mol
# GULP energy per Si atom -12395.049031 kJ/mol
# Density = 1.881746 g / cm^3
# Si number density = 18.860387 Si / 1000 Ang^3
#
#
#
# Elastic Constant Matrix: (Units=GPa)
#
#
# Indices 1 2 3 4 5 6 
#
# 1 87.3683 19.9111 26.6942 0.0000 18.8337 0.0000
# 2 19.9111 54.9702 21.7648 0.0000 4.3711 0.0000
# 3 26.6942 21.7648 83.7747 0.0000 20.5581 0.0000
# 4 0.0000 0.0000 0.0000 32.1149 0.0000 -2.4248
# 5 18.8337 4.3711 20.5581 0.0000 34.7187 0.0000
# 6 0.0000 0.0000 0.0000 -2.4248 0.0000 18.6603
#
#
#
# Elastic Compliance Matrix: (Units=1/GPa)
#
#
# Indices 1 2 3 4 5 6 
#
# 1 0.014256 -0.003870 -0.002058 0.000000 -0.006027 0.000000
# 2 -0.003870 0.021341 -0.004876 0.000000 0.002299 0.000000
# 3 -0.002058 -0.004876 0.015719 0.000000 -0.007577 0.000000
# 4 0.000000 0.000000 0.000000 0.031447 0.000000 0.004086
# 5 -0.006027 0.002299 -0.007577 0.000000 0.036270 0.000000
# 6 0.000000 0.000000 0.000000 0.004086 0.000000 0.054121
#
#
# Mechanical properties :
#
#
# Convention : Reuss Voigt Hill
#
# Bulk Modulus (GPa) = 33.65989 40.31703 36.98846
# Shear Modulus (GPa) = 24.43051 27.61500 26.02275
#
# Velocity S-wave (km/s) = 3.60298 3.83061 3.71854
# Velocity P-wave (km/s) = 5.93247 6.40217 6.17179
#
# Compressibility (1/GPa) = 0.02970895
#
# Stress axis : x y z
#
# Youngs Moduli (GPa) = 70.14699 46.85838 63.61840
#
# Poissons Ratio (x) = 0.18132 0.13093
# Poissons Ratio (y) = 0.27143 0.31018
# Poissons Ratio (z) = 0.14437 0.22846
#
# Static dielectric constant tensor:
#      x y z
#    x 3.706670 0.000000 0.096500 
#    y 0.000000 3.310330 0.000000 
#    z 0.096500 0.000000 3.987620 
# 
# 
# High freq. dielectric constant tensor:
#      x y z
#    x 1.718060 0.000000 0.002440 
#    y 0.000000 1.707390 0.000000 
#    z 0.002440 0.000000 1.746840 
# 
# From -- ./inp_files/320265.got.cif
#   From: 2010.06.25/outbox.cif.g09.slc.cpg/sg12_161_cif.got.tgz:320265.got - 2010.06.28 00:19:55.
