data_PCOD8091604
_publ_section_title
;
Structure prediction by ZEFSAII (Michael W. Deem and Ramdas Pophale) SiO2 
 PCOD8091604
Probable space group: C 2/M
;
_chemical_formula_sum "Si O2"
_cell_formula_units_Z 48
_cell_length_a 20.653991
_cell_length_b 8.916176
_cell_length_c 14.961167
_cell_angle_alpha 90.000000
_cell_angle_beta 69.303018
_cell_angle_gamma 90.000000
_cell_volume 2577.356760
_symmetry_space_group_name_H-M "C 2/M"
_symmetry_group_IT_number 12
_symmetry_cell_setting 'monoclinic'
loop_
_space_group_symop_operation_xyz
x,y,z
-x,y,-z
-x,-y,-z
x,-y,z
1/2+x,1/2+y,z
1/2-x,1/2+y,-z
1/2-x,1/2-y,-z
1/2+x,1/2-y,z
loop_
_atom_site_type_symbol
_atom_site_label
_atom_site_fract_x
_atom_site_fract_y
_atom_site_fract_z
Si Si1 0.843998 0.174777 0.105850
Si Si2 0.342841 0.174381 0.389213
Si Si3 0.898986 0.821984 0.889747
Si Si4 0.553451 0.325296 0.783166
Si Si5 0.295104 0.826038 0.605514
Si Si6 0.800111 0.822507 0.780908
O O1 0.904453 0.204442 0.147050
O O2 0.777431 0.267807 0.166273
O O3 0.824191 0.000000 0.110520
O O4 0.870334 0.237772 0.998039
O O5 0.415104 0.232800 0.315034
O O6 0.342732 0.203310 0.495768
O O7 0.282121 0.266470 0.371935
O O8 0.331650 0.000000 0.373045
O O9 0.849228 0.761626 0.835771
O O10 0.976362 0.762038 0.835638
O O11 0.900724 0.000000 0.891826
O O12 0.553383 0.500000 0.757429
O O13 0.329132 0.741621 0.673026
O O14 0.288551 0.000000 0.631889
O O15 0.801394 0.000000 0.776272
#
# Coordination Sequence:
#
# PCOD8091604 Si02
#       6
#     8   8   8   8   8   8
#     4  10  19  34  57  80 105 142 187 225 262 314
#     4  10  20  34  55  82 109 134 171 224 273 315
#     4   9  20  36  53  78 111 148 183 216 262 319
#     4  10  19  34  57  81 108 143 182 219 262 318
#     4  10  20  35  55  79 106 140 178 216 265 324
#     4  11  21  34  54  80 112 143 178 225 267 310
#
# _framework density 18.623730999999999
#
# number of rings (size 3 to 8) (size 9 to 14) (size 15 to 20)
#    0.000    2.000    1.667    2.500    0.000    4.000 
#    0.000    4.167    0.000    7.000    0.000    0.000 
#    0.000    0.000    0.000    0.000    0.000    0.000 
#
# Total GULP energy -297671.802147 kJ/mol
# GULP energy per Si atom -12402.991756 kJ/mol
# Density = 1.858134 g / cm^3
# Si number density = 18.623731 Si / 1000 Ang^3
#
#
#
# Elastic Constant Matrix: (Units=GPa)
#
#
# Indices 1 2 3 4 5 6 
#
# 1 83.7535 33.1547 46.4836 0.0000 11.2374 0.0000
# 2 33.1547 63.7288 45.7151 0.0000 5.2414 0.0000
# 3 46.4836 45.7151 144.3319 0.0000 9.7878 0.0000
# 4 0.0000 0.0000 0.0000 30.9389 0.0000 -0.6965
# 5 11.2374 5.2414 9.7878 0.0000 18.4998 0.0000
# 6 0.0000 0.0000 0.0000 -0.6965 0.0000 20.4709
#
#
#
# Elastic Compliance Matrix: (Units=1/GPa)
#
#
# Indices 1 2 3 4 5 6 
#
# 1 0.016979 -0.006052 -0.003079 0.000000 -0.006970 0.000000
# 2 -0.006052 0.022568 -0.005202 0.000000 0.000034 0.000000
# 3 -0.003079 -0.005202 0.009688 0.000000 -0.001782 0.000000
# 4 0.000000 0.000000 0.000000 0.032347 0.000000 0.001101
# 5 -0.006970 0.000034 -0.001782 0.000000 0.059222 0.000000
# 6 0.000000 0.000000 0.000000 0.001101 0.000000 0.048887
#
#
# Mechanical properties :
#
#
# Convention : Reuss Voigt Hill
#
# Bulk Modulus (GPa) = 48.60960 60.28012 54.44486
# Shear Modulus (GPa) = 22.20119 25.07932 23.64026
#
# Velocity S-wave (km/s) = 3.45641 3.67363 3.56668
# Velocity P-wave (km/s) = 6.48742 7.10153 6.80141
#
# Compressibility (1/GPa) = 0.02057207
#
# Stress axis : x y z
#
# Youngs Moduli (GPa) = 58.89483 44.31009 103.21577
#
# Poissons Ratio (x) = 0.26814 0.31780
# Poissons Ratio (y) = 0.35640 0.53688
# Poissons Ratio (z) = 0.18134 0.23048
#
# Static dielectric constant tensor:
#      x y z
#    x 3.355580 0.000000 0.088110 
#    y 0.000000 3.272360 0.000000 
#    z 0.088110 0.000000 3.784560 
# 
# 
# High freq. dielectric constant tensor:
#      x y z
#    x 1.705210 0.000000 0.002980 
#    y 0.000000 1.709720 0.000000 
#    z 0.002980 0.000000 1.742350 
# 
# From -- ./inp_files/229848.got.cif
#   From: 2010.06.25/outbox.cif.g09.slc.cpg/sg12_115_cif.got.tgz:229848.got - 2010.06.28 00:19:55.
