data_PCOD8091921
_publ_section_title
;
Structure prediction by ZEFSAII (Michael W. Deem and Ramdas Pophale) SiO2 
 PCOD8091921
Probable space group: C 2/M
;
_chemical_formula_sum "Si O2"
_cell_formula_units_Z 56
_cell_length_a 14.631704
_cell_length_b 8.808586
_cell_length_c 24.466923
_cell_angle_alpha 90.000000
_cell_angle_beta 121.233900
_cell_angle_gamma 90.000000
_cell_volume 2696.347347
_symmetry_space_group_name_H-M "C 2/M"
_symmetry_group_IT_number 12
_symmetry_cell_setting 'monoclinic'
loop_
_space_group_symop_operation_xyz
x,y,z
-x,y,-z
-x,-y,-z
x,-y,z
1/2+x,1/2+y,z
1/2-x,1/2+y,-z
1/2-x,1/2-y,-z
1/2+x,1/2-y,z
loop_
_atom_site_type_symbol
_atom_site_label
_atom_site_fract_x
_atom_site_fract_y
_atom_site_fract_z
Si Si1 0.419853 0.176913 0.317054
Si Si2 0.890728 0.179463 0.993541
Si Si3 0.757940 0.826951 0.424609
Si Si4 0.216637 0.324906 0.287492
Si Si5 0.998871 0.821827 0.763650
Si Si6 0.172895 0.821884 0.906058
Si Si7 0.580699 0.672656 0.437568
O O1 0.308667 0.266428 0.275502
O O2 0.494826 0.225994 0.290070
O O3 0.480519 0.220091 0.392213
O O4 0.396653 0.000000 0.308779
O O5 0.881971 0.231798 0.054103
O O6 0.889475 0.000000 0.987415
O O7 0.786803 0.243260 0.930021
O O8 0.000000 0.244160 0.000000
O O9 0.763131 0.795591 0.362209
O O10 0.678365 0.707646 0.427061
O O11 0.876924 0.803440 0.487194
O O12 0.718716 0.000000 0.424268
O O13 0.191037 0.500000 0.267881
O O14 0.112033 0.225705 0.242604
O O15 0.094720 0.773928 0.833127
O O16 0.999758 0.000000 0.751215
O O17 0.192739 0.000000 0.913956
O O18 0.543313 0.500000 0.416445
#
# Coordination Sequence:
#
# PCOD8091921 Si02
#       7
#     8   8   8   8   8   8   8
#     4  12  25  40  58  83 115 154 201 249 299 354
#     4   9  18  35  60  90 123 156 190 230 277 333
#     4   9  19  35  57  84 113 146 187 240 300 363
#     4  11  23  40  61  86 116 152 196 244 299 360
#     4  11  23  41  61  85 120 159 200 246 292 342
#     4   9  20  37  58  87 121 155 192 234 281 336
#     4  10  19  34  58  84 112 147 189 242 302 357
#
# _framework density 20.768837999999999
#
# number of rings (size 3 to 8) (size 9 to 14) (size 15 to 20)
#    0.000    1.857    1.429    2.571    0.000    4.286 
#    0.000    4.286    0.000    0.000    0.000    0.000 
#    0.000    0.000    0.000    0.000    0.000    0.000 
#
# Total GULP energy -347256.620796 kJ/mol
# GULP energy per Si atom -12402.022171 kJ/mol
# Density = 2.072157 g / cm^3
# Si number density = 20.768838 Si / 1000 Ang^3
#
#
#
# Elastic Constant Matrix: (Units=GPa)
#
#
# Indices 1 2 3 4 5 6 
#
# 1 103.4094 20.6879 25.3594 0.0000 25.6543 0.0000
# 2 20.6879 68.9134 37.0747 0.0000 8.6892 0.0000
# 3 25.3594 37.0747 88.9017 0.0000 24.3965 0.0000
# 4 0.0000 0.0000 0.0000 27.3452 0.0000 8.3566
# 5 25.6543 8.6892 24.3965 0.0000 26.3957 0.0000
# 6 0.0000 0.0000 0.0000 8.3566 0.0000 34.3788
#
#
#
# Elastic Compliance Matrix: (Units=1/GPa)
#
#
# Indices 1 2 3 4 5 6 
#
# 1 0.013167 -0.002844 0.000918 0.000000 -0.012709 0.000000
# 2 -0.002844 0.019362 -0.008404 0.000000 0.004158 0.000000
# 3 0.000918 -0.008404 0.018727 0.000000 -0.015434 0.000000
# 4 0.000000 0.000000 0.000000 0.039504 0.000000 -0.009602
# 5 -0.012709 0.004158 -0.015434 0.000000 0.063133 0.000000
# 6 0.000000 0.000000 0.000000 -0.009602 0.000000 0.031422
#
#
# Mechanical properties :
#
#
# Convention : Reuss Voigt Hill
#
# Bulk Modulus (GPa) = 32.68535 47.49650 40.09092
# Shear Modulus (GPa) = 23.12947 29.49745 26.31346
#
# Velocity S-wave (km/s) = 3.34078 3.77274 3.56331
# Velocity P-wave (km/s) = 5.53651 6.47278 6.02286
#
# Compressibility (1/GPa) = 0.03059475
#
# Stress axis : x y z
#
# Youngs Moduli (GPa) = 75.94625 51.64791 53.39943
#
# Poissons Ratio (x) = 0.14689 -0.04901
# Poissons Ratio (y) = 0.21600 0.44879
# Poissons Ratio (z) = -0.06970 0.43406
#
# Static dielectric constant tensor:
#      x y z
#    x 3.690150 0.000000 0.097830 
#    y 0.000000 3.626530 0.000000 
#    z 0.097830 0.000000 3.789560 
# 
# 
# High freq. dielectric constant tensor:
#      x y z
#    x 1.809360 0.000000 0.013810 
#    y 0.000000 1.808140 0.000000 
#    z 0.013810 0.000000 1.807090 
# 
# From -- ./inp_files/339060.got.cif
#   From: 2010.06.25/outbox.cif.g09.slc.cpg/sg12_170_cif.got.tgz:339060.got - 2010.06.28 00:19:55.
