data_PCOD8091502
_publ_section_title
;
Structure prediction by ZEFSAII (Michael W. Deem and Ramdas Pophale) SiO2 
 PCOD8091502
Probable space group: C 2/M
;
_chemical_formula_sum "Si O2"
_cell_formula_units_Z 56
_cell_length_a 20.532865
_cell_length_b 8.927839
_cell_length_c 27.797367
_cell_angle_alpha 90.000000
_cell_angle_beta 145.286670
_cell_angle_gamma 90.000000
_cell_volume 2901.823603
_symmetry_space_group_name_H-M "C 2/M"
_symmetry_group_IT_number 12
_symmetry_cell_setting 'monoclinic'
loop_
_space_group_symop_operation_xyz
x,y,z
-x,y,-z
-x,-y,-z
x,-y,z
1/2+x,1/2+y,z
1/2-x,1/2+y,-z
1/2-x,1/2-y,-z
1/2+x,1/2-y,z
loop_
_atom_site_type_symbol
_atom_site_label
_atom_site_fract_x
_atom_site_fract_y
_atom_site_fract_z
Si Si1 0.065389 0.674671 0.278646
Si Si2 0.307238 0.177007 0.989010
Si Si3 0.444642 0.823074 0.835391
Si Si4 0.148694 0.176556 0.806988
Si Si5 0.713180 0.675135 0.526984
Si Si6 0.505106 0.175929 0.559030
Si Si7 0.209889 0.822385 0.737204
O O1 0.036302 0.500000 0.261589
O O2 0.057444 0.742946 0.220082
O O3 0.191734 0.707143 0.374953
O O4 0.974578 0.754214 0.257819
O O5 0.439886 0.227595 0.067195
O O6 0.297204 0.000000 0.988498
O O7 0.250000 0.250000 0.000000
O O8 0.243414 0.234447 0.902454
O O9 0.336800 0.766229 0.800437
O O10 0.438277 0.000000 0.827042
O O11 0.188952 0.228276 0.779047
O O12 0.136149 0.000000 0.802420
O O13 0.695491 0.500000 0.507162
O O14 0.750000 0.750000 0.500000
O O15 0.595072 0.743517 0.472983
O O16 0.500000 0.216703 0.500000
O O17 0.624932 0.236787 0.650571
O O18 0.495198 0.000000 0.562278
O O19 0.194680 0.000000 0.721128
#
# Coordination Sequence:
#
# PCOD8091502 Si02
#       7
#     8   8   8   8   8   8   8
#     4  10  20  35  56  80 106 144 188 228 274 333
#     4  10  19  34  56  83 113 145 184 228 277 332
#     4   9  18  34  57  81 107 142 186 229 271 329
#     4  10  21  34  54  85 115 145 182 231 284 331
#     4  11  23  38  59  86 116 151 194 241 291 347
#     4  11  24  41  60  84 116 153 195 243 294 346
#     4  10  21  38  58  82 113 148 189 234 285 343
#
# _framework density 19.298209
#
# number of rings (size 3 to 8) (size 9 to 14) (size 15 to 20)
#    0.000    1.857    1.429    2.571    0.000    6.857 
#    0.000    4.286    0.000    0.000    0.000    3.000 
#    0.000    0.000    0.000    0.000    0.000    0.000 
#
# Total GULP energy -347284.527748 kJ/mol
# GULP energy per Si atom -12403.018848 kJ/mol
# Density = 1.925429 g / cm^3
# Si number density = 19.298209 Si / 1000 Ang^3
#
#
#
# Elastic Constant Matrix: (Units=GPa)
#
#
# Indices 1 2 3 4 5 6 
#
# 1 136.7449 29.9927 46.7788 0.0000 12.8016 0.0000
# 2 29.9927 37.0213 28.9288 -0.0001 0.2506 0.0002
# 3 46.7788 28.9288 114.9804 0.0000 8.4280 0.0000
# 4 0.0000 -0.0001 0.0000 24.2671 0.0000 0.2926
# 5 12.8016 0.2506 8.4280 0.0000 41.8438 0.0000
# 6 0.0000 0.0002 0.0000 0.2926 0.0000 29.5675
#
#
#
# Elastic Compliance Matrix: (Units=1/GPa)
#
#
# Indices 1 2 3 4 5 6 
#
# 1 0.009629 -0.006054 -0.002213 0.000000 -0.002464 0.000000
# 2 -0.006054 0.037524 -0.007204 0.000000 0.003078 0.000000
# 3 -0.002213 -0.007204 0.011527 0.000000 -0.001601 0.000000
# 4 0.000000 0.000000 0.000000 0.041213 0.000000 -0.000408
# 5 -0.002464 0.003078 -0.001601 0.000000 0.024956 0.000000
# 6 0.000000 0.000000 0.000000 -0.000408 0.000000 0.033825
#
#
# Mechanical properties :
#
#
# Convention : Reuss Voigt Hill
#
# Bulk Modulus (GPa) = 36.05186 55.57191 45.81188
# Shear Modulus (GPa) = 25.14289 31.33877 28.24083
#
# Velocity S-wave (km/s) = 3.61343 4.03416 3.82958
# Velocity P-wave (km/s) = 6.01092 7.11043 6.58367
#
# Compressibility (1/GPa) = 0.02773782
#
# Stress axis : x y z
#
# Youngs Moduli (GPa) = 103.85683 26.64931 86.74925
#
# Poissons Ratio (x) = 0.16134 0.19202
# Poissons Ratio (y) = 0.62878 0.62491
# Poissons Ratio (z) = 0.22989 0.19197
#
# Static dielectric constant tensor:
#      x y z
#    x 4.240150 0.000000 0.024010 
#    y 0.000000 3.355280 0.000000 
#    z 0.024010 0.000000 3.924550 
# 
# 
# High freq. dielectric constant tensor:
#      x y z
#    x 1.761160 0.000000 0.001330 
#    y 0.000000 1.730620 0.000000 
#    z 0.001330 0.000000 1.768920 
# 
# From -- ./inp_files/363235.got.cif
#   From: 2010.06.25/outbox.cif.g09.slc.cpg/sg12_182_cif.got.tgz:363235.got - 2010.06.28 00:19:55.
