data_PCOD8091370
_publ_section_title
;
Structure prediction by ZEFSAII (Michael W. Deem and Ramdas Pophale) SiO2 
 PCOD8091370
Probable space group: C 2/M
;
_chemical_formula_sum "Si O2"
_cell_formula_units_Z 56
_cell_length_a 27.150958
_cell_length_b 13.507812
_cell_length_c 8.241924
_cell_angle_alpha 90.000000
_cell_angle_beta 110.080113
_cell_angle_gamma 90.000000
_cell_volume 2838.984929
_symmetry_space_group_name_H-M "C 2/M"
_symmetry_group_IT_number 12
_symmetry_cell_setting 'monoclinic'
loop_
_space_group_symop_operation_xyz
x,y,z
-x,y,-z
-x,-y,-z
x,-y,z
1/2+x,1/2+y,z
1/2-x,1/2+y,-z
1/2-x,1/2-y,-z
1/2+x,1/2-y,z
loop_
_atom_site_type_symbol
_atom_site_label
_atom_site_fract_x
_atom_site_fract_y
_atom_site_fract_z
Si Si1 0.122214 0.801813 0.273950
Si Si2 0.573624 0.749697 0.890319
Si Si3 0.684800 0.781307 0.611242
Si Si4 0.657599 0.384634 0.821257
Si Si5 0.286343 0.391458 0.790781
Si Si6 0.909608 0.385973 0.366832
Si Si7 0.470172 0.717162 0.618723
O O1 0.162576 0.725400 0.403535
O O2 0.157717 0.888771 0.240040
O O3 0.079454 0.841775 0.358829
O O4 0.092053 0.743633 0.096625
O O5 0.603487 0.663539 0.822953
O O6 0.582978 0.854874 0.812613
O O7 0.511459 0.728759 0.811690
O O8 0.677988 0.673255 0.686074
O O9 0.745636 0.811100 0.677393
O O10 0.651579 0.865688 0.665293
O O11 0.648018 0.500000 0.768679
O O12 0.702769 0.371847 0.007695
O O13 0.262541 0.500000 0.736580
O O14 0.923773 0.500000 0.407571
O O15 0.947882 0.322105 0.526818
O O16 0.500000 0.663471 0.500000
#
# Coordination Sequence:
#
# PCOD8091370 Si02
#       7
#     8   8   8   8   8   8   8
#     4  10  20  34  52  76 107 142 175 214 264 318
#     4   9  18  33  53  78 110 141 172 217 266 311
#     4  10  19  34  56  79 110 143 176 217 263 311
#     4   9  19  35  56  81 105 137 182 222 258 311
#     4  10  20  35  55  78 107 142 178 218 266 314
#     4   9  18  33  55  81 108 141 181 218 257 310
#     4   9  18  33  55  76 101 138 177 217 263 308
#
# _framework density 19.725359000000001
#
# number of rings (size 3 to 8) (size 9 to 14) (size 15 to 20)
#    0.000    2.571    0.000    2.571    0.000    3.143 
#    0.000    4.286    0.000   26.571    0.000    0.000 
#    0.000    0.000    0.000    0.000    0.000    0.000 
#
# Total GULP energy -346942.621261 kJ/mol
# GULP energy per Si atom -12390.807902 kJ/mol
# Density = 1.968046 g / cm^3
# Si number density = 19.725359 Si / 1000 Ang^3
#
#
#
# Elastic Constant Matrix: (Units=GPa)
#
#
# Indices 1 2 3 4 5 6 
#
# 1 107.5590 30.0748 45.2783 0.0000 7.4078 0.0000
# 2 30.0748 84.2738 34.4061 0.0000 4.9116 0.0000
# 3 45.2783 34.4061 121.7901 0.0000 10.8733 0.0000
# 4 0.0000 0.0000 0.0000 17.3385 0.0000 3.6177
# 5 7.4078 4.9116 10.8733 0.0000 30.6626 0.0000
# 6 0.0000 0.0000 0.0000 3.6177 0.0000 13.3265
#
#
#
# Elastic Compliance Matrix: (Units=1/GPa)
#
#
# Indices 1 2 3 4 5 6 
#
# 1 0.011570 -0.002654 -0.003449 0.000000 -0.001147 0.000000
# 2 -0.002654 0.014042 -0.002930 0.000000 -0.000569 0.000000
# 3 -0.003449 -0.002930 0.010538 0.000000 -0.002434 0.000000
# 4 0.000000 0.000000 0.000000 0.061138 0.000000 -0.016597
# 5 -0.001147 -0.000569 -0.002434 0.000000 0.033845 0.000000
# 6 0.000000 0.000000 0.000000 -0.016597 0.000000 0.079544
#
#
# Mechanical properties :
#
#
# Convention : Reuss Voigt Hill
#
# Bulk Modulus (GPa) = 55.29398 59.23793 57.26595
# Shear Modulus (GPa) = 21.29726 25.85642 23.57684
#
# Velocity S-wave (km/s) = 3.28943 3.62445 3.46100
# Velocity P-wave (km/s) = 6.52073 6.90015 6.71312
#
# Compressibility (1/GPa) = 0.01808515
#
# Stress axis : x y z
#
# Youngs Moduli (GPa) = 86.42762 71.21286 94.89316
#
# Poissons Ratio (x) = 0.18900 0.32732
# Poissons Ratio (y) = 0.22938 0.27799
# Poissons Ratio (z) = 0.29812 0.20862
#
# Static dielectric constant tensor:
#      x y z
#    x 3.763080 0.000000 0.020100 
#    y 0.000000 3.133750 0.000000 
#    z 0.020100 0.000000 3.745350 
# 
# 
# High freq. dielectric constant tensor:
#      x y z
#    x 1.779810 0.000000 0.010690 
#    y 0.000000 1.721810 0.000000 
#    z 0.010690 0.000000 1.778510 
# 
# From -- ./inp_files/104134.got.cif
#   From: 2010.06.25/outbox.cif.g09.slc.cpg/sg12_53_cif.got.tgz:104134.got - 2010.06.28 00:19:55.
