data_PCOD8091124
_publ_section_title
;
Structure prediction by ZEFSAII (Michael W. Deem and Ramdas Pophale) SiO2 
 PCOD8091124
Probable space group: C 2/M
;
_chemical_formula_sum "Si O2"
_cell_formula_units_Z 36
_cell_length_a 26.201647
_cell_length_b 13.181128
_cell_length_c 10.854925
_cell_angle_alpha 90.000000
_cell_angle_beta 150.554311
_cell_angle_gamma 90.000000
_cell_volume 1842.970524
_symmetry_space_group_name_H-M "C 2/M"
_symmetry_group_IT_number 12
_symmetry_cell_setting 'monoclinic'
loop_
_space_group_symop_operation_xyz
x,y,z
-x,y,-z
-x,-y,-z
x,-y,z
1/2+x,1/2+y,z
1/2-x,1/2+y,-z
1/2-x,1/2-y,-z
1/2+x,1/2-y,z
loop_
_atom_site_type_symbol
_atom_site_label
_atom_site_fract_x
_atom_site_fract_y
_atom_site_fract_z
Si Si1 0.677296 0.385248 0.321376
Si Si2 0.123848 0.115623 0.931775
Si Si3 0.500000 0.241685 0.500000
Si Si4 0.858485 0.617845 0.370394
Si Si5 0.104765 0.690723 0.286458
O O1 0.651164 0.500000 0.305789
O O2 0.801579 0.372587 0.577916
O O3 0.625484 0.311135 0.312150
O O4 0.629938 0.357903 0.088766
O O5 0.040346 0.188930 0.695652
O O6 0.087566 0.000000 0.836598
O O7 0.235300 0.132844 0.103049
O O8 0.407686 0.170876 0.354903
O O9 0.888473 0.500000 0.434859
O O10 0.905378 0.669058 0.590877
O O11 0.000000 0.655216 0.000000
#
# Coordination Sequence:
#
# PCOD8091124 Si02
#       5
#     8   8   4   8   8
#     4   9  19  35  54  78 108 136 166 210 260 307
#     4   9  19  36  55  77 106 136 167 211 263 305
#     4  12  20  34  58  78  98 136 186 214 242 306
#     4  10  22  37  52  75 108 139 169 214 263 300
#     4  10  19  34  55  78 104 138 172 207 256 311
#
# _framework density 19.533681000000001
#
# number of rings (size 3 to 8) (size 9 to 14) (size 15 to 20)
#    0.000    2.222    0.000    4.667    0.000    2.222 
#    0.000    2.222    0.000    8.000    0.000    0.000 
#    0.000    0.000    0.000    0.000    0.000    0.000 
#
# Total GULP energy -223267.510924 kJ/mol
# GULP energy per Si atom -12403.750607 kJ/mol
# Density = 1.948922 g / cm^3
# Si number density = 19.533681 Si / 1000 Ang^3
#
#
#
# Elastic Constant Matrix: (Units=GPa)
#
#
# Indices 1 2 3 4 5 6 
#
# 1 35.5078 28.9242 2.9844 0.0000 -1.9915 0.0000
# 2 28.9242 126.0552 39.7445 0.0000 -10.5131 0.0000
# 3 2.9844 39.7445 86.8542 0.0000 4.8245 0.0000
# 4 0.0000 0.0000 0.0000 28.4892 0.0000 -6.3861
# 5 -1.9915 -10.5131 4.8245 0.0000 15.3474 0.0000
# 6 0.0000 0.0000 0.0000 -6.3861 0.0000 21.1564
#
#
#
# Elastic Compliance Matrix: (Units=1/GPa)
#
#
# Indices 1 2 3 4 5 6 
#
# 1 0.035365 -0.009371 0.003231 0.000000 -0.002846 0.000000
# 2 -0.009371 0.012778 -0.006049 0.000000 0.009439 0.000000
# 3 0.003231 -0.006049 0.014633 0.000000 -0.008325 0.000000
# 4 0.000000 0.000000 0.000000 0.037648 0.000000 0.011364
# 5 -0.002846 0.009439 -0.008325 0.000000 0.073871 0.000000
# 6 0.000000 0.000000 0.000000 0.011364 0.000000 0.050697
#
#
# Mechanical properties :
#
#
# Convention : Reuss Voigt Hill
#
# Bulk Modulus (GPa) = 26.04340 43.52479 34.78410
# Shear Modulus (GPa) = 19.07160 24.78286 21.92723
#
# Velocity S-wave (km/s) = 3.12804 3.56578 3.35406
# Velocity P-wave (km/s) = 5.13884 6.26764 5.73110
#
# Compressibility (1/GPa) = 0.03839744
#
# Stress axis : x y z
#
# Youngs Moduli (GPa) = 28.27662 78.26120 68.33806
#
# Poissons Ratio (x) = 0.73337 -0.22080
# Poissons Ratio (y) = 0.26497 0.41340
# Poissons Ratio (z) = -0.09136 0.47343
#
# Static dielectric constant tensor:
#      x y z
#    x 3.382620 0.000000 0.083940 
#    y 0.000000 3.585320 0.000000 
#    z 0.083940 0.000000 3.432330 
# 
# 
# High freq. dielectric constant tensor:
#      x y z
#    x 1.752270 0.000000 0.008410 
#    y 0.000000 1.768790 0.000000 
#    z 0.008410 0.000000 1.754550 
# 
# From -- ./inp_files/58323.got.cif
#   From: 2010.06.25/outbox.cif.g09.slc.cpg/sg12_30_cif.got.tgz:58323.got - 2010.06.28 00:19:55.
