data_PCOD8091651
_publ_section_title
;
Structure prediction by ZEFSAII (Michael W. Deem and Ramdas Pophale) SiO2 
 PCOD8091651
Probable space group: C 2/M
;
_chemical_formula_sum "Si O2"
_cell_formula_units_Z 64
_cell_length_a 19.819949
_cell_length_b 21.522011
_cell_length_c 11.213768
_cell_angle_alpha 90.000000
_cell_angle_beta 44.728872
_cell_angle_gamma 90.000000
_cell_volume 3366.333045
_symmetry_space_group_name_H-M "C 2/M"
_symmetry_group_IT_number 12
_symmetry_cell_setting 'monoclinic'
loop_
_space_group_symop_operation_xyz
x,y,z
-x,y,-z
-x,-y,-z
x,-y,z
1/2+x,1/2+y,z
1/2-x,1/2+y,-z
1/2-x,1/2-y,-z
1/2+x,1/2-y,z
loop_
_atom_site_type_symbol
_atom_site_label
_atom_site_fract_x
_atom_site_fract_y
_atom_site_fract_z
Si Si1 0.116002 0.789533 0.600925
Si Si2 0.904681 0.804180 0.889696
Si Si3 0.088737 0.428482 0.160207
Si Si4 0.606488 0.743212 0.350467
Si Si5 0.623874 0.929467 0.524344
Si Si6 0.184834 0.666734 0.619184
Si Si7 0.409163 0.820613 0.029303
Si Si8 0.719176 0.133676 0.184709
O O1 0.130974 0.794148 0.439791
O O2 0.116653 0.716993 0.638177
O O3 0.203903 0.823567 0.556768
O O4 0.016884 0.821137 0.769484
O O5 0.887273 0.802983 0.769463
O O6 0.885595 0.736686 0.972101
O O7 0.834978 0.857762 0.029812
O O8 0.103506 0.500000 0.100319
O O9 0.178001 0.408706 0.130184
O O10 0.989703 0.422949 0.360166
O O11 0.080156 0.384422 0.056524
O O12 0.500000 0.771968 0.500000
O O13 0.678980 0.797456 0.228513
O O14 0.648230 0.900123 0.622244
O O15 0.690494 0.895783 0.345334
O O16 0.656520 0.000000 0.487521
O O17 0.179504 0.671947 0.768766
O O18 0.500000 0.808281 0.000000
#
# Coordination Sequence:
#
# PCOD8091651 Si02
#       8
#     8   8   8   8   8   8   8   8
#     4  10  21  37  58  85 116 156 189 233 288 355
#     4  11  23  36  55  90 120 149 190 240 292 352
#     4  11  24  40  59  85 117 156 200 242 290 346
#     4  10  19  34  57  81 115 149 186 227 288 345
#     4  11  23  40  60  85 115 155 199 239 285 347
#     4  11  22  37  58  83 119 155 191 231 292 350
#     4  12  22  36  57  87 124 152 187 237 299 354
#     4  12  22  35  60  84 117 153 191 243 292 337
#
# _framework density 19.011785
#
# number of rings (size 3 to 8) (size 9 to 14) (size 15 to 20)
#    0.000    1.000    5.000    2.625    3.500    1.750 
#    0.000    0.000    0.000    2.250    0.000    0.875 
#    0.000    0.000    0.000    0.000    0.000    0.000 
#
# Total GULP energy -396740.516739 kJ/mol
# GULP energy per Si atom -12398.141148 kJ/mol
# Density = 1.896851 g / cm^3
# Si number density = 19.011785 Si / 1000 Ang^3
#
#
#
# Elastic Constant Matrix: (Units=GPa)
#
#
# Indices 1 2 3 4 5 6 
#
# 1 78.1257 30.8190 42.0712 0.0000 -5.2603 0.0000
# 2 30.8190 71.8604 36.9116 0.0000 -10.2424 0.0000
# 3 42.0712 36.9116 110.9329 0.0000 -6.3037 0.0000
# 4 0.0000 0.0000 0.0000 20.5841 0.0000 -9.1713
# 5 -5.2603 -10.2424 -6.3037 0.0000 37.2699 0.0000
# 6 0.0000 0.0000 0.0000 -9.1713 0.0000 3.4502
#
#
#
# Elastic Compliance Matrix: (Units=1/GPa)
#
#
# Indices 1 2 3 4 5 6 
#
# 1 0.017418 -0.004879 -0.004966 0.000000 0.000277 0.000000
# 2 -0.004879 0.018674 -0.004150 0.000000 0.003741 0.000000
# 3 -0.004966 -0.004150 0.012292 0.000000 0.000238 0.000000
# 4 0.000000 0.000000 0.000000 -0.263516 0.000000 -0.700472
# 5 0.000277 0.003741 0.000238 0.000000 0.027939 0.000000
# 6 0.000000 0.000000 0.000000 -0.700472 0.000000 -1.572144
#
#
# Mechanical properties :
#
#
# Convention : Reuss Voigt Hill
#
# Bulk Modulus (GPa) = 49.03982 53.39140 51.21561
# Shear Modulus (GPa) = -2.89931 22.33533 9.71801
#
# Velocity S-wave (km/s) = -1.23625 3.43128 2.26333
# Velocity P-wave (km/s) = 4.87982 6.62137 5.81615
#
# Compressibility (1/GPa) = 0.02039159
#
# Stress axis : x y z
#
# Youngs Moduli (GPa) = 57.41246 53.55150 81.35113
#
# Poissons Ratio (x) = 0.26130 0.40402
# Poissons Ratio (y) = 0.28014 0.33763
# Poissons Ratio (z) = 0.28513 0.22225
#
# Static dielectric constant tensor:
#      x y z
#    x 3.527620 0.000000 -0.007690 
#    y 0.000000 3.164500 0.000000 
#    z -0.007690 0.000000 3.777880 
# 
# 
# High freq. dielectric constant tensor:
#      x y z
#    x 1.743300 0.000000 0.002550 
#    y 0.000000 1.693480 0.000000 
#    z 0.002550 0.000000 1.751390 
# 
# From -- ./inp_files/169648.got.cif
#   From: 2010.06.25/outbox.cif.g09.slc.cpg/sg12_85_cif.got.tgz:169648.got - 2010.06.28 00:19:55.
