data_PCOD8091749
_publ_section_title
;
Structure prediction by ZEFSAII (Michael W. Deem and Ramdas Pophale) SiO2 
 PCOD8091749
Probable space group: C 2/M
;
_chemical_formula_sum "Si O2"
_cell_formula_units_Z 56
_cell_length_a 24.965681
_cell_length_b 8.834719
_cell_length_c 16.091111
_cell_angle_alpha 90.000000
_cell_angle_beta 123.807165
_cell_angle_gamma 90.000000
_cell_volume 2949.026896
_symmetry_space_group_name_H-M "C 2/M"
_symmetry_group_IT_number 12
_symmetry_cell_setting 'monoclinic'
loop_
_space_group_symop_operation_xyz
x,y,z
-x,y,-z
-x,-y,-z
x,-y,z
1/2+x,1/2+y,z
1/2-x,1/2+y,-z
1/2-x,1/2-y,-z
1/2+x,1/2-y,z
loop_
_atom_site_type_symbol
_atom_site_label
_atom_site_fract_x
_atom_site_fract_y
_atom_site_fract_z
Si Si1 0.899731 0.821162 0.415322
Si Si2 0.522666 0.177181 0.211327
Si Si3 0.776712 0.173887 0.941436
Si Si4 0.081051 0.171131 0.985759
Si Si5 0.368176 0.322501 0.790070
Si Si6 0.257526 0.320342 0.259468
Si Si7 0.498911 0.679365 0.364577
O O1 0.826447 0.761954 0.353406
O O2 0.937608 0.764892 0.365773
O O3 0.936267 0.769521 0.530638
O O4 0.901502 0.000000 0.412956
O O5 0.471495 0.214955 0.095300
O O6 0.590961 0.256525 0.250938
O O7 0.495271 0.235835 0.274444
O O8 0.534003 0.000000 0.224590
O O9 0.748620 0.263235 0.839417
O O10 0.754410 0.000000 0.916174
O O11 0.750000 0.250000 0.000000
O O12 0.853859 0.184740 0.011184
O O13 0.053605 0.000000 0.957071
O O14 0.094814 0.216478 0.092642
O O15 0.358445 0.500000 0.770694
O O16 0.297605 0.247656 0.729036
O O17 0.252288 0.500000 0.255671
O O18 0.497571 0.500000 0.347476
#
# Coordination Sequence:
#
# PCOD8091749 Si02
#       7
#     8   8   8   8   8   8   8
#     4   8  17  35  61  85 107 142 184 223 271 330
#     4  12  24  35  53  84 114 142 181 232 282 321
#     4  10  21  35  51  77 112 149 187 224 265 321
#     4   9  20  37  55  75 105 147 189 223 266 325
#     4  10  21  39  58  79 107 148 191 224 268 331
#     4  10  19  34  57  84 111 141 179 228 280 327
#     4   9  18  37  60  82 109 144 185 223 266 331
#
# _framework density 18.989315000000001
#
# number of rings (size 3 to 8) (size 9 to 14) (size 15 to 20)
#    0.000    2.286    0.000    4.714    2.000    5.143 
#    0.000    4.286    0.000    0.000    0.000    0.000 
#    0.000    0.000    0.000    0.000    0.000    0.000 
#
# Total GULP energy -347227.207161 kJ/mol
# GULP energy per Si atom -12400.971684 kJ/mol
# Density = 1.894609 g / cm^3
# Si number density = 18.989315 Si / 1000 Ang^3
#
#
#
# Elastic Constant Matrix: (Units=GPa)
#
#
# Indices 1 2 3 4 5 6 
#
# 1 93.7203 40.0438 37.0052 0.0000 9.5612 0.0000
# 2 40.0438 89.5167 28.7335 0.0000 8.3745 0.0000
# 3 37.0052 28.7335 56.3822 0.0000 17.1322 0.0000
# 4 0.0000 0.0000 0.0000 20.8556 0.0000 -0.1725
# 5 9.5612 8.3745 17.1322 0.0000 31.5588 0.0000
# 6 0.0000 0.0000 0.0000 -0.1725 0.0000 30.2904
#
#
#
# Elastic Compliance Matrix: (Units=1/GPa)
#
#
# Indices 1 2 3 4 5 6 
#
# 1 0.015787 -0.004462 -0.008375 0.000000 0.000948 0.000000
# 2 -0.004462 0.014618 -0.004494 0.000000 -0.000087 0.000000
# 3 -0.008375 -0.004494 0.029208 0.000000 -0.012126 0.000000
# 4 0.000000 0.000000 0.000000 0.047951 0.000000 0.000273
# 5 0.000948 -0.000087 -0.012126 0.000000 0.038006 0.000000
# 6 0.000000 0.000000 0.000000 0.000273 0.000000 0.033015
#
#
# Mechanical properties :
#
#
# Convention : Reuss Voigt Hill
#
# Bulk Modulus (GPa) = 40.08186 50.13160 45.10673
# Shear Modulus (GPa) = 22.56668 25.46340 24.01504
#
# Velocity S-wave (km/s) = 3.45104 3.66585 3.56007
# Velocity P-wave (km/s) = 6.08547 6.66147 6.37997
#
# Compressibility (1/GPa) = 0.02494894
#
# Stress axis : x y z
#
# Youngs Moduli (GPa) = 63.34345 68.40857 34.23708
#
# Poissons Ratio (x) = 0.30526 0.28675
# Poissons Ratio (y) = 0.28266 0.15387
# Poissons Ratio (z) = 0.53052 0.30745
#
# Static dielectric constant tensor:
#      x y z
#    x 3.743890 0.000000 0.175210 
#    y 0.000000 3.334300 0.000000 
#    z 0.175210 0.000000 3.462320 
# 
# 
# High freq. dielectric constant tensor:
#      x y z
#    x 1.750980 0.000000 0.003490 
#    y 0.000000 1.727760 0.000000 
#    z 0.003490 0.000000 1.722380 
# 
# From -- ./inp_files/238989.got.cif
#   From: 2010.06.25/outbox.cif.g09.slc.cpg/sg12_120_cif.got.tgz:238989.got - 2010.06.28 00:19:55.
