data_PCOD8091348
_publ_section_title
;
Structure prediction by ZEFSAII (Michael W. Deem and Ramdas Pophale) SiO2 
 PCOD8091348
Probable space group: C 2/M
;
_chemical_formula_sum "Si O2"
_cell_formula_units_Z 56
_cell_length_a 23.716936
_cell_length_b 9.029229
_cell_length_c 14.115093
_cell_angle_alpha 90.000000
_cell_angle_beta 106.216503
_cell_angle_gamma 90.000000
_cell_volume 2902.422986
_symmetry_space_group_name_H-M "C 2/M"
_symmetry_group_IT_number 12
_symmetry_cell_setting 'monoclinic'
loop_
_space_group_symop_operation_xyz
x,y,z
-x,y,-z
-x,-y,-z
x,-y,z
1/2+x,1/2+y,z
1/2-x,1/2+y,-z
1/2-x,1/2-y,-z
1/2+x,1/2-y,z
loop_
_atom_site_type_symbol
_atom_site_label
_atom_site_fract_x
_atom_site_fract_y
_atom_site_fract_z
Si Si1 0.761847 0.669933 0.102665
Si Si2 0.912034 0.674001 0.517322
Si Si3 0.668883 0.324761 0.209432
Si Si4 0.394009 0.170962 0.141181
Si Si5 0.433269 0.324882 0.973494
Si Si6 0.034684 0.327169 0.652581
Si Si7 0.807526 0.824191 0.568216
O O1 0.744340 0.500000 0.079754
O O2 0.721572 0.737632 0.167743
O O3 0.830282 0.688767 0.159717
O O4 0.750000 0.750000 0.000000
O O5 0.894862 0.500000 0.508904
O O6 0.931384 0.733811 0.423451
O O7 0.859223 0.776892 0.523201
O O8 0.965505 0.704002 0.614976
O O9 0.673140 0.500000 0.216210
O O10 0.605040 0.277539 0.136892
O O11 0.677963 0.261722 0.319541
O O12 0.439962 0.240306 0.238275
O O13 0.407353 0.000000 0.123542
O O14 0.399004 0.262093 0.047483
O O15 0.435024 0.500000 0.984887
O O16 0.500000 0.261509 0.000000
O O17 0.047791 0.500000 0.658964
O O18 0.750000 0.750000 0.500000
O O19 0.799952 0.000000 0.564630
#
# Coordination Sequence:
#
# PCOD8091348 Si02
#       7
#     8   8   8   8   8   8   8
#     4  10  19  34  56  79 105 140 181 224 270 322
#     4   9  18  37  61  82 109 146 188 231 276 334
#     4   9  20  38  57  78 108 148 185 224 276 333
#     4  10  20  33  55  85 111 141 183 229 276 326
#     4  10  21  37  57  80 111 151 189 221 271 340
#     4   8  17  34  58  84 110 146 185 224 282 343
#     4  11  24  40  59  83 112 149 191 232 279 332
#
# _framework density 19.294224
#
# number of rings (size 3 to 8) (size 9 to 14) (size 15 to 20)
#    0.000    2.429    1.429    1.286    4.000    0.286 
#    0.000    5.000    0.000    0.000    0.000    0.000 
#    0.000    0.000    0.000    0.000    0.000    0.000 
#
# Total GULP energy -347108.865227 kJ/mol
# GULP energy per Si atom -12396.745187 kJ/mol
# Density = 1.925031 g / cm^3
# Si number density = 19.294224 Si / 1000 Ang^3
#
#
#
# Elastic Constant Matrix: (Units=GPa)
#
#
# Indices 1 2 3 4 5 6 
#
# 1 121.6181 28.6802 47.4515 0.0000 7.8015 0.0000
# 2 28.6802 35.2839 28.0401 0.0000 4.3878 0.0000
# 3 47.4515 28.0401 131.5849 0.0000 19.0338 0.0000
# 4 0.0000 0.0000 0.0000 22.9111 0.0000 -2.6918
# 5 7.8015 4.3878 19.0338 0.0000 30.2410 0.0000
# 6 0.0000 0.0000 0.0000 -2.6918 0.0000 28.9551
#
#
#
# Elastic Compliance Matrix: (Units=1/GPa)
#
#
# Indices 1 2 3 4 5 6 
#
# 1 0.010785 -0.006829 -0.002393 0.000000 -0.000285 0.000000
# 2 -0.006829 0.038449 -0.005697 0.000000 -0.000231 0.000000
# 3 -0.002393 -0.005697 0.010416 0.000000 -0.005112 0.000000
# 4 0.000000 0.000000 0.000000 0.044129 0.000000 0.004102
# 5 -0.000285 -0.000231 -0.005112 0.000000 0.036392 0.000000
# 6 0.000000 0.000000 0.000000 0.004102 0.000000 0.034918
#
#
# Mechanical properties :
#
#
# Convention : Reuss Voigt Hill
#
# Bulk Modulus (GPa) = 33.54402 55.20339 44.37370
# Shear Modulus (GPa) = 23.27053 28.70911 25.98982
#
# Velocity S-wave (km/s) = 3.47665 3.86160 3.67417
# Velocity P-wave (km/s) = 5.79132 6.96822 6.40685
#
# Compressibility (1/GPa) = 0.02981157
#
# Stress axis : x y z
#
# Youngs Moduli (GPa) = 92.72304 26.00847 96.00698
#
# Poissons Ratio (x) = 0.17762 0.22970
# Poissons Ratio (y) = 0.63325 0.54696
# Poissons Ratio (z) = 0.22184 0.14817
#
# Static dielectric constant tensor:
#      x y z
#    x 3.916200 0.000000 0.341340 
#    y 0.000000 3.153350 0.000000 
#    z 0.341340 0.000000 4.158630 
# 
# 
# High freq. dielectric constant tensor:
#      x y z
#    x 1.761660 0.000000 0.007580 
#    y 0.000000 1.711280 0.000000 
#    z 0.007580 0.000000 1.760320 
# 
# From -- ./inp_files/237832.got.cif
#   From: 2010.06.25/outbox.cif.g09.slc.cpg/sg12_119_cif.got.tgz:237832.got - 2010.06.28 00:19:55.
