data_PCOD8091122
_publ_section_title
;
Structure prediction by ZEFSAII (Michael W. Deem and Ramdas Pophale) SiO2 
 PCOD8091122
Probable space group: C 2/M
;
_chemical_formula_sum "Si O2"
_cell_formula_units_Z 48
_cell_length_a 14.183353
_cell_length_b 8.772508
_cell_length_c 22.483469
_cell_angle_alpha 90.000000
_cell_angle_beta 108.282234
_cell_angle_gamma 90.000000
_cell_volume 2656.264995
_symmetry_space_group_name_H-M "C 2/M"
_symmetry_group_IT_number 12
_symmetry_cell_setting 'monoclinic'
loop_
_space_group_symop_operation_xyz
x,y,z
-x,y,-z
-x,-y,-z
x,-y,z
1/2+x,1/2+y,z
1/2-x,1/2+y,-z
1/2-x,1/2-y,-z
1/2+x,1/2-y,z
loop_
_atom_site_type_symbol
_atom_site_label
_atom_site_fract_x
_atom_site_fract_y
_atom_site_fract_z
Si Si1 0.310883 0.319144 0.329572
Si Si2 0.879638 0.818338 0.759217
Si Si3 0.984047 0.678950 0.668373
Si Si4 0.218150 0.676145 0.432822
Si Si5 0.648148 0.319670 0.999987
Si Si6 0.049485 0.180590 0.099183
O O1 0.297216 0.500000 0.320120
O O2 0.233642 0.235979 0.270648
O O3 0.421098 0.270226 0.335248
O O4 0.286924 0.265322 0.392175
O O5 0.952245 0.740048 0.726271
O O6 0.915385 0.756793 0.830330
O O7 0.886308 0.000000 0.754289
O O8 0.007423 0.500000 0.677552
O O9 0.896637 0.712547 0.603976
O O10 0.235864 0.500000 0.444768
O O11 0.250000 0.750000 0.500000
O O12 0.656321 0.500000 0.000617
O O13 0.622992 0.261391 0.061644
O O14 0.750000 0.250000 0.000000
O O15 0.562198 0.263982 0.937601
O O16 0.051759 0.000000 0.100367
#
# Coordination Sequence:
#
# PCOD8091122 Si02
#       6
#     8   8   8   8   8   8
#     4  10  21  37  54  77 106 138 173 212 255 305
#     4  10  19  34  55  78 103 136 173 214 260 306
#     4  10  21  37  54  77 106 138 173 212 255 305
#     4   9  20  36  54  76 104 134 170 211 254 302
#     4   9  17  33  52  72 100 133 167 207 250 300
#     4   8  17  33  52  72 100 135 168 202 252 308
#
# _framework density 18.070487
#
# number of rings (size 3 to 8) (size 9 to 14) (size 15 to 20)
#    0.000    2.667    0.000    3.500    0.000    6.000 
#    0.000   11.667    0.000    0.000    0.000    0.000 
#    0.000    0.000    0.000    0.000    0.000    0.000 
#
# Total GULP energy -297550.319810 kJ/mol
# GULP energy per Si atom -12397.929992 kJ/mol
# Density = 1.802936 g / cm^3
# Si number density = 18.070487 Si / 1000 Ang^3
#
#
#
# Elastic Constant Matrix: (Units=GPa)
#
#
# Indices 1 2 3 4 5 6 
#
# 1 123.8672 19.1878 56.3826 0.0000 2.3615 0.0000
# 2 19.1878 37.9794 35.8102 0.0000 1.8786 0.0000
# 3 56.3826 35.8102 166.4134 0.0000 4.6488 0.0000
# 4 0.0000 0.0000 0.0000 24.3813 0.0000 -0.2398
# 5 2.3615 1.8786 4.6488 0.0000 14.2412 0.0000
# 6 0.0000 0.0000 0.0000 -0.2398 0.0000 35.3529
#
#
#
# Elastic Compliance Matrix: (Units=1/GPa)
#
#
# Indices 1 2 3 4 5 6 
#
# 1 0.009700 -0.002249 -0.002791 0.000000 -0.000401 0.000000
# 2 -0.002249 0.033613 -0.006416 0.000000 -0.001967 0.000000
# 3 -0.002791 -0.006416 0.008375 0.000000 -0.001425 0.000000
# 4 0.000000 0.000000 0.000000 0.041018 0.000000 0.000278
# 5 -0.000401 -0.001967 -0.001425 0.000000 0.071010 0.000000
# 6 0.000000 0.000000 0.000000 0.000278 0.000000 0.028288
#
#
# Mechanical properties :
#
#
# Convention : Reuss Voigt Hill
#
# Bulk Modulus (GPa) = 34.75166 61.22458 47.98812
# Shear Modulus (GPa) = 22.27087 29.25371 25.76229
#
# Velocity S-wave (km/s) = 3.51443 4.02788 3.77988
# Velocity P-wave (km/s) = 5.97839 7.45562 6.75749
#
# Compressibility (1/GPa) = 0.02877560
#
# Stress axis : x y z
#
# Youngs Moduli (GPa) = 103.09606 29.75011 119.39798
#
# Poissons Ratio (x) = 0.06690 0.33327
# Poissons Ratio (y) = 0.23184 0.76610
# Poissons Ratio (z) = 0.28777 0.19089
#
# Static dielectric constant tensor:
#      x y z
#    x 3.095980 0.000000 -0.172070 
#    y 0.000000 3.215310 0.000000 
#    z -0.172070 0.000000 4.156750 
# 
# 
# High freq. dielectric constant tensor:
#      x y z
#    x 1.705240 0.000000 0.000110 
#    y 0.000000 1.690970 0.000000 
#    z 0.000110 0.000000 1.705710 
# 
# From -- ./inp_files/308613.got.cif
#   From: 2010.06.25/outbox.cif.g09.slc.cpg/sg12_155_cif.got.tgz:308613.got - 2010.06.28 00:19:55.
