data_PCOD8091964
_publ_section_title
;
Structure prediction by ZEFSAII (Michael W. Deem and Ramdas Pophale) SiO2 
 PCOD8091964
Probable space group: C 2/M
;
_chemical_formula_sum "Si O2"
_cell_formula_units_Z 64
_cell_length_a 11.591547
_cell_length_b 16.710009
_cell_length_c 21.499010
_cell_angle_alpha 90.000000
_cell_angle_beta 51.284226
_cell_angle_gamma 90.000000
_cell_volume 3249.188531
_symmetry_space_group_name_H-M "C 2/M"
_symmetry_group_IT_number 12
_symmetry_cell_setting 'monoclinic'
loop_
_space_group_symop_operation_xyz
x,y,z
-x,y,-z
-x,-y,-z
x,-y,z
1/2+x,1/2+y,z
1/2-x,1/2+y,-z
1/2-x,1/2-y,-z
1/2+x,1/2-y,z
loop_
_atom_site_type_symbol
_atom_site_label
_atom_site_fract_x
_atom_site_fract_y
_atom_site_fract_z
Si Si1 0.275023 0.406787 0.545238
Si Si2 0.010446 0.329292 0.423137
Si Si3 0.836137 0.595645 0.058891
Si Si4 0.301515 0.594379 0.279824
Si Si5 0.396370 0.594498 0.762099
Si Si6 0.178727 0.904802 0.992946
Si Si7 0.569296 0.351685 0.385926
Si Si8 0.648977 0.405131 0.871496
O O1 0.238964 0.500000 0.566611
O O2 0.135195 0.364668 0.560388
O O3 0.417451 0.397861 0.452897
O O4 0.309441 0.367073 0.600805
O O5 0.000000 0.323630 0.500000
O O6 0.151089 0.384810 0.364742
O O7 0.036536 0.241393 0.387874
O O8 0.835747 0.500000 0.061005
O O9 0.738286 0.628299 0.149816
O O10 0.776747 0.631187 0.014274
O O11 0.000000 0.630740 0.000000
O O12 0.318119 0.500000 0.272072
O O13 0.445947 0.629545 0.266702
O O14 0.289877 0.631119 0.213667
O O15 0.399444 0.500000 0.767371
O O16 0.366324 0.617516 0.700894
O O17 0.238296 0.878350 0.903919
O O18 0.178574 0.000000 0.996119
O O19 0.015240 0.873344 0.061672
O O20 0.651257 0.500000 0.864395
#
# Coordination Sequence:
#
# PCOD8091964 Si02
#       8
#     8   8   8   8   8   8   8   8
#     4  11  23  42  65  90 123 157 202 253 303 362
#     4  12  25  40  62  90 121 153 201 253 306 360
#     4   9  16  27  45  77 114 148 190 240 290 345
#     4  10  20  34  55  86 120 151 193 249 304 353
#     4  10  19  34  58  85 116 153 200 245 293 359
#     4   8  12  22  42  68 103 141 177 224 283 344
#     4  11  23  40  64  85 116 165 204 238 299 373
#     4   8  13  24  44  71 104 141 178 223 286 351
#
# _framework density 19.697226000000001
#
# number of rings (size 3 to 8) (size 9 to 14) (size 15 to 20)
#    0.000    2.125    2.500    3.750    1.750    2.000 
#    2.250    0.000    0.000    0.000    3.250    1.750 
#    0.000    0.000    0.000    0.000    0.000    0.000 
#
# Total GULP energy -396504.242927 kJ/mol
# GULP energy per Si atom -12390.757591 kJ/mol
# Density = 1.965239 g / cm^3
# Si number density = 19.697226 Si / 1000 Ang^3
#
#
#
# Elastic Constant Matrix: (Units=GPa)
#
#
# Indices 1 2 3 4 5 6 
#
# 1 119.6915 15.2308 45.4964 0.0000 -2.2646 0.0000
# 2 15.2308 40.4160 -8.5673 0.0000 -0.2431 0.0000
# 3 45.4964 -8.5673 95.5415 -0.0001 7.1202 0.0001
# 4 0.0000 0.0000 -0.0001 7.6496 0.0001 1.6492
# 5 -2.2646 -0.2431 7.1202 0.0001 30.9047 -0.0001
# 6 0.0000 0.0000 0.0001 1.6492 -0.0001 17.9781
#
#
#
# Elastic Compliance Matrix: (Units=1/GPa)
#
#
# Indices 1 2 3 4 5 6 
#
# 1 0.011429 -0.005589 -0.006108 0.000000 0.002201 0.000000
# 2 -0.005589 0.027958 0.005273 0.000000 -0.001404 0.000000
# 3 -0.006108 0.005273 0.014121 0.000000 -0.003659 0.000000
# 4 0.000000 0.000000 0.000000 0.133364 0.000000 -0.012234
# 5 0.002201 -0.001404 -0.003659 0.000000 0.033351 0.000000
# 6 0.000000 0.000000 0.000000 -0.012234 0.000000 0.056746
#
#
# Mechanical properties :
#
#
# Convention : Reuss Voigt Hill
#
# Bulk Modulus (GPa) = 24.59342 39.99655 32.29499
# Shear Modulus (GPa) = 16.48160 24.87241 20.67700
#
# Velocity S-wave (km/s) = 2.89580 3.55736 3.24349
# Velocity P-wave (km/s) = 4.86762 6.10105 5.51890
#
# Compressibility (1/GPa) = 0.04066128
#
# Stress axis : x y z
#
# Youngs Moduli (GPa) = 87.49517 35.76787 70.81838
#
# Poissons Ratio (x) = 0.19989 0.43253
# Poissons Ratio (y) = 0.48897 -0.37342
# Poissons Ratio (z) = 0.53439 -0.18860
#
# Static dielectric constant tensor:
#      x y z
#    x 3.880000 0.000000 0.252210 
#    y 0.000000 3.145490 0.000000 
#    z 0.252210 0.000000 3.889590 
# 
# 
# High freq. dielectric constant tensor:
#      x y z
#    x 1.775140 0.000000 0.018620 
#    y 0.000000 1.722980 0.000000 
#    z 0.018620 0.000000 1.773010 
# 
# From -- ./inp_files/306204.got.cif
#   From: 2010.06.25/outbox.cif.g09.slc.cpg/sg12_154_cif.got.tgz:306204.got - 2010.06.28 00:19:55.
