data_PCOD8091010
_publ_section_title
;
Structure prediction by ZEFSAII (Michael W. Deem and Ramdas Pophale) SiO2 
 PCOD8091010
Probable space group: C 2/M
;
_chemical_formula_sum "Si O2"
_cell_formula_units_Z 48
_cell_length_a 19.802468
_cell_length_b 13.484339
_cell_length_c 18.780959
_cell_angle_alpha 90.000000
_cell_angle_beta 28.183921
_cell_angle_gamma 90.000000
_cell_volume 2368.578822
_symmetry_space_group_name_H-M "C 2/M"
_symmetry_group_IT_number 12
_symmetry_cell_setting 'monoclinic'
loop_
_space_group_symop_operation_xyz
x,y,z
-x,y,-z
-x,-y,-z
x,-y,z
1/2+x,1/2+y,z
1/2-x,1/2+y,-z
1/2-x,1/2-y,-z
1/2+x,1/2-y,z
loop_
_atom_site_type_symbol
_atom_site_label
_atom_site_fract_x
_atom_site_fract_y
_atom_site_fract_z
Si Si1 0.730529 0.107673 0.693656
Si Si2 0.586738 0.114858 0.347422
Si Si3 0.334391 0.388106 0.444932
Si Si4 0.338152 0.748999 0.125029
Si Si5 0.031663 0.311350 0.686568
Si Si6 0.089915 0.610756 0.063787
O O1 0.830718 0.128748 0.533236
O O2 0.752565 0.189253 0.732996
O O3 0.568561 0.107204 0.818610
O O4 0.766850 0.000000 0.692909
O O5 0.500000 0.136925 0.500000
O O6 0.753823 0.145525 0.198426
O O7 0.519567 0.178824 0.346400
O O8 0.580895 0.000000 0.332680
O O9 0.386117 0.500000 0.377688
O O10 0.178765 0.372645 0.555442
O O11 0.443695 0.304679 0.314759
O O12 0.500000 0.728476 0.000000
O O13 0.325087 0.810200 0.063371
O O14 0.913070 0.353590 0.851322
O O15 0.158502 0.500000 0.995770
#
# Coordination Sequence:
#
# PCOD8091010 Si02
#       6
#     8   8   8   8   8   8
#     4   8  14  28  52  80 106 134 174 222 272 327
#     4  11  24  40  57  77 107 150 192 228 272 327
#     4   9  17  31  55  83 110 143 183 228 275 325
#     4  10  20  35  56  83 111 142 184 230 272 320
#     4  10  19  34  54  78 111 148 185 224 272 332
#     4   9  17  31  54  80 105 138 177 219 274 336
#
# _framework density 20.265315999999999
#
# number of rings (size 3 to 8) (size 9 to 14) (size 15 to 20)
#    0.000    2.500    0.000    4.000    0.000    4.333 
#    0.000    2.500    0.000    4.500    0.000    0.000 
#    0.000    0.000    0.000    0.000    0.000    0.000 
#
# Total GULP energy -297493.837927 kJ/mol
# GULP energy per Si atom -12395.576580 kJ/mol
# Density = 2.021919 g / cm^3
# Si number density = 20.265316 Si / 1000 Ang^3
#
#
#
# Elastic Constant Matrix: (Units=GPa)
#
#
# Indices 1 2 3 4 5 6 
#
# 1 88.5235 29.1222 24.5588 0.0000 11.6212 -0.0002
# 2 29.1222 112.8957 37.7772 0.0001 -4.6536 0.0000
# 3 24.5588 37.7772 55.7777 0.0013 4.6348 -0.0012
# 4 0.0000 0.0001 0.0013 24.6737 -0.0006 0.4194
# 5 11.6212 -4.6536 4.6348 -0.0006 19.2188 0.0008
# 6 -0.0002 0.0000 -0.0012 0.4194 0.0008 20.0917
#
#
#
# Elastic Compliance Matrix: (Units=1/GPa)
#
#
# Indices 1 2 3 4 5 6 
#
# 1 0.014364 -0.002811 -0.003717 0.000000 -0.008470 0.000000
# 2 -0.002811 0.012443 -0.007736 0.000001 0.006578 -0.000001
# 3 -0.003717 -0.007736 0.025280 -0.000001 -0.005722 0.000002
# 4 0.000000 0.000001 -0.000001 0.040543 0.000002 -0.000846
# 5 -0.008470 0.006578 -0.005722 0.000002 0.060127 -0.000003
# 6 0.000000 -0.000001 0.000002 -0.000846 -0.000003 0.049790
#
#
# Mechanical properties :
#
#
# Convention : Reuss Voigt Hill
#
# Bulk Modulus (GPa) = 42.44689 48.90145 45.67417
# Shear Modulus (GPa) = 20.92686 23.84608 22.38647
#
# Velocity S-wave (km/s) = 3.21696 3.43402 3.32726
# Velocity P-wave (km/s) = 5.89827 6.31714 6.11129
#
# Compressibility (1/GPa) = 0.02355885
#
# Stress axis : x y z
#
# Youngs Moduli (GPa) = 69.61749 80.36902 39.55691
#
# Poissons Ratio (x) = 0.22589 0.14704
# Poissons Ratio (y) = 0.19567 0.30602
# Poissons Ratio (z) = 0.25878 0.62175
#
# Static dielectric constant tensor:
#      x y z
#    x 3.564250 0.000000 0.334880 
#    y 0.000000 3.828850 0.000000 
#    z 0.334880 0.000000 3.457020 
# 
# 
# High freq. dielectric constant tensor:
#      x y z
#    x 1.780540 0.000000 0.020490 
#    y 0.000000 1.797890 0.000000 
#    z 0.020490 0.000000 1.759650 
# 
# From -- ./inp_files/321172.got.cif
#   From: 2010.06.25/outbox.cif.g09.slc.cpg/sg12_161_cif.got.tgz:321172.got - 2010.06.28 00:19:55.
