data_PCOD8091508
_publ_section_title
;
Structure prediction by ZEFSAII (Michael W. Deem and Ramdas Pophale) SiO2 
 PCOD8091508
Probable space group: C 2/M
;
_chemical_formula_sum "Si O2"
_cell_formula_units_Z 64
_cell_length_a 19.902024
_cell_length_b 8.924821
_cell_length_c 24.114947
_cell_angle_alpha 90.000000
_cell_angle_beta 125.829103
_cell_angle_gamma 90.000000
_cell_volume 3472.793144
_symmetry_space_group_name_H-M "C 2/M"
_symmetry_group_IT_number 12
_symmetry_cell_setting 'monoclinic'
loop_
_space_group_symop_operation_xyz
x,y,z
-x,y,-z
-x,-y,-z
x,-y,z
1/2+x,1/2+y,z
1/2-x,1/2+y,-z
1/2-x,1/2-y,-z
1/2+x,1/2-y,z
loop_
_atom_site_type_symbol
_atom_site_label
_atom_site_fract_x
_atom_site_fract_y
_atom_site_fract_z
Si Si1 0.966695 0.824809 0.423938
Si Si2 0.277506 0.676660 0.317374
Si Si3 0.137845 0.174210 0.313938
Si Si4 0.008077 0.826418 0.842133
Si Si5 0.776427 0.825044 0.822051
Si Si6 0.886696 0.672128 0.193540
Si Si7 0.947045 0.326981 0.919684
Si Si8 0.472207 0.824993 0.652959
O O1 0.871605 0.774994 0.373286
O O2 0.000000 0.779213 0.500000
O O3 0.021269 0.735846 0.405938
O O4 0.977328 0.000000 0.417268
O O5 0.265314 0.500000 0.312775
O O6 0.224352 0.748573 0.341012
O O7 0.247319 0.736835 0.244192
O O8 0.104893 0.245208 0.354774
O O9 0.073870 0.205173 0.233221
O O10 0.152267 0.000000 0.330728
O O11 0.088980 0.773453 0.847244
O O12 0.001635 0.732512 0.895098
O O13 0.018219 0.000000 0.861735
O O14 0.708362 0.795592 0.836786
O O15 0.863526 0.767735 0.887072
O O16 0.782557 0.000000 0.809837
O O17 0.901081 0.500000 0.183850
O O18 0.942972 0.714258 0.273691
O O19 0.924542 0.500000 0.898671
O O20 0.000000 0.303601 0.000000
O O21 0.454365 0.000000 0.642976
#
# Coordination Sequence:
#
# PCOD8091508 Si02
#       8
#     8   8   8   8   8   8   8   8
#     4  10  22  39  57  81 116 154 190 231 282 339
#     4  11  21  34  57  85 113 147 188 234 280 330
#     4  10  20  34  55  84 115 145 184 234 283 331
#     4  10  20  34  56  84 113 147 186 230 279 333
#     4  11  21  36  58  86 115 145 186 233 281 331
#     4   9  19  34  55  83 115 145 180 233 282 329
#     4  11  24  40  58  82 115 153 190 230 279 334
#     4  10  19  34  56  83 114 147 187 232 282 335
#
# _framework density 18.428971000000001
#
# number of rings (size 3 to 8) (size 9 to 14) (size 15 to 20)
#    0.000    1.750    2.500    2.250    0.000    4.250 
#    0.000    1.250    0.000    0.000    0.000    0.000 
#    0.000    0.000    0.000    0.000    0.000    0.000 
#
# Total GULP energy -396971.611924 kJ/mol
# GULP energy per Si atom -12405.362873 kJ/mol
# Density = 1.838703 g / cm^3
# Si number density = 18.428971 Si / 1000 Ang^3
#
#
#
# Elastic Constant Matrix: (Units=GPa)
#
#
# Indices 1 2 3 4 5 6 
#
# 1 134.3115 55.0833 43.4050 0.0000 -15.2902 0.0000
# 2 55.0833 72.9726 28.0843 0.0000 -14.1632 0.0000
# 3 43.4050 28.0843 63.6059 0.0000 -9.8457 0.0000
# 4 0.0000 0.0000 0.0000 18.3024 0.0000 -3.8063
# 5 -15.2902 -14.1632 -9.8457 0.0000 24.7869 0.0000
# 6 0.0000 0.0000 0.0000 -3.8063 0.0000 39.0434
#
#
#
# Elastic Compliance Matrix: (Units=1/GPa)
#
#
# Indices 1 2 3 4 5 6 
#
# 1 0.012042 -0.006893 -0.004937 0.000000 0.001528 0.000000
# 2 -0.006893 0.021667 -0.003841 0.000000 0.006603 0.000000
# 3 -0.004937 -0.003841 0.021284 0.000000 0.003214 0.000000
# 4 0.000000 0.000000 0.000000 0.055768 0.000000 0.005437
# 5 0.001528 0.006603 0.003214 0.000000 0.046336 0.000000
# 6 0.000000 0.000000 0.000000 0.005437 0.000000 0.026143
#
#
# Mechanical properties :
#
#
# Convention : Reuss Voigt Hill
#
# Bulk Modulus (GPa) = 42.28193 58.22614 50.25403
# Shear Modulus (GPa) = 22.47538 26.04771 24.26154
#
# Velocity S-wave (km/s) = 3.49602 3.76361 3.63228
# Velocity P-wave (km/s) = 6.26811 7.10984 6.70220
#
# Compressibility (1/GPa) = 0.02365077
#
# Stress axis : x y z
#
# Youngs Moduli (GPa) = 83.04354 46.15406 46.98266
#
# Poissons Ratio (x) = 0.31814 0.23197
# Poissons Ratio (y) = 0.57242 0.18045
# Poissons Ratio (z) = 0.41002 0.17727
#
# Static dielectric constant tensor:
#      x y z
#    x 3.615440 0.000000 0.035490 
#    y 0.000000 3.481370 0.000000 
#    z 0.035490 0.000000 3.138650 
# 
# 
# High freq. dielectric constant tensor:
#      x y z
#    x 1.730320 0.000000 -0.006130 
#    y 0.000000 1.727620 0.000000 
#    z -0.006130 0.000000 1.683930 
# 
# From -- ./inp_files/346277.got.cif
#   From: 2010.06.25/outbox.cif.g09.slc.cpg/sg12_174_cif.got.tgz:346277.got - 2010.06.28 00:19:55.
