data_PCOD8091723
_publ_section_title
;
Structure prediction by ZEFSAII (Michael W. Deem and Ramdas Pophale) SiO2 
 PCOD8091723
Probable space group: C 2/M
;
_chemical_formula_sum "Si O2"
_cell_formula_units_Z 48
_cell_length_a 25.431817
_cell_length_b 8.906606
_cell_length_c 11.579026
_cell_angle_alpha 90.000000
_cell_angle_beta 90.191059
_cell_angle_gamma 90.000000
_cell_volume 2622.764190
_symmetry_space_group_name_H-M "C 2/M"
_symmetry_group_IT_number 12
_symmetry_cell_setting 'monoclinic'
loop_
_space_group_symop_operation_xyz
x,y,z
-x,y,-z
-x,-y,-z
x,-y,z
1/2+x,1/2+y,z
1/2-x,1/2+y,-z
1/2-x,1/2-y,-z
1/2+x,1/2-y,z
loop_
_atom_site_type_symbol
_atom_site_label
_atom_site_fract_x
_atom_site_fract_y
_atom_site_fract_z
Si Si1 0.602758 0.177109 0.760682
Si Si2 0.193025 0.824131 0.375805
Si Si3 0.939412 0.825012 0.013017
Si Si4 0.697860 0.674829 0.641774
Si Si5 0.907721 0.824144 0.759970
Si Si6 0.990177 0.173008 0.365779
O O1 0.587739 0.229518 0.888253
O O2 0.659709 0.239915 0.728733
O O3 0.561224 0.234586 0.666708
O O4 0.604760 0.000000 0.757576
O O5 0.243680 0.733693 0.334477
O O6 0.180722 0.792676 0.509899
O O7 0.144506 0.758844 0.300517
O O8 0.202964 0.000000 0.354051
O O9 0.936145 0.000000 0.045302
O O10 0.907778 0.788089 0.895687
O O11 0.000000 0.776507 0.000000
O O12 0.695614 0.500000 0.670474
O O13 0.960254 0.756762 0.702233
O O14 0.908901 0.000000 0.734561
O O15 0.000000 0.190395 0.500000
O O16 0.980540 0.000000 0.330326
#
# Coordination Sequence:
#
# PCOD8091723 Si02
#       6
#     8   8   8   8   8   8
#     4  12  24  36  53  80 115 148 186 232 278 325
#     4   9  18  35  59  86 112 139 178 228 281 330
#     4  10  19  36  59  79 106 146 192 230 270 332
#     4  10  20  36  58  82 111 148 186 223 273 336
#     4   9  17  32  56  83 108 140 180 225 275 329
#     4  10  19  34  57  83 111 144 183 224 273 335
#
# _framework density 18.301302
#
# number of rings (size 3 to 8) (size 9 to 14) (size 15 to 20)
#    0.000    2.000    1.667    3.000    0.000    4.000 
#    0.000    2.500    0.000    0.000    0.000    0.000 
#    0.000    0.000    0.000    0.000    0.000    0.000 
#
# Total GULP energy -297670.886212 kJ/mol
# GULP energy per Si atom -12402.953592 kJ/mol
# Density = 1.825965 g / cm^3
# Si number density = 18.301302 Si / 1000 Ang^3
#
#
#
# Elastic Constant Matrix: (Units=GPa)
#
#
# Indices 1 2 3 4 5 6 
#
# 1 111.0504 48.6887 49.4408 0.0000 -10.1170 0.0000
# 2 48.6887 84.3951 38.9921 0.0000 -16.5430 0.0000
# 3 49.4408 38.9921 79.2456 0.0000 -10.7006 0.0000
# 4 0.0000 0.0000 0.0000 20.2104 0.0000 -1.6377
# 5 -10.1170 -16.5430 -10.7006 0.0000 33.8824 0.0000
# 6 0.0000 0.0000 0.0000 -1.6377 0.0000 29.8906
#
#
#
# Elastic Compliance Matrix: (Units=1/GPa)
#
#
# Indices 1 2 3 4 5 6 
#
# 1 0.014068 -0.005317 -0.006209 0.000000 -0.000356 0.000000
# 2 -0.005317 0.018326 -0.004916 0.000000 0.005808 0.000000
# 3 -0.006209 -0.004916 0.019154 0.000000 0.001795 0.000000
# 4 0.000000 0.000000 0.000000 0.049700 0.000000 0.002723
# 5 -0.000356 0.005808 0.001795 0.000000 0.032810 0.000000
# 6 0.000000 0.000000 0.000000 0.002723 0.000000 0.033605
#
#
# Mechanical properties :
#
#
# Convention : Reuss Voigt Hill
#
# Bulk Modulus (GPa) = 53.57751 60.99269 57.28510
# Shear Modulus (GPa) = 24.18179 25.96796 25.07487
#
# Velocity S-wave (km/s) = 3.63893 3.77093 3.70552
# Velocity P-wave (km/s) = 6.85526 7.23597 7.04818
#
# Compressibility (1/GPa) = 0.01866455
#
# Stress axis : x y z
#
# Youngs Moduli (GPa) = 71.08359 54.56680 52.20953
#
# Poissons Ratio (x) = 0.29015 0.32415
# Poissons Ratio (y) = 0.37798 0.25664
# Poissons Ratio (z) = 0.44133 0.26823
#
# Static dielectric constant tensor:
#      x y z
#    x 3.485560 0.000000 0.032970 
#    y 0.000000 3.170270 0.000000 
#    z 0.032970 0.000000 3.365400 
# 
# 
# High freq. dielectric constant tensor:
#      x y z
#    x 1.715490 0.000000 -0.001290 
#    y 0.000000 1.687010 0.000000 
#    z -0.001290 0.000000 1.711320 
# 
# From -- ./inp_files/172290.got.cif
#   From: 2010.06.25/outbox.cif.g09.slc.cpg/sg12_87_cif.got.tgz:172290.got - 2010.06.28 00:19:55.
