data_PCOD8091400
_publ_section_title
;
Structure prediction by ZEFSAII (Michael W. Deem and Ramdas Pophale) SiO2 
 PCOD8091400
Probable space group: C 2/M
;
_chemical_formula_sum "Si O2"
_cell_formula_units_Z 64
_cell_length_a 14.857639
_cell_length_b 13.751522
_cell_length_c 19.806888
_cell_angle_alpha 90.000000
_cell_angle_beta 58.205221
_cell_angle_gamma 90.000000
_cell_volume 3439.580244
_symmetry_space_group_name_H-M "C 2/M"
_symmetry_group_IT_number 12
_symmetry_cell_setting 'monoclinic'
loop_
_space_group_symop_operation_xyz
x,y,z
-x,y,-z
-x,-y,-z
x,-y,z
1/2+x,1/2+y,z
1/2-x,1/2+y,-z
1/2-x,1/2-y,-z
1/2+x,1/2-y,z
loop_
_atom_site_type_symbol
_atom_site_label
_atom_site_fract_x
_atom_site_fract_y
_atom_site_fract_z
Si Si1 0.580700 0.256617 0.028634
Si Si2 0.320131 0.777029 0.244162
Si Si3 0.580880 0.608283 0.150916
Si Si4 0.857953 0.885347 0.611215
Si Si5 0.912183 0.115196 0.446189
Si Si6 0.228376 0.265897 0.137430
Si Si7 0.545639 0.116413 0.152798
Si Si8 0.370973 0.609160 0.315622
O O1 0.694184 0.290097 0.955624
O O2 0.500000 0.250293 0.000000
O O3 0.540770 0.334331 0.100217
O O4 0.586903 0.150786 0.062707
O O5 0.232783 0.852149 0.302819
O O6 0.297218 0.738533 0.178005
O O7 0.432835 0.830439 0.209068
O O8 0.304715 0.681543 0.295671
O O9 0.611799 0.500000 0.116512
O O10 0.683116 0.658326 0.142967
O O11 0.491841 0.608055 0.243296
O O12 0.840604 0.853851 0.539194
O O13 0.969756 0.841254 0.591816
O O14 0.861491 0.000000 0.613746
O O15 0.863240 0.151447 0.394942
O O16 0.922280 0.000000 0.438020
O O17 0.131824 0.344931 0.174354
O O18 0.534659 0.000000 0.161374
O O19 0.323094 0.500000 0.329309
#
# Coordination Sequence:
#
# PCOD8091400 Si02
#       8
#     8   8   8   8   8   8   8   8
#     4  11  21  40  57  82 116 149 194 244 285 341
#     4  12  22  37  59  85 116 152 196 240 281 352
#     4  10  20  35  57  82 106 145 190 233 285 338
#     4   9  18  32  55  87 116 145 182 232 288 340
#     4   8  16  33  55  83 116 143 181 236 285 334
#     4  11  23  39  58  80 117 152 191 243 294 343
#     4  11  24  41  59  85 117 154 193 240 299 351
#     4  10  19  34  56  80 110 145 187 234 283 333
#
# _framework density 18.606921
#
# number of rings (size 3 to 8) (size 9 to 14) (size 15 to 20)
#    0.000    1.750    3.750    3.375    0.000    5.500 
#    0.000    0.000    0.000    0.000    0.000    1.750 
#    0.000    0.000    0.000    0.000    0.000    0.000 
#
# Total GULP energy -396559.067089 kJ/mol
# GULP energy per Si atom -12392.470847 kJ/mol
# Density = 1.856457 g / cm^3
# Si number density = 18.606921 Si / 1000 Ang^3
#
#
#
# Elastic Constant Matrix: (Units=GPa)
#
#
# Indices 1 2 3 4 5 6 
#
# 1 64.7067 26.7005 12.6201 0.0000 10.5015 0.0000
# 2 26.7005 95.0530 11.8185 0.0000 16.1310 0.0000
# 3 12.6201 11.8185 76.5665 0.0000 13.3841 0.0000
# 4 0.0000 0.0000 0.0000 19.3348 0.0000 -1.7285
# 5 10.5015 16.1310 13.3841 0.0000 34.6174 0.0000
# 6 0.0000 0.0000 0.0000 -1.7285 0.0000 18.4780
#
#
#
# Elastic Compliance Matrix: (Units=1/GPa)
#
#
# Indices 1 2 3 4 5 6 
#
# 1 0.018062 -0.004383 -0.001823 0.000000 -0.002732 0.000000
# 2 -0.004383 0.012545 -0.000455 0.000000 -0.004340 0.000000
# 3 -0.001823 -0.000455 0.014261 0.000000 -0.004749 0.000000
# 4 0.000000 0.000000 0.000000 0.052156 0.000000 0.004879
# 5 -0.002732 -0.004340 -0.004749 0.000000 0.033574 0.000000
# 6 0.000000 0.000000 0.000000 0.004879 0.000000 0.054575
#
#
# Mechanical properties :
#
#
# Convention : Reuss Voigt Hill
#
# Bulk Modulus (GPa) = 31.70060 37.62270 34.66165
# Shear Modulus (GPa) = 23.92211 26.83186 25.37698
#
# Velocity S-wave (km/s) = 3.58950 3.80154 3.69704
# Velocity P-wave (km/s) = 5.85263 6.28749 6.07395
#
# Compressibility (1/GPa) = 0.03154514
#
# Stress axis : x y z
#
# Youngs Moduli (GPa) = 55.36482 79.71403 70.11948
#
# Poissons Ratio (x) = 0.34942 0.12782
# Poissons Ratio (y) = 0.24268 0.03192
# Poissons Ratio (z) = 0.10093 0.03629
#
# Static dielectric constant tensor:
#      x y z
#    x 3.374210 0.000000 0.070790 
#    y 0.000000 3.323510 0.000000 
#    z 0.070790 0.000000 3.754820 
# 
# 
# High freq. dielectric constant tensor:
#      x y z
#    x 1.716120 0.000000 0.007110 
#    y 0.000000 1.700570 0.000000 
#    z 0.007110 0.000000 1.730430 
# 
# From -- ./inp_files/270269.got.cif
#   From: 2010.06.25/outbox.cif.g09.slc.cpg/sg12_136_cif.got.tgz:270269.got - 2010.06.28 00:19:55.
