data_PCOD8091793
_publ_section_title
;
Structure prediction by ZEFSAII (Michael W. Deem and Ramdas Pophale) SiO2 
 PCOD8091793
Probable space group: C 2/M
;
_chemical_formula_sum "Si O2"
_cell_formula_units_Z 40
_cell_length_a 20.786788
_cell_length_b 8.891734
_cell_length_c 11.054766
_cell_angle_alpha 90.000000
_cell_angle_beta 93.744559
_cell_angle_gamma 90.000000
_cell_volume 2038.896825
_symmetry_space_group_name_H-M "C 2/M"
_symmetry_group_IT_number 12
_symmetry_cell_setting 'monoclinic'
loop_
_space_group_symop_operation_xyz
x,y,z
-x,y,-z
-x,-y,-z
x,-y,z
1/2+x,1/2+y,z
1/2-x,1/2+y,-z
1/2-x,1/2-y,-z
1/2+x,1/2-y,z
loop_
_atom_site_type_symbol
_atom_site_label
_atom_site_fract_x
_atom_site_fract_y
_atom_site_fract_z
Si Si1 0.013540 0.675622 0.636204
Si Si2 0.224196 0.322629 0.239080
Si Si3 0.649417 0.823424 0.763925
Si Si4 0.833496 0.171203 0.983025
Si Si5 0.099360 0.168061 0.246047
O O1 0.999330 0.500000 0.643310
O O2 0.966836 0.754859 0.725463
O O3 0.000000 0.736496 0.500000
O O4 0.086706 0.714857 0.677953
O O5 0.225726 0.500000 0.249588
O O6 0.290128 0.251496 0.299315
O O7 0.162215 0.259159 0.304652
O O8 0.222103 0.267595 0.096245
O O9 0.641028 0.750968 0.894461
O O10 0.660819 0.000000 0.778435
O O11 0.809625 0.000000 0.006545
O O12 0.895196 0.166707 0.899454
O O13 0.101634 0.000000 0.299742
#
# Coordination Sequence:
#
# PCOD8091793 Si02
#       5
#     8   8   8   8   8
#     4  10  23  42  60  79 108 147 190 235 278 324
#     4  10  19  34  57  85 117 148 181 222 274 333
#     4  11  21  34  56  85 115 148 186 225 273 330
#     4   9  19  34  55  85 119 147 178 222 275 331
#     4   9  20  37  58  83 114 147 181 227 277 329
#
# _framework density 19.618452000000001
#
# number of rings (size 3 to 8) (size 9 to 14) (size 15 to 20)
#    1.200    1.000    0.000    3.600    0.000    2.800 
#    0.000    5.000    0.000    0.000    0.000    0.000 
#    0.000    0.000    0.000    0.000    0.000    0.000 
#
# Total GULP energy -247893.056747 kJ/mol
# GULP energy per Si atom -12394.652837 kJ/mol
# Density = 1.957380 g / cm^3
# Si number density = 19.618452 Si / 1000 Ang^3
#
#
#
# Elastic Constant Matrix: (Units=GPa)
#
#
# Indices 1 2 3 4 5 6 
#
# 1 86.4101 63.5249 20.3129 0.0000 20.8504 0.0000
# 2 63.5249 136.3629 34.4629 0.0000 22.2417 0.0000
# 3 20.3129 34.4629 56.4753 0.0000 23.4391 0.0000
# 4 0.0000 0.0000 0.0000 16.9073 0.0000 0.5441
# 5 20.8504 22.2417 23.4391 0.0000 21.0042 0.0000
# 6 0.0000 0.0000 0.0000 0.5441 0.0000 38.7097
#
#
#
# Elastic Compliance Matrix: (Units=1/GPa)
#
#
# Indices 1 2 3 4 5 6 
#
# 1 0.020386 -0.007873 0.004491 0.000000 -0.016910 0.000000
# 2 -0.007873 0.012153 -0.004632 0.000000 0.000116 0.000000
# 3 0.004491 -0.004632 0.034894 0.000000 -0.038491 0.000000
# 4 0.000000 0.000000 0.000000 0.059173 0.000000 -0.000832
# 5 -0.016910 0.000116 -0.038491 0.000000 0.107226 0.000000
# 6 0.000000 0.000000 0.000000 -0.000832 0.000000 0.025845
#
#
# Mechanical properties :
#
#
# Convention : Reuss Voigt Hill
#
# Bulk Modulus (GPa) = 19.45457 57.31664 38.38561
# Shear Modulus (GPa) = 17.07414 26.05408 21.56411
#
# Velocity S-wave (km/s) = 2.95330 3.64818 3.31898
# Velocity P-wave (km/s) = 4.64406 6.85746 5.85628
#
# Compressibility (1/GPa) = 0.05140180
#
# Stress axis : x y z
#
# Youngs Moduli (GPa) = 49.05400 82.28393 28.65862
#
# Poissons Ratio (x) = 0.64786 -0.12870
# Poissons Ratio (y) = 0.38622 0.13276
# Poissons Ratio (z) = -0.22029 0.38118
#
# Static dielectric constant tensor:
#      x y z
#    x 3.567610 0.000000 0.005810 
#    y 0.000000 3.577650 0.000000 
#    z 0.005810 0.000000 3.227520 
# 
# 
# High freq. dielectric constant tensor:
#      x y z
#    x 1.771780 0.000000 -0.003300 
#    y 0.000000 1.777330 0.000000 
#    z -0.003300 0.000000 1.723820 
# 
# From -- ./inp_files/151967.got.cif
#   From: 2010.06.25/outbox.cif.g09.slc.cpg/sg12_76_cif.got.tgz:151967.got - 2010.06.28 00:19:55.
