data_PCOD8091500
_publ_section_title
;
Structure prediction by ZEFSAII (Michael W. Deem and Ramdas Pophale) SiO2 
 PCOD8091500
Probable space group: C 2/M
;
_chemical_formula_sum "Si O2"
_cell_formula_units_Z 56
_cell_length_a 26.028326
_cell_length_b 13.584363
_cell_length_c 10.136821
_cell_angle_alpha 90.000000
_cell_angle_beta 119.875238
_cell_angle_gamma 90.000000
_cell_volume 3107.867835
_symmetry_space_group_name_H-M "C 2/M"
_symmetry_group_IT_number 12
_symmetry_cell_setting 'monoclinic'
loop_
_space_group_symop_operation_xyz
x,y,z
-x,y,-z
-x,-y,-z
x,-y,z
1/2+x,1/2+y,z
1/2-x,1/2+y,-z
1/2-x,1/2-y,-z
1/2+x,1/2-y,z
loop_
_atom_site_type_symbol
_atom_site_label
_atom_site_fract_x
_atom_site_fract_y
_atom_site_fract_z
Si Si1 0.181607 0.226813 0.898282
Si Si2 0.887306 0.884166 0.970931
Si Si3 0.375527 0.709820 0.675751
Si Si4 0.192407 0.885157 0.650262
Si Si5 0.006718 0.746306 0.859015
Si Si6 0.602191 0.112097 0.892159
Si Si7 0.674117 0.111148 0.249611
O O1 0.162510 0.160105 0.997354
O O2 0.167392 0.170346 0.745491
O O3 0.144636 0.328718 0.846744
O O4 0.250000 0.250000 0.000000
O O5 0.951803 0.842805 0.092427
O O6 0.888884 0.000000 0.988463
O O7 0.870838 0.854880 0.801446
O O8 0.342489 0.650397 0.521554
O O9 0.443291 0.726405 0.716939
O O10 0.344294 0.815714 0.656681
O O11 0.261551 0.860956 0.722890
O O12 0.181313 0.000000 0.657020
O O13 0.036432 0.659031 0.810939
O O14 0.000000 0.708150 0.000000
O O15 0.599024 0.000000 0.839643
O O16 0.627603 0.123045 0.072047
O O17 0.673574 0.000000 0.305332
#
# Coordination Sequence:
#
# PCOD8091500 Si02
#       7
#     8   8   8   8   8   8   8
#     4  11  20  37  56  81 109 145 187 232 275 329
#     4  10  20  34  54  78 108 145 192 235 270 318
#     4  11  20  37  55  83 114 150 183 226 282 330
#     4  11  23  36  56  84 117 149 181 225 283 338
#     4   9  18  33  53  81 111 144 189 230 272 320
#     4  10  19  34  57  84 109 140 185 235 281 322
#     4  10  19  34  56  83 113 143 181 230 280 329
#
# _framework density 18.018782999999999
#
# number of rings (size 3 to 8) (size 9 to 14) (size 15 to 20)
#    0.000    1.714    5.714    1.286    0.000    4.571 
#    0.000    3.571    0.000    5.143    0.000    0.000 
#    0.000    0.000    0.000    0.000    0.000    0.000 
#
# Total GULP energy -347266.985113 kJ/mol
# GULP energy per Si atom -12402.392325 kJ/mol
# Density = 1.797777 g / cm^3
# Si number density = 18.018783 Si / 1000 Ang^3
#
#
#
# Elastic Constant Matrix: (Units=GPa)
#
#
# Indices 1 2 3 4 5 6 
#
# 1 124.1231 72.0537 29.7763 0.0000 -6.0443 0.0000
# 2 72.0537 152.8589 36.8232 0.0000 -7.2791 0.0000
# 3 29.7763 36.8232 58.8213 0.0000 -8.0057 0.0000
# 4 0.0000 0.0000 0.0000 26.5792 0.0000 -4.2523
# 5 -6.0443 -7.2791 -8.0057 0.0000 16.1551 0.0000
# 6 0.0000 0.0000 0.0000 -4.2523 0.0000 21.6056
#
#
#
# Elastic Compliance Matrix: (Units=1/GPa)
#
#
# Indices 1 2 3 4 5 6 
#
# 1 0.011495 -0.004716 -0.002756 0.000000 0.000810 0.000000
# 2 -0.004716 0.009659 -0.003546 0.000000 0.000830 0.000000
# 3 -0.002756 -0.003546 0.021723 0.000000 0.008136 0.000000
# 4 0.000000 0.000000 0.000000 0.038847 0.000000 0.007646
# 5 0.000810 0.000830 0.008136 0.000000 0.066609 0.000000
# 6 0.000000 0.000000 0.000000 0.007646 0.000000 0.047789
#
#
# Mechanical properties :
#
#
# Convention : Reuss Voigt Hill
#
# Bulk Modulus (GPa) = 47.98526 68.12331 58.05429
# Shear Modulus (GPa) = 22.21191 26.01134 24.11163
#
# Velocity S-wave (km/s) = 3.51480 3.80355 3.66203
# Velocity P-wave (km/s) = 6.56965 7.56163 7.08303
#
# Compressibility (1/GPa) = 0.02083973
#
# Stress axis : x y z
#
# Youngs Moduli (GPa) = 86.99668 103.53380 46.03336
#
# Poissons Ratio (x) = 0.48824 0.12689
# Poissons Ratio (y) = 0.41025 0.16325
# Poissons Ratio (z) = 0.23980 0.36717
#
# Static dielectric constant tensor:
#      x y z
#    x 3.594790 0.000000 0.057090 
#    y 0.000000 3.498870 0.000000 
#    z 0.057090 0.000000 3.025450 
# 
# 
# High freq. dielectric constant tensor:
#      x y z
#    x 1.709840 0.000000 0.007000 
#    y 0.000000 1.708340 0.000000 
#    z 0.007000 0.000000 1.663670 
# 
# From -- ./inp_files/96489.got.cif
#   From: 2010.06.25/outbox.cif.g09.slc.cpg/sg12_49_cif.got.tgz:96489.got - 2010.06.28 00:19:55.
