data_PCOD8091293
_publ_section_title
;
Structure prediction by ZEFSAII (Michael W. Deem and Ramdas Pophale) SiO2 
 PCOD8091293
Probable space group: C 2/M
;
_chemical_formula_sum "Si O2"
_cell_formula_units_Z 56
_cell_length_a 16.990308
_cell_length_b 22.165120
_cell_length_c 14.385070
_cell_angle_alpha 90.000000
_cell_angle_beta 32.203370
_cell_angle_gamma 90.000000
_cell_volume 2887.023139
_symmetry_space_group_name_H-M "C 2/M"
_symmetry_group_IT_number 12
_symmetry_cell_setting 'monoclinic'
loop_
_space_group_symop_operation_xyz
x,y,z
-x,y,-z
-x,-y,-z
x,-y,z
1/2+x,1/2+y,z
1/2-x,1/2+y,-z
1/2-x,1/2-y,-z
1/2+x,1/2-y,z
loop_
_atom_site_type_symbol
_atom_site_label
_atom_site_fract_x
_atom_site_fract_y
_atom_site_fract_z
Si Si1 0.977803 0.747660 0.781863
Si Si2 0.415582 0.165958 0.488738
Si Si3 0.957938 0.430040 0.765250
Si Si4 0.173791 0.155632 0.321936
Si Si5 0.729766 0.654258 0.062394
Si Si6 0.387586 0.069608 0.192654
Si Si7 0.856402 0.768000 0.204004
O O1 0.923061 0.817207 0.823934
O O2 0.036199 0.721512 0.625975
O O3 0.104884 0.744531 0.731900
O O4 0.845087 0.708490 0.954211
O O5 0.500000 0.171146 0.500000
O O6 0.445878 0.101341 0.411119
O O7 0.241449 0.171565 0.685551
O O8 0.940132 0.500000 0.759178
O O9 0.039646 0.417993 0.780771
O O10 0.794877 0.399397 0.932593
O O11 0.207159 0.127747 0.187499
O O12 0.236493 0.107898 0.334774
O O13 0.255381 0.219193 0.252953
O O14 0.000000 0.165497 0.500000
O O15 0.346268 0.000000 0.220846
O O16 0.500000 0.091600 0.000000
O O17 0.000000 0.783960 0.000000
#
# Coordination Sequence:
#
# PCOD8091293 Si02
#       7
#     8   8   8   8   8   8   8
#     4  10  21  36  58  85 123 154 195 244 295 359
#     4  11  24  40  61  89 120 155 202 248 299 347
#     4  10  22  40  65  87 114 156 208 253 294 353
#     4  12  22  34  56  92 129 159 194 240 294 361
#     4  10  19  34  55  86 120 154 194 242 295 348
#     4  10  20  38  62  87 118 158 202 244 294 358
#     4  12  23  37  61  89 125 160 195 237 304 368
#
# _framework density 19.397144000000001
#
# number of rings (size 3 to 8) (size 9 to 14) (size 15 to 20)
#    0.000    1.286    2.857    4.714    4.000    1.714 
#    0.000    0.000    0.000    1.286    0.000    0.000 
#    0.000    0.000    0.000    0.000    0.000    0.000 
#
# Total GULP energy -347190.082247 kJ/mol
# GULP energy per Si atom -12399.645795 kJ/mol
# Density = 1.935299 g / cm^3
# Si number density = 19.397144 Si / 1000 Ang^3
#
#
#
# Elastic Constant Matrix: (Units=GPa)
#
#
# Indices 1 2 3 4 5 6 
#
# 1 93.0712 30.6579 52.8236 -0.0038 6.8909 -0.0031
# 2 30.6579 109.9194 58.3435 -0.0013 -3.3120 -0.0003
# 3 52.8236 58.3435 123.2658 -0.0078 -1.0671 0.0060
# 4 -0.0038 -0.0013 -0.0078 28.5288 0.0057 0.2849
# 5 6.8909 -3.3120 -1.0671 0.0057 32.8961 -0.0018
# 6 -0.0031 -0.0003 0.0060 0.2849 -0.0018 18.8637
#
#
#
# Elastic Compliance Matrix: (Units=1/GPa)
#
#
# Indices 1 2 3 4 5 6 
#
# 1 0.014639 -0.001121 -0.005772 0.000001 -0.003367 0.000004
# 2 -0.001121 0.012271 -0.005317 -0.000001 0.001298 0.000002
# 3 -0.005772 -0.005317 0.013112 0.000002 0.001099 -0.000005
# 4 0.000001 -0.000001 0.000002 0.035058 -0.000006 -0.000530
# 5 -0.003367 0.001298 0.001099 -0.000006 0.031270 0.000002
# 6 0.000004 0.000002 -0.000005 -0.000530 0.000002 0.053020
#
#
# Mechanical properties :
#
#
# Convention : Reuss Voigt Hill
#
# Bulk Modulus (GPa) = 64.08849 67.76738 65.92793
# Shear Modulus (GPa) = 26.45651 28.35315 27.40483
#
# Velocity S-wave (km/s) = 3.69716 3.82739 3.76284
# Velocity P-wave (km/s) = 7.16500 7.38543 7.27605
#
# Compressibility (1/GPa) = 0.01560343
#
# Stress axis : x y z
#
# Youngs Moduli (GPa) = 68.31163 81.49112 76.26610
#
# Poissons Ratio (x) = 0.09133 0.44020
# Poissons Ratio (y) = 0.07656 0.40548
# Poissons Ratio (z) = 0.39429 0.43326
#
# Static dielectric constant tensor:
#      x y z
#    x 3.613800 -0.000020 0.015140 
#    y -0.000020 3.442300 0.000030 
#    z 0.015140 0.000030 3.677850 
# 
# 
# High freq. dielectric constant tensor:
#      x y z
#    x 1.758820 0.000000 0.005760 
#    y 0.000000 1.729450 0.000000 
#    z 0.005760 0.000000 1.754630 
# 
# From -- ./inp_files/77617.got.cif
#   From: 2010.06.25/outbox.cif.g09.slc.cpg/sg12_39_cif.got.tgz:77617.got - 2010.06.28 00:19:55.
