data_PCOD8091280
_publ_section_title
;
Structure prediction by ZEFSAII (Michael W. Deem and Ramdas Pophale) SiO2 
 PCOD8091280
Probable space group: C 2/M
;
_chemical_formula_sum "Si O2"
_cell_formula_units_Z 64
_cell_length_a 28.780103
_cell_length_b 8.872104
_cell_length_c 15.251473
_cell_angle_alpha 90.000000
_cell_angle_beta 126.207676
_cell_angle_gamma 90.000000
_cell_volume 3142.247175
_symmetry_space_group_name_H-M "C 2/M"
_symmetry_group_IT_number 12
_symmetry_cell_setting 'monoclinic'
loop_
_space_group_symop_operation_xyz
x,y,z
-x,y,-z
-x,-y,-z
x,-y,z
1/2+x,1/2+y,z
1/2-x,1/2+y,-z
1/2-x,1/2-y,-z
1/2+x,1/2-y,z
loop_
_atom_site_type_symbol
_atom_site_label
_atom_site_fract_x
_atom_site_fract_y
_atom_site_fract_z
Si Si1 0.827801 0.678189 0.815729
Si Si2 0.931307 0.176214 0.175428
Si Si3 0.213464 0.320751 0.744322
Si Si4 0.953404 0.678053 0.019851
Si Si5 0.005847 0.677414 0.405009
Si Si6 0.369898 0.823507 0.499604
Si Si7 0.192554 0.822704 0.897796
Si Si8 0.806629 0.324330 0.597925
O O1 0.818691 0.500000 0.813150
O O2 0.778943 0.761065 0.817395
O O3 0.824313 0.737620 0.712167
O O4 0.890167 0.727280 0.918632
O O5 0.962446 0.250582 0.125913
O O6 0.862592 0.210907 0.101549
O O7 0.957741 0.239926 0.294502
O O8 0.943111 0.000000 0.184094
O O9 0.214707 0.500000 0.753089
O O10 0.179794 0.260434 0.620552
O O11 0.180044 0.252061 0.789773
O O12 0.959983 0.500000 0.037149
O O13 0.000000 0.737074 0.000000
O O14 0.000491 0.500000 0.380490
O O15 0.067863 0.746198 0.448711
O O16 0.000000 0.715938 0.500000
O O17 0.356969 0.784587 0.585922
O O18 0.372706 0.000000 0.484282
O O19 0.202388 0.000000 0.897684
O O20 0.250000 0.750000 0.000000
O O21 0.794837 0.500000 0.589147
O O22 0.750000 0.250000 0.500000
#
# Coordination Sequence:
#
# PCOD8091280 Si02
#       8
#     8   8   8   8   8   8   8   8
#     4  10  21  36  58  87 120 156 202 253 302 354
#     4  11  25  43  62  90 126 161 196 249 311 363
#     4  11  21  36  60  89 120 155 193 239 297 357
#     4  10  23  42  65  89 115 159 212 257 299 352
#     4  10  21  39  65  92 120 159 205 250 294 353
#     4   9  19  34  56  85 117 152 196 243 289 346
#     4  11  24  41  62  88 119 153 194 242 296 355
#     4  10  19  34  55  83 119 156 196 246 298 352
#
# _framework density 20.367588000000001
#
# number of rings (size 3 to 8) (size 9 to 14) (size 15 to 20)
#    0.000    1.750    1.250    2.625    1.750    6.000 
#    0.000    1.875    0.000    0.000    0.000    0.000 
#    0.000    0.000    0.000    0.000    0.000    0.000 
#
# Total GULP energy -396826.198360 kJ/mol
# GULP energy per Si atom -12400.818699 kJ/mol
# Density = 2.032123 g / cm^3
# Si number density = 20.367588 Si / 1000 Ang^3
#
#
#
# Elastic Constant Matrix: (Units=GPa)
#
#
# Indices 1 2 3 4 5 6 
#
# 1 130.6214 39.4813 37.7470 0.0000 0.0234 0.0000
# 2 39.4813 51.6333 31.9037 0.0000 -0.5870 0.0000
# 3 37.7470 31.9037 101.7404 0.0000 -2.2202 0.0000
# 4 0.0000 0.0000 0.0000 30.1874 0.0000 -0.5519
# 5 0.0234 -0.5870 -2.2202 0.0000 39.7785 0.0000
# 6 0.0000 0.0000 0.0000 -0.5519 0.0000 28.5600
#
#
#
# Elastic Compliance Matrix: (Units=1/GPa)
#
#
# Indices 1 2 3 4 5 6 
#
# 1 0.010179 -0.006759 -0.001661 0.000000 -0.000198 0.000000
# 2 -0.006759 0.028510 -0.006431 0.000000 0.000066 0.000000
# 3 -0.001661 -0.006431 0.012475 0.000000 0.000602 0.000000
# 4 0.000000 0.000000 0.000000 0.033138 0.000000 0.000640
# 5 -0.000198 0.000066 0.000602 0.000000 0.025174 0.000000
# 6 0.000000 0.000000 0.000000 0.000640 0.000000 0.035026
#
#
# Mechanical properties :
#
#
# Convention : Reuss Voigt Hill
#
# Bulk Modulus (GPa) = 46.59561 55.80657 51.20109
# Shear Modulus (GPa) = 27.56968 31.36272 29.46620
#
# Velocity S-wave (km/s) = 3.68313 3.92833 3.80770
# Velocity P-wave (km/s) = 6.40424 6.93072 6.67267
#
# Compressibility (1/GPa) = 0.02146125
#
# Stress axis : x y z
#
# Youngs Moduli (GPa) = 98.24362 35.07541 80.15969
#
# Poissons Ratio (x) = 0.23707 0.13317
# Poissons Ratio (y) = 0.66402 0.51551
# Poissons Ratio (z) = 0.16322 0.22557
#
# Static dielectric constant tensor:
#      x y z
#    x 3.839830 0.000000 -0.068890 
#    y 0.000000 3.610080 0.000000 
#    z -0.068890 0.000000 3.809700 
# 
# 
# High freq. dielectric constant tensor:
#      x y z
#    x 1.811020 0.000000 -0.005420 
#    y 0.000000 1.774010 0.000000 
#    z -0.005420 0.000000 1.805170 
# 
# From -- ./inp_files/250121.got.cif
#   From: 2010.06.25/outbox.cif.g09.slc.cpg/sg12_126_cif.got.tgz:250121.got - 2010.06.28 00:19:55.
