data_PCOD8091121
_publ_section_title
;
Structure prediction by ZEFSAII (Michael W. Deem and Ramdas Pophale) SiO2 
 PCOD8091121
Probable space group: C 2/M
;
_chemical_formula_sum "Si O2"
_cell_formula_units_Z 64
_cell_length_a 14.204701
_cell_length_b 8.923782
_cell_length_c 31.660475
_cell_angle_alpha 90.000000
_cell_angle_beta 63.343482
_cell_angle_gamma 90.000000
_cell_volume 3586.708841
_symmetry_space_group_name_H-M "C 2/M"
_symmetry_group_IT_number 12
_symmetry_cell_setting 'monoclinic'
loop_
_space_group_symop_operation_xyz
x,y,z
-x,y,-z
-x,-y,-z
x,-y,z
1/2+x,1/2+y,z
1/2-x,1/2+y,-z
1/2-x,1/2-y,-z
1/2+x,1/2-y,z
loop_
_atom_site_type_symbol
_atom_site_label
_atom_site_fract_x
_atom_site_fract_y
_atom_site_fract_z
Si Si1 0.425576 0.677358 0.074428
Si Si2 0.149280 0.822666 0.000000
Si Si3 0.896401 0.823785 0.752447
Si Si4 0.826499 0.170271 0.673486
Si Si5 0.681450 0.679150 0.818546
Si Si6 0.425700 0.823456 0.574304
Si Si7 0.850728 0.677302 0.500000
Si Si8 0.598712 0.823767 0.752450
O O1 0.425219 0.500000 0.074797
O O2 0.546404 0.732480 0.046622
O O3 0.372339 0.738126 0.127667
O O4 0.360345 0.732460 0.046626
O O5 0.160218 0.000000 0.000004
O O6 0.250000 0.750000 0.000000
O O7 0.888776 0.794794 0.703998
O O8 0.798844 0.744937 0.795149
O O9 0.003117 0.749890 0.746854
O O10 0.893881 0.000000 0.763307
O O11 0.872115 0.272466 0.627896
O O12 0.703223 0.205359 0.704007
O O13 0.843675 0.000000 0.656245
O O14 0.685856 0.500000 0.814189
O O15 0.610792 0.744805 0.795157
O O16 0.546364 0.767227 0.546597
O O17 0.360437 0.767239 0.546601
O O18 0.426430 0.000000 0.573580
O O19 0.839496 0.500000 0.499998
O O20 0.750000 0.750000 0.500000
O O21 0.579675 0.000000 0.763307
#
# Coordination Sequence:
#
# PCOD8091121 Si02
#       8
#     8   8   8   8   8   8   8   8
#     4   8  17  33  52  72 100 135 167 201 250 306
#     4   9  17  33  52  72 100 133 167 205 248 298
#     4  10  21  37  54  76 105 137 172 213 257 307
#     4   9  20  36  53  75 103 131 168 212 253 299
#     4  10  19  34  55  78 103 135 172 213 259 305
#     4   9  19  35  53  73 102 135 167 202 249 302
#     4   9  19  35  52  74 102 133 167 205 246 296
#     4  10  21  37  54  76 105 137 172 213 257 307
#
# _framework density 17.843655999999999
#
# number of rings (size 3 to 8) (size 9 to 14) (size 15 to 20)
#    0.000    2.750    0.000    3.375    0.000    6.000 
#    0.000   12.500    0.000    0.000    0.000    0.000 
#    0.000    0.000    0.000    0.000    0.000    0.000 
#
# Total GULP energy -396728.412613 kJ/mol
# GULP energy per Si atom -12397.762894 kJ/mol
# Density = 1.780304 g / cm^3
# Si number density = 17.843656 Si / 1000 Ang^3
#
#
#
# Elastic Constant Matrix: (Units=GPa)
#
#
# Indices 1 2 3 4 5 6 
#
# 1 179.0041 54.3423 73.6060 0.0000 -0.2041 0.0000
# 2 54.3423 66.1580 45.2627 0.0000 -0.1649 0.0000
# 3 73.6060 45.2627 142.1103 0.0000 -0.0769 0.0000
# 4 0.0000 0.0000 0.0000 25.3212 0.0000 -0.0001
# 5 -0.2041 -0.1649 -0.0769 0.0000 11.6691 0.0000
# 6 0.0000 0.0000 0.0000 -0.0001 0.0000 36.7781
#
#
#
# Elastic Compliance Matrix: (Units=1/GPa)
#
#
# Indices 1 2 3 4 5 6 
#
# 1 0.008168 -0.004878 -0.002677 0.000000 0.000056 0.000000
# 2 -0.004878 0.022240 -0.004557 0.000000 0.000199 0.000000
# 3 -0.002677 -0.004557 0.009875 0.000000 -0.000046 0.000000
# 4 0.000000 0.000000 0.000000 0.039493 0.000000 0.000000
# 5 0.000056 0.000199 -0.000046 0.000000 0.085700 0.000000
# 6 0.000000 0.000000 0.000000 0.000000 0.000000 0.027190
#
#
# Mechanical properties :
#
#
# Convention : Reuss Voigt Hill
#
# Bulk Modulus (GPa) = 62.26878 81.52162 71.89520
# Shear Modulus (GPa) = 22.49796 29.02443 25.76120
#
# Velocity S-wave (km/s) = 3.55468 4.03748 3.80375
# Velocity P-wave (km/s) = 7.19863 8.21711 7.72467
#
# Compressibility (1/GPa) = 0.01605941
#
# Stress axis : x y z
#
# Youngs Moduli (GPa) = 122.42774 44.96395 101.26767
#
# Poissons Ratio (x) = 0.21931 0.27110
# Poissons Ratio (y) = 0.59715 0.46149
# Poissons Ratio (z) = 0.32775 0.20491
#
# Static dielectric constant tensor:
#      x y z
#    x 3.597040 0.000000 0.000140 
#    y 0.000000 3.172970 0.000000 
#    z 0.000140 0.000000 3.550060 
# 
# 
# High freq. dielectric constant tensor:
#      x y z
#    x 1.697980 0.000000 0.000000 
#    y 0.000000 1.682000 0.000000 
#    z 0.000000 0.000000 1.694630 
# 
# From -- ./inp_files/375006.got.cif
#   From: 2010.06.25/outbox.cif.g09.slc.cpg/sg12_188_cif.got.tgz:375006.got - 2010.06.28 00:19:55.
