data_PCOD8091046
_publ_section_title
;
Structure prediction by ZEFSAII (Michael W. Deem and Ramdas Pophale) SiO2 
 PCOD8091046
Probable space group: C 2/M
;
_chemical_formula_sum "Si O2"
_cell_formula_units_Z 60
_cell_length_a 17.478133
_cell_length_b 12.127697
_cell_length_c 22.142001
_cell_angle_alpha 90.000000
_cell_angle_beta 44.044036
_cell_angle_gamma 90.000000
_cell_volume 3262.923547
_symmetry_space_group_name_H-M "C 2/M"
_symmetry_group_IT_number 12
_symmetry_cell_setting 'monoclinic'
loop_
_space_group_symop_operation_xyz
x,y,z
-x,y,-z
-x,-y,-z
x,-y,z
1/2+x,1/2+y,z
1/2-x,1/2+y,-z
1/2-x,1/2-y,-z
1/2+x,1/2-y,z
loop_
_atom_site_type_symbol
_atom_site_label
_atom_site_fract_x
_atom_site_fract_y
_atom_site_fract_z
Si Si1 0.971601 0.270857 0.451429
Si Si2 0.500000 0.273080 0.000000
Si Si3 0.296612 0.129945 0.140516
Si Si4 0.172122 0.122716 0.323918
Si Si5 0.844687 0.257796 0.867669
Si Si6 0.019223 0.372285 0.680928
Si Si7 0.134907 0.874062 0.028095
Si Si8 0.262052 0.625697 0.582641
O O1 0.999033 0.351445 0.380205
O O2 0.850106 0.218470 0.512620
O O3 0.000000 0.331476 0.500000
O O4 0.052886 0.168408 0.405306
O O5 0.589080 0.192065 0.921571
O O6 0.450792 0.351626 0.976668
O O7 0.233311 0.181570 0.234071
O O8 0.225541 0.158866 0.122029
O O9 0.318829 0.000000 0.130968
O O10 0.249260 0.128137 0.338752
O O11 0.150055 0.000000 0.314436
O O12 0.898093 0.205880 0.897528
O O13 0.937980 0.301684 0.769204
O O14 0.760172 0.354562 0.934218
O O15 0.997443 0.500000 0.707182
O O16 0.144406 0.338102 0.623617
O O17 0.123720 0.000000 0.055092
O O18 0.293012 0.500000 0.543830
#
# Coordination Sequence:
#
# PCOD8091046 Si02
#       8
#     8   4   8   8   8   8   8   8
#     4  10  19  35  57  79 108 144 183 226 274 331
#     4  10  22  34  56  84 116 146 178 220 282 334
#     4  10  19  34  54  82 112 140 181 230 274 320
#     4   9  17  31  54  80 106 137 178 226 275 322
#     4  10  21  37  58  81 109 149 189 230 273 324
#     4  11  22  36  54  81 113 148 185 226 279 333
#     4  10  21  39  59  81 112 150 188 225 273 333
#     4   9  19  33  53  79 107 139 178 226 279 330
#
# _framework density 18.388417
#
# number of rings (size 3 to 8) (size 9 to 14) (size 15 to 20)
#    0.000    2.133    1.333    2.000    1.867    1.867 
#    0.000    1.333    0.000    0.800    0.000    0.000 
#    0.000    0.000    0.000    0.000    0.000    0.000 
#
# Total GULP energy -371873.451126 kJ/mol
# GULP energy per Si atom -12395.781704 kJ/mol
# Density = 1.834656 g / cm^3
# Si number density = 18.388417 Si / 1000 Ang^3
#
#
#
# Elastic Constant Matrix: (Units=GPa)
#
#
# Indices 1 2 3 4 5 6 
#
# 1 109.3494 34.9652 43.6553 0.0000 2.8462 0.0000
# 2 34.9652 71.9143 31.8928 0.0000 -1.9139 0.0000
# 3 43.6553 31.8928 104.6381 0.0000 5.8136 0.0000
# 4 0.0000 0.0000 0.0000 22.0849 0.0000 5.3558
# 5 2.8462 -1.9139 5.8136 0.0000 29.1899 0.0000
# 6 0.0000 0.0000 0.0000 5.3558 0.0000 17.2197
#
#
#
# Elastic Compliance Matrix: (Units=1/GPa)
#
#
# Indices 1 2 3 4 5 6 
#
# 1 0.011977 -0.004213 -0.003673 0.000000 -0.000713 0.000000
# 2 -0.004213 0.017684 -0.003761 0.000000 0.002319 0.000000
# 3 -0.003673 -0.003761 0.012366 0.000000 -0.002351 0.000000
# 4 0.000000 0.000000 0.000000 0.048974 0.000000 -0.015232
# 5 -0.000713 0.002319 -0.002351 0.000000 0.034948 0.000000
# 6 0.000000 0.000000 0.000000 -0.015232 0.000000 0.062811
#
#
# Mechanical properties :
#
#
# Convention : Reuss Voigt Hill
#
# Bulk Modulus (GPa) = 53.38397 56.32536 54.85466
# Shear Modulus (GPa) = 22.90444 25.39147 24.14795
#
# Velocity S-wave (km/s) = 3.53312 3.72000 3.62776
# Velocity P-wave (km/s) = 6.76301 7.01060 6.88792
#
# Compressibility (1/GPa) = 0.01873222
#
# Stress axis : x y z
#
# Youngs Moduli (GPa) = 83.49190 56.54953 80.86633
#
# Poissons Ratio (x) = 0.23826 0.29703
# Poissons Ratio (y) = 0.35178 0.30412
# Poissons Ratio (z) = 0.30668 0.21267
#
# Static dielectric constant tensor:
#      x y z
#    x 3.521120 0.000000 0.180120 
#    y 0.000000 3.124300 0.000000 
#    z 0.180120 0.000000 3.504880 
# 
# 
# High freq. dielectric constant tensor:
#      x y z
#    x 1.721850 0.000000 0.007170 
#    y 0.000000 1.696220 0.000000 
#    z 0.007170 0.000000 1.716390 
# 
# From -- ./inp_files/343365.got.cif
#   From: 2010.06.25/outbox.cif.g09.slc.cpg/sg12_172_cif.got.tgz:343365.got - 2010.06.28 00:19:55.
