data_PCOD8091444
_publ_section_title
;
Structure prediction by ZEFSAII (Michael W. Deem and Ramdas Pophale) SiO2 
 PCOD8091444
Probable space group: C 2/M
;
_chemical_formula_sum "Si O2"
_cell_formula_units_Z 40
_cell_length_a 17.979775
_cell_length_b 13.399100
_cell_length_c 10.044897
_cell_angle_alpha 90.000000
_cell_angle_beta 120.297439
_cell_angle_gamma 90.000000
_cell_volume 2089.423707
_symmetry_space_group_name_H-M "C 2/M"
_symmetry_group_IT_number 12
_symmetry_cell_setting 'monoclinic'
loop_
_space_group_symop_operation_xyz
x,y,z
-x,y,-z
-x,-y,-z
x,-y,z
1/2+x,1/2+y,z
1/2-x,1/2+y,-z
1/2-x,1/2-y,-z
1/2+x,1/2-y,z
loop_
_atom_site_type_symbol
_atom_site_label
_atom_site_fract_x
_atom_site_fract_y
_atom_site_fract_z
Si Si1 0.244343 0.188047 0.197132
Si Si2 0.207792 0.889025 0.873421
Si Si3 0.926593 0.117662 0.829638
Si Si4 0.420028 0.108559 0.331626
Si Si5 0.526666 0.687574 0.678155
O O1 0.251129 0.308081 0.189472
O O2 0.164726 0.166828 0.220377
O O3 0.333619 0.141545 0.335611
O O4 0.235014 0.134140 0.047592
O O5 0.104223 0.888754 0.772646
O O6 0.239619 0.000000 0.862450
O O7 0.948360 0.154522 0.700908
O O8 0.915663 0.000000 0.824160
O O9 0.000000 0.152844 0.000000
O O10 0.500000 0.097287 0.500000
O O11 0.441246 0.200252 0.250073
O O12 0.406435 0.000000 0.248348
O O13 0.500000 0.685420 0.500000
#
# Coordination Sequence:
#
# PCOD8091444 Si02
#       5
#     8   8   8   8   8
#     4  10  20  34  56  83 110 143 189 231 268 330
#     4  10  19  34  56  81 111 146 183 227 280 329
#     4  11  21  35  56  83 114 146 184 230 278 329
#     4   9  18  35  57  80 109 149 190 225 271 330
#     4  10  21  36  56  84 116 147 183 230 280 330
#
# _framework density 19.144034000000001
#
# number of rings (size 3 to 8) (size 9 to 14) (size 15 to 20)
#    0.000    2.000    2.000    2.400    0.000    1.600 
#    0.000   10.000    0.000    6.000    0.000    0.000 
#    0.000    0.000    0.000    0.000    0.000    0.000 
#
# Total GULP energy -247860.296165 kJ/mol
# GULP energy per Si atom -12393.014808 kJ/mol
# Density = 1.910046 g / cm^3
# Si number density = 19.144034 Si / 1000 Ang^3
#
#
#
# Elastic Constant Matrix: (Units=GPa)
#
#
# Indices 1 2 3 4 5 6 
#
# 1 160.2940 53.6193 46.9753 0.0000 6.8440 0.0000
# 2 53.6193 152.5355 29.7934 0.0000 2.4154 0.0000
# 3 46.9753 29.7934 62.0402 0.0000 4.3574 0.0000
# 4 0.0000 0.0000 0.0000 38.7440 0.0000 16.8773
# 5 6.8440 2.4154 4.3574 0.0000 30.3895 0.0000
# 6 0.0000 0.0000 0.0000 16.8773 0.0000 32.3586
#
#
#
# Elastic Compliance Matrix: (Units=1/GPa)
#
#
# Indices 1 2 3 4 5 6 
#
# 1 0.008522 -0.001913 -0.005465 0.000000 -0.000984 0.000000
# 2 -0.001913 0.007664 -0.002242 0.000000 0.000143 0.000000
# 3 -0.005465 -0.002242 0.021450 0.000000 -0.001667 0.000000
# 4 0.000000 0.000000 0.000000 0.033399 0.000000 -0.017420
# 5 -0.000984 0.000143 -0.001667 0.000000 0.033355 0.000000
# 6 0.000000 0.000000 0.000000 -0.017420 0.000000 0.039989
#
#
# Mechanical properties :
#
#
# Convention : Reuss Voigt Hill
#
# Bulk Modulus (GPa) = 54.35843 70.62730 62.49286
# Shear Modulus (GPa) = 29.45487 36.59721 33.02604
#
# Velocity S-wave (km/s) = 3.92674 4.37702 4.15798
# Velocity P-wave (km/s) = 7.00108 7.90677 7.46767
#
# Compressibility (1/GPa) = 0.01839641
#
# Stress axis : x y z
#
# Youngs Moduli (GPa) = 117.34532 130.48245 46.61925
#
# Poissons Ratio (x) = 0.24956 0.25477
# Poissons Ratio (y) = 0.22444 0.10453
# Poissons Ratio (z) = 0.64129 0.29258
#
# Static dielectric constant tensor:
#      x y z
#    x 3.650470 0.000000 0.468250 
#    y 0.000000 4.083580 0.000000 
#    z 0.468250 0.000000 3.404370 
# 
# 
# High freq. dielectric constant tensor:
#      x y z
#    x 1.730580 0.000000 0.038210 
#    y 0.000000 1.764250 0.000000 
#    z 0.038210 0.000000 1.719070 
# 
# From -- ./inp_files/73337.got.cif
#   From: 2010.06.25/outbox.cif.g09.slc.cpg/sg12_37_cif.got.tgz:73337.got - 2010.06.28 00:19:55.
