data_PCOD8091463
_publ_section_title
;
Structure prediction by ZEFSAII (Michael W. Deem and Ramdas Pophale) SiO2 
 PCOD8091463
Probable space group: C 2/M
;
_chemical_formula_sum "Si O2"
_cell_formula_units_Z 56
_cell_length_a 22.796317
_cell_length_b 8.712047
_cell_length_c 16.194557
_cell_angle_alpha 90.000000
_cell_angle_beta 118.717808
_cell_angle_gamma 90.000000
_cell_volume 2820.668250
_symmetry_space_group_name_H-M "C 2/M"
_symmetry_group_IT_number 12
_symmetry_cell_setting 'monoclinic'
loop_
_space_group_symop_operation_xyz
x,y,z
-x,y,-z
-x,-y,-z
x,-y,z
1/2+x,1/2+y,z
1/2-x,1/2+y,-z
1/2-x,1/2-y,-z
1/2+x,1/2-y,z
loop_
_atom_site_type_symbol
_atom_site_label
_atom_site_fract_x
_atom_site_fract_y
_atom_site_fract_z
Si Si1 0.829745 0.320334 0.233443
Si Si2 0.807710 0.320923 0.856645
Si Si3 0.839308 0.319373 0.426550
Si Si4 0.200966 0.679190 0.339358
Si Si5 0.556227 0.182458 0.976401
Si Si6 0.459722 0.818857 0.221948
Si Si7 0.409580 0.679826 0.620549
O O1 0.819388 0.500000 0.229368
O O2 0.760477 0.250074 0.153828
O O3 0.846807 0.261684 0.337357
O O4 0.888209 0.271951 0.211012
O O5 0.802857 0.500000 0.868873
O O6 0.817500 0.281386 0.767191
O O7 0.871318 0.251313 0.948350
O O8 0.850986 0.500000 0.444107
O O9 0.765841 0.275572 0.411055
O O10 0.894935 0.229430 0.516640
O O11 0.216446 0.500000 0.361989
O O12 0.138260 0.725615 0.351530
O O13 0.538932 0.233857 0.872158
O O14 0.557900 0.000000 0.984592
O O15 0.500000 0.249703 0.000000
O O16 0.514564 0.723929 0.308674
O O17 0.473382 0.000000 0.240848
O O18 0.398133 0.500000 0.624871
#
# Coordination Sequence:
#
# PCOD8091463 Si02
#       7
#     8   8   8   8   8   8   8
#     4   9  20  37  56  79 107 141 180 222 267 317
#     4   9  18  33  57  84 109 142 180 219 262 313
#     4  10  20  36  56  78 107 142 180 221 268 321
#     4  10  19  34  56  82 111 142 178 219 266 319
#     4   9  17  32  56  84 110 139 178 219 261 314
#     4  10  21  38  57  77 106 144 184 222 263 316
#     4  12  24  36  52  78 109 141 180 225 275 321
#
# _framework density 19.853452999999998
#
# number of rings (size 3 to 8) (size 9 to 14) (size 15 to 20)
#    0.000    2.143    0.000    3.429    0.000    5.143 
#    0.000    3.571    0.000    1.714    0.000    0.000 
#    0.000    0.000    0.000    0.000    0.000    0.000 
#
# Total GULP energy -347291.240908 kJ/mol
# GULP energy per Si atom -12403.258604 kJ/mol
# Density = 1.980827 g / cm^3
# Si number density = 19.853453 Si / 1000 Ang^3
#
#
#
# Elastic Constant Matrix: (Units=GPa)
#
#
# Indices 1 2 3 4 5 6 
#
# 1 126.4189 18.3157 60.4431 0.0000 5.0094 0.0000
# 2 18.3157 37.6692 27.5593 0.0000 4.7086 0.0000
# 3 60.4431 27.5593 114.7439 0.0000 25.4391 0.0000
# 4 0.0000 0.0000 0.0000 20.9907 0.0000 6.1277
# 5 5.0094 4.7086 25.4391 0.0000 33.2173 0.0000
# 6 0.0000 0.0000 0.0000 6.1277 0.0000 28.3130
#
#
#
# Elastic Compliance Matrix: (Units=1/GPa)
#
#
# Indices 1 2 3 4 5 6 
#
# 1 0.010910 -0.001188 -0.006184 0.000000 0.003259 0.000000
# 2 -0.001188 0.032409 -0.007444 0.000000 0.001286 0.000000
# 3 -0.006184 -0.007444 0.016044 0.000000 -0.010299 0.000000
# 4 0.000000 0.000000 0.000000 0.050853 0.000000 -0.011006
# 5 0.003259 0.001286 -0.010299 0.000000 0.037319 0.000000
# 6 0.000000 0.000000 0.000000 -0.011006 0.000000 0.037701
#
#
# Mechanical properties :
#
#
# Convention : Reuss Voigt Hill
#
# Bulk Modulus (GPa) = 33.63334 54.60759 44.12047
# Shear Modulus (GPa) = 22.24415 28.00512 25.12464
#
# Velocity S-wave (km/s) = 3.35089 3.75986 3.56125
# Velocity P-wave (km/s) = 5.65234 6.81277 6.25950
#
# Compressibility (1/GPa) = 0.02973240
#
# Stress axis : x y z
#
# Youngs Moduli (GPa) = 91.65937 30.85519 62.32873
#
# Poissons Ratio (x) = 0.03664 0.38546
# Poissons Ratio (y) = 0.10885 0.46395
# Poissons Ratio (z) = 0.56685 0.22967
#
# Static dielectric constant tensor:
#      x y z
#    x 3.656440 0.000000 0.055790 
#    y 0.000000 3.378630 0.000000 
#    z 0.055790 0.000000 3.818180 
# 
# 
# High freq. dielectric constant tensor:
#      x y z
#    x 1.774920 0.000000 0.004780 
#    y 0.000000 1.752790 0.000000 
#    z 0.004780 0.000000 1.782000 
# 
# From -- ./inp_files/239048.got.cif
#   From: 2010.06.25/outbox.cif.g09.slc.cpg/sg12_120_cif.got.tgz:239048.got - 2010.06.28 00:19:55.
