data_PCOD8091224
_publ_section_title
;
Structure prediction by ZEFSAII (Michael W. Deem and Ramdas Pophale) SiO2 
 PCOD8091224
Probable space group: C 2/M
;
_chemical_formula_sum "Si O2"
_cell_formula_units_Z 56
_cell_length_a 24.953329
_cell_length_b 9.065268
_cell_length_c 13.557896
_cell_angle_alpha 90.000000
_cell_angle_beta 68.946751
_cell_angle_gamma 90.000000
_cell_volume 2862.187138
_symmetry_space_group_name_H-M "C 2/M"
_symmetry_group_IT_number 12
_symmetry_cell_setting 'monoclinic'
loop_
_space_group_symop_operation_xyz
x,y,z
-x,y,-z
-x,-y,-z
x,-y,z
1/2+x,1/2+y,z
1/2-x,1/2+y,-z
1/2-x,1/2-y,-z
1/2+x,1/2-y,z
loop_
_atom_site_type_symbol
_atom_site_label
_atom_site_fract_x
_atom_site_fract_y
_atom_site_fract_z
Si Si1 0.445593 0.664699 0.604272
Si Si2 0.304861 0.327345 0.417117
Si Si3 0.791281 0.332340 0.785607
Si Si4 0.645742 0.833533 0.448951
Si Si5 0.591672 0.825431 0.197240
Si Si6 0.830282 0.824290 0.180088
Si Si7 0.563469 0.172537 0.990994
O O1 0.500000 0.653940 0.500000
O O2 0.418194 0.500000 0.629663
O O3 0.406926 0.790907 0.583657
O O4 0.454972 0.731305 0.708195
O O5 0.294126 0.500000 0.426448
O O6 0.250000 0.250000 0.500000
O O7 0.355082 0.279058 0.458938
O O8 0.322491 0.271939 0.297837
O O9 0.790138 0.500000 0.820464
O O10 0.799466 0.320548 0.660904
O O11 0.843849 0.263028 0.815231
O O12 0.726435 0.267857 0.844769
O O13 0.639417 0.000000 0.492718
O O14 0.576277 0.788222 0.095591
O O15 0.586417 0.000000 0.222653
O O16 0.835351 0.000000 0.170023
O O17 0.888663 0.753892 0.104145
O O18 0.569332 0.000000 0.966643
O O19 0.500000 0.227368 0.000000
#
# Coordination Sequence:
#
# PCOD8091224 Si02
#       7
#     8   8   8   8   8   8   8
#     4  10  21  36  55  84 118 148 188 241 288 342
#     4  11  21  34  54  84 121 156 192 235 288 347
#     4   8  15  32  55  81 111 139 177 230 286 343
#     4  10  19  34  55  80 115 154 189 232 286 345
#     4   9  19  37  61  82 109 151 191 237 294 346
#     4  10  21  37  57  83 115 151 193 241 293 349
#     4  10  23  42  59  81 114 150 197 249 288 338
#
# _framework density 19.565456999999999
#
# number of rings (size 3 to 8) (size 9 to 14) (size 15 to 20)
#    0.000    2.286    1.429    2.143    0.000    4.857 
#    0.000    3.571    0.000    0.000    0.000    0.000 
#    0.000    0.000    0.000    0.000    0.000    0.000 
#
# Total GULP energy -346866.360524 kJ/mol
# GULP energy per Si atom -12388.084304 kJ/mol
# Density = 1.952093 g / cm^3
# Si number density = 19.565457 Si / 1000 Ang^3
#
#
#
# Elastic Constant Matrix: (Units=GPa)
#
#
# Indices 1 2 3 4 5 6 
#
# 1 111.6313 36.9867 73.8550 0.0000 -0.4385 0.0000
# 2 36.9867 58.7149 53.1719 0.0000 -3.9755 0.0000
# 3 73.8550 53.1719 130.5980 0.0000 2.8044 0.0000
# 4 0.0000 0.0000 0.0000 -18.9277 0.0000 7.5707
# 5 -0.4385 -3.9755 2.8044 0.0000 30.7281 0.0000
# 6 0.0000 0.0000 0.0000 7.5707 0.0000 25.7134
#
#
#
# Elastic Compliance Matrix: (Units=1/GPa)
#
#
# Indices 1 2 3 4 5 6 
#
# 1 0.014591 -0.002651 -0.007183 0.000000 0.000521 0.000000
# 2 -0.002651 0.028096 -0.010037 0.000000 0.004513 0.000000
# 3 -0.007183 -0.010037 0.015867 0.000000 -0.002849 0.000000
# 4 0.000000 0.000000 0.000000 -0.047266 0.000000 0.013916
# 5 0.000521 0.004513 -0.002849 0.000000 0.033395 0.000000
# 6 0.000000 0.000000 0.000000 0.013916 0.000000 0.034793
#
#
# Mechanical properties :
#
#
# Convention : Reuss Voigt Hill
#
# Bulk Modulus (GPa) = 53.15780 69.88572 61.52176
# Shear Modulus (GPa) = 39.84424 16.63146 28.23785
#
# Velocity S-wave (km/s) = 4.51761 2.91871 3.80313
# Velocity P-wave (km/s) = 7.37834 6.86695 7.12723
#
# Compressibility (1/GPa) = 0.01881191
#
# Stress axis : x y z
#
# Youngs Moduli (GPa) = 68.53617 35.59165 63.02415
#
# Poissons Ratio (x) = 0.09435 0.45271
# Poissons Ratio (y) = 0.18169 0.63257
# Poissons Ratio (z) = 0.49231 0.35723
#
# Static dielectric constant tensor:
#      x y z
#    x 3.923030 0.000000 0.221150 
#    y 0.000000 4.071910 0.000000 
#    z 0.221150 0.000000 4.096420 
# 
# 
# High freq. dielectric constant tensor:
#      x y z
#    x 1.763280 0.000000 0.008830 
#    y 0.000000 1.747120 0.000000 
#    z 0.008830 0.000000 1.755660 
# 
# From -- ./inp_files/237328.got.cif
#   From: 2010.06.25/outbox.cif.g09.slc.cpg/sg12_119_cif.got.tgz:237328.got - 2010.06.28 00:19:55.
