data_PCOD8091269
_publ_section_title
;
Structure prediction by ZEFSAII (Michael W. Deem and Ramdas Pophale) SiO2 
 PCOD8091269
Probable space group: C 2/M
;
_chemical_formula_sum "Si O2"
_cell_formula_units_Z 64
_cell_length_a 29.793368
_cell_length_b 9.548230
_cell_length_c 19.055850
_cell_angle_alpha 90.000000
_cell_angle_beta 34.987917
_cell_angle_gamma 90.000000
_cell_volume 3108.359701
_symmetry_space_group_name_H-M "C 2/M"
_symmetry_group_IT_number 12
_symmetry_cell_setting 'monoclinic'
loop_
_space_group_symop_operation_xyz
x,y,z
-x,y,-z
-x,-y,-z
x,-y,z
1/2+x,1/2+y,z
1/2-x,1/2+y,-z
1/2-x,1/2-y,-z
1/2+x,1/2-y,z
loop_
_atom_site_type_symbol
_atom_site_label
_atom_site_fract_x
_atom_site_fract_y
_atom_site_fract_z
Si Si1 0.299423 0.658791 0.884946
Si Si2 0.274379 0.338584 0.399767
Si Si3 0.963124 0.338134 0.859733
Si Si4 0.035428 0.846890 0.271666
Si Si5 0.432787 0.343497 0.533096
Si Si6 0.792782 0.341580 0.131196
Si Si7 0.708267 0.164040 0.338095
Si Si8 0.046910 0.838960 0.867834
O O1 0.280321 0.500000 0.929731
O O2 0.389927 0.697570 0.777672
O O3 0.278552 0.686857 0.830902
O O4 0.250000 0.750000 0.000000
O O5 0.270349 0.500000 0.428535
O O6 0.250000 0.250000 0.500000
O O7 0.211482 0.308237 0.417936
O O8 0.359637 0.307439 0.255400
O O9 0.986338 0.500000 0.827301
O O10 0.986372 0.269616 0.756649
O O11 0.011469 0.266693 0.858260
O O12 0.871639 0.312692 0.987850
O O13 0.963464 0.857668 0.415448
O O14 0.049357 0.000000 0.218072
O O15 0.500000 0.286871 0.500000
O O16 0.404814 0.500000 0.594429
O O17 0.362273 0.235274 0.614364
O O18 0.791574 0.500000 0.162425
O O19 0.786185 0.233468 0.204168
O O20 0.707559 0.000000 0.322963
O O21 0.031604 0.000000 0.866442
O O22 0.000000 0.806324 0.000000
#
# Coordination Sequence:
#
# PCOD8091269 Si02
#       8
#     8   8   8   8   8   8   8   8
#     4  10  19  34  55  82 118 159 202 246 294 356
#     4  10  24  44  66  94 127 166 210 260 320 380
#     4  11  23  37  59  91 125 157 196 254 309 362
#     4  10  21  36  58  85 117 160 205 244 297 368
#     4  10  22  42  65  88 121 166 209 250 301 368
#     4  10  21  38  59  87 124 164 203 246 306 371
#     4  11  24  41  64  94 124 158 206 261 310 361
#     4  10  22  43  68  91 122 162 207 258 314 381
#
# _framework density 20.589638000000001
#
# number of rings (size 3 to 8) (size 9 to 14) (size 15 to 20)
#    0.000    1.750    1.250    2.250    1.750    7.000 
#    0.000    1.250    0.000    0.000    0.000    0.000 
#    0.000    0.000    0.000    0.000    0.000    0.000 
#
# Total GULP energy -396640.247457 kJ/mol
# GULP energy per Si atom -12395.007733 kJ/mol
# Density = 2.054277 g / cm^3
# Si number density = 20.589638 Si / 1000 Ang^3
#
#
#
# Elastic Constant Matrix: (Units=GPa)
#
#
# Indices 1 2 3 4 5 6 
#
# 1 102.4267 66.0819 23.5519 -0.0640 12.4839 -0.0462
# 2 66.0819 113.5326 46.8826 0.0643 10.8949 0.0578
# 3 23.5519 46.8826 90.3492 0.0146 11.5756 0.0259
# 4 -0.0640 0.0643 0.0146 -158.0227 0.0198 -139.8162
# 5 12.4839 10.8949 11.5756 0.0198 24.7871 0.0132
# 6 -0.0462 0.0578 0.0259 -139.8162 0.0132 -68.9145
#
#
#
# Elastic Compliance Matrix: (Units=1/GPa)
#
#
# Indices 1 2 3 4 5 6 
#
# 1 0.016149 -0.009500 0.001305 -0.000008 -0.004567 -0.000004
# 2 -0.009500 0.016929 -0.006348 0.000007 0.000308 0.000003
# 3 0.001305 -0.006348 0.014623 0.000001 -0.004696 -0.000004
# 4 -0.000008 0.000007 0.000001 0.007959 0.000002 -0.016148
# 5 -0.004567 0.000308 -0.004696 0.000002 0.044702 0.000006
# 6 -0.000004 0.000003 -0.000004 -0.016148 0.000006 0.018251
#
#
# Mechanical properties :
#
#
# Convention : Reuss Voigt Hill
#
# Bulk Modulus (GPa) = 53.71631 64.37123 59.04377
# Shear Modulus (GPa) = 32.48790 -29.11055 1.68867
#
# Velocity S-wave (km/s) = 3.97656 -3.76419 0.90661
# Velocity P-wave (km/s) = 6.87238 3.52698 5.46211
#
# Compressibility (1/GPa) = 0.01861632
#
# Stress axis : x y z
#
# Youngs Moduli (GPa) = 61.92451 59.06932 68.38309
#
# Poissons Ratio (x) = 0.56116 -0.08925
# Poissons Ratio (y) = 0.58829 0.43407
# Poissons Ratio (z) = -0.08082 0.37495
#
# Static dielectric constant tensor:
#      x y z
#    x 3.811970 -0.000010 0.003290 
#    y -0.000010 3.683400 0.000000 
#    z 0.003290 0.000000 4.157830 
# 
# 
# High freq. dielectric constant tensor:
#      x y z
#    x 1.807040 0.000000 0.000760 
#    y 0.000000 1.801470 0.000000 
#    z 0.000760 0.000000 1.812050 
# 
# From -- ./inp_files/295586.got.cif
#   From: 2010.06.25/outbox.cif.g09.slc.cpg/sg12_148_cif.got.tgz:295586.got - 2010.06.28 00:19:55.
