data_PCOD8091175
_publ_section_title
;
Structure prediction by ZEFSAII (Michael W. Deem and Ramdas Pophale) SiO2 
 PCOD8091175
Probable space group: C 2/M
;
_chemical_formula_sum "Si O2"
_cell_formula_units_Z 48
_cell_length_a 27.130042
_cell_length_b 8.859088
_cell_length_c 11.699810
_cell_angle_alpha 90.000000
_cell_angle_beta 107.402186
_cell_angle_gamma 90.000000
_cell_volume 2683.310097
_symmetry_space_group_name_H-M "C 2/M"
_symmetry_group_IT_number 12
_symmetry_cell_setting 'monoclinic'
loop_
_space_group_symop_operation_xyz
x,y,z
-x,y,-z
-x,-y,-z
x,-y,z
1/2+x,1/2+y,z
1/2-x,1/2+y,-z
1/2-x,1/2-y,-z
1/2+x,1/2-y,z
loop_
_atom_site_type_symbol
_atom_site_label
_atom_site_fract_x
_atom_site_fract_y
_atom_site_fract_z
Si Si1 0.041621 0.668668 0.388711
Si Si2 0.928469 0.327223 0.230391
Si Si3 0.694209 0.678270 0.456695
Si Si4 0.884436 0.673477 0.763580
Si Si5 0.443536 0.678329 0.000536
Si Si6 0.383433 0.325193 0.401516
O O1 0.055217 0.500000 0.443295
O O2 0.064907 0.691641 0.279112
O O3 0.064789 0.790771 0.490851
O O4 0.980641 0.690808 0.339672
O O5 0.918228 0.500000 0.187737
O O6 0.882878 0.267868 0.282206
O O7 0.931873 0.224866 0.121488
O O8 0.697895 0.500000 0.444773
O O9 0.750000 0.750000 0.500000
O O10 0.664250 0.743854 0.326847
O O11 0.665399 0.722508 0.554761
O O12 0.869303 0.500000 0.773035
O O13 0.898280 0.749110 0.893362
O O14 0.440454 0.500000 0.986245
O O15 0.500000 0.737401 0.000000
O O16 0.382324 0.500000 0.369452
#
# Coordination Sequence:
#
# PCOD8091175 Si02
#       6
#     8   8   8   8   8   8
#     4   9  18  31  48  72 104 142 180 217 257 310
#     4  11  21  33  50  73 106 147 185 218 258 314
#     4  10  21  38  60  84 108 136 175 225 278 326
#     4  10  19  34  55  79 109 143 182 224 266 315
#     4  11  22  34  51  76 110 149 187 224 262 309
#     4  10  21  34  50  76 107 137 174 221 271 320
#
# _framework density 17.888352000000001
#
# number of rings (size 3 to 8) (size 9 to 14) (size 15 to 20)
#    0.000    1.833    1.667    3.000    0.000    6.667 
#    0.000    0.000    0.000    1.000    0.000    0.000 
#    0.000    0.000    0.000    0.000    0.000    0.000 
#
# Total GULP energy -297646.346162 kJ/mol
# GULP energy per Si atom -12401.931090 kJ/mol
# Density = 1.784764 g / cm^3
# Si number density = 17.888352 Si / 1000 Ang^3
#
#
#
# Elastic Constant Matrix: (Units=GPa)
#
#
# Indices 1 2 3 4 5 6 
#
# 1 89.6652 42.3141 55.5253 0.0000 0.3614 0.0000
# 2 42.3141 82.0423 42.5470 0.0000 1.9627 0.0000
# 3 55.5253 42.5470 78.7141 0.0000 -6.0062 0.0000
# 4 0.0000 0.0000 0.0000 36.6928 0.0000 -1.5827
# 5 0.3614 1.9627 -6.0062 0.0000 25.6239 0.0000
# 6 0.0000 0.0000 0.0000 -1.5827 0.0000 24.4084
#
#
#
# Elastic Compliance Matrix: (Units=1/GPa)
#
#
# Indices 1 2 3 4 5 6 
#
# 1 0.021081 -0.004128 -0.012869 0.000000 -0.002998 0.000000
# 2 -0.004128 0.018060 -0.007078 0.000000 -0.002984 0.000000
# 3 -0.012869 -0.007078 0.026130 0.000000 0.006849 0.000000
# 4 0.000000 0.000000 0.000000 0.027330 0.000000 0.001772
# 5 -0.002998 -0.002984 0.006849 0.000000 0.040902 0.000000
# 6 0.000000 0.000000 0.000000 0.001772 0.000000 0.041084
#
#
# Mechanical properties :
#
#
# Convention : Reuss Voigt Hill
#
# Bulk Modulus (GPa) = 58.40035 59.02160 58.71098
# Shear Modulus (GPa) = 21.88728 24.68069 23.28399
#
# Velocity S-wave (km/s) = 3.50172 3.71847 3.61172
# Velocity P-wave (km/s) = 7.00481 7.17650 7.09117
#
# Compressibility (1/GPa) = 0.01712318
#
# Stress axis : x y z
#
# Youngs Moduli (GPa) = 47.43505 55.37225 38.27005
#
# Poissons Ratio (x) = 0.22855 0.49248
# Poissons Ratio (y) = 0.19579 0.27087
# Poissons Ratio (z) = 0.61042 0.39191
#
# Static dielectric constant tensor:
#      x y z
#    x 3.168470 0.000000 -0.170530 
#    y 0.000000 3.401930 0.000000 
#    z -0.170530 0.000000 3.143880 
# 
# 
# High freq. dielectric constant tensor:
#      x y z
#    x 1.670000 0.000000 -0.019150 
#    y 0.000000 1.705850 0.000000 
#    z -0.019150 0.000000 1.682480 
# 
# From -- ./inp_files/172101.got.cif
#   From: 2010.06.25/outbox.cif.g09.slc.cpg/sg12_87_cif.got.tgz:172101.got - 2010.06.28 00:19:55.
