data_PCOD8091455
_publ_section_title
;
Structure prediction by ZEFSAII (Michael W. Deem and Ramdas Pophale) SiO2 
 PCOD8091455
Probable space group: C 2/M
;
_chemical_formula_sum "Si O2"
_cell_formula_units_Z 64
_cell_length_a 20.908001
_cell_length_b 8.782726
_cell_length_c 24.259946
_cell_angle_alpha 90.000000
_cell_angle_beta 47.956225
_cell_angle_gamma 90.000000
_cell_volume 3308.309581
_symmetry_space_group_name_H-M "C 2/M"
_symmetry_group_IT_number 12
_symmetry_cell_setting 'monoclinic'
loop_
_space_group_symop_operation_xyz
x,y,z
-x,y,-z
-x,-y,-z
x,-y,z
1/2+x,1/2+y,z
1/2-x,1/2+y,-z
1/2-x,1/2-y,-z
1/2+x,1/2-y,z
loop_
_atom_site_type_symbol
_atom_site_label
_atom_site_fract_x
_atom_site_fract_y
_atom_site_fract_z
Si Si1 0.262617 0.677382 0.842001
Si Si2 0.063552 0.676387 0.704029
Si Si3 0.267444 0.824968 0.338782
Si Si4 0.428193 0.180239 0.696788
Si Si5 0.832963 0.171561 0.196213
Si Si6 0.686172 0.319065 0.993673
Si Si7 0.579308 0.323325 0.419379
Si Si8 0.508570 0.673348 0.145655
O O1 0.278512 0.500000 0.843816
O O2 0.354045 0.758411 0.780094
O O3 0.203181 0.700844 0.823199
O O4 0.209097 0.752093 0.921589
O O5 0.044969 0.500000 0.717553
O O6 0.167733 0.709315 0.646612
O O7 0.019314 0.734058 0.672324
O O8 0.014404 0.740303 0.785355
O O9 0.292819 0.702848 0.278746
O O10 0.165336 0.798833 0.407455
O O11 0.282707 0.000000 0.310613
O O12 0.415789 0.244857 0.642799
O O13 0.421001 0.000000 0.696299
O O14 0.935317 0.188307 0.141421
O O15 0.806867 0.000000 0.192838
O O16 0.691952 0.500000 0.987890
O O17 0.750000 0.250000 0.000000
O O18 0.592671 0.261291 0.067138
O O19 0.500000 0.254209 0.500000
O O20 0.563853 0.500000 0.416192
O O21 0.523118 0.500000 0.155289
#
# Coordination Sequence:
#
# PCOD8091455 Si02
#       8
#     8   8   8   8   8   8   8   8
#     4  12  24  37  55  80 110 146 187 232 282 337
#     4   9  19  34  56  83 111 147 189 234 278 326
#     4   9  17  34  57  81 112 149 187 224 272 332
#     4  11  22  37  58  85 114 145 188 239 284 332
#     4  10  19  34  56  82 108 140 183 231 281 330
#     4  11  23  39  55  76 108 147 188 234 286 336
#     4  10  21  37  59  86 116 150 186 227 278 337
#     4   9  20  36  55  79 110 145 184 232 283 332
#
# _framework density 19.345227000000001
#
# number of rings (size 3 to 8) (size 9 to 14) (size 15 to 20)
#    0.000    1.875    1.250    3.000    0.000    5.250 
#    0.000    3.125    0.000    0.000    0.000    0.000 
#    0.000    0.000    0.000    0.000    0.000    0.000 
#
# Total GULP energy -396578.215737 kJ/mol
# GULP energy per Si atom -12393.069242 kJ/mol
# Density = 1.930120 g / cm^3
# Si number density = 19.345227 Si / 1000 Ang^3
#
#
#
# Elastic Constant Matrix: (Units=GPa)
#
#
# Indices 1 2 3 4 5 6 
#
# 1 138.8368 26.9175 40.4737 -0.0002 -22.1900 0.0001
# 2 26.9175 53.0281 14.9097 -0.0004 -6.7946 0.0003
# 3 40.4737 14.9097 74.4017 0.0001 -27.3392 0.0003
# 4 -0.0002 -0.0004 0.0001 19.9792 0.0000 1.3579
# 5 -22.1900 -6.7946 -27.3392 0.0000 29.2866 -0.0002
# 6 0.0001 0.0003 0.0003 1.3579 -0.0002 25.3045
#
#
#
# Elastic Compliance Matrix: (Units=1/GPa)
#
#
# Indices 1 2 3 4 5 6 
#
# 1 0.009317 -0.003415 -0.003168 0.000000 0.003310 0.000000
# 2 -0.003415 0.021271 -0.002348 0.000000 0.000156 0.000000
# 3 -0.003168 -0.002348 0.022150 0.000000 0.017732 0.000000
# 4 0.000000 0.000000 0.000000 0.050235 0.000000 -0.002696
# 5 0.003310 0.000156 0.017732 0.000000 0.053243 0.000000
# 6 0.000000 0.000000 0.000000 -0.002696 0.000000 0.039663
#
#
# Mechanical properties :
#
#
# Convention : Reuss Voigt Hill
#
# Bulk Modulus (GPa) = 28.67132 47.87427 38.27280
# Shear Modulus (GPa) = 22.18606 27.17846 24.68226
#
# Velocity S-wave (km/s) = 3.39019 3.75229 3.57583
# Velocity P-wave (km/s) = 5.49341 6.60106 6.07254
#
# Compressibility (1/GPa) = 0.03487806
#
# Stress axis : x y z
#
# Youngs Moduli (GPa) = 107.32738 47.01159 45.14650
#
# Poissons Ratio (x) = 0.16053 0.14302
# Poissons Ratio (y) = 0.36649 0.10599
# Poissons Ratio (z) = 0.34000 0.11037
#
# Static dielectric constant tensor:
#      x y z
#    x 3.980210 0.000000 -0.285280 
#    y 0.000000 3.542930 0.000000 
#    z -0.285280 0.000000 3.364320 
# 
# 
# High freq. dielectric constant tensor:
#      x y z
#    x 1.773580 0.000000 -0.014770 
#    y 0.000000 1.753930 0.000000 
#    z -0.014770 0.000000 1.726500 
# 
# From -- ./inp_files/346045.got.cif
#   From: 2010.06.25/outbox.cif.g09.slc.cpg/sg12_174_cif.got.tgz:346045.got - 2010.06.28 00:19:55.
