data_PCOD8091868
_publ_section_title
;
Structure prediction by ZEFSAII (Michael W. Deem and Ramdas Pophale) SiO2 
 PCOD8091868
Probable space group: C 2/M
;
_chemical_formula_sum "Si O2"
_cell_formula_units_Z 64
_cell_length_a 11.242486
_cell_length_b 19.110884
_cell_length_c 21.053846
_cell_angle_alpha 90.000000
_cell_angle_beta 129.650833
_cell_angle_gamma 90.000000
_cell_volume 3482.856964
_symmetry_space_group_name_H-M "C 2/M"
_symmetry_group_IT_number 12
_symmetry_cell_setting 'monoclinic'
loop_
_space_group_symop_operation_xyz
x,y,z
-x,y,-z
-x,-y,-z
x,-y,z
1/2+x,1/2+y,z
1/2-x,1/2+y,-z
1/2-x,1/2-y,-z
1/2+x,1/2-y,z
loop_
_atom_site_type_symbol
_atom_site_label
_atom_site_fract_x
_atom_site_fract_y
_atom_site_fract_z
Si Si1 0.785941 0.819949 0.666118
Si Si2 0.348010 0.675598 0.347081
Si Si3 0.177071 0.924122 0.078825
Si Si4 0.875424 0.773020 0.222457
Si Si5 0.165490 0.382015 0.745715
Si Si6 0.701825 0.670471 0.472275
Si Si7 0.168262 0.422259 0.374939
Si Si8 0.816306 0.774354 0.954957
O O1 0.683446 0.750424 0.632346
O O2 0.732916 0.879115 0.697575
O O3 0.769057 0.852094 0.590447
O O4 0.959038 0.798751 0.744630
O O5 0.317768 0.677835 0.260746
O O6 0.522637 0.658296 0.425947
O O7 0.240064 0.615396 0.338184
O O8 0.202653 0.913419 0.163192
O O9 0.246911 0.854786 0.069335
O O10 0.251477 0.000000 0.083997
O O11 0.000000 0.927637 0.000000
O O12 0.889831 0.694909 0.253286
O O13 0.759343 0.775954 0.123607
O O14 0.015039 0.430300 0.696927
O O15 0.750000 0.750000 0.500000
O O16 0.801638 0.620627 0.550712
O O17 0.238939 0.500000 0.404476
O O18 0.750000 0.750000 0.000000
O O19 0.000000 0.771371 0.000000
#
# Coordination Sequence:
#
# PCOD8091868 Si02
#       8
#     8   8   8   8   8   8   8   8
#     4  10  19  34  58  82 109 147 192 250 283 334
#     4  10  20  35  55  79 107 147 191 238 285 334
#     4   9  19  36  57  82 113 154 199 234 280 351
#     4   9  19  33  58  82 114 144 192 240 290 341
#     4  10  20  35  55  83 116 147 187 236 292 343
#     4  11  21  36  56  84 107 147 199 240 286 344
#     4  12  24  37  55  82 117 153 191 238 293 352
#     4  10  22  34  57  93 124 153 191 250 303 346
#
# _framework density 18.375717999999999
#
# number of rings (size 3 to 8) (size 9 to 14) (size 15 to 20)
#    0.000    1.875    2.500    2.250    7.000    2.500 
#    0.000    1.875    0.000    2.625    0.000    0.000 
#    0.000    0.000    0.000    0.000    0.000    0.000 
#
# Total GULP energy -396573.427538 kJ/mol
# GULP energy per Si atom -12392.919611 kJ/mol
# Density = 1.833389 g / cm^3
# Si number density = 18.375718 Si / 1000 Ang^3
#
#
#
# Elastic Constant Matrix: (Units=GPa)
#
#
# Indices 1 2 3 4 5 6 
#
# 1 103.5372 27.9441 49.5090 0.0000 -9.3566 0.0000
# 2 27.9441 89.8704 39.2180 0.0000 -12.6326 0.0000
# 3 49.5090 39.2180 129.9419 0.0000 -6.8178 0.0000
# 4 0.0000 0.0000 0.0000 14.9288 0.0000 -2.3555
# 5 -9.3566 -12.6326 -6.8178 0.0000 25.3868 0.0000
# 6 0.0000 0.0000 0.0000 -2.3555 0.0000 13.7982
#
#
#
# Elastic Compliance Matrix: (Units=1/GPa)
#
#
# Indices 1 2 3 4 5 6 
#
# 1 0.012278 -0.001693 -0.004030 0.000000 0.002600 0.000000
# 2 -0.001693 0.013827 -0.003245 0.000000 0.005385 0.000000
# 3 -0.004030 -0.003245 0.010192 0.000000 -0.000363 0.000000
# 4 0.000000 0.000000 0.000000 0.068839 0.000000 0.011751
# 5 0.002600 0.005385 -0.000363 0.000000 0.042931 0.000000
# 6 0.000000 0.000000 0.000000 0.011751 0.000000 0.074479
#
#
# Mechanical properties :
#
#
# Convention : Reuss Voigt Hill
#
# Bulk Modulus (GPa) = 54.47224 61.85464 58.16344
# Shear Modulus (GPa) = 20.27555 24.60131 22.43843
#
# Velocity S-wave (km/s) = 3.32533 3.66292 3.49820
# Velocity P-wave (km/s) = 6.66721 7.18495 6.93092
#
# Compressibility (1/GPa) = 0.01835797
#
# Stress axis : x y z
#
# Youngs Moduli (GPa) = 81.44934 72.32346 98.11813
#
# Poissons Ratio (x) = 0.12247 0.39545
# Poissons Ratio (y) = 0.13792 0.31843
# Poissons Ratio (z) = 0.32827 0.23472
#
# Static dielectric constant tensor:
#      x y z
#    x 3.505530 0.000000 -0.129900 
#    y 0.000000 3.383520 0.000000 
#    z -0.129900 0.000000 3.618040 
# 
# 
# High freq. dielectric constant tensor:
#      x y z
#    x 1.703460 0.000000 0.000650 
#    y 0.000000 1.690440 0.000000 
#    z 0.000650 0.000000 1.726560 
# 
# From -- ./inp_files/263885.got.cif
#   From: 2010.06.25/outbox.cif.g09.slc.cpg/sg12_132_cif.got.tgz:263885.got - 2010.06.28 00:19:55.
