data_PCOD8091959
_publ_section_title
;
Structure prediction by ZEFSAII (Michael W. Deem and Ramdas Pophale) SiO2 
 PCOD8091959
Probable space group: C 2/M
;
_chemical_formula_sum "Si O2"
_cell_formula_units_Z 56
_cell_length_a 9.306100
_cell_length_b 25.220276
_cell_length_c 12.097415
_cell_angle_alpha 90.000000
_cell_angle_beta 76.978433
_cell_angle_gamma 90.000000
_cell_volume 2766.280966
_symmetry_space_group_name_H-M "C 2/M"
_symmetry_group_IT_number 12
_symmetry_cell_setting 'monoclinic'
loop_
_space_group_symop_operation_xyz
x,y,z
-x,y,-z
-x,-y,-z
x,-y,z
1/2+x,1/2+y,z
1/2-x,1/2+y,-z
1/2-x,1/2-y,-z
1/2+x,1/2-y,z
loop_
_atom_site_type_symbol
_atom_site_label
_atom_site_fract_x
_atom_site_fract_y
_atom_site_fract_z
Si Si1 0.059965 0.607081 0.378397
Si Si2 0.243081 0.397587 0.653854
Si Si3 0.351193 0.652860 0.974829
Si Si4 0.161278 0.060066 0.587898
Si Si5 0.643490 0.810448 0.193876
Si Si6 0.804111 0.295949 0.205659
Si Si7 0.075552 0.060673 0.195190
O O1 0.175280 0.561021 0.388844
O O2 0.135907 0.654239 0.302336
O O3 0.000000 0.634381 0.500000
O O4 0.923059 0.582083 0.336557
O O5 0.345526 0.407408 0.527353
O O6 0.247799 0.335000 0.685969
O O7 0.282197 0.434117 0.751629
O O8 0.272527 0.686152 0.894124
O O9 0.401830 0.595099 0.919896
O O10 0.500000 0.679863 0.000000
O O11 0.228983 0.652305 0.091602
O O12 0.053977 0.083527 0.701784
O O13 0.115393 0.000000 0.569086
O O14 0.740002 0.762656 0.227076
O O15 0.483196 0.794108 0.171693
O O16 0.048026 0.000000 0.163450
#
# Coordination Sequence:
#
# PCOD8091959 Si02
#       7
#     8   8   8   8   8   8   8
#     4   9  20  37  56  82 113 144 184 228 271 328
#     4   9  19  35  56  84 114 146 182 226 273 330
#     4  11  22  37  58  81 108 146 188 231 276 330
#     4  10  19  34  58  85 114 150 188 225 271 325
#     4  11  21  39  59  80 111 146 184 230 283 330
#     4  10  22  38  59  84 109 142 186 231 278 335
#     4  10  21  36  55  83 115 147 186 230 275 324
#
# _framework density 20.243784999999999
#
# number of rings (size 3 to 8) (size 9 to 14) (size 15 to 20)
#    0.000    2.000    0.000    3.429    0.000    5.714 
#    0.000   10.000    0.000   12.000    0.000    0.000 
#    0.000    0.000    0.000    0.000    0.000    0.000 
#
# Total GULP energy -346877.933400 kJ/mol
# GULP energy per Si atom -12388.497621 kJ/mol
# Density = 2.019771 g / cm^3
# Si number density = 20.243785 Si / 1000 Ang^3
#
#
#
# Elastic Constant Matrix: (Units=GPa)
#
#
# Indices 1 2 3 4 5 6 
#
# 1 109.2077 19.8054 44.2070 0.0000 0.2645 0.0000
# 2 19.8054 69.6857 51.6533 0.0000 -16.8186 0.0000
# 3 44.2070 51.6533 112.4599 0.0000 -17.9093 0.0000
# 4 0.0000 0.0000 0.0000 24.6845 0.0000 -2.6551
# 5 0.2645 -16.8186 -17.9093 0.0000 32.7791 0.0000
# 6 0.0000 0.0000 0.0000 -2.6551 0.0000 24.8530
#
#
#
# Elastic Compliance Matrix: (Units=1/GPa)
#
#
# Indices 1 2 3 4 5 6 
#
# 1 0.011112 -0.000408 -0.004631 0.000000 -0.002830 0.000000
# 2 -0.000408 0.023007 -0.009339 0.000000 0.006705 0.000000
# 3 -0.004631 -0.009339 0.015602 0.000000 0.003770 0.000000
# 4 0.000000 0.000000 0.000000 0.040982 0.000000 0.004378
# 5 -0.002830 0.006705 0.003770 0.000000 0.036030 0.000000
# 6 0.000000 0.000000 0.000000 0.004378 0.000000 0.040704
#
#
# Mechanical properties :
#
#
# Convention : Reuss Voigt Hill
#
# Bulk Modulus (GPa) = 47.69892 58.07608 52.88750
# Shear Modulus (GPa) = 24.60832 28.17585 26.39208
#
# Velocity S-wave (km/s) = 3.49033 3.73477 3.61461
# Velocity P-wave (km/s) = 6.31321 6.88103 6.60323
#
# Compressibility (1/GPa) = 0.02096484
#
# Stress axis : x y z
#
# Youngs Moduli (GPa) = 89.98881 43.46560 64.09304
#
# Poissons Ratio (x) = 0.01775 0.29683
# Poissons Ratio (y) = 0.03674 0.59855
# Poissons Ratio (z) = 0.41676 0.40591
#
# Static dielectric constant tensor:
#      x y z
#    x 4.079660 0.000000 0.022510 
#    y 0.000000 3.455330 0.000000 
#    z 0.022510 0.000000 3.811470 
# 
# 
# High freq. dielectric constant tensor:
#      x y z
#    x 1.814650 0.000000 0.005810 
#    y 0.000000 1.765450 0.000000 
#    z 0.005810 0.000000 1.791990 
# 
# From -- ./inp_files/124228.got.cif
#   From: 2010.06.25/outbox.cif.g09.slc.cpg/sg12_63_cif.got.tgz:124228.got - 2010.06.28 00:19:55.
