data_PCOD8091850
_publ_section_title
;
Structure prediction by ZEFSAII (Michael W. Deem and Ramdas Pophale) SiO2 
 PCOD8091850
Probable space group: C 2/M
;
_chemical_formula_sum "Si O2"
_cell_formula_units_Z 48
_cell_length_a 28.017511
_cell_length_b 15.677471
_cell_length_c 12.108228
_cell_angle_alpha 90.000000
_cell_angle_beta 29.282538
_cell_angle_gamma 90.000000
_cell_volume 2601.348831
_symmetry_space_group_name_H-M "C 2/M"
_symmetry_group_IT_number 12
_symmetry_cell_setting 'monoclinic'
loop_
_space_group_symop_operation_xyz
x,y,z
-x,y,-z
-x,-y,-z
x,-y,z
1/2+x,1/2+y,z
1/2-x,1/2+y,-z
1/2-x,1/2-y,-z
1/2+x,1/2-y,z
loop_
_atom_site_type_symbol
_atom_site_label
_atom_site_fract_x
_atom_site_fract_y
_atom_site_fract_z
Si Si1 0.994468 0.500000 0.695890
Si Si2 0.728017 0.829864 0.968974
Si Si3 0.611004 0.592552 0.748447
Si Si4 0.703725 0.719055 0.705336
Si Si5 0.156985 0.500000 0.197060
Si Si6 0.558656 0.818165 0.141017
Si Si7 0.865900 0.785893 0.507468
O O1 0.918168 0.500000 0.751233
O O2 0.977550 0.415604 0.804948
O O3 0.102808 0.500000 0.424684
O O4 0.723108 0.915100 0.053456
O O5 0.624687 0.813004 0.117193
O O6 0.750000 0.750000 0.000000
O O7 0.818055 0.840997 0.702283
O O8 0.657822 0.500000 0.627514
O O9 0.658911 0.627495 0.765612
O O10 0.622297 0.652731 0.620503
O O11 0.500000 0.581117 0.000000
O O12 0.750000 0.750000 0.500000
O O13 0.787115 0.712536 0.631346
O O14 0.619297 0.786016 0.912562
O O15 0.465588 0.756894 0.346344
#
# Coordination Sequence:
#
# PCOD8091850 Si02
#       7
#     4   8   8   8   4   8   8
#     4   9  18  32  56  81  99 148 177 230 282 312
#     4  10  21  35  57  84 111 151 186 227 284 326
#     4  10  19  34  58  79 104 147 187 223 270 329
#     4   9  19  35  52  80 109 142 181 227 277 322
#     4   9  18  34  54  79 112 133 191 230 267 335
#     4  10  19  36  56  80 113 142 191 230 269 343
#     4  10  20  34  59  79 112 149 182 227 282 323
#
# _framework density 18.451965999999999
#
# number of rings (size 3 to 8) (size 9 to 14) (size 15 to 20)
#    0.000    2.333    1.667    1.000    1.167    2.000 
#   10.500    0.000    7.333    5.000    0.000    0.000 
#    0.000    0.000    0.000    0.000    0.000    0.000 
#
# Total GULP energy -297419.767838 kJ/mol
# GULP energy per Si atom -12392.490327 kJ/mol
# Density = 1.840997 g / cm^3
# Si number density = 18.451966 Si / 1000 Ang^3
#
#
#
# Elastic Constant Matrix: (Units=GPa)
#
#
# Indices 1 2 3 4 5 6 
#
# 1 52.4942 50.2476 34.1649 0.0000 -6.3406 0.0000
# 2 50.2476 152.4962 56.6945 0.0000 -2.2294 0.0000
# 3 34.1649 56.6945 118.7381 0.0000 -3.8120 0.0000
# 4 0.0000 0.0000 0.0000 16.8286 0.0000 7.0888
# 5 -6.3406 -2.2294 -3.8120 0.0000 26.1630 0.0000
# 6 0.0000 0.0000 0.0000 7.0888 0.0000 22.8575
#
#
#
# Elastic Compliance Matrix: (Units=1/GPa)
#
#
# Indices 1 2 3 4 5 6 
#
# 1 0.030797 -0.008312 -0.004697 0.000000 0.006071 0.000000
# 2 -0.008312 0.010217 -0.002535 0.000000 -0.001513 0.000000
# 3 -0.004697 -0.002535 0.010992 0.000000 0.000247 0.000000
# 4 0.000000 0.000000 0.000000 0.068352 0.000000 -0.021198
# 5 0.006071 -0.001513 0.000247 0.000000 0.039600 0.000000
# 6 0.000000 0.000000 0.000000 -0.021198 0.000000 0.050323
#
#
# Mechanical properties :
#
#
# Convention : Reuss Voigt Hill
#
# Bulk Modulus (GPa) = 47.81086 67.32692 57.56889
# Shear Modulus (GPa) = 20.13339 25.34458 22.73899
#
# Velocity S-wave (km/s) = 3.30680 3.71016 3.51427
# Velocity P-wave (km/s) = 6.36766 7.41084 6.90897
#
# Compressibility (1/GPa) = 0.02091575
#
# Stress axis : x y z
#
# Youngs Moduli (GPa) = 32.47069 97.87720 90.97621
#
# Poissons Ratio (x) = 0.81360 0.42735
# Poissons Ratio (y) = 0.26991 0.23063
# Poissons Ratio (z) = 0.15253 0.24813
#
# Static dielectric constant tensor:
#      x y z
#    x 3.597860 0.000000 0.003920 
#    y 0.000000 4.403580 0.000000 
#    z 0.003920 0.000000 3.455880 
# 
# 
# High freq. dielectric constant tensor:
#      x y z
#    x 1.692120 0.000000 -0.001780 
#    y 0.000000 1.710290 0.000000 
#    z -0.001780 0.000000 1.730120 
# 
# From -- ./inp_files/183716.got.cif
#   From: 2010.06.25/outbox.cif.g09.slc.cpg/sg12_92_cif.got.tgz:183716.got - 2010.06.28 00:19:55.
