data_PCOD8091390
_publ_section_title
;
Structure prediction by ZEFSAII (Michael W. Deem and Ramdas Pophale) SiO2 
 PCOD8091390
Probable space group: C 2/M
;
_chemical_formula_sum "Si O2"
_cell_formula_units_Z 56
_cell_length_a 23.617116
_cell_length_b 8.989960
_cell_length_c 15.864883
_cell_angle_alpha 90.000000
_cell_angle_beta 56.888016
_cell_angle_gamma 90.000000
_cell_volume 2821.372864
_symmetry_space_group_name_H-M "C 2/M"
_symmetry_group_IT_number 12
_symmetry_cell_setting 'monoclinic'
loop_
_space_group_symop_operation_xyz
x,y,z
-x,y,-z
-x,-y,-z
x,-y,z
1/2+x,1/2+y,z
1/2-x,1/2+y,-z
1/2-x,1/2-y,-z
1/2+x,1/2-y,z
loop_
_atom_site_type_symbol
_atom_site_label
_atom_site_fract_x
_atom_site_fract_y
_atom_site_fract_z
Si Si1 0.292130 0.668839 0.894617
Si Si2 0.066015 0.824104 0.678958
Si Si3 0.932201 0.822823 0.511241
Si Si4 0.665832 0.324452 0.741205
Si Si5 0.578595 0.170881 0.952715
Si Si6 0.293363 0.323037 0.704688
Si Si7 0.928639 0.829483 0.871712
O O1 0.267646 0.500000 0.917286
O O2 0.278735 0.733721 0.811905
O O3 0.372184 0.680905 0.845397
O O4 0.250000 0.750000 0.000000
O O5 0.073081 0.757900 0.579374
O O6 0.131283 0.777962 0.680780
O O7 0.997995 0.762029 0.778057
O O8 0.058664 0.000000 0.679746
O O9 0.867233 0.767285 0.616166
O O10 0.000000 0.759986 0.500000
O O11 0.934518 0.000000 0.507233
O O12 0.674633 0.500000 0.741378
O O13 0.618742 0.270286 0.854705
O O14 0.738733 0.247409 0.686087
O O15 0.601775 0.000000 0.925464
O O16 0.500000 0.191806 0.000000
O O17 0.596326 0.228685 0.030979
O O18 0.288749 0.500000 0.702868
O O19 0.938387 0.000000 0.894314
#
# Coordination Sequence:
#
# PCOD8091390 Si02
#       7
#     8   8   8   8   8   8   8
#     4  10  21  35  53  78 107 141 181 225 273 325
#     4   9  18  32  53  81 108 138 184 230 268 323
#     4   9  17  33  59  86 110 141 183 231 281 329
#     4  11  22  36  55  80 113 151 188 224 272 334
#     4  11  22  35  53  80 114 147 183 226 275 327
#     4  10  21  37  57  83 115 146 183 233 280 324
#     4  10  19  34  56  80 108 144 185 228 275 327
#
# _framework density 19.848493000000001
#
# number of rings (size 3 to 8) (size 9 to 14) (size 15 to 20)
#    0.000    2.000    1.429    2.571    0.000    8.000 
#    0.000    0.000    0.000    2.143    0.000    0.000 
#    0.000    0.000    0.000    0.000    0.000    0.000 
#
# Total GULP energy -347243.455460 kJ/mol
# GULP energy per Si atom -12401.551981 kJ/mol
# Density = 1.980332 g / cm^3
# Si number density = 19.848493 Si / 1000 Ang^3
#
#
#
# Elastic Constant Matrix: (Units=GPa)
#
#
# Indices 1 2 3 4 5 6 
#
# 1 147.3614 33.0166 73.2564 0.0000 2.6723 0.0000
# 2 33.0166 33.0302 27.7609 0.0000 -0.2954 0.0001
# 3 73.2564 27.7609 145.0012 0.0000 7.8407 0.0000
# 4 0.0000 0.0000 0.0000 5.5096 0.0000 -0.0511
# 5 2.6723 -0.2954 7.8407 0.0000 37.9105 0.0000
# 6 0.0000 0.0001 0.0000 -0.0511 0.0000 29.2628
#
#
#
# Elastic Compliance Matrix: (Units=1/GPa)
#
#
# Indices 1 2 3 4 5 6 
#
# 1 0.010274 -0.007039 -0.003844 0.000000 0.000016 0.000000
# 2 -0.007039 0.041016 -0.004390 0.000000 0.001724 0.000000
# 3 -0.003844 -0.004390 0.009775 0.000000 -0.001785 0.000000
# 4 0.000000 0.000000 0.000000 0.181504 0.000000 0.000317
# 5 0.000016 0.001724 -0.001785 0.000000 0.026759 0.000000
# 6 0.000000 0.000000 0.000000 0.000317 0.000000 0.034174
#
#
# Mechanical properties :
#
#
# Convention : Reuss Voigt Hill
#
# Bulk Modulus (GPa) = 32.76473 65.94008 49.35240
# Shear Modulus (GPa) = 14.52560 27.29385 20.90972
#
# Velocity S-wave (km/s) = 2.70816 3.71227 3.24924
# Velocity P-wave (km/s) = 5.13051 7.18807 6.24462
#
# Compressibility (1/GPa) = 0.03052062
#
# Stress axis : x y z
#
# Youngs Moduli (GPa) = 97.33770 24.38071 102.29884
#
# Poissons Ratio (x) = 0.17161 0.39319
# Poissons Ratio (y) = 0.68513 0.44907
# Poissons Ratio (z) = 0.37413 0.10703
#
# Static dielectric constant tensor:
#      x y z
#    x 3.948640 0.000000 0.060810 
#    y 0.000000 3.260020 0.000000 
#    z 0.060810 0.000000 3.678880 
# 
# 
# High freq. dielectric constant tensor:
#      x y z
#    x 1.792940 0.000000 0.001070 
#    y 0.000000 1.733660 0.000000 
#    z 0.001070 0.000000 1.775750 
# 
# From -- ./inp_files/238297.got.cif
#   From: 2010.06.25/outbox.cif.g09.slc.cpg/sg12_120_cif.got.tgz:238297.got - 2010.06.28 00:19:55.
