data_PCOD8091685
_publ_section_title
;
Structure prediction by ZEFSAII (Michael W. Deem and Ramdas Pophale) SiO2 
 PCOD8091685
Probable space group: C 2/M
;
_chemical_formula_sum "Si O2"
_cell_formula_units_Z 64
_cell_length_a 15.265895
_cell_length_b 9.350714
_cell_length_c 32.649447
_cell_angle_alpha 90.000000
_cell_angle_beta 42.600214
_cell_angle_gamma 90.000000
_cell_volume 3154.668540
_symmetry_space_group_name_H-M "C 2/M"
_symmetry_group_IT_number 12
_symmetry_cell_setting 'monoclinic'
loop_
_space_group_symop_operation_xyz
x,y,z
-x,y,-z
-x,-y,-z
x,-y,z
1/2+x,1/2+y,z
1/2-x,1/2+y,-z
1/2-x,1/2-y,-z
1/2+x,1/2-y,z
loop_
_atom_site_type_symbol
_atom_site_label
_atom_site_fract_x
_atom_site_fract_y
_atom_site_fract_z
Si Si1 0.705075 0.161454 0.761652
Si Si2 0.580346 0.831888 0.432770
Si Si3 0.896322 0.838920 0.000468
Si Si4 0.875072 0.165559 0.345873
Si Si5 0.982603 0.663813 0.770920
Si Si6 0.534027 0.334388 0.368765
Si Si7 0.456396 0.342719 0.128476
Si Si8 0.322597 0.340872 0.883201
O O1 0.598399 0.172432 0.763278
O O2 0.838504 0.224613 0.698223
O O3 0.665938 0.247540 0.816123
O O4 0.726024 0.000000 0.769094
O O5 0.500000 0.784772 0.500000
O O6 0.728563 0.783364 0.388550
O O7 0.514819 0.754203 0.416782
O O8 0.570576 0.000000 0.428464
O O9 0.781352 0.734578 0.052062
O O10 0.843063 0.000000 0.010024
O O11 0.965549 0.773768 0.936338
O O12 0.000000 0.843730 0.000000
O O13 0.973503 0.259794 0.285676
O O14 0.910302 0.187066 0.381687
O O15 0.892886 0.000000 0.327110
O O16 0.945028 0.500000 0.774588
O O17 0.854683 0.744084 0.832394
O O18 0.553137 0.500000 0.374055
O O19 0.405937 0.500000 0.132674
O O20 0.547239 0.356346 0.136242
O O21 0.274396 0.500000 0.886778
#
# Coordination Sequence:
#
# PCOD8091685 Si02
#       8
#     8   8   8   8   8   8   8   8
#     4   9  18  33  54  79 107 139 180 231 282 337
#     4  10  22  40  61  87 121 159 197 240 289 342
#     4  10  21  36  51  71 104 141 180 231 285 336
#     4  10  21  37  59  86 120 156 193 242 293 343
#     4  10  19  34  57  82 110 144 186 234 286 344
#     4  10  21  38  59  87 119 154 196 241 291 344
#     4   9  19  34  53  76 102 137 181 225 275 336
#     4  10  20  34  54  78 104 139 184 229 280 341
#
# _framework density 20.287392000000001
#
# number of rings (size 3 to 8) (size 9 to 14) (size 15 to 20)
#    0.000    2.250    1.250    1.125    0.000    4.500 
#    0.000    2.500    0.000    0.000    0.000    0.000 
#    0.000    0.000    0.000    0.000    0.000    0.000 
#
# Total GULP energy -396816.110360 kJ/mol
# GULP energy per Si atom -12400.503449 kJ/mol
# Density = 2.024122 g / cm^3
# Si number density = 20.287392 Si / 1000 Ang^3
#
#
#
# Elastic Constant Matrix: (Units=GPa)
#
#
# Indices 1 2 3 4 5 6 
#
# 1 41.1732 21.4332 20.9057 0.0010 16.7353 0.0015
# 2 21.4332 92.8588 61.2656 0.0012 15.0637 0.0016
# 3 20.9057 61.2656 140.6437 0.0004 21.6777 0.0006
# 4 0.0010 0.0012 0.0004 37.7112 0.0002 8.9064
# 5 16.7353 15.0637 21.6777 0.0002 19.6619 0.0006
# 6 0.0015 0.0016 0.0006 8.9064 0.0006 19.6714
#
#
#
# Elastic Compliance Matrix: (Units=1/GPa)
#
#
# Indices 1 2 3 4 5 6 
#
# 1 0.038519 -0.004601 0.000950 0.000000 -0.030308 -0.000002
# 2 -0.004601 0.016117 -0.006069 0.000000 -0.001741 -0.000001
# 3 0.000950 -0.006069 0.010867 0.000000 -0.008141 0.000000
# 4 0.000000 0.000000 0.000000 0.029692 0.000001 -0.013444
# 5 -0.030308 -0.001741 -0.008141 0.000001 0.086966 0.000000
# 6 -0.000002 -0.000001 0.000000 -0.013444 0.000000 0.056922
#
#
# Mechanical properties :
#
#
# Convention : Reuss Voigt Hill
#
# Bulk Modulus (GPa) = 21.70850 53.54274 37.62562
# Shear Modulus (GPa) = 18.25630 26.81366 22.53498
#
# Velocity S-wave (km/s) = 3.00306 3.63945 3.33646
# Velocity P-wave (km/s) = 4.76951 6.64155 5.78180
#
# Compressibility (1/GPa) = 0.04606491
#
# Stress axis : x y z
#
# Youngs Moduli (GPa) = 25.96093 62.04489 92.02006
#
# Poissons Ratio (x) = 0.28547 -0.08743
# Poissons Ratio (y) = 0.11945 0.55843
# Poissons Ratio (z) = -0.02467 0.37652
#
# Static dielectric constant tensor:
#      x y z
#    x 3.530720 0.000000 -0.189140 
#    y 0.000000 3.841940 -0.000020 
#    z -0.189140 -0.000020 4.292350 
# 
# 
# High freq. dielectric constant tensor:
#      x y z
#    x 1.780410 0.000000 0.004220 
#    y 0.000000 1.787600 0.000000 
#    z 0.004220 0.000000 1.793470 
# 
# From -- ./inp_files/375379.got.cif
#   From: 2010.06.25/outbox.cif.g09.slc.cpg/sg12_188_cif.got.tgz:375379.got - 2010.06.28 00:19:55.
