data_PCOD8091962
_publ_section_title
;
Structure prediction by ZEFSAII (Michael W. Deem and Ramdas Pophale) SiO2 
 PCOD8091962
Probable space group: C 2/M
;
_chemical_formula_sum "Si O2"
_cell_formula_units_Z 64
_cell_length_a 32.469854
_cell_length_b 8.954289
_cell_length_c 15.260617
_cell_angle_alpha 90.000000
_cell_angle_beta 132.724908
_cell_angle_gamma 90.000000
_cell_volume 3259.463433
_symmetry_space_group_name_H-M "C 2/M"
_symmetry_group_IT_number 12
_symmetry_cell_setting 'monoclinic'
loop_
_space_group_symop_operation_xyz
x,y,z
-x,y,-z
-x,-y,-z
x,-y,z
1/2+x,1/2+y,z
1/2-x,1/2+y,-z
1/2-x,1/2-y,-z
1/2+x,1/2-y,z
loop_
_atom_site_type_symbol
_atom_site_label
_atom_site_fract_x
_atom_site_fract_y
_atom_site_fract_z
Si Si1 0.581996 0.177600 0.775662
Si Si2 0.125692 0.826588 0.013477
Si Si3 0.364418 0.822927 0.324992
Si Si4 0.890499 0.670961 0.658904
Si Si5 0.278922 0.324621 0.460149
Si Si6 0.249815 0.673358 0.755258
Si Si7 0.064313 0.675551 0.086757
Si Si8 0.957861 0.671768 0.589560
O O1 0.622129 0.229629 0.754266
O O2 0.519602 0.240163 0.664175
O O3 0.581091 0.000000 0.786022
O O4 0.603286 0.247110 0.895533
O O5 0.192403 0.799695 0.110552
O O6 0.096378 0.761367 0.057048
O O7 0.110863 0.000000 0.987821
O O8 0.302023 0.767936 0.260219
O O9 0.410622 0.753146 0.458794
O O10 0.366556 0.000000 0.334389
O O11 0.868909 0.500000 0.625766
O O12 0.843551 0.778216 0.551669
O O13 0.906652 0.719158 0.779850
O O14 0.943644 0.690428 0.671862
O O15 0.272597 0.500000 0.458304
O O16 0.250000 0.250000 0.500000
O O17 0.247235 0.269517 0.328261
O O18 0.241653 0.500000 0.718346
O O19 0.067940 0.500000 0.072926
O O20 0.000000 0.727706 0.000000
O O21 0.960462 0.500000 0.565892
#
# Coordination Sequence:
#
# PCOD8091962 Si02
#       8
#     8   8   8   8   8   8   8   8
#     4  10  20  35  60  90 114 148 198 245 286 336
#     4  11  24  39  56  81 117 160 196 234 290 349
#     4   9  17  33  61  90 115 146 192 246 290 330
#     4  10  19  34  58  85 115 149 183 231 289 339
#     4  12  24  37  56  83 113 147 188 232 284 341
#     4  10  21  40  61  82 114 154 195 237 285 341
#     4  10  21  38  61  87 113 148 197 244 284 333
#     4   9  16  31  59  91 118 145 187 239 289 340
#
# _framework density 19.635133
#
# number of rings (size 3 to 8) (size 9 to 14) (size 15 to 20)
#    0.000    1.875    1.250    3.375    0.000    7.750 
#    0.000    2.500    0.000    0.750    0.000    0.000 
#    0.000    0.000    0.000    0.000    0.000    0.000 
#
# Total GULP energy -396819.318445 kJ/mol
# GULP energy per Si atom -12400.603701 kJ/mol
# Density = 1.959044 g / cm^3
# Si number density = 19.635133 Si / 1000 Ang^3
#
#
#
# Elastic Constant Matrix: (Units=GPa)
#
#
# Indices 1 2 3 4 5 6 
#
# 1 131.4684 29.6819 47.2207 0.0000 -0.0509 0.0000
# 2 29.6819 59.4906 28.3998 0.0000 0.7581 0.0000
# 3 47.2207 28.3998 102.7896 0.0000 -1.3287 0.0000
# 4 0.0000 0.0000 0.0000 24.1459 0.0000 -0.0719
# 5 -0.0509 0.7581 -1.3287 0.0000 39.1946 0.0000
# 6 0.0000 0.0000 0.0000 -0.0719 0.0000 12.9962
#
#
#
# Elastic Compliance Matrix: (Units=1/GPa)
#
#
# Indices 1 2 3 4 5 6 
#
# 1 0.009577 -0.003084 -0.003548 0.000000 -0.000048 0.000000
# 2 -0.003084 0.020368 -0.004218 0.000000 -0.000541 0.000000
# 3 -0.003548 -0.004218 0.012530 0.000000 0.000502 0.000000
# 4 0.000000 0.000000 0.000000 0.041416 0.000000 0.000229
# 5 -0.000048 -0.000541 0.000502 0.000000 0.025541 0.000000
# 6 0.000000 0.000000 0.000000 0.000229 0.000000 0.076947
#
#
# Mechanical properties :
#
#
# Convention : Reuss Voigt Hill
#
# Bulk Modulus (GPa) = 48.13233 56.03929 52.08581
# Shear Modulus (GPa) = 23.25526 27.83041 25.54284
#
# Velocity S-wave (km/s) = 3.44520 3.76889 3.61068
# Velocity P-wave (km/s) = 6.35551 6.89505 6.63077
#
# Compressibility (1/GPa) = 0.02077606
#
# Stress axis : x y z
#
# Youngs Moduli (GPa) = 104.41610 49.09547 79.80531
#
# Poissons Ratio (x) = 0.15140 0.28317
# Poissons Ratio (y) = 0.32200 0.33661
# Poissons Ratio (z) = 0.37049 0.20708
#
# Static dielectric constant tensor:
#      x y z
#    x 4.010760 0.000000 0.151780 
#    y 0.000000 3.722040 0.000000 
#    z 0.151780 0.000000 3.723280 
# 
# 
# High freq. dielectric constant tensor:
#      x y z
#    x 1.782530 0.000000 0.001570 
#    y 0.000000 1.726560 0.000000 
#    z 0.001570 0.000000 1.773260 
# 
# From -- ./inp_files/250017.got.cif
#   From: 2010.06.25/outbox.cif.g09.slc.cpg/sg12_126_cif.got.tgz:250017.got - 2010.06.28 00:19:55.
