data_PCOD8091437
_publ_section_title
;
Structure prediction by ZEFSAII (Michael W. Deem and Ramdas Pophale) SiO2 
 PCOD8091437
Probable space group: C 2/M
;
_chemical_formula_sum "Si O2"
_cell_formula_units_Z 56
_cell_length_a 24.937783
_cell_length_b 8.550510
_cell_length_c 36.243420
_cell_angle_alpha 90.000000
_cell_angle_beta 156.577938
_cell_angle_gamma 90.000000
_cell_volume 3071.973944
_symmetry_space_group_name_H-M "C 2/M"
_symmetry_group_IT_number 12
_symmetry_cell_setting 'monoclinic'
loop_
_space_group_symop_operation_xyz
x,y,z
-x,y,-z
-x,-y,-z
x,-y,z
1/2+x,1/2+y,z
1/2-x,1/2+y,-z
1/2-x,1/2-y,-z
1/2+x,1/2-y,z
loop_
_atom_site_type_symbol
_atom_site_label
_atom_site_fract_x
_atom_site_fract_y
_atom_site_fract_z
Si Si1 0.027423 0.816203 0.221586
Si Si2 0.227230 0.316922 0.903099
Si Si3 0.273764 0.683256 0.784089
Si Si4 0.691294 0.681863 0.602000
Si Si5 0.655724 0.181964 0.095689
Si Si6 0.559526 0.819080 0.589343
Si Si7 0.978601 0.814551 0.108535
O O1 0.163286 0.732602 0.321400
O O2 0.910200 0.775227 0.176163
O O3 0.988526 0.750332 0.156452
O O4 0.052475 0.000000 0.236580
O O5 0.201897 0.500000 0.892295
O O6 0.273904 0.284100 0.891186
O O7 0.340212 0.253655 0.002951
O O8 0.293495 0.500000 0.804952
O O9 0.269150 0.780045 0.818791
O O10 0.133361 0.715919 0.674511
O O11 0.396277 0.748518 0.836461
O O12 0.687856 0.500000 0.609015
O O13 0.660429 0.776824 0.619778
O O14 0.578226 0.719874 0.499747
O O15 0.670197 0.000000 0.095233
O O16 0.500000 0.233117 0.000000
O O17 0.521994 0.000000 0.562104
O O18 0.982299 0.000000 0.111017
#
# Coordination Sequence:
#
# PCOD8091437 Si02
#       7
#     8   8   8   8   8   8   8
#     4  11  21  37  56  79 113 149 185 226 274 329
#     4  11  22  37  56  79 109 148 190 228 272 325
#     4  10  19  35  58  82 108 144 185 226 274 325
#     4  11  21  33  52  81 114 145 182 223 272 328
#     4  11  23  37  54  80 110 145 187 231 274 317
#     4  10  19  34  56  81 110 144 182 224 278 328
#     4   9  18  33  54  80 110 146 183 221 271 325
#
# _framework density 18.229320999999999
#
# number of rings (size 3 to 8) (size 9 to 14) (size 15 to 20)
#    0.000    1.571    2.857    4.286    0.000    1.714 
#    0.000    2.143    0.000    0.857    0.000    0.000 
#    0.000    0.000    0.000    0.000    0.000    0.000 
#
# Total GULP energy -347326.516093 kJ/mol
# GULP energy per Si atom -12404.518432 kJ/mol
# Density = 1.818783 g / cm^3
# Si number density = 18.229321 Si / 1000 Ang^3
#
#
#
# Elastic Constant Matrix: (Units=GPa)
#
#
# Indices 1 2 3 4 5 6 
#
# 1 82.3933 13.6760 45.2228 0.0010 5.5682 -0.0022
# 2 13.6760 48.4681 29.5318 -0.0032 -1.6430 0.0063
# 3 45.2228 29.5318 119.4520 0.0016 6.4546 0.0022
# 4 0.0010 -0.0032 0.0016 26.0873 0.0022 1.5198
# 5 5.5682 -1.6430 6.4546 0.0022 28.6281 -0.0019
# 6 -0.0022 0.0063 0.0022 1.5198 -0.0019 23.0404
#
#
#
# Elastic Compliance Matrix: (Units=1/GPa)
#
#
# Indices 1 2 3 4 5 6 
#
# 1 0.015449 -0.001081 -0.005483 0.000000 -0.001831 0.000002
# 2 -0.001081 0.024588 -0.005828 0.000004 0.002935 -0.000006
# 3 -0.005483 -0.005828 0.011995 -0.000001 -0.001972 0.000000
# 4 0.000000 0.000004 -0.000001 0.038481 -0.000003 -0.002538
# 5 -0.001831 0.002935 -0.001972 -0.000003 0.035900 0.000002
# 6 0.000002 -0.000006 0.000000 -0.002538 0.000002 0.043569
#
#
# Mechanical properties :
#
#
# Convention : Reuss Voigt Hill
#
# Bulk Modulus (GPa) = 36.69939 47.46385 42.08162
# Shear Modulus (GPa) = 24.52807 26.34335 25.43571
#
# Velocity S-wave (km/s) = 3.67212 3.80558 3.73945
# Velocity P-wave (km/s) = 6.17698 6.73822 6.46369
#
# Compressibility (1/GPa) = 0.02724841
#
# Stress axis : x y z
#
# Youngs Moduli (GPa) = 64.72774 40.67074 83.36980
#
# Poissons Ratio (x) = 0.04395 0.45710
# Poissons Ratio (y) = 0.06995 0.48590
# Poissons Ratio (z) = 0.35489 0.23704
#
# Static dielectric constant tensor:
#      x y z
#    x 3.126320 -0.000010 -0.015030 
#    y -0.000010 3.216320 0.000010 
#    z -0.015030 0.000010 3.493970 
# 
# 
# High freq. dielectric constant tensor:
#      x y z
#    x 1.681610 0.000000 0.001210 
#    y 0.000000 1.704070 0.000000 
#    z 0.001210 0.000000 1.711930 
# 
# From -- ./inp_files/380809.got.cif
#   From: 2010.06.25/outbox.cif.g09.slc.cpg/sg12_191_cif.got.tgz:380809.got - 2010.06.28 00:19:55.
