data_PCOD8091552
_publ_section_title
;
Structure prediction by ZEFSAII (Michael W. Deem and Ramdas Pophale) SiO2 
 PCOD8091552
Probable space group: C 2/M
;
_chemical_formula_sum "Si O2"
_cell_formula_units_Z 56
_cell_length_a 9.291317
_cell_length_b 18.018905
_cell_length_c 18.707093
_cell_angle_alpha 90.000000
_cell_angle_beta 111.748116
_cell_angle_gamma 90.000000
_cell_volume 2909.004205
_symmetry_space_group_name_H-M "C 2/M"
_symmetry_group_IT_number 12
_symmetry_cell_setting 'monoclinic'
loop_
_space_group_symop_operation_xyz
x,y,z
-x,y,-z
-x,-y,-z
x,-y,z
1/2+x,1/2+y,z
1/2-x,1/2+y,-z
1/2-x,1/2-y,-z
1/2+x,1/2-y,z
loop_
_atom_site_type_symbol
_atom_site_label
_atom_site_fract_x
_atom_site_fract_y
_atom_site_fract_z
Si Si1 0.026484 0.663459 0.269283
Si Si2 0.673569 0.281927 0.055047
Si Si3 0.545183 0.586931 0.261737
Si Si4 0.206920 0.206475 0.785284
Si Si5 0.746275 0.915724 0.836703
Si Si6 0.273837 0.322395 0.416546
Si Si7 0.393407 0.331752 0.587314
O O1 0.146450 0.700873 0.238018
O O2 0.129875 0.632730 0.354686
O O3 0.907529 0.729966 0.266517
O O4 0.933384 0.594480 0.219055
O O5 0.718831 0.225531 0.125317
O O6 0.720509 0.365024 0.088217
O O7 0.500000 0.283772 0.000000
O O8 0.750000 0.250000 0.000000
O O9 0.511071 0.500000 0.258836
O O10 0.382497 0.628801 0.223521
O O11 0.650298 0.607504 0.212703
O O12 0.628838 0.610894 0.351467
O O13 0.775847 0.000000 0.865216
O O14 0.320974 0.362361 0.499432
O O15 0.422644 0.317167 0.391125
O O16 0.205908 0.240391 0.413388
#
# Coordination Sequence:
#
# PCOD8091552 Si02
#       7
#     8   8   8   8   8   8   8
#     4  11  19  35  61  86 116 155 199 249 291 341
#     4  11  22  39  63  91 116 146 187 241 294 353
#     4  11  22  39  58  83 122 163 201 243 291 350
#     4  11  21  36  61  88 116 148 198 242 294 352
#     4  10  24  41  61  88 120 157 196 238 291 355
#     4  10  19  34  56  86 118 150 198 256 298 335
#     4  10  21  34  54  89 116 153 201 248 304 342
#
# _framework density 19.250574
#
# number of rings (size 3 to 8) (size 9 to 14) (size 15 to 20)
#    0.000    1.429    2.857    4.286    2.000    0.857 
#    0.000    2.857    0.000    3.429    0.000    0.000 
#    0.000    0.000    0.000    0.000    0.000    0.000 
#
# Total GULP energy -346984.044833 kJ/mol
# GULP energy per Si atom -12392.287315 kJ/mol
# Density = 1.920676 g / cm^3
# Si number density = 19.250574 Si / 1000 Ang^3
#
#
#
# Elastic Constant Matrix: (Units=GPa)
#
#
# Indices 1 2 3 4 5 6 
#
# 1 91.9905 34.2644 42.8408 0.0000 9.0073 0.0000
# 2 34.2644 92.2355 49.1728 0.0000 -1.3387 0.0000
# 3 42.8408 49.1728 141.1185 0.0000 16.8877 0.0000
# 4 0.0000 0.0000 0.0000 26.9949 0.0000 -1.7255
# 5 9.0073 -1.3387 16.8877 0.0000 37.4020 0.0000
# 6 0.0000 0.0000 0.0000 -1.7255 0.0000 24.6288
#
#
#
# Elastic Compliance Matrix: (Units=1/GPa)
#
#
# Indices 1 2 3 4 5 6 
#
# 1 0.013688 -0.003742 -0.002580 0.000000 -0.002265 0.000000
# 2 -0.003742 0.014605 -0.004359 0.000000 0.003392 0.000000
# 3 -0.002580 -0.004359 0.009866 0.000000 -0.003989 0.000000
# 4 0.000000 0.000000 0.000000 0.037211 0.000000 0.002607
# 5 -0.002265 0.003392 -0.003989 0.000000 0.029205 0.000000
# 6 0.000000 0.000000 0.000000 0.002607 0.000000 0.040785
#
#
# Mechanical properties :
#
#
# Convention : Reuss Voigt Hill
#
# Bulk Modulus (GPa) = 59.53838 64.21116 61.87477
# Shear Modulus (GPa) = 29.01548 31.07624 30.04586
#
# Velocity S-wave (km/s) = 3.88655 4.02220 3.95495
# Velocity P-wave (km/s) = 7.15091 7.41611 7.28472
#
# Compressibility (1/GPa) = 0.01679589
#
# Stress axis : x y z
#
# Youngs Moduli (GPa) = 73.05626 68.46910 101.35919
#
# Poissons Ratio (x) = 0.25622 0.26155
# Poissons Ratio (y) = 0.27339 0.44183
# Poissons Ratio (z) = 0.18851 0.29846
#
# Static dielectric constant tensor:
#      x y z
#    x 3.710830 0.000000 0.169620 
#    y 0.000000 3.245250 0.000000 
#    z 0.169620 0.000000 4.352290 
# 
# 
# High freq. dielectric constant tensor:
#      x y z
#    x 1.762660 0.000000 0.004210 
#    y 0.000000 1.714080 0.000000 
#    z 0.004210 0.000000 1.768520 
# 
# From -- ./inp_files/257159.got.cif
#   From: 2010.06.25/outbox.cif.g09.slc.cpg/sg12_129_cif.got.tgz:257159.got - 2010.06.28 00:19:55.
