data_PCOD8091760
_publ_section_title
;
Structure prediction by ZEFSAII (Michael W. Deem and Ramdas Pophale) SiO2 
 PCOD8091760
Probable space group: C 2/M
;
_chemical_formula_sum "Si O2"
_cell_formula_units_Z 56
_cell_length_a 26.818846
_cell_length_b 13.895010
_cell_length_c 13.866651
_cell_angle_alpha 90.000000
_cell_angle_beta 31.958755
_cell_angle_gamma 90.000000
_cell_volume 2735.139786
_symmetry_space_group_name_H-M "C 2/M"
_symmetry_group_IT_number 12
_symmetry_cell_setting 'monoclinic'
loop_
_space_group_symop_operation_xyz
x,y,z
-x,y,-z
-x,-y,-z
x,-y,z
1/2+x,1/2+y,z
1/2-x,1/2+y,-z
1/2-x,1/2-y,-z
1/2+x,1/2-y,z
loop_
_atom_site_type_symbol
_atom_site_label
_atom_site_fract_x
_atom_site_fract_y
_atom_site_fract_z
Si Si1 0.531073 0.607276 0.557396
Si Si2 0.904163 0.264067 0.107374
Si Si3 0.331775 0.893943 0.384205
Si Si4 0.475877 0.106839 0.828530
Si Si5 0.684968 0.756744 0.257366
Si Si6 0.275378 0.390309 0.254616
Si Si7 0.112586 0.262195 0.168841
O O1 0.500000 0.592961 0.500000
O O2 0.547007 0.500000 0.577013
O O3 0.629322 0.668494 0.401048
O O4 0.442203 0.660056 0.755446
O O5 0.832607 0.308100 0.304845
O O6 0.868034 0.176344 0.100158
O O7 0.918137 0.351647 0.012481
O O8 0.000000 0.229369 0.000000
O O9 0.415290 0.886536 0.324422
O O10 0.243247 0.884960 0.599943
O O11 0.333899 0.000000 0.330382
O O12 0.459135 0.159740 0.754999
O O13 0.439321 0.000000 0.873265
O O14 0.695269 0.844513 0.316446
O O15 0.626039 0.787680 0.259641
O O16 0.789664 0.729134 0.049619
O O17 0.294068 0.500000 0.190460
#
# Coordination Sequence:
#
# PCOD8091760 Si02
#       7
#     8   8   8   8   8   8   8
#     4   9  19  37  60  85 118 161 206 250 294 347
#     4  10  20  37  58  80 109 145 189 247 296 354
#     4   9  19  35  58  82 106 143 185 235 302 357
#     4  10  19  34  57  84 113 147 191 239 292 351
#     4  10  21  37  57  86 123 161 203 244 296 361
#     4  11  22  37  56  81 116 153 190 239 300 360
#     4  10  20  36  58  86 123 163 200 245 298 353
#
# _framework density 20.474273
#
# number of rings (size 3 to 8) (size 9 to 14) (size 15 to 20)
#    0.000    2.143    1.429    1.714    0.000    3.714 
#    0.000    2.857    0.000    9.429    0.000    0.000 
#    0.000    0.000    0.000    0.000    0.000    0.000 
#
# Total GULP energy -346903.078831 kJ/mol
# GULP energy per Si atom -12389.395673 kJ/mol
# Density = 2.042767 g / cm^3
# Si number density = 20.474273 Si / 1000 Ang^3
#
#
#
# Elastic Constant Matrix: (Units=GPa)
#
#
# Indices 1 2 3 4 5 6 
#
# 1 74.6243 48.7282 -3.3921 0.0000 -1.4858 0.0000
# 2 48.7282 144.3315 12.3197 0.0000 -12.9161 0.0000
# 3 -3.3921 12.3197 47.5871 0.0000 -12.0283 0.0000
# 4 0.0000 0.0000 0.0000 12.1084 0.0000 0.3012
# 5 -1.4858 -12.9161 -12.0283 0.0000 19.9610 0.0000
# 6 0.0000 0.0000 0.0000 0.3012 0.0000 35.0270
#
#
#
# Elastic Compliance Matrix: (Units=1/GPa)
#
#
# Indices 1 2 3 4 5 6 
#
# 1 0.017583 -0.006263 0.002573 0.000000 -0.001193 0.000000
# 2 -0.006263 0.009613 -0.001747 0.000000 0.004701 0.000000
# 3 0.002573 -0.001747 0.025260 0.000000 0.014283 0.000000
# 4 0.000000 0.000000 0.000000 0.082605 0.000000 -0.000710
# 5 -0.001193 0.004701 0.014283 0.000000 0.061658 0.000000
# 6 0.000000 0.000000 0.000000 -0.000710 0.000000 0.028555
#
#
# Mechanical properties :
#
#
# Convention : Reuss Voigt Hill
#
# Bulk Modulus (GPa) = 24.04823 42.42829 33.23826
# Shear Modulus (GPa) = 19.99941 27.34508 23.67225
#
# Velocity S-wave (km/s) = 3.12878 3.65853 3.40398
# Velocity P-wave (km/s) = 4.98231 6.21403 5.63194
#
# Compressibility (1/GPa) = 0.04158310
#
# Stress axis : x y z
#
# Youngs Moduli (GPa) = 56.87284 104.02937 39.58852
#
# Poissons Ratio (x) = 0.65150 -0.10187
# Poissons Ratio (y) = 0.35618 0.06915
# Poissons Ratio (z) = -0.14634 0.18171
#
# Static dielectric constant tensor:
#      x y z
#    x 3.763370 0.000000 -0.049200 
#    y 0.000000 3.833890 0.000000 
#    z -0.049200 0.000000 3.746130 
# 
# 
# High freq. dielectric constant tensor:
#      x y z
#    x 1.793060 0.000000 0.004170 
#    y 0.000000 1.793910 0.000000 
#    z 0.004170 0.000000 1.795940 
# 
# From -- ./inp_files/251022.got.cif
#   From: 2010.06.25/outbox.cif.g09.slc.cpg/sg12_126_cif.got.tgz:251022.got - 2010.06.28 00:19:55.
