data_PCOD8091889
_publ_section_title
;
Structure prediction by ZEFSAII (Michael W. Deem and Ramdas Pophale) SiO2 
 PCOD8091889
Probable space group: C 2/M
;
_chemical_formula_sum "Si O2"
_cell_formula_units_Z 64
_cell_length_a 20.447005
_cell_length_b 8.563345
_cell_length_c 17.766113
_cell_angle_alpha 90.000000
_cell_angle_beta 89.789089
_cell_angle_gamma 90.000000
_cell_volume 3110.732181
_symmetry_space_group_name_H-M "C 2/M"
_symmetry_group_IT_number 12
_symmetry_cell_setting 'monoclinic'
loop_
_space_group_symop_operation_xyz
x,y,z
-x,y,-z
-x,-y,-z
x,-y,z
1/2+x,1/2+y,z
1/2-x,1/2+y,-z
1/2-x,1/2-y,-z
1/2+x,1/2-y,z
loop_
_atom_site_type_symbol
_atom_site_label
_atom_site_fract_x
_atom_site_fract_y
_atom_site_fract_z
Si Si1 0.488602 0.685924 0.826023
Si Si2 0.370204 0.315481 0.926065
Si Si3 0.882499 0.185660 0.094499
Si Si4 0.627886 0.818019 0.596098
Si Si5 0.625424 0.818721 0.421948
Si Si6 0.747076 0.817584 0.162141
Si Si7 0.996458 0.816959 0.655470
Si Si8 0.261616 0.681509 0.676474
O O1 0.490471 0.500000 0.828445
O O2 0.426568 0.753356 0.871603
O O3 0.553856 0.754660 0.864341
O O4 0.484066 0.743225 0.740243
O O5 0.376221 0.500000 0.928575
O O6 0.300053 0.269884 0.895059
O O7 0.379032 0.246463 0.009866
O O8 0.819972 0.240797 0.142662
O O9 0.885989 0.000000 0.091577
O O10 0.634148 0.775714 0.508811
O O11 0.570986 0.716312 0.633252
O O12 0.695494 0.767934 0.634775
O O13 0.612188 0.000000 0.607827
O O14 0.551578 0.777385 0.398964
O O15 0.676429 0.715089 0.375886
O O16 0.639486 0.000000 0.406798
O O17 0.730144 0.778873 0.247771
O O18 0.738907 0.000000 0.148247
O O19 0.982287 0.000000 0.647631
O O20 0.261118 0.500000 0.697241
#
# Coordination Sequence:
#
# PCOD8091889 Si02
#       8
#     8   8   8   8   8   8   8   8
#     4   9  18  33  54  81 110 141 184 235 280 324
#     4  10  19  34  58  83 109 144 187 235 281 328
#     4   9  18  33  55  82 109 143 188 233 278 330
#     4  10  23  41  60  84 115 151 190 238 292 343
#     4  11  23  40  61  85 116 151 188 235 293 347
#     4  11  22  36  55  81 115 150 184 227 283 344
#     4  11  22  36  58  87 119 156 196 236 280 338
#     4  11  23  40  61  85 113 147 193 241 288 345
#
# _framework density 20.573934000000001
#
# number of rings (size 3 to 8) (size 9 to 14) (size 15 to 20)
#    0.000    1.750    0.000    4.500    0.000    7.000 
#    0.000    1.250    0.000    4.500    0.000    0.000 
#    0.000    0.000    0.000    0.000    0.000    0.000 
#
# Total GULP energy -396972.732864 kJ/mol
# GULP energy per Si atom -12405.397902 kJ/mol
# Density = 2.052711 g / cm^3
# Si number density = 20.573934 Si / 1000 Ang^3
#
#
#
# Elastic Constant Matrix: (Units=GPa)
#
#
# Indices 1 2 3 4 5 6 
#
# 1 91.7726 16.0288 4.6325 0.0000 1.8238 0.0000
# 2 16.0288 14.0836 25.3997 0.0000 -2.8835 0.0000
# 3 4.6325 25.3997 94.6538 0.0000 4.2655 0.0000
# 4 0.0000 0.0000 0.0000 21.2755 0.0000 0.2389
# 5 1.8238 -2.8835 4.2655 0.0000 45.6902 0.0000
# 6 0.0000 0.0000 0.0000 0.2389 0.0000 31.1865
#
#
#
# Elastic Compliance Matrix: (Units=1/GPa)
#
#
# Indices 1 2 3 4 5 6 
#
# 1 0.016880 -0.036463 0.009131 0.000000 -0.003827 0.000000
# 2 -0.036463 0.223458 -0.059129 0.000000 0.021078 0.000000
# 3 0.009131 -0.059129 0.026280 0.000000 -0.006549 0.000000
# 4 0.000000 0.000000 0.000000 0.047006 0.000000 -0.000360
# 5 -0.003827 0.021078 -0.006549 0.000000 0.023981 0.000000
# 6 0.000000 0.000000 0.000000 -0.000360 0.000000 0.032068
#
#
# Mechanical properties :
#
#
# Convention : Reuss Voigt Hill
#
# Bulk Modulus (GPa) = 10.67275 32.51466 21.59370
# Shear Modulus (GPa) = 8.71344 29.92705 19.32024
#
# Velocity S-wave (km/s) = 2.06019 3.81807 3.06774
# Velocity P-wave (km/s) = 3.29514 5.93928 4.80276
#
# Compressibility (1/GPa) = 0.09369658
#
# Stress axis : x y z
#
# Youngs Moduli (GPa) = 59.24120 4.47512 38.05197
#
# Poissons Ratio (x) = 0.16318 -0.34745
# Poissons Ratio (y) = 2.16010 2.24996
# Poissons Ratio (z) = -0.54092 0.26461
#
# Static dielectric constant tensor:
#      x y z
#    x 3.857800 0.000000 0.010800 
#    y 0.000000 3.370820 0.000000 
#    z 0.010800 0.000000 3.964550 
# 
# 
# High freq. dielectric constant tensor:
#      x y z
#    x 1.820870 0.000000 0.001170 
#    y 0.000000 1.775570 0.000000 
#    z 0.001170 0.000000 1.822100 
# 
# From -- ./inp_files/281270.got.cif
#   From: 2010.06.25/outbox.cif.g09.slc.cpg/sg12_141_cif.got.tgz:281270.got - 2010.06.28 00:19:55.
