data_PCOD8091727
_publ_section_title
;
Structure prediction by ZEFSAII (Michael W. Deem and Ramdas Pophale) SiO2 
 PCOD8091727
Probable space group: C 2/M
;
_chemical_formula_sum "Si O2"
_cell_formula_units_Z 64
_cell_length_a 34.167603
_cell_length_b 8.716682
_cell_length_c 26.006512
_cell_angle_alpha 90.000000
_cell_angle_beta 155.318381
_cell_angle_gamma 90.000000
_cell_volume 3234.319592
_symmetry_space_group_name_H-M "C 2/M"
_symmetry_group_IT_number 12
_symmetry_cell_setting 'monoclinic'
loop_
_space_group_symop_operation_xyz
x,y,z
-x,y,-z
-x,-y,-z
x,-y,z
1/2+x,1/2+y,z
1/2-x,1/2+y,-z
1/2-x,1/2-y,-z
1/2+x,1/2-y,z
loop_
_atom_site_type_symbol
_atom_site_label
_atom_site_fract_x
_atom_site_fract_y
_atom_site_fract_z
Si Si1 0.382810 0.681327 0.979427
Si Si2 0.017174 0.323339 0.640545
Si Si3 0.916337 0.179979 0.611003
Si Si4 0.817529 0.179435 0.792377
Si Si5 0.319571 0.822958 0.233267
Si Si6 0.932185 0.817904 0.746186
Si Si7 0.296771 0.178628 0.663421
Si Si8 0.869108 0.820912 0.393633
O O1 0.391031 0.500000 0.990687
O O2 0.378285 0.735563 0.914256
O O3 0.288841 0.733116 0.898161
O O4 0.473893 0.752874 0.115604
O O5 0.986604 0.500000 0.598749
O O6 0.995476 0.265112 0.671934
O O7 0.964667 0.219346 0.536201
O O8 0.128321 0.304371 0.759623
O O9 0.926203 0.241681 0.680727
O O10 0.813424 0.219731 0.466276
O O11 0.935984 0.000000 0.631414
O O12 0.848466 0.265208 0.777178
O O13 0.710194 0.217817 0.674950
O O14 0.830687 0.000000 0.798515
O O15 0.376502 0.721355 0.342508
O O16 0.322036 0.000000 0.254714
O O17 0.840946 0.761166 0.667092
O O18 0.932926 0.000000 0.748308
O O19 0.313077 0.000000 0.676029
O O20 0.846074 0.000000 0.373559
#
# Coordination Sequence:
#
# PCOD8091727 Si02
#       8
#     8   8   8   8   8   8   8   8
#     4   8  17  36  59  80 107 142 188 231 265 315
#     4  11  21  33  54  80 109 146 185 223 268 324
#     4  10  22  38  56  80 112 144 182 228 279 327
#     4  10  19  34  57  83 111 147 183 221 269 328
#     4   9  19  35  54  79 109 145 186 223 265 324
#     4  10  21  39  61  80 102 145 191 230 273 325
#     4  11  22  36  55  83 115 143 176 229 283 330
#     4  11  20  31  50  80 116 147 177 220 275 326
#
# _framework density 19.787779
#
# number of rings (size 3 to 8) (size 9 to 14) (size 15 to 20)
#    0.000    2.000    1.250    3.750    0.000    4.000 
#    0.000    6.250    0.000    0.000    0.000    0.000 
#    0.000    0.000    0.000    0.000    0.000    0.000 
#
# Total GULP energy -396741.614456 kJ/mol
# GULP energy per Si atom -12398.175452 kJ/mol
# Density = 1.974274 g / cm^3
# Si number density = 19.787779 Si / 1000 Ang^3
#
#
#
# Elastic Constant Matrix: (Units=GPa)
#
#
# Indices 1 2 3 4 5 6 
#
# 1 136.9217 24.9327 29.8896 0.0000 -7.3556 0.0000
# 2 24.9327 33.6938 17.4203 0.0000 -5.3192 0.0000
# 3 29.8896 17.4203 61.4789 0.0000 -15.7320 0.0000
# 4 0.0000 0.0000 0.0000 13.7874 0.0000 -2.4144
# 5 -7.3556 -5.3192 -15.7320 0.0000 20.8970 0.0000
# 6 0.0000 0.0000 0.0000 -2.4144 0.0000 31.1976
#
#
#
# Elastic Compliance Matrix: (Units=1/GPa)
#
#
# Indices 1 2 3 4 5 6 
#
# 1 0.008855 -0.005082 -0.002971 0.000000 -0.000413 0.000000
# 2 -0.005082 0.037743 -0.007708 0.000000 0.002015 0.000000
# 3 -0.002971 -0.007708 0.023688 0.000000 0.014825 0.000000
# 4 0.000000 0.000000 0.000000 0.073526 0.000000 0.005690
# 5 -0.000413 0.002015 0.014825 0.000000 0.059382 0.000000
# 6 0.000000 0.000000 0.000000 0.005690 0.000000 0.032494
#
#
# Mechanical properties :
#
#
# Convention : Reuss Voigt Hill
#
# Bulk Modulus (GPa) = 25.79707 41.84217 33.81962
# Shear Modulus (GPa) = 17.84872 23.83320 20.84096
#
# Velocity S-wave (km/s) = 3.00660 3.47427 3.24886
# Velocity P-wave (km/s) = 5.01179 6.10618 5.58585
#
# Compressibility (1/GPa) = 0.03876409
#
# Stress axis : x y z
#
# Youngs Moduli (GPa) = 112.92838 26.49504 42.21545
#
# Poissons Ratio (x) = 0.13464 0.12542
# Poissons Ratio (y) = 0.57388 0.32541
# Poissons Ratio (z) = 0.33551 0.20423
#
# Static dielectric constant tensor:
#      x y z
#    x 3.725870 0.000000 -0.049450 
#    y 0.000000 3.418310 0.000000 
#    z -0.049450 0.000000 3.662170 
# 
# 
# High freq. dielectric constant tensor:
#      x y z
#    x 1.779950 0.000000 0.005770 
#    y 0.000000 1.755510 0.000000 
#    z 0.005770 0.000000 1.750130 
# 
# From -- ./inp_files/243886.got.cif
#   From: 2010.06.25/outbox.cif.g09.slc.cpg/sg12_122_cif.got.tgz:243886.got - 2010.06.28 00:19:55.
