data_PCOD8091968
_publ_section_title
;
Structure prediction by ZEFSAII (Michael W. Deem and Ramdas Pophale) SiO2 
 PCOD8091968
Probable space group: C 2/M
;
_chemical_formula_sum "Si O2"
_cell_formula_units_Z 64
_cell_length_a 29.368515
_cell_length_b 8.765714
_cell_length_c 18.945289
_cell_angle_alpha 90.000000
_cell_angle_beta 41.029289
_cell_angle_gamma 90.000000
_cell_volume 3201.611957
_symmetry_space_group_name_H-M "C 2/M"
_symmetry_group_IT_number 12
_symmetry_cell_setting 'monoclinic'
loop_
_space_group_symop_operation_xyz
x,y,z
-x,y,-z
-x,-y,-z
x,-y,z
1/2+x,1/2+y,z
1/2-x,1/2+y,-z
1/2-x,1/2-y,-z
1/2+x,1/2-y,z
loop_
_atom_site_type_symbol
_atom_site_label
_atom_site_fract_x
_atom_site_fract_y
_atom_site_fract_z
Si Si1 0.724733 0.320492 0.703684
Si Si2 0.897421 0.678685 0.887418
Si Si3 0.683130 0.820138 0.616637
Si Si4 0.422365 0.172127 0.595876
Si Si5 0.825860 0.326763 0.833016
Si Si6 0.050913 0.680033 0.679355
Si Si7 0.866413 0.822689 0.533330
Si Si8 0.789721 0.322419 0.126382
O O1 0.716535 0.500000 0.710712
O O2 0.672516 0.243728 0.708772
O O3 0.799756 0.271786 0.585958
O O4 0.712214 0.267520 0.798233
O O5 0.900369 0.500000 0.868688
O O6 0.847229 0.745192 0.883948
O O7 0.976234 0.742142 0.794050
O O8 0.863745 0.713907 0.002885
O O9 0.750000 0.750000 0.500000
O O10 0.611584 0.772959 0.662295
O O11 0.693295 0.000000 0.606816
O O12 0.500000 0.232916 0.500000
O O13 0.397199 0.176147 0.705447
O O14 0.375378 0.287280 0.605590
O O15 0.416134 0.000000 0.572155
O O16 0.797276 0.500000 0.872251
O O17 0.768994 0.225044 0.860586
O O18 0.049138 0.500000 0.668673
O O19 0.066336 0.764033 0.587389
O O20 0.852822 0.000000 0.536972
O O21 0.781015 0.500000 0.153757
#
# Coordination Sequence:
#
# PCOD8091968 Si02
#       8
#     8   8   8   8   8   8   8   8
#     4  12  24  40  61  85 117 157 200 243 297 360
#     4   9  20  39  62  88 117 157 204 244 288 352
#     4  11  22  37  63  94 123 153 193 242 298 359
#     4  10  20  34  54  80 116 162 202 235 287 359
#     4  10  19  34  58  85 117 157 201 242 289 351
#     4  10  21  40  64  88 118 158 197 236 294 366
#     4  12  23  35  56  86 121 153 192 247 302 350
#     4  11  22  38  61  88 120 155 201 256 296 339
#
# _framework density 19.989930999999999
#
# number of rings (size 3 to 8) (size 9 to 14) (size 15 to 20)
#    0.000    1.375    2.500    4.125    0.000    2.750 
#    0.000    4.375    0.000    3.750    0.000    0.000 
#    0.000    0.000    0.000    0.000    0.000    0.000 
#
# Total GULP energy -396789.167131 kJ/mol
# GULP energy per Si atom -12399.661473 kJ/mol
# Density = 1.994443 g / cm^3
# Si number density = 19.989931 Si / 1000 Ang^3
#
#
#
# Elastic Constant Matrix: (Units=GPa)
#
#
# Indices 1 2 3 4 5 6 
#
# 1 94.5027 28.6345 31.9813 0.0013 9.6140 -0.0038
# 2 28.6345 75.6327 22.9337 -0.0036 2.2195 -0.0005
# 3 31.9813 22.9337 98.2667 0.0056 0.5847 -0.0008
# 4 0.0013 -0.0036 0.0056 24.2784 -0.0005 5.0460
# 5 9.6140 2.2195 0.5847 -0.0005 23.2709 0.0022
# 6 -0.0038 -0.0005 -0.0008 5.0460 0.0022 28.5397
#
#
#
# Elastic Compliance Matrix: (Units=1/GPa)
#
#
# Indices 1 2 3 4 5 6 
#
# 1 0.013444 -0.003899 -0.003435 -0.000001 -0.005096 0.000002
# 2 -0.003899 0.015397 -0.002326 0.000003 0.000201 -0.000001
# 3 -0.003435 -0.002326 0.011829 -0.000003 0.001344 0.000000
# 4 -0.000001 0.000003 -0.000003 0.042760 0.000002 -0.007560
# 5 -0.005096 0.000201 0.001344 0.000002 0.045025 -0.000004
# 6 0.000002 -0.000001 0.000000 -0.007560 -0.000004 0.036376
#
#
# Mechanical properties :
#
#
# Convention : Reuss Voigt Hill
#
# Bulk Modulus (GPa) = 46.83615 48.38899 47.61257
# Shear Modulus (GPa) = 26.14146 27.54130 26.84138
#
# Velocity S-wave (km/s) = 3.62018 3.71584 3.66832
# Velocity P-wave (km/s) = 6.39961 6.53217 6.46623
#
# Compressibility (1/GPa) = 0.02135103
#
# Stress axis : x y z
#
# Youngs Moduli (GPa) = 74.38275 64.94688 84.53670
#
# Poissons Ratio (x) = 0.25321 0.29040
# Poissons Ratio (y) = 0.29000 0.19661
# Poissons Ratio (z) = 0.25552 0.15105
#
# Static dielectric constant tensor:
#      x y z
#    x 3.803790 -0.000030 -0.000100 
#    y -0.000030 3.452930 0.000050 
#    z -0.000100 0.000050 3.766080 
# 
# 
# High freq. dielectric constant tensor:
#      x y z
#    x 1.779100 0.000000 0.007660 
#    y 0.000000 1.764940 0.000000 
#    z 0.007660 0.000000 1.781360 
# 
# From -- ./inp_files/295463.got.cif
#   From: 2010.06.25/outbox.cif.g09.slc.cpg/sg12_148_cif.got.tgz:295463.got - 2010.06.28 00:19:55.
