data_PCOD8091164
_publ_section_title
;
Structure prediction by ZEFSAII (Michael W. Deem and Ramdas Pophale) SiO2 
 PCOD8091164
Probable space group: C 2/M
;
_chemical_formula_sum "Si O2"
_cell_formula_units_Z 64
_cell_length_a 19.967126
_cell_length_b 8.634017
_cell_length_c 33.797355
_cell_angle_alpha 90.000000
_cell_angle_beta 35.441830
_cell_angle_gamma 90.000000
_cell_volume 3378.674820
_symmetry_space_group_name_H-M "C 2/M"
_symmetry_group_IT_number 12
_symmetry_cell_setting 'monoclinic'
loop_
_space_group_symop_operation_xyz
x,y,z
-x,y,-z
-x,-y,-z
x,-y,z
1/2+x,1/2+y,z
1/2-x,1/2+y,-z
1/2-x,1/2-y,-z
1/2+x,1/2-y,z
loop_
_atom_site_type_symbol
_atom_site_label
_atom_site_fract_x
_atom_site_fract_y
_atom_site_fract_z
Si Si1 0.122881 0.815738 0.057677
Si Si2 0.271032 0.679963 0.204458
Si Si3 0.610493 0.184218 0.469568
Si Si4 0.015431 0.180286 0.949728
Si Si5 0.644258 0.683369 0.682361
Si Si6 0.584902 0.182367 0.795928
Si Si7 0.871528 0.317685 0.451428
Si Si8 0.515549 0.816954 0.307593
O O1 0.074115 0.752162 0.039275
O O2 0.038146 0.757385 0.133125
O O3 0.124497 0.000000 0.058713
O O4 0.250000 0.750000 0.000000
O O5 0.268553 0.500000 0.217940
O O6 0.355305 0.711052 0.127167
O O7 0.312977 0.771662 0.222976
O O8 0.147930 0.736232 0.247629
O O9 0.500000 0.253468 0.500000
O O10 0.731660 0.244843 0.393210
O O11 0.592589 0.244767 0.522819
O O12 0.610791 0.000000 0.467313
O O13 0.988605 0.000000 0.966842
O O14 0.000000 0.261696 0.000000
O O15 0.644861 0.500000 0.687598
O O16 0.619520 0.762296 0.735912
O O17 0.544429 0.728705 0.699570
O O18 0.568983 0.000000 0.803624
O O19 0.861479 0.500000 0.457247
O O20 0.750000 0.250000 0.500000
O O21 0.961393 0.262900 0.375195
O O22 0.503121 0.000000 0.306365
#
# Coordination Sequence:
#
# PCOD8091164 Si02
#       8
#     8   8   8   8   8   8   8   8
#     4  10  20  36  59  87 117 151 190 231 280 335
#     4   9  19  36  57  82 110 147 189 228 279 339
#     4   9  19  34  55  81 107 141 187 234 283 342
#     4   8  15  30  53  80 109 140 179 222 264 316
#     4  11  22  37  58  81 112 148 189 238 289 346
#     4  11  23  39  58  81 114 152 192 239 287 335
#     4  10  19  34  55  79 107 142 182 230 284 341
#     4  10  21  35  56  82 113 147 187 235 284 346
#
# _framework density 18.942337999999999
#
# number of rings (size 3 to 8) (size 9 to 14) (size 15 to 20)
#    0.000    2.250    1.250    2.625    1.750    1.500 
#    0.000    2.500    0.000   11.250    0.000    0.000 
#    0.000    0.000    0.000    0.000    0.000    0.000 
#
# Total GULP energy -396727.382729 kJ/mol
# GULP energy per Si atom -12397.730710 kJ/mol
# Density = 1.889922 g / cm^3
# Si number density = 18.942338 Si / 1000 Ang^3
#
#
#
# Elastic Constant Matrix: (Units=GPa)
#
#
# Indices 1 2 3 4 5 6 
#
# 1 137.2617 27.9906 77.7025 0.0224 -4.2877 0.1248
# 2 27.9906 56.2777 29.7770 0.0670 0.9506 0.0544
# 3 77.7025 29.7770 124.5346 0.0308 0.0345 0.0467
# 4 0.0224 0.0670 0.0308 23.0168 -0.0072 -2.2447
# 5 -4.2877 0.9506 0.0345 -0.0072 46.7727 -0.0014
# 6 0.1248 0.0544 0.0467 -2.2447 -0.0014 29.0169
#
#
#
# Elastic Compliance Matrix: (Units=1/GPa)
#
#
# Indices 1 2 3 4 5 6 
#
# 1 0.011554 -0.002233 -0.006676 0.000001 0.001110 -0.000035
# 2 -0.002233 0.020782 -0.003575 -0.000056 -0.000624 -0.000028
# 3 -0.006676 -0.003575 0.013050 0.000001 -0.000549 0.000014
# 4 0.000001 -0.000056 0.000001 0.043777 0.000008 0.003387
# 5 0.001110 -0.000624 -0.000549 0.000008 0.021495 -0.000001
# 6 -0.000035 -0.000028 0.000014 0.003387 -0.000001 0.034725
#
#
# Mechanical properties :
#
#
# Convention : Reuss Voigt Hill
#
# Bulk Modulus (GPa) = 48.97644 65.44604 57.21124
# Shear Modulus (GPa) = 28.22332 31.93487 30.07909
#
# Velocity S-wave (km/s) = 3.86419 4.11042 3.98921
# Velocity P-wave (km/s) = 6.76912 7.55993 7.17543
#
# Compressibility (1/GPa) = 0.02041798
#
# Stress axis : x y z
#
# Youngs Moduli (GPa) = 86.54647 48.11787 76.62732
#
# Poissons Ratio (x) = 0.10747 0.51154
# Poissons Ratio (y) = 0.19329 0.27398
# Poissons Ratio (z) = 0.57775 0.17204
#
# Static dielectric constant tensor:
#      x y z
#    x 1.968490 -0.002330 0.843790 
#    y -0.002330 3.234200 0.001000 
#    z 0.843790 0.001000 3.362840 
# 
# 
# High freq. dielectric constant tensor:
#      x y z
#    x 1.746370 0.000000 0.002050 
#    y 0.000000 1.710460 -0.000010 
#    z 0.002050 -0.000010 1.747070 
# 
# From -- ./inp_files/378242.got.cif
#   From: 2010.06.25/outbox.cif.g09.slc.cpg/sg12_190_cif.got.tgz:378242.got - 2010.06.28 00:19:55.
