data_PCOD8091523
_publ_section_title
;
Structure prediction by ZEFSAII (Michael W. Deem and Ramdas Pophale) SiO2 
 PCOD8091523
Probable space group: C 2/M
;
_chemical_formula_sum "Si O2"
_cell_formula_units_Z 48
_cell_length_a 23.503348
_cell_length_b 14.358698
_cell_length_c 14.410502
_cell_angle_alpha 90.000000
_cell_angle_beta 150.979691
_cell_angle_gamma 90.000000
_cell_volume 2359.243296
_symmetry_space_group_name_H-M "C 2/M"
_symmetry_group_IT_number 12
_symmetry_cell_setting 'monoclinic'
loop_
_space_group_symop_operation_xyz
x,y,z
-x,y,-z
-x,-y,-z
x,-y,z
1/2+x,1/2+y,z
1/2-x,1/2+y,-z
1/2-x,1/2-y,-z
1/2+x,1/2-y,z
loop_
_atom_site_type_symbol
_atom_site_label
_atom_site_fract_x
_atom_site_fract_y
_atom_site_fract_z
Si Si1 0.453687 0.605705 0.685052
Si Si2 0.237779 0.791855 0.689148
Si Si3 0.134147 0.275730 0.715202
Si Si4 0.537311 0.899856 0.948385
Si Si5 0.190003 0.891414 0.923694
Si Si6 0.591342 0.270618 0.212893
O O1 0.414416 0.500000 0.625838
O O2 0.384210 0.657254 0.504653
O O3 0.591973 0.618759 0.864563
O O4 0.412422 0.640623 0.727022
O O5 0.209294 0.716049 0.727393
O O6 0.282360 0.744613 0.655938
O O7 0.329268 0.865006 0.863236
O O8 0.149551 0.171151 0.778555
O O9 0.000000 0.299285 0.500000
O O10 0.186175 0.352740 0.860347
O O11 0.449432 0.820060 0.783454
O O12 0.527016 0.000000 0.880618
O O13 0.500000 0.916041 0.000000
O O14 0.203707 0.000000 0.913302
O O15 0.500000 0.286154 0.000000
#
# Coordination Sequence:
#
# PCOD8091523 Si02
#       6
#     8   8   8   8   8   8
#     4  11  21  35  56  84 118 153 195 247 299 353
#     4  10  19  34  56  84 114 154 196 243 297 352
#     4  11  22  41  64  86 122 162 203 250 304 355
#     4   8  15  29  50  74 102 137 180 229 286 343
#     4  10  23  40  62  93 122 156 204 251 301 362
#     4   9  19  34  53  79 112 152 193 239 294 358
#
# _framework density 20.345506
#
# number of rings (size 3 to 8) (size 9 to 14) (size 15 to 20)
#    0.000    2.500    1.667    3.000    0.000    3.000 
#    0.000    0.833    0.000    1.000    0.000    0.000 
#    0.000    0.000    0.000    0.000    0.000    0.000 
#
# Total GULP energy -297419.952852 kJ/mol
# GULP energy per Si atom -12392.498035 kJ/mol
# Density = 2.029920 g / cm^3
# Si number density = 20.345506 Si / 1000 Ang^3
#
#
#
# Elastic Constant Matrix: (Units=GPa)
#
#
# Indices 1 2 3 4 5 6 
#
# 1 68.5035 14.9394 12.4766 0.0000 10.1255 0.0000
# 2 14.9394 57.0830 19.4868 0.0000 -0.3532 0.0000
# 3 12.4766 19.4868 93.6465 0.0000 17.4107 0.0000
# 4 0.0000 0.0000 0.0000 19.6158 0.0000 -0.1565
# 5 10.1255 -0.3532 17.4107 0.0000 24.3676 0.0000
# 6 0.0000 0.0000 0.0000 -0.1565 0.0000 32.0351
#
#
#
# Elastic Compliance Matrix: (Units=1/GPa)
#
#
# Indices 1 2 3 4 5 6 
#
# 1 0.016581 -0.004381 -0.000005 0.000000 -0.006950 0.000000
# 2 -0.004381 0.020285 -0.004648 0.000000 0.005435 0.000000
# 3 -0.000005 -0.004648 0.013444 0.000000 -0.009671 0.000000
# 4 0.000000 0.000000 0.000000 0.050981 0.000000 0.000249
# 5 -0.006950 0.005435 -0.009671 0.000000 0.050915 0.000000
# 6 0.000000 0.000000 0.000000 0.000249 0.000000 0.031217
#
#
# Mechanical properties :
#
#
# Convention : Reuss Voigt Hill
#
# Bulk Modulus (GPa) = 31.01489 34.78207 32.89848
# Shear Modulus (GPa) = 23.55821 26.69238 25.12530
#
# Velocity S-wave (km/s) = 3.40650 3.62602 3.51797
# Velocity P-wave (km/s) = 5.54522 5.88757 5.71896
#
# Compressibility (1/GPa) = 0.03224258
#
# Stress axis : x y z
#
# Youngs Moduli (GPa) = 60.30868 49.29699 74.38008
#
# Poissons Ratio (x) = 0.21596 0.00041
# Poissons Ratio (y) = 0.26419 0.34572
# Poissons Ratio (z) = 0.00033 0.22913
#
# Static dielectric constant tensor:
#      x y z
#    x 3.675910 0.000000 0.256670 
#    y 0.000000 4.258990 0.000000 
#    z 0.256670 0.000000 3.583930 
# 
# 
# High freq. dielectric constant tensor:
#      x y z
#    x 1.787120 0.000000 0.018080 
#    y 0.000000 1.780200 0.000000 
#    z 0.018080 0.000000 1.789400 
# 
# From -- ./inp_files/143893.got.cif
#   From: 2010.06.25/outbox.cif.g09.slc.cpg/sg12_72_cif.got.tgz:143893.got - 2010.06.28 00:19:55.
