data_PCOD8091161
_publ_section_title
;
Structure prediction by ZEFSAII (Michael W. Deem and Ramdas Pophale) SiO2 
 PCOD8091161
Probable space group: C 2/M
;
_chemical_formula_sum "Si O2"
_cell_formula_units_Z 64
_cell_length_a 29.771208
_cell_length_b 9.557741
_cell_length_c 23.382972
_cell_angle_alpha 90.000000
_cell_angle_beta 149.841271
_cell_angle_gamma 90.000000
_cell_volume 3342.709932
_symmetry_space_group_name_H-M "C 2/M"
_symmetry_group_IT_number 12
_symmetry_cell_setting 'monoclinic'
loop_
_space_group_symop_operation_xyz
x,y,z
-x,y,-z
-x,-y,-z
x,-y,z
1/2+x,1/2+y,z
1/2-x,1/2+y,-z
1/2-x,1/2-y,-z
1/2+x,1/2-y,z
loop_
_atom_site_type_symbol
_atom_site_label
_atom_site_fract_x
_atom_site_fract_y
_atom_site_fract_z
Si Si1 0.045240 0.666448 0.682205
Si Si2 0.105168 0.836193 0.981643
Si Si3 0.474664 0.336663 0.227311
Si Si4 0.199355 0.665317 0.765425
Si Si5 0.315259 0.653253 0.715226
Si Si6 0.364288 0.162448 0.426562
Si Si7 0.032210 0.346679 0.098315
Si Si8 0.333187 0.653936 0.603106
O O1 0.039923 0.500000 0.686864
O O2 0.059168 0.742831 0.757804
O O3 0.129089 0.710815 0.736097
O O4 0.956715 0.725600 0.552531
O O5 0.091270 0.809710 0.898775
O O6 0.031962 0.750751 0.935695
O O7 0.091994 0.000000 0.981315
O O8 0.202750 0.780167 0.108128
O O9 0.473684 0.500000 0.243046
O O10 0.575431 0.286946 0.323011
O O11 0.203682 0.500000 0.765016
O O12 0.167800 0.729151 0.669378
O O13 0.331967 0.500000 0.762535
O O14 0.210844 0.691101 0.607950
O O15 0.372596 0.773300 0.807506
O O16 0.346642 0.645127 0.685086
O O17 0.382312 0.000000 0.435736
O O18 0.042659 0.500000 0.139624
O O19 0.000000 0.371991 0.000000
O O20 0.312651 0.500000 0.555470
O O21 0.250000 0.750000 0.500000
#
# Coordination Sequence:
#
# PCOD8091161 Si02
#       8
#     8   8   8   8   8   8   8   8
#     4  10  20  35  57  84 112 143 184 232 281 331
#     4  10  20  38  60  80 108 148 190 230 271 329
#     4  10  21  37  54  77 113 149 185 229 274 324
#     4   9  18  33  57  86 109 139 185 236 284 323
#     4  10  19  34  55  79 106 145 189 218 260 328
#     4   9  17  31  55  86 115 139 178 235 281 326
#     4  11  23  36  52  80 115 145 177 225 281 330
#     4  10  20  34  52  78 110 143 181 225 270 322
#
# _framework density 19.146142000000001
#
# number of rings (size 3 to 8) (size 9 to 14) (size 15 to 20)
#    0.000    2.125    1.250    2.250    0.000    6.500 
#    0.000    1.250    0.000    3.000    0.000    0.000 
#    0.000    0.000    0.000    0.000    0.000    0.000 
#
# Total GULP energy -396684.523131 kJ/mol
# GULP energy per Si atom -12396.391348 kJ/mol
# Density = 1.910256 g / cm^3
# Si number density = 19.146142 Si / 1000 Ang^3
#
#
#
# Elastic Constant Matrix: (Units=GPa)
#
#
# Indices 1 2 3 4 5 6 
#
# 1 92.5996 27.2874 19.0611 0.0000 2.3527 0.0000
# 2 27.2874 63.6904 36.6713 0.0000 2.5704 0.0000
# 3 19.0611 36.6713 100.9556 0.0000 4.1478 0.0000
# 4 0.0000 0.0000 0.0000 -15.6945 0.0000 -2.4107
# 5 2.3527 2.5704 4.1478 0.0000 33.0243 0.0000
# 6 0.0000 0.0000 0.0000 -2.4107 0.0000 21.5985
#
#
#
# Elastic Compliance Matrix: (Units=1/GPa)
#
#
# Indices 1 2 3 4 5 6 
#
# 1 0.012387 -0.004999 -0.000505 0.000000 -0.000430 0.000000
# 2 -0.004999 0.021884 -0.006986 0.000000 -0.000470 0.000000
# 3 -0.000505 -0.006986 0.012579 0.000000 -0.001000 0.000000
# 4 0.000000 0.000000 0.000000 -0.062643 0.000000 -0.006992
# 5 -0.000430 -0.000470 -0.001000 0.000000 0.030474 0.000000
# 6 0.000000 0.000000 0.000000 -0.006992 0.000000 0.045519
#
#
# Mechanical properties :
#
#
# Convention : Reuss Voigt Hill
#
# Bulk Modulus (GPa) = 45.72432 47.03167 46.37799
# Shear Modulus (GPa) = 54.07097 19.40073 36.73585
#
# Velocity S-wave (km/s) = 5.32001 3.18669 4.38506
# Velocity P-wave (km/s) = 7.85304 6.17720 7.06499
#
# Compressibility (1/GPa) = 0.02187020
#
# Stress axis : x y z
#
# Youngs Moduli (GPa) = 80.72857 45.69549 79.49453
#
# Poissons Ratio (x) = 0.22842 0.04017
# Poissons Ratio (y) = 0.40355 0.55535
# Poissons Ratio (z) = 0.04079 0.31923
#
# Static dielectric constant tensor:
#      x y z
#    x 3.586950 0.000000 -0.039330 
#    y 0.000000 3.445620 0.000000 
#    z -0.039330 0.000000 3.938050 
# 
# 
# High freq. dielectric constant tensor:
#      x y z
#    x 1.748220 0.000000 0.002980 
#    y 0.000000 1.711230 0.000000 
#    z 0.002980 0.000000 1.752110 
# 
# From -- ./inp_files/353487.got.cif
#   From: 2010.06.25/outbox.cif.g09.slc.cpg/sg12_177_cif.got.tgz:353487.got - 2010.06.28 00:19:55.
