data_PCOD8091798
_publ_section_title
;
Structure prediction by ZEFSAII (Michael W. Deem and Ramdas Pophale) SiO2 
 PCOD8091798
Probable space group: C 2/M
;
_chemical_formula_sum "Si O2"
_cell_formula_units_Z 56
_cell_length_a 21.705322
_cell_length_b 8.860874
_cell_length_c 15.098230
_cell_angle_alpha 90.000000
_cell_angle_beta 69.915194
_cell_angle_gamma 90.000000
_cell_volume 2727.219803
_symmetry_space_group_name_H-M "C 2/M"
_symmetry_group_IT_number 12
_symmetry_cell_setting 'monoclinic'
loop_
_space_group_symop_operation_xyz
x,y,z
-x,y,-z
-x,-y,-z
x,-y,z
1/2+x,1/2+y,z
1/2-x,1/2+y,-z
1/2-x,1/2-y,-z
1/2+x,1/2-y,z
loop_
_atom_site_type_symbol
_atom_site_label
_atom_site_fract_x
_atom_site_fract_y
_atom_site_fract_z
Si Si1 0.341318 0.823442 0.735562
Si Si2 0.532794 0.669493 0.394543
Si Si3 0.703047 0.667384 0.405487
Si Si4 0.949279 0.168311 0.264276
Si Si5 0.959010 0.179395 0.935447
Si Si6 0.318860 0.320493 0.935515
Si Si7 0.154143 0.333138 0.588582
O O1 0.411781 0.787331 0.659910
O O2 0.289579 0.769384 0.686497
O O3 0.331413 0.729491 0.829471
O O4 0.332696 0.000000 0.759805
O O5 0.500000 0.729932 0.500000
O O6 0.561618 0.500000 0.392443
O O7 0.478298 0.667578 0.347073
O O8 0.678867 0.500000 0.391084
O O9 0.771267 0.658578 0.420333
O O10 0.649161 0.735417 0.500717
O O11 0.883651 0.265839 0.307295
O O12 0.000807 0.239964 0.169530
O O13 0.930311 0.000000 0.241657
O O14 0.882260 0.232748 0.964626
O O15 0.958223 0.000000 0.937122
O O16 0.000000 0.242158 0.000000
O O17 0.312468 0.500000 0.942769
O O18 0.250000 0.250000 0.000000
O O19 0.126749 0.500000 0.581431
#
# Coordination Sequence:
#
# PCOD8091798 Si02
#       7
#     8   8   8   8   8   8   8
#     4  12  24  38  60  89 120 157 205 257 310 365
#     4  10  20  35  57  86 120 160 200 240 299 370
#     4  10  21  38  58  82 120 166 205 247 304 371
#     4  10  19  34  57  85 117 158 198 241 305 371
#     4   9  19  38  64  91 119 157 207 259 311 378
#     4  11  23  43  67  93 127 163 210 265 326 391
#     4  10  21  36  56  86 121 158 202 253 306 363
#
# _framework density 20.533731
#
# number of rings (size 3 to 8) (size 9 to 14) (size 15 to 20)
#    0.000    1.714    1.429    3.429    0.000    4.857 
#    0.000    1.429    0.000    3.000    0.000    0.000 
#    0.000    0.000    0.000    0.000    0.000    0.000 
#
# Total GULP energy -347031.293816 kJ/mol
# GULP energy per Si atom -12393.974779 kJ/mol
# Density = 2.048700 g / cm^3
# Si number density = 20.533731 Si / 1000 Ang^3
#
#
#
# Elastic Constant Matrix: (Units=GPa)
#
#
# Indices 1 2 3 4 5 6 
#
# 1 85.3381 30.7695 63.2484 0.0000 -5.0028 0.0000
# 2 30.7695 94.2663 33.4803 0.0000 -9.2266 0.0000
# 3 63.2484 33.4803 141.2600 0.0000 -8.0242 0.0000
# 4 0.0000 0.0000 0.0000 30.8104 0.0000 -7.6194
# 5 -5.0028 -9.2266 -8.0242 0.0000 34.5479 0.0000
# 6 0.0000 0.0000 0.0000 -7.6194 0.0000 21.3553
#
#
#
# Elastic Compliance Matrix: (Units=1/GPa)
#
#
# Indices 1 2 3 4 5 6 
#
# 1 0.018472 -0.003373 -0.007469 0.000000 0.000039 0.000000
# 2 -0.003373 0.012414 -0.001289 0.000000 0.002528 0.000000
# 3 -0.007469 -0.001289 0.010790 0.000000 0.001080 0.000000
# 4 0.000000 0.000000 0.000000 0.035597 0.000000 0.012701
# 5 0.000039 0.002528 0.001080 0.000000 0.029877 0.000000
# 6 0.000000 0.000000 0.000000 0.012701 0.000000 0.051358
#
#
# Mechanical properties :
#
#
# Convention : Reuss Voigt Hill
#
# Bulk Modulus (GPa) = 57.42019 63.98454 60.70236
# Shear Modulus (GPa) = 26.51445 30.23379 28.37412
#
# Velocity S-wave (km/s) = 3.59731 3.84134 3.72133
# Velocity P-wave (km/s) = 6.72895 7.13463 6.93476
#
# Compressibility (1/GPa) = 0.01741548
#
# Stress axis : x y z
#
# Youngs Moduli (GPa) = 54.13482 80.55257 92.67627
#
# Poissons Ratio (x) = 0.27170 0.69222
# Poissons Ratio (y) = 0.18259 0.11942
# Poissons Ratio (z) = 0.40435 0.10379
#
# Static dielectric constant tensor:
#      x y z
#    x 3.839910 0.000000 0.091670 
#    y 0.000000 3.979760 0.000000 
#    z 0.091670 0.000000 3.933570 
# 
# 
# High freq. dielectric constant tensor:
#      x y z
#    x 1.808180 0.000000 -0.000460 
#    y 0.000000 1.785830 0.000000 
#    z -0.000460 0.000000 1.803660 
# 
# From -- ./inp_files/238432.got.cif
#   From: 2010.06.25/outbox.cif.g09.slc.cpg/sg12_120_cif.got.tgz:238432.got - 2010.06.28 00:19:55.
