data_PCOD8091396
_publ_section_title
;
Structure prediction by ZEFSAII (Michael W. Deem and Ramdas Pophale) SiO2 
 PCOD8091396
Probable space group: C 2/M
;
_chemical_formula_sum "Si O2"
_cell_formula_units_Z 64
_cell_length_a 14.512772
_cell_length_b 8.949938
_cell_length_c 26.134641
_cell_angle_alpha 90.000000
_cell_angle_beta 102.983243
_cell_angle_gamma 90.000000
_cell_volume 3307.807101
_symmetry_space_group_name_H-M "C 2/M"
_symmetry_group_IT_number 12
_symmetry_cell_setting 'monoclinic'
loop_
_space_group_symop_operation_xyz
x,y,z
-x,y,-z
-x,-y,-z
x,-y,z
1/2+x,1/2+y,z
1/2-x,1/2+y,-z
1/2-x,1/2-y,-z
1/2+x,1/2-y,z
loop_
_atom_site_type_symbol
_atom_site_label
_atom_site_fract_x
_atom_site_fract_y
_atom_site_fract_z
Si Si1 0.169487 0.670294 0.321895
Si Si2 0.083142 0.678537 0.860954
Si Si3 0.520846 0.323850 0.060251
Si Si4 0.372818 0.326521 0.380654
Si Si5 0.553751 0.828980 0.406549
Si Si6 0.915061 0.176098 0.783058
Si Si7 0.344899 0.675963 0.493414
Si Si8 0.291969 0.324750 0.861676
O O1 0.150525 0.500000 0.302023
O O2 0.280452 0.708431 0.335439
O O3 0.136939 0.693496 0.376098
O O4 0.114747 0.781480 0.277773
O O5 0.079727 0.500000 0.860233
O O6 0.188702 0.742749 0.861727
O O7 0.052802 0.737825 0.912806
O O8 0.012508 0.741237 0.809031
O O9 0.505996 0.500000 0.067180
O O10 0.629096 0.277415 0.086555
O O11 0.500000 0.274710 0.000000
O O12 0.398760 0.500000 0.380843
O O13 0.457537 0.228565 0.367736
O O14 0.361779 0.273809 0.437684
O O15 0.570680 0.731329 0.459529
O O16 0.544890 0.000000 0.422014
O O17 0.831179 0.227699 0.811148
O O18 0.933059 0.000000 0.789495
O O19 0.335001 0.500000 0.496566
O O20 0.250000 0.750000 0.500000
O O21 0.279066 0.500000 0.860114
#
# Coordination Sequence:
#
# PCOD8091396 Si02
#       8
#     8   8   8   8   8   8   8   8
#     4  10  22  41  58  78 113 145 176 224 281 328
#     4  10  19  34  56  80 109 145 184 227 276 322
#     4   9  18  34  54  79 115 153 186 225 271 319
#     4  10  22  40  58  81 113 146 179 223 275 328
#     4  11  23  39  58  84 113 145 184 225 273 332
#     4  10  21  38  58  80 106 139 184 228 273 330
#     4  11  21  37  60  83 112 147 182 223 274 329
#     4   8  17  34  54  77 108 144 181 223 271 323
#
# _framework density 19.348165999999999
#
# number of rings (size 3 to 8) (size 9 to 14) (size 15 to 20)
#    0.000    2.125    1.250    2.625    0.000    5.750 
#    0.000   10.000    0.000    0.000    0.000    0.000 
#    0.000    0.000    0.000    0.000    0.000    0.000 
#
# Total GULP energy -396802.489949 kJ/mol
# GULP energy per Si atom -12400.077811 kJ/mol
# Density = 1.930413 g / cm^3
# Si number density = 19.348166 Si / 1000 Ang^3
#
#
#
# Elastic Constant Matrix: (Units=GPa)
#
#
# Indices 1 2 3 4 5 6 
#
# 1 126.0667 31.2202 21.4739 0.0000 5.2573 0.0000
# 2 31.2202 56.1935 25.8085 0.0000 2.4729 0.0000
# 3 21.4739 25.8085 80.9966 0.0000 19.1081 0.0000
# 4 0.0000 0.0000 0.0000 28.4550 0.0000 -0.4060
# 5 5.2573 2.4729 19.1081 0.0000 19.5749 0.0000
# 6 0.0000 0.0000 0.0000 -0.4060 0.0000 31.7818
#
#
#
# Elastic Compliance Matrix: (Units=1/GPa)
#
#
# Indices 1 2 3 4 5 6 
#
# 1 0.009284 -0.004814 -0.000627 0.000000 -0.001273 0.000000
# 2 -0.004814 0.023727 -0.007641 0.000000 0.005755 0.000000
# 3 -0.000627 -0.007641 0.019072 0.000000 -0.017483 0.000000
# 4 0.000000 0.000000 0.000000 0.035150 0.000000 0.000449
# 5 -0.001273 0.005755 -0.017483 0.000000 0.067767 0.000000
# 6 0.000000 0.000000 0.000000 0.000449 0.000000 0.031470
#
#
# Mechanical properties :
#
#
# Convention : Reuss Voigt Hill
#
# Bulk Modulus (GPa) = 38.58433 46.69579 42.64006
# Shear Modulus (GPa) = 22.59631 28.27928 25.43779
#
# Velocity S-wave (km/s) = 3.42113 3.82724 3.62987
# Velocity P-wave (km/s) = 5.96581 6.61190 6.29715
#
# Compressibility (1/GPa) = 0.02591726
#
# Stress axis : x y z
#
# Youngs Moduli (GPa) = 107.70672 42.14661 52.43323
#
# Poissons Ratio (x) = 0.20290 0.03288
# Poissons Ratio (y) = 0.51853 0.40067
# Poissons Ratio (z) = 0.06755 0.32206
#
# Static dielectric constant tensor:
#      x y z
#    x 3.798550 0.000000 0.031800 
#    y 0.000000 3.401170 0.000000 
#    z 0.031800 0.000000 3.441000 
# 
# 
# High freq. dielectric constant tensor:
#      x y z
#    x 1.765410 0.000000 0.005690 
#    y 0.000000 1.742760 0.000000 
#    z 0.005690 0.000000 1.743990 
# 
# From -- ./inp_files/338731.got.cif
#   From: 2010.06.25/outbox.cif.g09.slc.cpg/sg12_170_cif.got.tgz:338731.got - 2010.06.28 00:19:55.
