data_PCOD8091064
_publ_section_title
;
Structure prediction by ZEFSAII (Michael W. Deem and Ramdas Pophale) SiO2 
 PCOD8091064
Probable space group: C 2/M
;
_chemical_formula_sum "Si O2"
_cell_formula_units_Z 64
_cell_length_a 18.287118
_cell_length_b 20.602348
_cell_length_c 11.803875
_cell_angle_alpha 90.000000
_cell_angle_beta 47.703441
_cell_angle_gamma 90.000000
_cell_volume 3289.466596
_symmetry_space_group_name_H-M "C 2/M"
_symmetry_group_IT_number 12
_symmetry_cell_setting 'monoclinic'
loop_
_space_group_symop_operation_xyz
x,y,z
-x,y,-z
-x,-y,-z
x,-y,z
1/2+x,1/2+y,z
1/2-x,1/2+y,-z
1/2-x,1/2-y,-z
1/2+x,1/2-y,z
loop_
_atom_site_type_symbol
_atom_site_label
_atom_site_fract_x
_atom_site_fract_y
_atom_site_fract_z
Si Si1 0.967696 0.892072 0.661632
Si Si2 0.737332 0.177759 0.128651
Si Si3 0.325219 0.074928 0.237153
Si Si4 0.346500 0.570487 0.412934
Si Si5 0.918460 0.763106 0.821983
Si Si6 0.733608 0.317465 0.646858
Si Si7 0.245528 0.427233 0.934849
Si Si8 0.889778 0.697119 0.293040
O O1 0.976076 0.817627 0.691879
O O2 0.860580 0.921827 0.788767
O O3 0.000000 0.898882 0.500000
O O4 0.040774 0.932657 0.664755
O O5 0.649311 0.227944 0.199988
O O6 0.734196 0.158936 0.262931
O O7 0.845686 0.207145 0.992296
O O8 0.713857 0.116932 0.072643
O O9 0.219940 0.084990 0.407524
O O10 0.314198 0.092159 0.116253
O O11 0.397851 0.128371 0.217601
O O12 0.363257 0.000000 0.213736
O O13 0.319023 0.500000 0.389224
O O14 0.334488 0.625749 0.331980
O O15 0.997527 0.717544 0.802041
O O16 0.833908 0.310246 0.470779
O O17 0.670668 0.250687 0.716914
O O18 0.219091 0.500000 0.997797
#
# Coordination Sequence:
#
# PCOD8091064 Si02
#       8
#     8   8   8   8   8   8   8   8
#     4  11  20  31  58  90 118 151 197 245 297 353
#     4  10  24  40  56  83 118 157 196 236 295 354
#     4   9  19  35  57  84 116 150 191 247 300 343
#     4  10  19  34  54  85 120 152 189 240 298 349
#     4  10  23  39  56  86 117 153 194 243 292 351
#     4  10  22  37  58  88 116 154 197 235 288 354
#     4  10  21  38  57  82 119 159 197 241 295 355
#     4  10  21  37  62  85 115 150 196 249 290 339
#
# _framework density 19.456043000000001
#
# number of rings (size 3 to 8) (size 9 to 14) (size 15 to 20)
#    0.000    2.000    2.500    0.375    7.000    1.500 
#    0.000    0.625    0.000    3.750    0.000    4.375 
#    0.000    0.000    0.000    0.000    0.000    0.000 
#
# Total GULP energy -396791.740387 kJ/mol
# GULP energy per Si atom -12399.741887 kJ/mol
# Density = 1.941176 g / cm^3
# Si number density = 19.456043 Si / 1000 Ang^3
#
#
#
# Elastic Constant Matrix: (Units=GPa)
#
#
# Indices 1 2 3 4 5 6 
#
# 1 75.3869 45.2472 32.2265 0.0000 18.2838 0.0000
# 2 45.2472 119.1590 29.7209 0.0000 19.6085 0.0000
# 3 32.2265 29.7209 50.3474 0.0000 22.3095 0.0000
# 4 0.0000 0.0000 0.0000 19.6183 0.0000 0.0747
# 5 18.2838 19.6085 22.3095 0.0000 37.1778 0.0000
# 6 0.0000 0.0000 0.0000 0.0747 0.0000 33.9408
#
#
#
# Elastic Compliance Matrix: (Units=1/GPa)
#
#
# Indices 1 2 3 4 5 6 
#
# 1 0.020926 -0.005285 -0.009467 0.000000 -0.001823 0.000000
# 2 -0.005285 0.011325 -0.002462 0.000000 -0.001897 0.000000
# 3 -0.009467 -0.002462 0.033696 0.000000 -0.014266 0.000000
# 4 0.000000 0.000000 0.000000 0.050973 0.000000 -0.000112
# 5 -0.001823 -0.001897 -0.014266 0.000000 0.037355 0.000000
# 6 0.000000 0.000000 0.000000 -0.000112 0.000000 0.029463
#
#
# Mechanical properties :
#
#
# Convention : Reuss Voigt Hill
#
# Bulk Modulus (GPa) = 31.72610 51.03137 41.37874
# Shear Modulus (GPa) = 21.86521 27.32728 24.59625
#
# Velocity S-wave (km/s) = 3.35599 3.75182 3.55941
# Velocity P-wave (km/s) = 5.59990 6.71224 6.18114
#
# Compressibility (1/GPa) = 0.03151979
#
# Stress axis : x y z
#
# Youngs Moduli (GPa) = 47.78779 88.29908 29.67669
#
# Poissons Ratio (x) = 0.46664 0.28094
# Poissons Ratio (y) = 0.25255 0.07307
# Poissons Ratio (z) = 0.45239 0.21742
#
# Static dielectric constant tensor:
#      x y z
#    x 3.415200 0.000000 -0.002040 
#    y 0.000000 3.736520 0.000000 
#    z -0.002040 0.000000 3.326530 
# 
# 
# High freq. dielectric constant tensor:
#      x y z
#    x 1.752350 0.000000 0.000940 
#    y 0.000000 1.767270 0.000000 
#    z 0.000940 0.000000 1.738770 
# 
# From -- ./inp_files/159560.got.cif
#   From: 2010.06.25/outbox.cif.g09.slc.cpg/sg12_80_cif.got.tgz:159560.got - 2010.06.28 00:19:55.
