data_PCOD8091494
_publ_section_title
;
Structure prediction by ZEFSAII (Michael W. Deem and Ramdas Pophale) SiO2 
 PCOD8091494
Probable space group: C 2/M
;
_chemical_formula_sum "Si O2"
_cell_formula_units_Z 64
_cell_length_a 24.074083
_cell_length_b 8.441505
_cell_length_c 19.671240
_cell_angle_alpha 90.000000
_cell_angle_beta 127.763123
_cell_angle_gamma 90.000000
_cell_volume 3160.314823
_symmetry_space_group_name_H-M "C 2/M"
_symmetry_group_IT_number 12
_symmetry_cell_setting 'monoclinic'
loop_
_space_group_symop_operation_xyz
x,y,z
-x,y,-z
-x,-y,-z
x,-y,z
1/2+x,1/2+y,z
1/2-x,1/2+y,-z
1/2-x,1/2-y,-z
1/2+x,1/2-y,z
loop_
_atom_site_type_symbol
_atom_site_label
_atom_site_fract_x
_atom_site_fract_y
_atom_site_fract_z
Si Si1 0.407598 0.311324 0.090171
Si Si2 0.419720 0.816602 0.341196
Si Si3 0.823884 0.183254 0.157479
Si Si4 0.836359 0.685836 0.413171
Si Si5 0.557336 0.311535 0.249690
Si Si6 0.437734 0.314754 0.591818
Si Si7 0.684153 0.310859 0.253306
Si Si8 0.180197 0.185273 0.098968
O O1 0.411277 0.500000 0.093237
O O2 0.352929 0.256136 0.106948
O O3 0.485120 0.242813 0.163687
O O4 0.379348 0.245112 0.996591
O O5 0.385321 0.707380 0.258080
O O6 0.387219 0.770477 0.389085
O O7 0.502527 0.781051 0.404227
O O8 0.404898 0.000000 0.313770
O O9 0.756903 0.286695 0.126047
O O10 0.802353 0.000000 0.139288
O O11 0.835857 0.500000 0.427888
O O12 0.863667 0.776848 0.500425
O O13 0.758334 0.749274 0.338366
O O14 0.557522 0.500000 0.247024
O O15 0.565651 0.253159 0.333227
O O16 0.622074 0.244164 0.254175
O O17 0.454573 0.500000 0.601888
O O18 0.684509 0.500000 0.250716
O O19 0.673308 0.240115 0.169100
O O20 0.168265 0.000000 0.095816
#
# Coordination Sequence:
#
# PCOD8091494 Si02
#       8
#     8   8   8   8   8   8   8   8
#     4   9  18  32  53  82 114 141 177 225 270 321
#     4  11  21  36  58  82 110 144 179 221 270 324
#     4  11  20  33  54  82 115 147 175 218 275 325
#     4  10  21  37  55  80 110 141 180 225 270 319
#     4   9  18  34  54  79 111 143 179 228 274 310
#     4  11  22  36  56  83 112 143 179 220 272 328
#     4   9  18  34  55  78 108 145 184 226 268 312
#     4  10  19  34  56  83 110 143 185 222 264 323
#
# _framework density 20.251147
#
# number of rings (size 3 to 8) (size 9 to 14) (size 15 to 20)
#    0.000    2.000    2.500    1.875    0.000    3.500 
#    0.000    3.125    0.000    2.250    0.000    0.875 
#    0.000    0.000    0.000    0.000    0.000    0.000 
#
# Total GULP energy -396838.587385 kJ/mol
# GULP energy per Si atom -12401.205856 kJ/mol
# Density = 2.020505 g / cm^3
# Si number density = 20.251147 Si / 1000 Ang^3
#
#
#
# Elastic Constant Matrix: (Units=GPa)
#
#
# Indices 1 2 3 4 5 6 
#
# 1 146.7322 10.0094 63.1697 0.0000 1.0688 0.0000
# 2 10.0094 15.8133 10.4963 0.0000 -3.6161 0.0000
# 3 63.1697 10.4963 159.2226 0.0000 -5.4247 0.0000
# 4 0.0000 0.0000 0.0000 24.0768 0.0000 1.0190
# 5 1.0688 -3.6161 -5.4247 0.0000 18.0022 0.0000
# 6 0.0000 0.0000 0.0000 1.0190 0.0000 18.8502
#
#
#
# Elastic Compliance Matrix: (Units=1/GPa)
#
#
# Indices 1 2 3 4 5 6 
#
# 1 0.008458 -0.003746 -0.003184 0.000000 -0.002214 0.000000
# 2 -0.003746 0.070504 -0.002699 0.000000 0.013571 0.000000
# 3 -0.003184 -0.002699 0.007790 0.000000 0.001994 0.000000
# 4 0.000000 0.000000 0.000000 0.041629 0.000000 -0.002250
# 5 -0.002214 0.013571 0.001994 0.000000 0.059007 0.000000
# 6 0.000000 0.000000 0.000000 -0.002250 0.000000 0.053171
#
#
# Mechanical properties :
#
#
# Convention : Reuss Voigt Hill
#
# Bulk Modulus (GPa) = 14.81639 54.34653 34.58146
# Shear Modulus (GPa) = 17.71068 28.05868 22.88468
#
# Velocity S-wave (km/s) = 2.96049 3.72632 3.36526
# Velocity P-wave (km/s) = 4.36099 6.73858 5.67568
#
# Compressibility (1/GPa) = 0.06749281
#
# Stress axis : x y z
#
# Youngs Moduli (GPa) = 118.23796 14.18352 128.37694
#
# Poissons Ratio (x) = 0.05314 0.40874
# Poissons Ratio (y) = 0.44296 0.34650
# Poissons Ratio (z) = 0.37646 0.03828
#
# Static dielectric constant tensor:
#      x y z
#    x 3.761140 0.000000 -0.049600 
#    y 0.000000 3.172950 0.000000 
#    z -0.049600 0.000000 3.972370 
# 
# 
# High freq. dielectric constant tensor:
#      x y z
#    x 1.788010 0.000000 -0.001060 
#    y 0.000000 1.745810 0.000000 
#    z -0.001060 0.000000 1.808430 
# 
# From -- ./inp_files/295850.got.cif
#   From: 2010.06.25/outbox.cif.g09.slc.cpg/sg12_148_cif.got.tgz:295850.got - 2010.06.28 00:19:55.
