data_PCOD8091372
_publ_section_title
;
Structure prediction by ZEFSAII (Michael W. Deem and Ramdas Pophale) SiO2 
 PCOD8091372
Probable space group: C 2/M
;
_chemical_formula_sum "Si O2"
_cell_formula_units_Z 64
_cell_length_a 13.145323
_cell_length_b 22.289746
_cell_length_c 11.765105
_cell_angle_alpha 90.000000
_cell_angle_beta 100.534156
_cell_angle_gamma 90.000000
_cell_volume 3389.145764
_symmetry_space_group_name_H-M "C 2/M"
_symmetry_group_IT_number 12
_symmetry_cell_setting 'monoclinic'
loop_
_space_group_symop_operation_xyz
x,y,z
-x,y,-z
-x,-y,-z
x,-y,z
1/2+x,1/2+y,z
1/2-x,1/2+y,-z
1/2-x,1/2-y,-z
1/2+x,1/2-y,z
loop_
_atom_site_type_symbol
_atom_site_label
_atom_site_fract_x
_atom_site_fract_y
_atom_site_fract_z
Si Si1 0.847055 0.822261 0.399217
Si Si2 0.311955 0.432698 0.689857
Si Si3 0.887693 0.350613 0.936271
Si Si4 0.534201 0.070171 0.243947
Si Si5 0.208887 0.754096 0.223909
Si Si6 0.720562 0.067210 0.436151
Si Si7 0.560696 0.675273 0.341071
Si Si8 0.822205 0.369414 0.165751
O O1 0.759950 0.775555 0.344896
O O2 0.800334 0.888958 0.390038
O O3 0.888056 0.803099 0.530698
O O4 0.937472 0.820082 0.323221
O O5 0.352132 0.500000 0.707510
O O6 0.224570 0.424216 0.573597
O O7 0.411677 0.393844 0.677609
O O8 0.263747 0.413429 0.800132
O O9 0.900105 0.404882 0.849591
O O10 0.821812 0.295199 0.874944
O O11 0.824540 0.377101 0.030360
O O12 0.000000 0.326841 0.000000
O O13 0.603033 0.078515 0.371202
O O14 0.433049 0.111249 0.240555
O O15 0.505893 0.000000 0.217328
O O16 0.103452 0.784914 0.246182
O O17 0.291917 0.801092 0.190413
O O18 0.755366 0.000000 0.409708
#
# Coordination Sequence:
#
# PCOD8091372 Si02
#       8
#     8   8   8   8   8   8   8   8
#     4  10  19  34  56  79 114 145 177 225 277 329
#     4   9  18  35  56  79 112 145 180 227 276 332
#     4  10  22  37  56  79 109 145 190 234 276 322
#     4  10  20  36  57  84 113 142 186 235 280 333
#     4  11  21  37  56  77 112 145 186 231 273 329
#     4   9  18  33  55  83 111 143 181 227 280 330
#     4   9  21  34  52  86 109 142 184 221 272 334
#     4  10  22  35  52  81 107 146 184 221 279 329
#
# _framework density 18.883814999999998
#
# number of rings (size 3 to 8) (size 9 to 14) (size 15 to 20)
#    0.000    2.250    1.250    1.125    3.500    3.750 
#    0.000    4.375    0.000    0.000    0.000    0.875 
#    0.000    0.000    0.000    0.000    0.000    0.000 
#
# Total GULP energy -396737.773735 kJ/mol
# GULP energy per Si atom -12398.055429 kJ/mol
# Density = 1.884083 g / cm^3
# Si number density = 18.883815 Si / 1000 Ang^3
#
#
#
# Elastic Constant Matrix: (Units=GPa)
#
#
# Indices 1 2 3 4 5 6 
#
# 1 71.7848 32.8292 20.5919 0.0000 -11.2623 0.0000
# 2 32.8292 92.3105 26.1170 0.0000 -0.8922 0.0000
# 3 20.5919 26.1170 52.6133 0.0000 -9.4345 0.0000
# 4 0.0000 0.0000 0.0000 25.0949 0.0000 2.8318
# 5 -11.2623 -0.8922 -9.4345 0.0000 30.4195 0.0000
# 6 0.0000 0.0000 0.0000 2.8318 0.0000 28.5620
#
#
#
# Elastic Compliance Matrix: (Units=1/GPa)
#
#
# Indices 1 2 3 4 5 6 
#
# 1 0.018294 -0.005477 -0.003447 0.000000 0.005543 0.000000
# 2 -0.005477 0.014323 -0.005564 0.000000 -0.003333 0.000000
# 3 -0.003447 -0.005564 0.024206 0.000000 0.006068 0.000000
# 4 0.000000 0.000000 0.000000 0.040300 0.000000 -0.003995
# 5 0.005543 -0.003333 0.006068 0.000000 0.036710 0.000000
# 6 0.000000 0.000000 0.000000 -0.003995 0.000000 0.035408
#
#
# Mechanical properties :
#
#
# Convention : Reuss Voigt Hill
#
# Bulk Modulus (GPa) = 35.91149 41.75387 38.83268
# Shear Modulus (GPa) = 24.09662 25.95999 25.02831
#
# Velocity S-wave (km/s) = 3.57605 3.71175 3.64453
# Velocity P-wave (km/s) = 6.00910 6.36619 6.19022
#
# Compressibility (1/GPa) = 0.02784624
#
# Stress axis : x y z
#
# Youngs Moduli (GPa) = 54.66309 69.81856 41.31269
#
# Poissons Ratio (x) = 0.38241 0.14241
# Poissons Ratio (y) = 0.29940 0.22986
# Poissons Ratio (z) = 0.18843 0.38846
#
# Static dielectric constant tensor:
#      x y z
#    x 3.357040 0.000000 -0.047000 
#    y 0.000000 3.516820 0.000000 
#    z -0.047000 0.000000 3.445170 
# 
# 
# High freq. dielectric constant tensor:
#      x y z
#    x 1.722230 0.000000 -0.008160 
#    y 0.000000 1.739220 0.000000 
#    z -0.008160 0.000000 1.724650 
# 
# From -- ./inp_files/135428.got.cif
#   From: 2010.06.25/outbox.cif.g09.slc.cpg/sg12_68_cif.got.tgz:135428.got - 2010.06.28 00:19:55.
