data_PCOD8091673
_publ_section_title
;
Structure prediction by ZEFSAII (Michael W. Deem and Ramdas Pophale) SiO2 
 PCOD8091673
Probable space group: C 2/M
;
_chemical_formula_sum "Si O2"
_cell_formula_units_Z 64
_cell_length_a 17.151520
_cell_length_b 12.770406
_cell_length_c 21.060160
_cell_angle_alpha 90.000000
_cell_angle_beta 133.101143
_cell_angle_gamma 90.000000
_cell_volume 3368.063486
_symmetry_space_group_name_H-M "C 2/M"
_symmetry_group_IT_number 12
_symmetry_cell_setting 'monoclinic'
loop_
_space_group_symop_operation_xyz
x,y,z
-x,y,-z
-x,-y,-z
x,-y,z
1/2+x,1/2+y,z
1/2-x,1/2+y,-z
1/2-x,1/2-y,-z
1/2+x,1/2-y,z
loop_
_atom_site_type_symbol
_atom_site_label
_atom_site_fract_x
_atom_site_fract_y
_atom_site_fract_z
Si Si1 0.834513 0.379753 0.044085
Si Si2 0.231627 0.120523 0.424717
Si Si3 0.933585 0.122627 0.774757
Si Si4 0.610312 0.695753 0.479387
Si Si5 0.155281 0.798411 0.862563
Si Si6 0.228164 0.381228 0.187492
Si Si7 0.020820 0.260802 0.080760
Si Si8 0.112837 0.881446 0.617459
O O1 0.868672 0.500000 0.070306
O O2 0.840204 0.324504 0.115992
O O3 0.911566 0.314763 0.040866
O O4 0.716148 0.369305 0.949127
O O5 0.169494 0.151972 0.325229
O O6 0.340387 0.187288 0.491404
O O7 0.154069 0.136977 0.441780
O O8 0.266686 0.000000 0.441898
O O9 0.933126 0.177083 0.843584
O O10 0.035146 0.160293 0.790843
O O11 0.938692 0.000000 0.789943
O O12 0.480461 0.696266 0.408263
O O13 0.645424 0.636014 0.562762
O O14 0.208998 0.805016 0.824370
O O15 0.240707 0.500000 0.170022
O O16 0.104327 0.354905 0.120859
O O17 0.277991 0.363636 0.284274
O O18 0.000000 0.207841 0.000000
O O19 0.070106 0.000000 0.602739
#
# Coordination Sequence:
#
# PCOD8091673 Si02
#       8
#     8   8   8   8   8   8   8   8
#     4  10  20  35  53  75 106 142 181 226 271 315
#     4  10  20  35  57  82 108 142 179 218 268 325
#     4  10  21  37  55  77 108 144 185 225 262 316
#     4  10  19  34  57  82 109 137 172 226 269 320
#     4  10  20  33  53  78 101 138 187 224 259 314
#     4  11  21  34  55  81 110 145 183 224 269 317
#     4  11  22  35  53  80 111 144 182 225 275 321
#     4  10  20  34  55  83 112 141 177 223 270 316
#
# _framework density 19.002016000000001
#
# number of rings (size 3 to 8) (size 9 to 14) (size 15 to 20)
#    0.000    1.750    1.250    4.500    0.000    2.750 
#    0.000    1.875    0.000   17.250    0.000    0.000 
#    0.000    0.000    0.000    0.000    0.000    0.000 
#
# Total GULP energy -396750.325695 kJ/mol
# GULP energy per Si atom -12398.447678 kJ/mol
# Density = 1.895877 g / cm^3
# Si number density = 19.002016 Si / 1000 Ang^3
#
#
#
# Elastic Constant Matrix: (Units=GPa)
#
#
# Indices 1 2 3 4 5 6 
#
# 1 49.5681 16.3249 21.4914 0.0000 -12.9144 0.0000
# 2 16.3249 91.3009 34.6022 0.0000 -7.1517 0.0000
# 3 21.4914 34.6022 84.5661 0.0000 -8.7318 0.0000
# 4 0.0000 0.0000 0.0000 26.5204 0.0000 2.2929
# 5 -12.9144 -7.1517 -8.7318 0.0000 29.3332 0.0000
# 6 0.0000 0.0000 0.0000 2.2929 0.0000 22.1067
#
#
#
# Elastic Compliance Matrix: (Units=1/GPa)
#
#
# Indices 1 2 3 4 5 6 
#
# 1 0.025263 -0.002037 -0.004632 0.000000 0.009247 0.000000
# 2 -0.002037 0.013203 -0.004792 0.000000 0.000896 0.000000
# 3 -0.004632 -0.004792 0.015096 0.000000 0.001286 0.000000
# 4 0.000000 0.000000 0.000000 0.038048 0.000000 -0.003946
# 5 0.009247 0.000896 0.001286 0.000000 0.038763 0.000000
# 6 0.000000 0.000000 0.000000 -0.003946 0.000000 0.045645
#
#
# Mechanical properties :
#
#
# Convention : Reuss Voigt Hill
#
# Bulk Modulus (GPa) = 32.63798 41.14135 36.88967
# Shear Modulus (GPa) = 23.90587 25.79315 24.84951
#
# Velocity S-wave (km/s) = 3.55078 3.68827 3.62018
# Velocity P-wave (km/s) = 5.83301 6.31157 6.07700
#
# Compressibility (1/GPa) = 0.03063915
#
# Stress axis : x y z
#
# Youngs Moduli (GPa) = 39.58415 75.73777 66.24342
#
# Poissons Ratio (x) = 0.15430 0.30683
# Poissons Ratio (y) = 0.08065 0.31746
# Poissons Ratio (z) = 0.18335 0.36296
#
# Static dielectric constant tensor:
#      x y z
#    x 3.451380 0.000000 -0.051140 
#    y 0.000000 3.409540 0.000000 
#    z -0.051140 0.000000 3.631230 
# 
# 
# High freq. dielectric constant tensor:
#      x y z
#    x 1.735520 0.000000 -0.002090 
#    y 0.000000 1.722610 0.000000 
#    z -0.002090 0.000000 1.749610 
# 
# From -- ./inp_files/315745.got.cif
#   From: 2010.06.25/outbox.cif.g09.slc.cpg/sg12_158_cif.got.tgz:315745.got - 2010.06.28 00:19:55.
