data_PCOD8091315
_publ_section_title
;
Structure prediction by ZEFSAII (Michael W. Deem and Ramdas Pophale) SiO2 
 PCOD8091315
Probable space group: C 2/M
;
_chemical_formula_sum "Si O2"
_cell_formula_units_Z 64
_cell_length_a 30.442450
_cell_length_b 13.446886
_cell_length_c 9.090456
_cell_angle_alpha 90.000000
_cell_angle_beta 91.339377
_cell_angle_gamma 90.000000
_cell_volume 3720.217401
_symmetry_space_group_name_H-M "C 2/M"
_symmetry_group_IT_number 12
_symmetry_cell_setting 'monoclinic'
loop_
_space_group_symop_operation_xyz
x,y,z
-x,y,-z
-x,-y,-z
x,-y,z
1/2+x,1/2+y,z
1/2-x,1/2+y,-z
1/2-x,1/2-y,-z
1/2+x,1/2-y,z
loop_
_atom_site_type_symbol
_atom_site_label
_atom_site_fract_x
_atom_site_fract_y
_atom_site_fract_z
Si Si1 0.837775 0.615479 0.524536
Si Si2 0.542994 0.279122 0.093712
Si Si3 0.746018 0.885299 0.292701
Si Si4 0.606482 0.887417 0.191915
Si Si5 0.406842 0.383062 0.155063
Si Si6 0.190696 0.612845 0.005881
Si Si7 0.173599 0.752985 0.742640
Si Si8 0.507177 0.616210 0.662328
O O1 0.843770 0.500000 0.482873
O O2 0.788733 0.634652 0.580465
O O3 0.872497 0.647063 0.652123
O O4 0.847299 0.682348 0.383086
O O5 0.564903 0.177912 0.148084
O O6 0.530019 0.340531 0.235685
O O7 0.500000 0.248700 0.000000
O O8 0.576090 0.347135 0.002231
O O9 0.788775 0.819970 0.327729
O O10 0.760115 0.000000 0.293749
O O11 0.725523 0.856603 0.133342
O O12 0.589739 0.000000 0.204248
O O13 0.641819 0.878115 0.065301
O O14 0.396192 0.500000 0.145680
O O15 0.363227 0.323961 0.192629
O O16 0.443721 0.359121 0.279764
O O17 0.199592 0.500000 0.953986
O O18 0.196024 0.685827 0.869354
O O19 0.500000 0.662218 0.500000
O O20 0.498828 0.500000 0.660209
#
# Coordination Sequence:
#
# PCOD8091315 Si02
#       8
#     8   8   8   8   8   8   8   8
#     4   9  20  35  52  73 103 140 177 209 251 307
#     4  10  19  34  56  77 101 139 173 209 258 312
#     4   9  19  35  51  72 103 141 170 208 259 304
#     4   9  18  35  53  74 103 135 171 212 256 303
#     4  10  21  34  49  79 109 133 165 213 263 304
#     4   9  18  33  52  73 101 133 175 211 247 305
#     4  12  19  30  54  81 102 133 172 219 256 300
#     4   9  19  35  55  75 101 138 174 207 249 310
#
# _framework density 17.203295000000001
#
# number of rings (size 3 to 8) (size 9 to 14) (size 15 to 20)
#    0.000    2.375    1.250    3.375    1.750    1.750 
#    0.000    0.000    0.000    0.375    0.000    0.000 
#    0.000    0.000    0.000    0.000    0.000    0.000 
#
# Total GULP energy -396828.776400 kJ/mol
# GULP energy per Si atom -12400.899262 kJ/mol
# Density = 1.716414 g / cm^3
# Si number density = 17.203295 Si / 1000 Ang^3
#
#
#
# Elastic Constant Matrix: (Units=GPa)
#
#
# Indices 1 2 3 4 5 6 
#
# 1 72.0664 39.5008 24.0535 0.0000 -5.8035 0.0000
# 2 39.5008 73.7014 37.1425 0.0000 -0.2447 0.0000
# 3 24.0535 37.1425 88.9125 0.0000 -1.3491 0.0000
# 4 0.0000 0.0000 0.0000 29.6244 0.0000 -0.3183
# 5 -5.8035 -0.2447 -1.3491 0.0000 16.7858 0.0000
# 6 0.0000 0.0000 0.0000 -0.3183 0.0000 26.3071
#
#
#
# Elastic Compliance Matrix: (Units=1/GPa)
#
#
# Indices 1 2 3 4 5 6 
#
# 1 0.020500 -0.010414 -0.001091 0.000000 0.006848 0.000000
# 2 -0.010414 0.022479 -0.006631 0.000000 -0.003806 0.000000
# 3 -0.001091 -0.006631 0.014322 0.000000 0.000677 0.000000
# 4 0.000000 0.000000 0.000000 0.033760 0.000000 0.000408
# 5 0.006848 -0.003806 0.000677 0.000000 0.061941 0.000000
# 6 0.000000 0.000000 0.000000 0.000408 0.000000 0.038018
#
#
# Mechanical properties :
#
#
# Convention : Reuss Voigt Hill
#
# Bulk Modulus (GPa) = 47.55477 48.45263 48.00370
# Shear Modulus (GPa) = 21.33990 23.47569 22.40780
#
# Velocity S-wave (km/s) = 3.52583 3.69806 3.61297
# Velocity P-wave (km/s) = 6.65418 6.81616 6.73566
#
# Compressibility (1/GPa) = 0.02102838
#
# Stress axis : x y z
#
# Youngs Moduli (GPa) = 48.78005 44.48610 69.82022
#
# Poissons Ratio (x) = 0.46330 0.07621
# Poissons Ratio (y) = 0.50802 0.46296
# Poissons Ratio (z) = 0.05324 0.29498
#
# Static dielectric constant tensor:
#      x y z
#    x 3.042870 0.000000 0.028740 
#    y 0.000000 3.153140 0.000000 
#    z 0.028740 0.000000 3.247360 
# 
# 
# High freq. dielectric constant tensor:
#      x y z
#    x 1.654710 0.000000 0.001040 
#    y 0.000000 1.665370 0.000000 
#    z 0.001040 0.000000 1.665800 
# 
# From -- ./inp_files/110461.got.cif
#   From: 2010.06.25/outbox.cif.g09.slc.cpg/sg12_56_cif.got.tgz:110461.got - 2010.06.28 00:19:55.
