data_PCOD8091488
_publ_section_title
;
Structure prediction by ZEFSAII (Michael W. Deem and Ramdas Pophale) SiO2 
 PCOD8091488
Probable space group: C 2/M
;
_chemical_formula_sum "Si O2"
_cell_formula_units_Z 48
_cell_length_a 14.094639
_cell_length_b 23.208261
_cell_length_c 14.337411
_cell_angle_alpha 90.000000
_cell_angle_beta 147.786076
_cell_angle_gamma 90.000000
_cell_volume 2500.122165
_symmetry_space_group_name_H-M "C 2/M"
_symmetry_group_IT_number 12
_symmetry_cell_setting 'monoclinic'
loop_
_space_group_symop_operation_xyz
x,y,z
-x,y,-z
-x,-y,-z
x,-y,z
1/2+x,1/2+y,z
1/2-x,1/2+y,-z
1/2-x,1/2-y,-z
1/2+x,1/2-y,z
loop_
_atom_site_type_symbol
_atom_site_label
_atom_site_fract_x
_atom_site_fract_y
_atom_site_fract_z
Si Si1 0.843295 0.113848 0.624367
Si Si2 0.459542 0.882973 0.364315
Si Si3 0.488239 0.500000 0.828563
Si Si4 0.076921 0.197033 0.461298
Si Si5 0.765070 0.725678 0.151572
Si Si6 0.739588 0.000000 0.798400
Si Si7 0.106106 0.227455 0.222745
O O1 0.633352 0.102137 0.448799
O O2 0.953127 0.056272 0.737276
O O3 0.901851 0.135394 0.570521
O O4 0.877208 0.161822 0.730978
O O5 0.500000 0.853689 0.500000
O O6 0.333057 0.840342 0.199621
O O7 0.371118 0.943268 0.311840
O O8 0.381760 0.500000 0.835261
O O9 0.689584 0.500000 0.035631
O O10 0.268010 0.229519 0.613401
O O11 0.000000 0.187278 0.500000
O O12 0.935965 0.233108 0.281803
O O13 0.675318 0.733341 0.176538
O O14 0.606833 0.742280 0.946877
#
# Coordination Sequence:
#
# PCOD8091488 Si02
#       7
#     8   8   4   8   8   4   8
#     4  12  22  36  58  83 112 149 195 228 276 342
#     4  12  19  33  55  85 118 154 181 223 279 340
#     4  11  23  38  56  85 114 150 191 225 278 352
#     4  10  22  41  56  79 114 151 190 242 278 318
#     4  10  19  34  56  82 119 151 180 225 284 334
#     4  11  22  37  56  84 122 150 177 226 290 341
#     4  10  19  34  57  86 112 148 187 225 282 345
#
# _framework density 19.199062000000001
#
# number of rings (size 3 to 8) (size 9 to 14) (size 15 to 20)
#    0.000    1.167    5.000    2.750    0.000    3.333 
#    3.000    0.417    0.000    0.000    0.000    1.167 
#    0.000    0.000    0.000    0.000    0.000    0.000 
#
# Total GULP energy -297518.606612 kJ/mol
# GULP energy per Si atom -12396.608609 kJ/mol
# Density = 1.915536 g / cm^3
# Si number density = 19.199062 Si / 1000 Ang^3
#
#
#
# Elastic Constant Matrix: (Units=GPa)
#
#
# Indices 1 2 3 4 5 6 
#
# 1 37.2947 24.7397 29.9749 0.0000 0.3173 0.0000
# 2 24.7397 103.5765 40.8083 0.0000 -7.6270 0.0000
# 3 29.9749 40.8083 132.4336 0.0000 7.9959 0.0000
# 4 0.0000 0.0000 0.0000 25.2485 0.0000 -2.1717
# 5 0.3173 -7.6270 7.9959 0.0000 21.2022 0.0000
# 6 0.0000 0.0000 0.0000 -2.1717 0.0000 32.6249
#
#
#
# Elastic Compliance Matrix: (Units=1/GPa)
#
#
# Indices 1 2 3 4 5 6 
#
# 1 0.035885 -0.006160 -0.006199 0.000000 -0.000415 0.000000
# 2 -0.006160 0.012673 -0.002857 0.000000 0.005729 0.000000
# 3 -0.006199 -0.002857 0.010121 0.000000 -0.004752 0.000000
# 4 0.000000 0.000000 0.000000 0.039834 0.000000 0.002652
# 5 -0.000415 0.005729 -0.004752 0.000000 0.051024 0.000000
# 6 0.000000 0.000000 0.000000 0.002652 0.000000 0.030828
#
#
# Mechanical properties :
#
#
# Convention : Reuss Voigt Hill
#
# Bulk Modulus (GPa) = 35.39973 51.59450 43.49711
# Shear Modulus (GPa) = 22.70521 27.66725 25.18623
#
# Velocity S-wave (km/s) = 3.44266 3.80027 3.62587
# Velocity P-wave (km/s) = 5.85498 6.79616 6.34305
#
# Compressibility (1/GPa) = 0.02824881
#
# Stress axis : x y z
#
# Youngs Moduli (GPa) = 27.86649 78.90561 98.80135
#
# Poissons Ratio (x) = 0.48602 0.61249
# Poissons Ratio (y) = 0.17164 0.28227
# Poissons Ratio (z) = 0.17275 0.22543
#
# Static dielectric constant tensor:
#      x y z
#    x 3.332800 0.000000 0.284960 
#    y 0.000000 3.285240 0.000000 
#    z 0.284960 0.000000 4.199970 
# 
# 
# High freq. dielectric constant tensor:
#      x y z
#    x 1.732400 0.000000 0.012920 
#    y 0.000000 1.725090 0.000000 
#    z 0.012920 0.000000 1.764590 
# 
# From -- ./inp_files/218455.got.cif
#   From: 2010.06.25/outbox.cif.g09.slc.cpg/sg12_110_cif.got.tgz:218455.got - 2010.06.28 00:19:55.
