data_PCOD8091754
_publ_section_title
;
Structure prediction by ZEFSAII (Michael W. Deem and Ramdas Pophale) SiO2 
 PCOD8091754
Probable space group: C 2/M
;
_chemical_formula_sum "Si O2"
_cell_formula_units_Z 56
_cell_length_a 19.613254
_cell_length_b 8.938135
_cell_length_c 20.810917
_cell_angle_alpha 90.000000
_cell_angle_beta 54.159684
_cell_angle_gamma 90.000000
_cell_volume 2957.482926
_symmetry_space_group_name_H-M "C 2/M"
_symmetry_group_IT_number 12
_symmetry_cell_setting 'monoclinic'
loop_
_space_group_symop_operation_xyz
x,y,z
-x,y,-z
-x,-y,-z
x,-y,z
1/2+x,1/2+y,z
1/2-x,1/2+y,-z
1/2-x,1/2-y,-z
1/2+x,1/2-y,z
loop_
_atom_site_type_symbol
_atom_site_label
_atom_site_fract_x
_atom_site_fract_y
_atom_site_fract_z
Si Si1 0.385915 0.324895 0.804237
Si Si2 0.510379 0.325147 0.375048
Si Si3 0.906697 0.329009 0.053778
Si Si4 0.846988 0.326577 0.625317
Si Si5 0.757231 0.827546 0.191831
Si Si6 0.838133 0.330188 0.950276
Si Si7 0.680309 0.323058 0.492720
O O1 0.382459 0.500000 0.817926
O O2 0.458013 0.280063 0.713499
O O3 0.295712 0.272541 0.828102
O O4 0.401964 0.245045 0.863481
O O5 0.524545 0.500000 0.380891
O O6 0.563373 0.237845 0.400078
O O7 0.412824 0.280403 0.431034
O O8 0.905050 0.500000 0.079433
O O9 0.852843 0.229001 0.133101
O O10 0.876071 0.314587 0.998739
O O11 0.000000 0.263279 0.000000
O O12 0.860262 0.500000 0.601071
O O13 0.775341 0.302864 0.718142
O O14 0.811412 0.239676 0.583568
O O15 0.749662 0.000000 0.175822
O O16 0.824618 0.500000 0.936652
O O17 0.750000 0.250000 0.000000
O O18 0.694457 0.500000 0.484531
O O19 0.750000 0.250000 0.500000
#
# Coordination Sequence:
#
# PCOD8091754 Si02
#       7
#     8   8   8   8   8   8   8
#     4  10  19  34  57  84 112 145 183 232 282 329
#     4   9  20  38  60  85 114 148 190 233 279 334
#     4  10  22  39  56  77 111 151 190 232 278 332
#     4  10  21  37  60  89 116 145 187 236 281 333
#     4  10  20  35  57  84 113 145 185 233 278 329
#     4  11  21  34  56  83 112 146 186 233 278 329
#     4  11  23  40  60  84 117 154 188 229 280 338
#
# _framework density 18.935020999999999
#
# number of rings (size 3 to 8) (size 9 to 14) (size 15 to 20)
#    0.000    1.857    1.429    2.571    0.000    6.000 
#    2.571    0.000    0.000    0.000    0.000    0.000 
#    0.000    0.000    0.000    0.000    0.000    0.000 
#
# Total GULP energy -347249.426668 kJ/mol
# GULP energy per Si atom -12401.765238 kJ/mol
# Density = 1.889192 g / cm^3
# Si number density = 18.935021 Si / 1000 Ang^3
#
#
#
# Elastic Constant Matrix: (Units=GPa)
#
#
# Indices 1 2 3 4 5 6 
#
# 1 102.8671 53.3338 55.0163 -0.0001 -12.9915 0.0006
# 2 53.3338 100.5111 55.8156 -0.0001 2.3007 0.0018
# 3 55.0163 55.8156 114.7855 0.0000 -6.4856 0.0000
# 4 -0.0001 -0.0001 0.0000 36.2163 -0.0001 2.5927
# 5 -12.9915 2.3007 -6.4856 -0.0001 26.9930 0.0001
# 6 0.0006 0.0018 0.0000 2.5927 0.0001 28.5206
#
#
#
# Elastic Compliance Matrix: (Units=1/GPa)
#
#
# Indices 1 2 3 4 5 6 
#
# 1 0.016259 -0.006437 -0.004247 0.000000 0.007354 0.000000
# 2 -0.006437 0.016389 -0.005209 0.000000 -0.005747 -0.000001
# 3 -0.004247 -0.005209 0.013371 0.000000 0.001613 0.000000
# 4 0.000000 0.000000 0.000000 0.027793 0.000000 -0.002527
# 5 0.007354 -0.005747 0.001613 0.000000 0.041463 0.000000
# 6 0.000000 -0.000001 0.000000 -0.002527 0.000000 0.035292
#
#
# Mechanical properties :
#
#
# Convention : Reuss Voigt Hill
#
# Bulk Modulus (GPa) = 70.25820 71.83277 71.04549
# Shear Modulus (GPa) = 26.72399 28.61252 27.66826
#
# Velocity S-wave (km/s) = 3.76087 3.89149 3.82674
# Velocity P-wave (km/s) = 7.48628 7.62958 7.55827
#
# Compressibility (1/GPa) = 0.01423321
#
# Stress axis : x y z
#
# Youngs Moduli (GPa) = 61.50415 61.01702 74.78622
#
# Poissons Ratio (x) = 0.39278 0.31764
# Poissons Ratio (y) = 0.39592 0.38953
# Poissons Ratio (z) = 0.26122 0.31781
#
# Static dielectric constant tensor:
#      x y z
#    x 3.153800 0.000000 0.009570 
#    y 0.000000 3.639090 0.000000 
#    z 0.009570 0.000000 3.754720 
# 
# 
# High freq. dielectric constant tensor:
#      x y z
#    x 1.714060 0.000000 0.001260 
#    y 0.000000 1.745600 0.000000 
#    z 0.001260 0.000000 1.752310 
# 
# From -- ./inp_files/313698.got.cif
#   From: 2010.06.25/outbox.cif.g09.slc.cpg/sg12_157_cif.got.tgz:313698.got - 2010.06.28 00:19:55.
