data_PCOD8091052
_publ_section_title
;
Structure prediction by ZEFSAII (Michael W. Deem and Ramdas Pophale) SiO2 
 PCOD8091052
Probable space group: C 2/M
;
_chemical_formula_sum "Si O2"
_cell_formula_units_Z 44
_cell_length_a 27.023281
_cell_length_b 12.676823
_cell_length_c 19.710776
_cell_angle_alpha 90.000000
_cell_angle_beta 159.271581
_cell_angle_gamma 90.000000
_cell_volume 2389.903594
_symmetry_space_group_name_H-M "C 2/M"
_symmetry_group_IT_number 12
_symmetry_cell_setting 'monoclinic'
loop_
_space_group_symop_operation_xyz
x,y,z
-x,y,-z
-x,-y,-z
x,-y,z
1/2+x,1/2+y,z
1/2-x,1/2+y,-z
1/2-x,1/2-y,-z
1/2+x,1/2-y,z
loop_
_atom_site_type_symbol
_atom_site_label
_atom_site_fract_x
_atom_site_fract_y
_atom_site_fract_z
Si Si1 0.722535 0.882019 0.013786
Si Si2 0.724353 0.622519 0.646329
Si Si3 0.657978 0.281955 0.699817
Si Si4 0.500000 0.255394 0.000000
Si Si5 0.899052 0.124066 0.998865
Si Si6 0.541952 0.312255 0.778504
O O1 0.806381 0.843394 0.186437
O O2 0.830465 0.880037 0.089299
O O3 0.666863 0.000000 0.952488
O O4 0.585374 0.810591 0.826352
O O5 0.742068 0.500000 0.651614
O O6 0.683148 0.635659 0.671723
O O7 0.604044 0.672269 0.445755
O O8 0.868344 0.681386 0.815694
O O9 0.500000 0.243073 0.500000
O O10 0.745936 0.175534 0.803753
O O11 0.515229 0.329130 0.954047
O O12 0.883045 0.000000 0.969031
O O13 0.979915 0.152949 0.171797
#
# Coordination Sequence:
#
# PCOD8091052 Si02
#       6
#     8   8   8   4   8   8
#     4  10  19  34  54  82 121 151 174 217 272 334
#     4  11  21  37  59  84 113 146 182 232 283 320
#     4  10  20  33  55  88 116 143 184 220 268 345
#     4  10  24  40  58  78 106 144 202 240 264 330
#     4  10  21  39  57  76 109 151 187 232 279 319
#     4  10  21  34  55  85 112 143 187 221 274 339
#
# _framework density 18.410785000000001
#
# number of rings (size 3 to 8) (size 9 to 14) (size 15 to 20)
#    0.000    1.818    1.818    2.727    0.000    1.818 
#    0.000    5.455    0.000    0.000    0.000    0.000 
#    0.000    0.000    0.000    0.000    0.000    0.000 
#
# Total GULP energy -272855.809646 kJ/mol
# GULP energy per Si atom -12402.536802 kJ/mol
# Density = 1.836888 g / cm^3
# Si number density = 18.410785 Si / 1000 Ang^3
#
#
#
# Elastic Constant Matrix: (Units=GPa)
#
#
# Indices 1 2 3 4 5 6 
#
# 1 125.1959 53.4325 43.8480 0.0000 -9.7106 0.0000
# 2 53.4325 149.0346 77.5011 0.0000 3.8133 0.0000
# 3 43.8480 77.5011 100.1809 0.0000 -5.2594 0.0000
# 4 0.0000 0.0000 0.0000 12.2204 0.0000 -0.4972
# 5 -9.7106 3.8133 -5.2594 0.0000 29.4509 0.0000
# 6 0.0000 0.0000 0.0000 -0.4972 0.0000 15.8996
#
#
#
# Elastic Compliance Matrix: (Units=1/GPa)
#
#
# Indices 1 2 3 4 5 6 
#
# 1 0.010121 -0.002504 -0.002322 0.000000 0.003247 0.000000
# 2 -0.002504 0.012121 -0.008486 0.000000 -0.003910 0.000000
# 3 -0.002322 -0.008486 0.017747 0.000000 0.003502 0.000000
# 4 0.000000 0.000000 0.000000 0.081934 0.000000 0.002562
# 5 0.003247 -0.003910 0.003502 0.000000 0.036157 0.000000
# 6 0.000000 0.000000 0.000000 0.002562 0.000000 0.062975
#
#
# Mechanical properties :
#
#
# Convention : Reuss Voigt Hill
#
# Bulk Modulus (GPa) = 74.82620 80.44161 77.63391
# Shear Modulus (GPa) = 19.83066 24.82283 22.32674
#
# Velocity S-wave (km/s) = 3.28551 3.67587 3.48616
# Velocity P-wave (km/s) = 7.42453 7.86152 7.64615
#
# Compressibility (1/GPa) = 0.01336430
#
# Stress axis : x y z
#
# Youngs Moduli (GPa) = 98.80017 82.50471 56.34770
#
# Poissons Ratio (x) = 0.20661 0.13086
# Poissons Ratio (y) = 0.24742 0.47816
# Poissons Ratio (z) = 0.22944 0.70012
#
# Static dielectric constant tensor:
#      x y z
#    x 3.589200 0.000000 -0.125130 
#    y 0.000000 3.391570 0.000000 
#    z -0.125130 0.000000 3.335380 
# 
# 
# High freq. dielectric constant tensor:
#      x y z
#    x 1.723700 0.000000 -0.011720 
#    y 0.000000 1.716740 0.000000 
#    z -0.011720 0.000000 1.709050 
# 
# From -- ./inp_files/152823.got.cif
#   From: 2010.06.25/outbox.cif.g09.slc.cpg/sg12_77_cif.got.tgz:152823.got - 2010.06.28 00:19:55.
