data_PCOD8091189
_publ_section_title
;
Structure prediction by ZEFSAII (Michael W. Deem and Ramdas Pophale) SiO2 
 PCOD8091189
Probable space group: C 2/M
;
_chemical_formula_sum "Si O2"
_cell_formula_units_Z 56
_cell_length_a 18.813975
_cell_length_b 9.283772
_cell_length_c 26.166972
_cell_angle_alpha 90.000000
_cell_angle_beta 42.084339
_cell_angle_gamma 90.000000
_cell_volume 3063.221028
_symmetry_space_group_name_H-M "C 2/M"
_symmetry_group_IT_number 12
_symmetry_cell_setting 'monoclinic'
loop_
_space_group_symop_operation_xyz
x,y,z
-x,y,-z
-x,-y,-z
x,-y,z
1/2+x,1/2+y,z
1/2-x,1/2+y,-z
1/2-x,1/2-y,-z
1/2+x,1/2-y,z
loop_
_atom_site_type_symbol
_atom_site_label
_atom_site_fract_x
_atom_site_fract_y
_atom_site_fract_z
Si Si1 0.648215 0.344207 0.549873
Si Si2 0.261673 0.167300 0.733567
Si Si3 0.039192 0.170592 0.421814
Si Si4 0.071305 0.330066 0.790357
Si Si5 0.673845 0.163842 0.077075
Si Si6 0.651836 0.161913 0.202780
Si Si7 0.043509 0.843103 0.710293
O O1 0.675405 0.500000 0.510631
O O2 0.750000 0.250000 0.500000
O O3 0.553648 0.274992 0.566770
O O4 0.620965 0.366987 0.622796
O O5 0.354221 0.243767 0.650946
O O6 0.149682 0.247204 0.786353
O O7 0.272805 0.178695 0.788822
O O8 0.256733 0.000000 0.718981
O O9 0.000000 0.208328 0.500000
O O10 0.061771 0.000000 0.403652
O O11 0.092590 0.500000 0.781301
O O12 0.948594 0.290227 0.867038
O O13 0.096923 0.269878 0.720379
O O14 0.708626 0.189908 0.117676
O O15 0.688209 0.000000 0.053594
O O16 0.750000 0.250000 0.000000
O O17 0.562718 0.280450 0.257543
O O18 0.602548 0.000000 0.227221
O O19 0.021777 0.000000 0.747921
#
# Coordination Sequence:
#
# PCOD8091189 Si02
#       7
#     8   8   8   8   8   8   8
#     4  10  22  36  52  77 108 142 185 232 281 335
#     4  11  22  37  59  85 113 148 192 238 281 330
#     4  10  22  40  57  78 111 153 192 232 289 342
#     4  10  22  38  57  82 115 150 185 226 279 337
#     4   9  19  37  60  86 114 146 183 223 274 331
#     4   9  19  36  57  82 112 147 182 222 276 333
#     4  10  19  34  55  80 106 138 188 237 273 325
#
# _framework density 18.281410000000001
#
# number of rings (size 3 to 8) (size 9 to 14) (size 15 to 20)
#    0.000    2.143    1.429    2.143    2.000    5.429 
#    0.000    0.714    0.000    4.286    0.000    0.000 
#    0.000    0.000    0.000    0.000    0.000    0.000 
#
# Total GULP energy -346982.318288 kJ/mol
# GULP energy per Si atom -12392.225653 kJ/mol
# Density = 1.823980 g / cm^3
# Si number density = 18.281410 Si / 1000 Ang^3
#
#
#
# Elastic Constant Matrix: (Units=GPa)
#
#
# Indices 1 2 3 4 5 6 
#
# 1 116.0224 58.8843 58.2821 0.0000 -4.6560 -0.0001
# 2 58.8843 109.9420 60.5510 0.0000 -4.5893 -0.0003
# 3 58.2821 60.5510 106.8044 0.0000 4.7315 0.0000
# 4 0.0000 0.0000 0.0000 31.1207 0.0000 -3.4655
# 5 -4.6560 -4.5893 4.7315 0.0000 22.9907 0.0000
# 6 -0.0001 -0.0003 0.0000 -3.4655 0.0000 33.7851
#
#
#
# Elastic Compliance Matrix: (Units=1/GPa)
#
#
# Indices 1 2 3 4 5 6 
#
# 1 0.013447 -0.004318 -0.005019 0.000000 0.002894 0.000000
# 2 -0.004318 0.015030 -0.006317 0.000000 0.003426 0.000000
# 3 -0.005019 -0.006317 0.015929 0.000000 -0.005555 0.000000
# 4 0.000000 0.000000 0.000000 0.032504 0.000000 0.003334
# 5 0.002894 0.003426 -0.005555 0.000000 0.045909 0.000000
# 6 0.000000 0.000000 0.000000 0.003334 0.000000 0.029941
#
#
# Mechanical properties :
#
#
# Convention : Reuss Voigt Hill
#
# Bulk Modulus (GPa) = 76.33292 76.46709 76.40001
# Shear Modulus (GPa) = 26.53457 27.91607 27.22532
#
# Velocity S-wave (km/s) = 3.81392 3.91195 3.86325
# Velocity P-wave (km/s) = 7.82558 7.89449 7.86011
#
# Compressibility (1/GPa) = 0.01310051
#
# Stress axis : x y z
#
# Youngs Moduli (GPa) = 74.36345 66.53277 62.77919
#
# Poissons Ratio (x) = 0.28726 0.31506
# Poissons Ratio (y) = 0.32107 0.39657
# Poissons Ratio (z) = 0.37320 0.42028
#
# Static dielectric constant tensor:
#      x y z
#    x 3.404890 0.000000 -0.034770 
#    y 0.000000 3.536770 0.000000 
#    z -0.034770 0.000000 3.019000 
# 
# 
# High freq. dielectric constant tensor:
#      x y z
#    x 1.714180 0.000000 0.007380 
#    y 0.000000 1.720780 0.000000 
#    z 0.007380 0.000000 1.687340 
# 
# From -- ./inp_files/342270.got.cif
#   From: 2010.06.25/outbox.cif.g09.slc.cpg/sg12_172_cif.got.tgz:342270.got - 2010.06.28 00:19:55.
