data_PCOD8091507
_publ_section_title
;
Structure prediction by ZEFSAII (Michael W. Deem and Ramdas Pophale) SiO2 
 PCOD8091507
Probable space group: C 2/M
;
_chemical_formula_sum "Si O2"
_cell_formula_units_Z 56
_cell_length_a 28.497906
_cell_length_b 8.771634
_cell_length_c 19.539721
_cell_angle_alpha 90.000000
_cell_angle_beta 142.726526
_cell_angle_gamma 90.000000
_cell_volume 2958.094614
_symmetry_space_group_name_H-M "C 2/M"
_symmetry_group_IT_number 12
_symmetry_cell_setting 'monoclinic'
loop_
_space_group_symop_operation_xyz
x,y,z
-x,y,-z
-x,-y,-z
x,-y,z
1/2+x,1/2+y,z
1/2-x,1/2+y,-z
1/2-x,1/2-y,-z
1/2+x,1/2-y,z
loop_
_atom_site_type_symbol
_atom_site_label
_atom_site_fract_x
_atom_site_fract_y
_atom_site_fract_z
Si Si1 0.541868 0.322674 0.755806
Si Si2 0.615643 0.820908 0.415649
Si Si3 0.062234 0.820542 0.936027
Si Si4 0.298533 0.320854 0.116940
Si Si5 0.240383 0.181031 0.328909
Si Si6 0.401598 0.819278 0.759391
Si Si7 0.218509 0.319375 0.162753
O O1 0.523919 0.500000 0.730950
O O2 0.463597 0.238607 0.642195
O O3 0.566773 0.276620 0.861414
O O4 0.611229 0.273498 0.785593
O O5 0.689163 0.757960 0.542506
O O6 0.622380 0.766021 0.344910
O O7 0.613678 0.000000 0.418166
O O8 0.981445 0.761841 0.873407
O O9 0.071282 0.000000 0.959213
O O10 0.129763 0.731670 0.053307
O O11 0.289110 0.500000 0.098565
O O12 0.267082 0.263676 0.153213
O O13 0.250000 0.250000 0.000000
O O14 0.162555 0.263071 0.262624
O O15 0.257697 0.233896 0.271985
O O16 0.230546 0.000000 0.322112
O O17 0.411782 0.000000 0.775864
O O18 0.222933 0.500000 0.178155
#
# Coordination Sequence:
#
# PCOD8091507 Si02
#       7
#     8   8   8   8   8   8   8
#     4   9  18  33  56  85 112 140 179 226 274 324
#     4   9  20  37  58  83 110 143 184 229 273 323
#     4  10  19  34  56  83 114 145 181 225 276 329
#     4  10  20  35  57  85 113 143 182 225 273 328
#     4  11  23  39  56  78 111 149 188 227 273 328
#     4  10  20  36  59  85 111 140 183 231 277 327
#     4  11  23  37  55  81 114 149 185 226 275 328
#
# _framework density 18.931106
#
# number of rings (size 3 to 8) (size 9 to 14) (size 15 to 20)
#    0.000    2.000    1.429    2.143    0.000    4.000 
#    0.000    3.571    0.000    4.286    0.000    0.000 
#    0.000    0.000    0.000    0.000    0.000    0.000 
#
# Total GULP energy -347294.225840 kJ/mol
# GULP energy per Si atom -12403.365209 kJ/mol
# Density = 1.888802 g / cm^3
# Si number density = 18.931106 Si / 1000 Ang^3
#
#
#
# Elastic Constant Matrix: (Units=GPa)
#
#
# Indices 1 2 3 4 5 6 
#
# 1 104.9403 15.0197 32.7670 0.0000 7.4781 0.0000
# 2 15.0197 32.2716 14.3821 0.0000 -0.3224 0.0000
# 3 32.7670 14.3821 57.8585 0.0000 3.3087 0.0000
# 4 0.0000 0.0000 0.0000 31.9549 0.0000 2.1384
# 5 7.4781 -0.3224 3.3087 0.0000 25.7932 0.0000
# 6 0.0000 0.0000 0.0000 2.1384 0.0000 28.7115
#
#
#
# Elastic Compliance Matrix: (Units=1/GPa)
#
#
# Indices 1 2 3 4 5 6 
#
# 1 0.011993 -0.002983 -0.005893 0.000000 -0.002758 0.000000
# 2 -0.002983 0.035652 -0.007301 0.000000 0.002247 0.000000
# 3 -0.005893 -0.007301 0.022508 0.000000 -0.001270 0.000000
# 4 0.000000 0.000000 0.000000 0.031451 0.000000 -0.002342
# 5 -0.002758 0.002247 -0.001270 0.000000 0.039761 0.000000
# 6 0.000000 0.000000 0.000000 -0.002342 0.000000 0.035004
#
#
# Mechanical properties :
#
#
# Convention : Reuss Voigt Hill
#
# Bulk Modulus (GPa) = 26.45574 35.48976 30.97275
# Shear Modulus (GPa) = 22.59163 26.15202 24.37182
#
# Velocity S-wave (km/s) = 3.45825 3.72079 3.59192
# Velocity P-wave (km/s) = 5.47276 6.10300 5.79645
#
# Compressibility (1/GPa) = 0.03779898
#
# Stress axis : x y z
#
# Youngs Moduli (GPa) = 83.38434 28.04918 44.42831
#
# Poissons Ratio (x) = 0.08367 0.26180
# Poissons Ratio (y) = 0.24874 0.32438
# Poissons Ratio (z) = 0.49135 0.20479
#
# Static dielectric constant tensor:
#      x y z
#    x 3.605170 0.000000 0.059650 
#    y 0.000000 3.409710 0.000000 
#    z 0.059650 0.000000 3.511070 
# 
# 
# High freq. dielectric constant tensor:
#      x y z
#    x 1.734050 0.000000 0.011440 
#    y 0.000000 1.737450 0.000000 
#    z 0.011440 0.000000 1.732030 
# 
# From -- ./inp_files/288195.got.cif
#   From: 2010.06.25/outbox.cif.g09.slc.cpg/sg12_145_cif.got.tgz:288195.got - 2010.06.28 00:19:55.
