data_PCOD8091446
_publ_section_title
;
Structure prediction by ZEFSAII (Michael W. Deem and Ramdas Pophale) SiO2 
 PCOD8091446
Probable space group: C 2/M
;
_chemical_formula_sum "Si O2"
_cell_formula_units_Z 64
_cell_length_a 8.875411
_cell_length_b 18.811298
_cell_length_c 23.098956
_cell_angle_alpha 90.000000
_cell_angle_beta 60.036940
_cell_angle_gamma 90.000000
_cell_volume 3341.117568
_symmetry_space_group_name_H-M "C 2/M"
_symmetry_group_IT_number 12
_symmetry_cell_setting 'monoclinic'
loop_
_space_group_symop_operation_xyz
x,y,z
-x,y,-z
-x,-y,-z
x,-y,z
1/2+x,1/2+y,z
1/2-x,1/2+y,-z
1/2-x,1/2-y,-z
1/2+x,1/2-y,z
loop_
_atom_site_type_symbol
_atom_site_label
_atom_site_fract_x
_atom_site_fract_y
_atom_site_fract_z
Si Si1 0.915592 0.417178 0.076012
Si Si2 0.260063 0.193656 0.785476
Si Si3 0.137542 0.579593 0.524647
Si Si4 0.120265 0.172095 0.595566
Si Si5 0.859705 0.919073 0.714554
Si Si6 0.424903 0.186643 0.628849
Si Si7 0.947036 0.336796 0.182083
Si Si8 0.973965 0.079960 0.821863
O O1 0.952054 0.500000 0.081118
O O2 0.003687 0.372486 0.110692
O O3 0.709630 0.402155 0.112959
O O4 0.000000 0.391654 0.000000
O O5 0.371721 0.189423 0.705688
O O6 0.174073 0.269867 0.807253
O O7 0.383086 0.186936 0.816930
O O8 0.118684 0.132161 0.818223
O O9 0.201283 0.500000 0.529486
O O10 0.297094 0.629069 0.473816
O O11 0.040913 0.615825 0.597669
O O12 0.000000 0.574018 0.500000
O O13 0.255368 0.185923 0.621268
O O14 0.044532 0.246632 0.587556
O O15 0.957634 0.126490 0.648168
O O16 0.661581 0.892976 0.758748
O O17 0.960011 0.910643 0.755821
O O18 0.857334 0.000000 0.694021
O O19 0.031795 0.000000 0.826260
#
# Coordination Sequence:
#
# PCOD8091446 Si02
#       8
#     8   8   8   8   8   8   8   8
#     4   9  19  40  66  89 119 157 192 230 281 343
#     4  12  22  37  57  86 121 156 191 242 290 339
#     4   9  20  37  56  80 109 145 195 246 291 349
#     4  11  20  36  58  83 108 148 196 240 293 349
#     4  10  19  34  56  81 111 147 190 238 289 344
#     4  11  22  35  58  82 111 152 194 236 295 347
#     4  11  22  36  58  86 119 151 195 235 285 340
#     4   9  19  35  57  86 115 150 194 234 284 339
#
# _framework density 19.155266000000001
#
# number of rings (size 3 to 8) (size 9 to 14) (size 15 to 20)
#    0.000    1.750    2.500    4.125    0.000    2.000 
#    0.000    3.125    0.000    3.000    0.000    0.000 
#    0.000    0.000    0.000    0.000    0.000    0.000 
#
# Total GULP energy -396883.378817 kJ/mol
# GULP energy per Si atom -12402.605588 kJ/mol
# Density = 1.911167 g / cm^3
# Si number density = 19.155266 Si / 1000 Ang^3
#
#
#
# Elastic Constant Matrix: (Units=GPa)
#
#
# Indices 1 2 3 4 5 6 
#
# 1 67.9809 33.1751 16.8145 0.0000 1.9145 0.0000
# 2 33.1751 121.2987 42.7350 0.0000 1.0049 0.0000
# 3 16.8145 42.7350 76.1091 0.0000 -3.0961 0.0000
# 4 0.0000 0.0000 0.0000 32.2264 0.0000 -5.1048
# 5 1.9145 1.0049 -3.0961 0.0000 14.9720 0.0000
# 6 0.0000 0.0000 0.0000 -5.1048 0.0000 30.5257
#
#
#
# Elastic Compliance Matrix: (Units=1/GPa)
#
#
# Indices 1 2 3 4 5 6 
#
# 1 0.017175 -0.004126 -0.001569 0.000000 -0.002244 0.000000
# 2 -0.004126 0.011322 -0.005502 0.000000 -0.001370 0.000000
# 3 -0.001569 -0.005502 0.016739 0.000000 0.004031 0.000000
# 4 0.000000 0.000000 0.000000 0.031875 0.000000 0.005330
# 5 -0.002244 -0.001370 0.004031 0.000000 0.068004 0.000000
# 6 0.000000 0.000000 0.000000 0.005330 0.000000 0.033651
#
#
# Mechanical properties :
#
#
# Convention : Reuss Voigt Hill
#
# Bulk Modulus (GPa) = 43.77743 50.09310 46.93526
# Shear Modulus (GPa) = 23.94955 27.05576 25.50265
#
# Velocity S-wave (km/s) = 3.53977 3.76233 3.65275
# Velocity P-wave (km/s) = 6.29367 6.71426 6.50737
#
# Compressibility (1/GPa) = 0.02284282
#
# Stress axis : x y z
#
# Youngs Moduli (GPa) = 58.22506 88.32229 59.74160
#
# Poissons Ratio (x) = 0.36441 0.09373
# Poissons Ratio (y) = 0.24023 0.32867
# Poissons Ratio (z) = 0.09135 0.48591
#
# Static dielectric constant tensor:
#      x y z
#    x 3.260130 0.000000 -0.143140 
#    y 0.000000 3.793490 0.000000 
#    z -0.143140 0.000000 3.506210 
# 
# 
# High freq. dielectric constant tensor:
#      x y z
#    x 1.722540 0.000000 -0.013900 
#    y 0.000000 1.762960 0.000000 
#    z -0.013900 0.000000 1.738830 
# 
# From -- ./inp_files/333741.got.cif
#   From: 2010.06.25/outbox.cif.g09.slc.cpg/sg12_167_cif.got.tgz:333741.got - 2010.06.28 00:19:55.
