data_PCOD8091007
_publ_section_title
;
Structure prediction by ZEFSAII (Michael W. Deem and Ramdas Pophale) SiO2 
 PCOD8091007
Probable space group: C 2/M
;
_chemical_formula_sum "Si O2"
_cell_formula_units_Z 56
_cell_length_a 13.684576
_cell_length_b 14.248610
_cell_length_c 17.196055
_cell_angle_alpha 90.000000
_cell_angle_beta 51.284202
_cell_angle_gamma 90.000000
_cell_volume 2616.199695
_symmetry_space_group_name_H-M "C 2/M"
_symmetry_group_IT_number 12
_symmetry_cell_setting 'monoclinic'
loop_
_space_group_symop_operation_xyz
x,y,z
-x,y,-z
-x,-y,-z
x,-y,z
1/2+x,1/2+y,z
1/2-x,1/2+y,-z
1/2-x,1/2-y,-z
1/2+x,1/2-y,z
loop_
_atom_site_type_symbol
_atom_site_label
_atom_site_fract_x
_atom_site_fract_y
_atom_site_fract_z
Si Si1 0.576564 0.103399 0.359026
Si Si2 0.243523 0.608304 0.132475
Si Si3 0.094395 0.609568 0.051491
Si Si4 0.658349 0.199945 0.864114
Si Si5 0.869363 0.102433 0.663444
Si Si6 0.179839 0.343481 0.460199
Si Si7 0.849727 0.860647 0.503964
O O1 0.627040 0.119169 0.248091
O O2 0.460358 0.168621 0.436110
O O3 0.685596 0.116453 0.369768
O O4 0.520643 0.000000 0.395537
O O5 0.297787 0.500000 0.109896
O O6 0.189512 0.631252 0.074295
O O7 0.342750 0.689268 0.109092
O O8 0.054907 0.500000 0.071467
O O9 0.969426 0.674536 0.118707
O O10 0.167012 0.634771 0.936226
O O11 0.777595 0.176576 0.750864
O O12 0.836351 0.080877 0.589609
O O13 0.007589 0.146535 0.597257
O O14 0.863421 0.000000 0.707764
O O15 0.220844 0.235699 0.437946
O O16 0.269746 0.404380 0.472136
#
# Coordination Sequence:
#
# PCOD8091007 Si02
#       7
#     8   8   8   8   8   8   8
#     4  10  20  34  54  79 110 149 198 246 286 338
#     4  10  22  40  63  91 123 159 201 250 305 363
#     4  10  22  41  67  96 120 155 207 252 299 361
#     4  11  21  40  65  91 123 156 199 254 304 357
#     4  11  22  36  55  84 121 158 194 243 302 359
#     4  10  19  34  54  78 109 156 201 243 287 348
#     4  10  21  34  53  80 118 153 195 240 292 353
#
# _framework density 21.405093999999998
#
# number of rings (size 3 to 8) (size 9 to 14) (size 15 to 20)
#    0.000    1.714    0.000    7.286    2.000    2.286 
#    2.571    1.429    0.000    1.714    0.000    0.000 
#    0.000    0.000    0.000    0.000    0.000    0.000 
#
# Total GULP energy -346881.517175 kJ/mol
# GULP energy per Si atom -12388.625613 kJ/mol
# Density = 2.135637 g / cm^3
# Si number density = 21.405094 Si / 1000 Ang^3
#
#
#
# Elastic Constant Matrix: (Units=GPa)
#
#
# Indices 1 2 3 4 5 6 
#
# 1 108.4900 24.4504 29.3025 0.0000 6.5240 0.0000
# 2 24.4504 123.8081 1.8862 0.0000 -6.5183 0.0000
# 3 29.3025 1.8862 86.1847 0.0000 1.1627 0.0000
# 4 0.0000 0.0000 0.0000 32.3522 0.0000 -2.8463
# 5 6.5240 -6.5183 1.1627 0.0000 23.5887 0.0000
# 6 0.0000 0.0000 0.0000 -2.8463 0.0000 30.7174
#
#
#
# Elastic Compliance Matrix: (Units=1/GPa)
#
#
# Indices 1 2 3 4 5 6 
#
# 1 0.010917 -0.002284 -0.003615 0.000000 -0.003472 0.000000
# 2 -0.002284 0.008678 0.000546 0.000000 0.003003 0.000000
# 3 -0.003615 0.000546 0.012813 0.000000 0.000519 0.000000
# 4 0.000000 0.000000 0.000000 0.031164 0.000000 0.002888
# 5 -0.003472 0.003003 0.000519 0.000000 0.044158 0.000000
# 6 0.000000 0.000000 0.000000 0.002888 0.000000 0.032822
#
#
# Mechanical properties :
#
#
# Convention : Reuss Voigt Hill
#
# Bulk Modulus (GPa) = 46.07710 47.75124 46.91417
# Shear Modulus (GPa) = 31.54735 34.85457 33.20096
#
# Velocity S-wave (km/s) = 3.84321 4.03964 3.94265
# Velocity P-wave (km/s) = 6.42391 6.64191 6.53382
#
# Compressibility (1/GPa) = 0.02170276
#
# Stress axis : x y z
#
# Youngs Moduli (GPa) = 91.59742 115.23669 78.04493
#
# Poissons Ratio (x) = 0.26317 0.28214
# Poissons Ratio (y) = 0.20919 -0.04262
# Poissons Ratio (z) = 0.33113 -0.06292
#
# Static dielectric constant tensor:
#      x y z
#    x 3.915480 0.000000 0.259670 
#    y 0.000000 4.002790 0.000000 
#    z 0.259670 0.000000 3.650330 
# 
# 
# High freq. dielectric constant tensor:
#      x y z
#    x 1.827420 0.000000 0.019780 
#    y 0.000000 1.856210 0.000000 
#    z 0.019780 0.000000 1.821410 
# 
# From -- ./inp_files/270168.got.cif
#   From: 2010.06.25/outbox.cif.g09.slc.cpg/sg12_136_cif.got.tgz:270168.got - 2010.06.28 00:19:55.
