data_PCOD8091251
_publ_section_title
;
Structure prediction by ZEFSAII (Michael W. Deem and Ramdas Pophale) SiO2 
 PCOD8091251
Probable space group: C 2/M
;
_chemical_formula_sum "Si O2"
_cell_formula_units_Z 56
_cell_length_a 16.042445
_cell_length_b 20.107084
_cell_length_c 14.046948
_cell_angle_alpha 90.000000
_cell_angle_beta 40.849924
_cell_angle_gamma 90.000000
_cell_volume 2963.687890
_symmetry_space_group_name_H-M "C 2/M"
_symmetry_group_IT_number 12
_symmetry_cell_setting 'monoclinic'
loop_
_space_group_symop_operation_xyz
x,y,z
-x,y,-z
-x,-y,-z
x,-y,z
1/2+x,1/2+y,z
1/2-x,1/2+y,-z
1/2-x,1/2-y,-z
1/2+x,1/2-y,z
loop_
_atom_site_type_symbol
_atom_site_label
_atom_site_fract_x
_atom_site_fract_y
_atom_site_fract_z
Si Si1 0.422684 0.672245 0.912552
Si Si2 0.546878 0.251172 0.636637
Si Si3 0.906093 0.362915 0.653594
Si Si4 0.969114 0.577698 0.135129
Si Si5 0.303990 0.923351 0.926258
Si Si6 0.160798 0.194465 0.811858
Si Si7 0.285508 0.184123 0.362288
O O1 0.450904 0.719559 0.798727
O O2 0.554864 0.648891 0.848619
O O3 0.331691 0.614096 0.951440
O O4 0.355201 0.708721 0.060664
O O5 0.461459 0.208638 0.638876
O O6 0.649202 0.200656 0.593386
O O7 0.631005 0.309325 0.510328
O O8 0.869935 0.413330 0.767578
O O9 0.787901 0.346803 0.687384
O O10 0.000000 0.400425 0.500000
O O11 0.946911 0.500000 0.171974
O O12 0.093587 0.603399 0.085494
O O13 0.837031 0.612205 0.283836
O O14 0.000000 0.594473 0.000000
O O15 0.272645 0.000000 0.970990
O O16 0.163968 0.266115 0.761590
#
# Coordination Sequence:
#
# PCOD8091251 Si02
#       7
#     8   8   8   8   8   8   8
#     4   9  20  36  53  81 114 146 190 233 278 341
#     4  10  20  33  53  84 113 148 179 233 289 338
#     4  11  20  35  56  86 118 146 184 235 280 346
#     4  10  22  38  59  85 111 150 198 239 278 333
#     4  10  22  40  58  78 113 157 195 233 276 334
#     4   9  19  33  53  84 115 144 182 236 287 335
#     4  10  19  34  55  81 116 146 184 230 288 338
#
# _framework density 18.895377
#
# number of rings (size 3 to 8) (size 9 to 14) (size 15 to 20)
#    0.000    2.143    2.857    0.000    4.000    3.714 
#    0.000    6.429    0.000    0.000    0.000    5.000 
#    0.000    0.000    0.000    0.000    0.000    0.000 
#
# Total GULP energy -346901.964676 kJ/mol
# GULP energy per Si atom -12389.355881 kJ/mol
# Density = 1.885237 g / cm^3
# Si number density = 18.895377 Si / 1000 Ang^3
#
#
#
# Elastic Constant Matrix: (Units=GPa)
#
#
# Indices 1 2 3 4 5 6 
#
# 1 68.4071 9.2656 5.8291 0.0002 -2.5654 -0.0002
# 2 9.2656 38.7626 10.6877 0.0001 0.6244 -0.0001
# 3 5.8291 10.6877 72.6520 0.0004 -5.9027 -0.0005
# 4 0.0002 0.0001 0.0004 24.2458 -0.0003 -5.3459
# 5 -2.5654 0.6244 -5.9027 -0.0003 22.1045 0.0002
# 6 -0.0002 -0.0001 -0.0005 -5.3459 0.0002 25.8486
#
#
#
# Elastic Compliance Matrix: (Units=1/GPa)
#
#
# Indices 1 2 3 4 5 6 
#
# 1 0.015206 -0.003507 -0.000565 0.000000 0.001713 0.000000
# 2 -0.003507 0.027772 -0.003987 0.000000 -0.002256 0.000000
# 3 -0.000565 -0.003987 0.014719 0.000000 0.003978 0.000000
# 4 0.000000 0.000000 0.000000 0.043215 0.000000 0.008937
# 5 0.001713 -0.002256 0.003978 0.000000 0.046564 0.000000
# 6 0.000000 0.000000 0.000000 0.008937 0.000000 0.040535
#
#
# Mechanical properties :
#
#
# Convention : Reuss Voigt Hill
#
# Bulk Modulus (GPa) = 24.05053 25.70960 24.88007
# Shear Modulus (GPa) = 22.93693 24.70907 23.82300
#
# Velocity S-wave (km/s) = 3.48787 3.62011 3.55460
# Velocity P-wave (km/s) = 5.38296 5.57758 5.48113
#
# Compressibility (1/GPa) = 0.04157913
#
# Stress axis : x y z
#
# Youngs Moduli (GPa) = 65.76481 36.00745 67.93781
#
# Poissons Ratio (x) = 0.12626 0.03838
# Poissons Ratio (y) = 0.23060 0.27090
# Poissons Ratio (z) = 0.03716 0.14358
#
# Static dielectric constant tensor:
#      x y z
#    x 3.730870 0.000000 -0.101460 
#    y 0.000000 3.062380 0.000000 
#    z -0.101460 0.000000 3.782070 
# 
# 
# High freq. dielectric constant tensor:
#      x y z
#    x 1.747450 0.000000 0.001720 
#    y 0.000000 1.685740 0.000000 
#    z 0.001720 0.000000 1.746900 
# 
# From -- ./inp_files/226536.got.cif
#   From: 2010.06.25/outbox.cif.g09.slc.cpg/sg12_114_cif.got.tgz:226536.got - 2010.06.28 00:19:55.
