data_PCOD8091338
_publ_section_title
;
Structure prediction by ZEFSAII (Michael W. Deem and Ramdas Pophale) SiO2 
 PCOD8091338
Probable space group: C 2/M
;
_chemical_formula_sum "Si O2"
_cell_formula_units_Z 56
_cell_length_a 27.633047
_cell_length_b 19.129842
_cell_length_c 18.429447
_cell_angle_alpha 90.000000
_cell_angle_beta 16.524136
_cell_angle_gamma 90.000000
_cell_volume 2770.839761
_symmetry_space_group_name_H-M "C 2/M"
_symmetry_group_IT_number 12
_symmetry_cell_setting 'monoclinic'
loop_
_space_group_symop_operation_xyz
x,y,z
-x,y,-z
-x,-y,-z
x,-y,z
1/2+x,1/2+y,z
1/2-x,1/2+y,-z
1/2-x,1/2-y,-z
1/2+x,1/2-y,z
loop_
_atom_site_type_symbol
_atom_site_label
_atom_site_fract_x
_atom_site_fract_y
_atom_site_fract_z
Si Si1 0.695112 0.837404 0.024640
Si Si2 0.398435 0.418193 0.971365
Si Si3 0.049183 0.190811 0.226312
Si Si4 0.184086 0.644555 0.752763
Si Si5 0.385409 0.917181 0.995356
Si Si6 0.759404 0.579207 0.476392
Si Si7 0.966116 0.579718 0.464572
O O1 0.624043 0.765053 0.093910
O O2 0.719149 0.889436 0.922897
O O3 0.564354 0.867125 0.272197
O O4 0.880080 0.825936 0.794600
O O5 0.415576 0.500000 0.922676
O O6 0.378804 0.371017 0.927959
O O7 0.569878 0.391888 0.767436
O O8 0.236565 0.409062 0.256592
O O9 0.843548 0.197786 0.520312
O O10 0.209450 0.585663 0.654831
O O11 0.197766 0.608150 0.810747
O O12 0.000000 0.681388 0.000000
O O13 0.581220 0.886690 0.709613
O O14 0.381092 0.000000 0.000204
O O15 0.762892 0.500000 0.494817
O O16 0.019560 0.500000 0.368950
O O17 0.000000 0.595919 0.500000
#
# Coordination Sequence:
#
# PCOD8091338 Si02
#       7
#     8   8   8   8   8   8   8
#     4  11  23  37  52  78 116 147 176 216 274 330
#     4   9  17  33  59  82 100 135 190 233 260 306
#     4  10  22  38  54  79 110 146 182 217 270 324
#     4   9  18  36  58  81 106 140 184 223 264 319
#     4  10  20  35  56  83 114 144 174 222 278 322
#     4   8  15  31  56  82 108 140 180 222 267 321
#     4  10  19  34  56  79 101 135 185 230 265 310
#
# _framework density 20.210481000000001
#
# number of rings (size 3 to 8) (size 9 to 14) (size 15 to 20)
#    0.000    2.429    1.429    0.857    0.000    4.571 
#    0.000    9.286    0.000    3.429    0.000    0.000 
#    0.000    0.000    0.000    0.000    0.000    0.000 
#
# Total GULP energy -346892.692463 kJ/mol
# GULP energy per Si atom -12389.024731 kJ/mol
# Density = 2.016448 g / cm^3
# Si number density = 20.210481 Si / 1000 Ang^3
#
#
#
# Elastic Constant Matrix: (Units=GPa)
#
#
# Indices 1 2 3 4 5 6 
#
# 1 54.4913 9.5539 6.6432 0.0250 -0.2568 -0.0109
# 2 9.5539 55.9126 8.3795 0.0325 2.2171 -0.0129
# 3 6.6432 8.3795 80.9941 0.0421 -15.6490 -0.0090
# 4 0.0250 0.0325 0.0421 15.3235 -0.0193 -5.4828
# 5 -0.2568 2.2171 -15.6490 -0.0193 25.6042 0.0090
# 6 -0.0109 -0.0129 -0.0090 -5.4828 0.0090 21.8656
#
#
#
# Elastic Compliance Matrix: (Units=1/GPa)
#
#
# Indices 1 2 3 4 5 6 
#
# 1 0.019044 -0.003043 -0.001315 -0.000021 -0.000349 0.000002
# 2 -0.003043 0.018871 -0.002295 -0.000032 -0.003067 0.000002
# 3 -0.001315 -0.002295 0.014432 -0.000023 0.009006 -0.000006
# 4 -0.000021 -0.000032 -0.000023 0.071691 0.000036 0.017977
# 5 -0.000349 -0.003067 0.009006 0.000036 0.044823 -0.000008
# 6 0.000002 0.000002 -0.000006 0.017977 -0.000008 0.050241
#
#
# Mechanical properties :
#
#
# Convention : Reuss Voigt Hill
#
# Bulk Modulus (GPa) = 25.61460 26.72789 26.17124
# Shear Modulus (GPa) = 20.37310 23.68010 22.02660
#
# Velocity S-wave (km/s) = 3.17842 3.42669 3.30488
# Velocity P-wave (km/s) = 5.11578 5.37678 5.24790
#
# Compressibility (1/GPa) = 0.03904024
#
# Stress axis : x y z
#
# Youngs Moduli (GPa) = 52.51069 52.99219 69.29063
#
# Poissons Ratio (x) = 0.16127 0.09108
# Poissons Ratio (y) = 0.15980 0.15905
# Poissons Ratio (z) = 0.06903 0.12164
#
# Static dielectric constant tensor:
#      x y z
#    x 3.617500 -0.000020 -0.451970 
#    y -0.000020 3.396350 0.000030 
#    z -0.451970 0.000030 4.052900 
# 
# 
# High freq. dielectric constant tensor:
#      x y z
#    x 1.774170 0.000000 -0.024560 
#    y 0.000000 1.763420 0.000000 
#    z -0.024560 0.000000 1.796990 
# 
# From -- ./inp_files/293822.got.cif
#   From: 2010.06.25/outbox.cif.g09.slc.cpg/sg12_147_cif.got.tgz:293822.got - 2010.06.28 00:19:55.
