data_PCOD8091067
_publ_section_title
;
Structure prediction by ZEFSAII (Michael W. Deem and Ramdas Pophale) SiO2 
 PCOD8091067
Probable space group: C 2/M
;
_chemical_formula_sum "Si O2"
_cell_formula_units_Z 52
_cell_length_a 21.175264
_cell_length_b 19.290023
_cell_length_c 13.578613
_cell_angle_alpha 90.000000
_cell_angle_beta 150.151692
_cell_angle_gamma 90.000000
_cell_volume 2760.510261
_symmetry_space_group_name_H-M "C 2/M"
_symmetry_group_IT_number 12
_symmetry_cell_setting 'monoclinic'
loop_
_space_group_symop_operation_xyz
x,y,z
-x,y,-z
-x,-y,-z
x,-y,z
1/2+x,1/2+y,z
1/2-x,1/2+y,-z
1/2-x,1/2-y,-z
1/2+x,1/2-y,z
loop_
_atom_site_type_symbol
_atom_site_label
_atom_site_fract_x
_atom_site_fract_y
_atom_site_fract_z
Si Si1 0.035681 0.420177 0.829372
Si Si2 0.754484 0.344061 0.762701
Si Si3 0.000000 0.798624 0.500000
Si Si4 0.810235 0.350309 0.619204
Si Si5 0.109910 0.687569 0.784686
Si Si6 0.673091 0.717426 0.040990
Si Si7 0.429688 0.297743 0.803991
O O1 0.054985 0.500000 0.830119
O O2 0.033625 0.379285 0.721229
O O3 0.901109 0.410826 0.702764
O O4 0.149217 0.395550 0.053056
O O5 0.617101 0.348529 0.630200
O O6 0.748891 0.368511 0.641624
O O7 0.796343 0.261561 0.817482
O O8 0.979977 0.747577 0.379783
O O9 0.697039 0.341728 0.386402
O O10 0.900047 0.283129 0.749755
O O11 0.181425 0.718642 0.975714
O O12 0.215190 0.665119 0.843356
O O13 0.535766 0.681963 0.864122
O O14 0.500000 0.317401 0.000000
#
# Coordination Sequence:
#
# PCOD8091067 Si02
#       7
#     8   8   4   8   8   8   8
#     4  11  23  39  55  78 118 159 193 226 272 349
#     4  10  19  34  54  86 116 146 183 236 292 338
#     4  10  20  32  58  86 116 136 186 246 300 330
#     4  11  21  31  54  84 116 148 186 226 284 342
#     4   9  18  31  51  78 106 146 182 229 282 327
#     4   9  16  30  50  76 114 139 176 232 288 331
#     4  11  19  31  53  84 119 139 177 239 291 336
#
# _framework density 18.837097
#
# number of rings (size 3 to 8) (size 9 to 14) (size 15 to 20)
#    0.000    1.846    4.615    2.308    2.154    1.231 
#    0.000    0.769    0.000    3.231    0.000    0.000 
#    0.000    0.000    0.000    0.000    0.000    0.000 
#
# Total GULP energy -322134.174650 kJ/mol
# GULP energy per Si atom -12389.775948 kJ/mol
# Density = 1.879422 g / cm^3
# Si number density = 18.837097 Si / 1000 Ang^3
#
#
#
# Elastic Constant Matrix: (Units=GPa)
#
#
# Indices 1 2 3 4 5 6 
#
# 1 106.4469 37.5990 46.4589 0.0000 19.2349 0.0000
# 2 37.5990 60.6359 21.4062 0.0000 6.7741 0.0000
# 3 46.4589 21.4062 106.7850 0.0000 15.1297 0.0000
# 4 0.0000 0.0000 0.0000 12.7373 0.0000 2.3317
# 5 19.2349 6.7741 15.1297 0.0000 38.4479 0.0000
# 6 0.0000 0.0000 0.0000 2.3317 0.0000 18.3380
#
#
#
# Elastic Compliance Matrix: (Units=1/GPa)
#
#
# Indices 1 2 3 4 5 6 
#
# 1 0.014532 -0.007007 -0.004302 0.000000 -0.004342 0.000000
# 2 -0.007007 0.021249 -0.001247 0.000000 0.000252 0.000000
# 3 -0.004302 -0.001247 0.011809 0.000000 -0.002275 0.000000
# 4 0.000000 0.000000 0.000000 0.080381 0.000000 -0.010221
# 5 -0.004342 0.000252 -0.002275 0.000000 0.029032 0.000000
# 6 0.000000 0.000000 0.000000 -0.010221 0.000000 0.055831
#
#
# Mechanical properties :
#
#
# Convention : Reuss Voigt Hill
#
# Bulk Modulus (GPa) = 44.49009 53.86621 49.17815
# Shear Modulus (GPa) = 20.37176 25.13156 22.75166
#
# Velocity S-wave (km/s) = 3.29214 3.65657 3.47913
# Velocity P-wave (km/s) = 6.17418 6.81801 6.50407
#
# Compressibility (1/GPa) = 0.02247692
#
# Stress axis : x y z
#
# Youngs Moduli (GPa) = 68.81460 47.06184 84.68322
#
# Poissons Ratio (x) = 0.32975 0.36435
# Poissons Ratio (y) = 0.48217 0.10558
# Poissons Ratio (z) = 0.29607 0.05868
#
# Static dielectric constant tensor:
#      x y z
#    x 3.894740 0.000000 0.070120 
#    y 0.000000 2.847550 0.000000 
#    z 0.070120 0.000000 3.542540 
# 
# 
# High freq. dielectric constant tensor:
#      x y z
#    x 1.752900 0.000000 0.011300 
#    y 0.000000 1.647270 0.000000 
#    z 0.011300 0.000000 1.740340 
# 
# From -- ./inp_files/234474.got.cif
#   From: 2010.06.25/outbox.cif.g09.slc.cpg/sg12_118_cif.got.tgz:234474.got - 2010.06.28 00:19:55.
