data_PCOD8091953
_publ_section_title
;
Structure prediction by ZEFSAII (Michael W. Deem and Ramdas Pophale) SiO2 
 PCOD8091953
Probable space group: C 2/M
;
_chemical_formula_sum "Si O2"
_cell_formula_units_Z 64
_cell_length_a 28.355746
_cell_length_b 9.195686
_cell_length_c 15.204180
_cell_angle_alpha 90.000000
_cell_angle_beta 56.157849
_cell_angle_gamma 90.000000
_cell_volume 3292.812973
_symmetry_space_group_name_H-M "C 2/M"
_symmetry_group_IT_number 12
_symmetry_cell_setting 'monoclinic'
loop_
_space_group_symop_operation_xyz
x,y,z
-x,y,-z
-x,-y,-z
x,-y,z
1/2+x,1/2+y,z
1/2-x,1/2+y,-z
1/2-x,1/2-y,-z
1/2+x,1/2-y,z
loop_
_atom_site_type_symbol
_atom_site_label
_atom_site_fract_x
_atom_site_fract_y
_atom_site_fract_z
Si Si1 0.875863 0.329030 0.951519
Si Si2 0.368079 0.667857 0.287542
Si Si3 0.867209 0.170560 0.783759
Si Si4 0.130721 0.667677 0.542425
Si Si5 0.065353 0.332592 0.434869
Si Si6 0.255450 0.832975 0.154880
Si Si7 0.752869 0.331345 0.656199
Si Si8 0.565500 0.668858 0.952345
O O1 0.887521 0.500000 0.932137
O O2 0.891260 0.253954 0.843407
O O3 0.810316 0.293748 0.040314
O O4 0.917233 0.263580 0.981920
O O5 0.383090 0.500000 0.284582
O O6 0.391672 0.750718 0.347988
O O7 0.300817 0.696248 0.350546
O O8 0.398796 0.726310 0.168180
O O9 0.899183 0.228251 0.664766
O O10 0.800297 0.203968 0.843723
O O11 0.879215 0.000000 0.781687
O O12 0.137676 0.500000 0.560275
O O13 0.084956 0.692804 0.514140
O O14 0.191354 0.733574 0.448565
O O15 0.074954 0.500000 0.396194
O O16 0.000000 0.287818 0.500000
O O17 0.257794 0.740112 0.239701
O O18 0.255784 0.000000 0.183764
O O19 0.762598 0.500000 0.666082
O O20 0.579156 0.500000 0.957563
O O21 0.500000 0.694299 0.000000
#
# Coordination Sequence:
#
# PCOD8091953 Si02
#       8
#     8   8   8   8   8   8   8   8
#     4  11  23  39  61  89 120 155 195 241 295 352
#     4  10  21  36  57  85 115 149 188 233 287 344
#     4  11  23  39  61  89 120 155 195 241 295 352
#     4  10  21  36  57  85 115 149 188 233 287 344
#     4  10  22  41  62  85 116 154 198 246 292 342
#     4  10  21  36  58  89 119 151 191 239 293 350
#     4  10  19  34  58  85 113 149 189 233 291 350
#     4  10  22  41  62  85 116 154 198 246 292 342
#
# _framework density 19.43627
#
# number of rings (size 3 to 8) (size 9 to 14) (size 15 to 20)
#    0.000    1.750    2.500    1.500    0.000    4.500 
#    0.000    2.500    0.000    0.000    0.000    0.000 
#    0.000    0.000    0.000    0.000    0.000    0.000 
#
# Total GULP energy -396953.969671 kJ/mol
# GULP energy per Si atom -12404.811552 kJ/mol
# Density = 1.939203 g / cm^3
# Si number density = 19.436270 Si / 1000 Ang^3
#
#
#
# Elastic Constant Matrix: (Units=GPa)
#
#
# Indices 1 2 3 4 5 6 
#
# 1 91.2708 41.8230 28.7857 0.0000 4.1930 0.0000
# 2 41.8230 73.9972 32.4029 -0.0001 15.8539 0.0001
# 3 28.7857 32.4029 45.3318 0.0000 17.2934 0.0000
# 4 0.0000 -0.0001 0.0000 33.8946 0.0000 11.3772
# 5 4.1930 15.8539 17.2934 0.0000 38.5203 0.0000
# 6 0.0000 0.0001 0.0000 11.3772 0.0000 24.3755
#
#
#
# Elastic Compliance Matrix: (Units=1/GPa)
#
#
# Indices 1 2 3 4 5 6 
#
# 1 0.016138 -0.007034 -0.006823 0.000000 0.004201 0.000000
# 2 -0.007034 0.022886 -0.010366 0.000000 -0.004000 0.000000
# 3 -0.006823 -0.010366 0.038482 0.000000 -0.012267 0.000000
# 4 0.000000 0.000000 0.000000 0.034984 0.000000 -0.016329
# 5 0.004201 -0.004000 -0.012267 0.000000 0.032656 0.000000
# 6 0.000000 0.000000 0.000000 -0.016329 0.000000 0.048646
#
#
# Mechanical properties :
#
#
# Convention : Reuss Voigt Hill
#
# Bulk Modulus (GPa) = 34.41207 46.29145 40.35176
# Shear Modulus (GPa) = 19.84718 26.53063 23.18890
#
# Velocity S-wave (km/s) = 3.19900 3.69861 3.45784
# Velocity P-wave (km/s) = 5.60253 6.48909 6.06204
#
# Compressibility (1/GPa) = 0.02905957
#
# Stress axis : x y z
#
# Youngs Moduli (GPa) = 61.96426 43.69526 25.98650
#
# Poissons Ratio (x) = 0.30734 0.17730
# Poissons Ratio (y) = 0.43584 0.26939
# Poissons Ratio (z) = 0.42277 0.45296
#
# Static dielectric constant tensor:
#      x y z
#    x 3.570460 0.000000 -0.076330 
#    y 0.000000 3.505450 0.000000 
#    z -0.076330 0.000000 3.514770 
# 
# 
# High freq. dielectric constant tensor:
#      x y z
#    x 1.762310 0.000000 0.003310 
#    y 0.000000 1.751350 0.000000 
#    z 0.003310 0.000000 1.758600 
# 
# From -- ./inp_files/249677.got.cif
#   From: 2010.06.25/outbox.cif.g09.slc.cpg/sg12_125_cif.got.tgz:249677.got - 2010.06.28 00:19:55.
