data_PCOD8091563
_publ_section_title
;
Structure prediction by ZEFSAII (Michael W. Deem and Ramdas Pophale) SiO2 
 PCOD8091563
Probable space group: C 2/M
;
_chemical_formula_sum "Si O2"
_cell_formula_units_Z 64
_cell_length_a 24.241124
_cell_length_b 8.904374
_cell_length_c 28.921193
_cell_angle_alpha 90.000000
_cell_angle_beta 146.254032
_cell_angle_gamma 90.000000
_cell_volume 3467.892092
_symmetry_space_group_name_H-M "C 2/M"
_symmetry_group_IT_number 12
_symmetry_cell_setting 'monoclinic'
loop_
_space_group_symop_operation_xyz
x,y,z
-x,y,-z
-x,-y,-z
x,-y,z
1/2+x,1/2+y,z
1/2-x,1/2+y,-z
1/2-x,1/2-y,-z
1/2+x,1/2-y,z
loop_
_atom_site_type_symbol
_atom_site_label
_atom_site_fract_x
_atom_site_fract_y
_atom_site_fract_z
Si Si1 0.219265 0.323677 0.788793
Si Si2 0.752537 0.321913 0.379594
Si Si3 0.472971 0.323905 0.766223
Si Si4 0.172537 0.173958 0.480174
Si Si5 0.505118 0.826481 0.127093
Si Si6 0.769840 0.677465 0.729990
Si Si7 0.904499 0.325335 0.963142
Si Si8 0.459920 0.326621 0.286627
O O1 0.223411 0.500000 0.782604
O O2 0.216286 0.237990 0.738134
O O3 0.312898 0.275927 0.884726
O O4 0.120203 0.282033 0.746973
O O5 0.764660 0.500000 0.387318
O O6 0.641096 0.269439 0.314827
O O7 0.825522 0.252290 0.468497
O O8 0.781744 0.254644 0.350154
O O9 0.475094 0.500000 0.772870
O O10 0.528590 0.256709 0.849679
O O11 0.528132 0.273416 0.758143
O O12 0.250000 0.250000 0.500000
O O13 0.062929 0.195470 0.384472
O O14 0.200897 0.000000 0.504399
O O15 0.614442 0.774964 0.186676
O O16 0.508085 0.000000 0.141249
O O17 0.426345 0.791127 0.032069
O O18 0.755238 0.500000 0.716847
O O19 0.878484 0.500000 0.936489
O O20 0.000000 0.279707 0.000000
O O21 0.425011 0.500000 0.264847
#
# Coordination Sequence:
#
# PCOD8091563 Si02
#       8
#     8   8   8   8   8   8   8   8
#     4  12  25  38  56  86 117 150 190 239 291 336
#     4  10  19  34  56  88 120 146 185 239 288 334
#     4   9  18  34  55  81 114 149 184 228 283 334
#     4  11  21  36  59  87 116 150 194 239 286 339
#     4   9  18  32  56  86 111 142 187 233 277 330
#     4  10  19  36  58  83 114 153 191 228 282 345
#     4  10  19  37  60  83 113 150 192 233 279 340
#     4  10  22  41  59  79 113 158 195 228 282 347
#
# _framework density 18.455015
#
# number of rings (size 3 to 8) (size 9 to 14) (size 15 to 20)
#    0.000    1.875    2.500    2.250    0.000    3.250 
#    0.000    1.250    0.000    3.750    0.000    0.000 
#    0.000    0.000    0.000    0.000    0.000    0.000 
#
# Total GULP energy -396902.314039 kJ/mol
# GULP energy per Si atom -12403.197314 kJ/mol
# Density = 1.841301 g / cm^3
# Si number density = 18.455015 Si / 1000 Ang^3
#
#
#
# Elastic Constant Matrix: (Units=GPa)
#
#
# Indices 1 2 3 4 5 6 
#
# 1 124.8844 46.6907 51.4341 -0.0001 -20.7272 -0.0003
# 2 46.6907 82.4007 39.1574 -0.0001 -6.6371 -0.0013
# 3 51.4341 39.1574 69.1417 0.0000 -13.5798 -0.0001
# 4 -0.0001 -0.0001 0.0000 30.1415 0.0000 -6.6324
# 5 -20.7272 -6.6371 -13.5798 0.0000 29.2962 -0.0001
# 6 -0.0003 -0.0013 -0.0001 -6.6324 -0.0001 34.3428
#
#
#
# Elastic Compliance Matrix: (Units=1/GPa)
#
#
# Indices 1 2 3 4 5 6 
#
# 1 0.012985 -0.003880 -0.006415 0.000000 0.005335 0.000000
# 2 -0.003880 0.017775 -0.007623 0.000000 -0.002251 0.000001
# 3 -0.006415 -0.007623 0.024557 0.000000 0.005118 0.000000
# 4 0.000000 0.000000 0.000000 0.034649 0.000000 0.006692
# 5 0.005335 -0.002251 0.005118 0.000000 0.039771 0.000000
# 6 0.000000 0.000001 0.000000 0.006692 0.000000 0.030410
#
#
# Mechanical properties :
#
#
# Convention : Reuss Voigt Hill
#
# Bulk Modulus (GPa) = 51.32640 61.22124 56.27382
# Shear Modulus (GPa) = 24.69418 28.03240 26.36329
#
# Velocity S-wave (km/s) = 3.66194 3.90161 3.78367
# Velocity P-wave (km/s) = 6.76400 7.31724 7.04605
#
# Compressibility (1/GPa) = 0.01948315
#
# Stress axis : x y z
#
# Youngs Moduli (GPa) = 77.01033 56.25771 40.72168
#
# Poissons Ratio (x) = 0.21827 0.26121
# Poissons Ratio (y) = 0.29879 0.31041
# Poissons Ratio (z) = 0.49399 0.42884
#
# Static dielectric constant tensor:
#      x y z
#    x 1.310200 0.000020 -9.344730 
#    y 0.000020 3.376330 0.000090 
#    z -9.344730 0.000090 -34.771730 
# 
# 
# High freq. dielectric constant tensor:
#      x y z
#    x 1.715450 0.000000 -0.024720 
#    y 0.000000 1.717440 0.000000 
#    z -0.024720 0.000000 1.704490 
# 
# From -- ./inp_files/382499.got.cif
#   From: 2010.06.25/outbox.cif.g09.slc.cpg/sg12_192_cif.got.tgz:382499.got - 2010.06.28 00:19:55.
