data_PCOD8091201
_publ_section_title
;
Structure prediction by ZEFSAII (Michael W. Deem and Ramdas Pophale) SiO2 
 PCOD8091201
Probable space group: C 2/M
;
_chemical_formula_sum "Si O2"
_cell_formula_units_Z 56
_cell_length_a 9.893322
_cell_length_b 18.728494
_cell_length_c 30.809226
_cell_angle_alpha 90.000000
_cell_angle_beta 32.516371
_cell_angle_gamma 90.000000
_cell_volume 3068.577056
_symmetry_space_group_name_H-M "C 2/M"
_symmetry_group_IT_number 12
_symmetry_cell_setting 'monoclinic'
loop_
_space_group_symop_operation_xyz
x,y,z
-x,y,-z
-x,-y,-z
x,-y,z
1/2+x,1/2+y,z
1/2-x,1/2+y,-z
1/2-x,1/2-y,-z
1/2+x,1/2-y,z
loop_
_atom_site_type_symbol
_atom_site_label
_atom_site_fract_x
_atom_site_fract_y
_atom_site_fract_z
Si Si1 0.208404 0.582010 0.575705
Si Si2 0.763915 0.813074 0.091859
Si Si3 0.501973 0.292748 0.321355
Si Si4 0.647063 0.918757 0.767863
Si Si5 0.873316 0.787944 0.160785
Si Si6 0.393916 0.078798 0.744695
Si Si7 0.488445 0.786460 0.414581
O O1 0.500000 0.601979 0.500000
O O2 0.170203 0.500000 0.572420
O O3 0.076810 0.630697 0.575424
O O4 0.079970 0.601227 0.655988
O O5 0.569608 0.879096 0.145724
O O6 0.852694 0.787343 0.114750
O O7 0.640441 0.744033 0.102369
O O8 0.000000 0.839439 0.000000
O O9 0.591064 0.375405 0.299645
O O10 0.646680 0.257385 0.242106
O O11 0.566995 0.253336 0.348868
O O12 0.208692 0.286079 0.390425
O O13 0.567700 0.918613 0.739627
O O14 0.683582 0.000000 0.775152
O O15 0.844732 0.868686 0.186733
O O16 0.280643 0.000000 0.767886
O O17 0.250000 0.750000 0.500000
#
# Coordination Sequence:
#
# PCOD8091201 Si02
#       7
#     8   8   8   8   8   8   8
#     4  10  21  35  54  79 110 145 187 232 278 325
#     4  10  20  34  57  84 112 144 176 222 277 329
#     4  11  22  37  57  79 111 147 188 232 275 326
#     4   9  20  36  57  82 110 144 184 226 275 329
#     4  10  19  34  55  80 109 139 183 225 269 329
#     4   9  17  33  56  79 105 145 188 228 267 323
#     4  12  24  37  55  83 113 147 189 235 282 325
#
# _framework density 18.249500999999999
#
# number of rings (size 3 to 8) (size 9 to 14) (size 15 to 20)
#    0.000    1.857    1.429    4.286    2.000    0.857 
#    0.000    0.000    0.000    2.143    0.000    0.000 
#    0.000    0.000    0.000    0.000    0.000    0.000 
#
# Total GULP energy -347200.152744 kJ/mol
# GULP energy per Si atom -12400.005455 kJ/mol
# Density = 1.820796 g / cm^3
# Si number density = 18.249501 Si / 1000 Ang^3
#
#
#
# Elastic Constant Matrix: (Units=GPa)
#
#
# Indices 1 2 3 4 5 6 
#
# 1 63.5085 43.5643 31.9075 -0.0030 -4.1773 0.0167
# 2 43.5643 119.7270 38.1758 0.0261 -3.8571 -0.0202
# 3 31.9075 38.1758 89.6928 0.0762 -1.3047 -0.0321
# 4 -0.0030 0.0261 0.0762 17.8838 -0.0236 -2.4337
# 5 -4.1773 -3.8571 -1.3047 -0.0236 28.0011 0.0055
# 6 0.0167 -0.0202 -0.0321 -2.4337 0.0055 29.4829
#
#
#
# Elastic Compliance Matrix: (Units=1/GPa)
#
#
# Indices 1 2 3 4 5 6 
#
# 1 0.023150 -0.006635 -0.005378 0.000037 0.002289 -0.000021
# 2 -0.006635 0.011602 -0.002571 -0.000005 0.000489 0.000008
# 3 -0.005378 -0.002571 0.014149 -0.000056 -0.000497 0.000012
# 4 0.000037 -0.000005 -0.000056 0.056552 0.000049 0.004668
# 5 0.002289 0.000489 -0.000497 0.000049 0.036099 -0.000004
# 6 -0.000021 0.000008 0.000012 0.004668 -0.000004 0.034303
#
#
# Mechanical properties :
#
#
# Convention : Reuss Voigt Hill
#
# Bulk Modulus (GPa) = 50.67448 55.58038 53.12743
# Shear Modulus (GPa) = 23.62949 25.69229 24.66089
#
# Velocity S-wave (km/s) = 3.60224 3.75618 3.68002
# Velocity P-wave (km/s) = 6.71784 7.02380 6.87253
#
# Compressibility (1/GPa) = 0.01973380
#
# Stress axis : x y z
#
# Youngs Moduli (GPa) = 43.19709 86.19263 70.67440
#
# Poissons Ratio (x) = 0.57187 0.38010
# Poissons Ratio (y) = 0.28660 0.18169
# Poissons Ratio (z) = 0.23232 0.22158
#
# Static dielectric constant tensor:
#      x y z
#    x 3.268500 0.000110 0.070620 
#    y 0.000110 3.720860 0.000010 
#    z 0.070620 0.000010 3.366650 
# 
# 
# High freq. dielectric constant tensor:
#      x y z
#    x 1.692560 0.000000 0.009340 
#    y 0.000000 1.715920 0.000000 
#    z 0.009340 0.000000 1.705780 
# 
# From -- ./inp_files/257168.got.cif
#   From: 2010.06.25/outbox.cif.g09.slc.cpg/sg12_129_cif.got.tgz:257168.got - 2010.06.28 00:19:55.
