data_PCOD8091125
_publ_section_title
;
Structure prediction by ZEFSAII (Michael W. Deem and Ramdas Pophale) SiO2 
 PCOD8091125
Probable space group: C 2/M
;
_chemical_formula_sum "Si O2"
_cell_formula_units_Z 64
_cell_length_a 20.673760
_cell_length_b 9.419759
_cell_length_c 23.177182
_cell_angle_alpha 90.000000
_cell_angle_beta 131.867383
_cell_angle_gamma 90.000000
_cell_volume 3361.215451
_symmetry_space_group_name_H-M "C 2/M"
_symmetry_group_IT_number 12
_symmetry_cell_setting 'monoclinic'
loop_
_space_group_symop_operation_xyz
x,y,z
-x,y,-z
-x,-y,-z
x,-y,z
1/2+x,1/2+y,z
1/2-x,1/2+y,-z
1/2-x,1/2-y,-z
1/2+x,1/2-y,z
loop_
_atom_site_type_symbol
_atom_site_label
_atom_site_fract_x
_atom_site_fract_y
_atom_site_fract_z
Si Si1 0.378851 0.158027 0.814651
Si Si2 0.788833 0.667677 0.576526
Si Si3 0.702855 0.344109 0.642898
Si Si4 0.486546 0.664891 0.173681
Si Si5 0.815031 0.837861 0.001078
Si Si6 0.126463 0.662200 0.690707
Si Si7 0.508908 0.834443 0.295535
Si Si8 0.698361 0.335086 0.137655
O O1 0.283408 0.142060 0.733191
O O2 0.431366 0.249159 0.800045
O O3 0.373699 0.243112 0.871570
O O4 0.419220 0.000000 0.847659
O O5 0.778204 0.500000 0.561352
O O6 0.750000 0.750000 0.500000
O O7 0.735662 0.719592 0.601409
O O8 0.890125 0.707282 0.641768
O O9 0.661826 0.500000 0.608474
O O10 0.631737 0.247919 0.633468
O O11 0.509935 0.500000 0.197283
O O12 0.411446 0.683227 0.082154
O O13 0.461075 0.736956 0.219363
O O14 0.785129 0.000000 0.986753
O O15 0.750000 0.750000 0.000000
O O16 0.808856 0.782955 0.932175
O O17 0.128800 0.500000 0.672783
O O18 0.036830 0.699016 0.670352
O O19 0.205162 0.695025 0.781465
O O20 0.496115 0.000000 0.271525
O O21 0.672979 0.500000 0.129042
#
# Coordination Sequence:
#
# PCOD8091125 Si02
#       8
#     8   8   8   8   8   8   8   8
#     4  10  19  34  55  78 104 141 183 226 274 325
#     4  10  21  38  59  84 112 145 180 222 274 328
#     4   9  18  35  56  79 111 145 178 220 272 325
#     4  11  22  34  53  81 109 141 184 231 277 326
#     4  10  22  37  52  73 106 145 184 230 282 330
#     4   9  18  32  57  84 105 141 187 228 269 318
#     4  10  20  38  59  82 113 145 184 230 275 327
#     4   9  18  34  52  75 107 141 181 228 277 323
#
# _framework density 19.04073
#
# number of rings (size 3 to 8) (size 9 to 14) (size 15 to 20)
#    0.000    2.250    1.250    1.500    0.000    5.000 
#    0.000    5.625    0.000    3.750    0.000    0.000 
#    0.000    0.000    0.000    0.000    0.000    0.000 
#
# Total GULP energy -396763.200565 kJ/mol
# GULP energy per Si atom -12398.850018 kJ/mol
# Density = 1.899739 g / cm^3
# Si number density = 19.040730 Si / 1000 Ang^3
#
#
#
# Elastic Constant Matrix: (Units=GPa)
#
#
# Indices 1 2 3 4 5 6 
#
# 1 123.1062 60.0378 40.2518 0.0000 -34.9387 0.0000
# 2 60.0378 89.3541 39.0049 0.0000 -19.3918 0.0000
# 3 40.2518 39.0049 81.3009 0.0000 -28.7733 0.0000
# 4 0.0000 0.0000 0.0000 29.0757 0.0000 -8.3153
# 5 -34.9387 -19.3918 -28.7733 0.0000 30.1577 0.0000
# 6 0.0000 0.0000 0.0000 -8.3153 0.0000 35.0704
#
#
#
# Elastic Compliance Matrix: (Units=1/GPa)
#
#
# Indices 1 2 3 4 5 6 
#
# 1 0.015608 -0.007894 0.001001 0.000000 0.013961 0.000000
# 2 -0.007894 0.018469 -0.006018 0.000000 -0.003012 0.000000
# 3 0.001001 -0.006018 0.020734 0.000000 0.017071 0.000000
# 4 0.000000 0.000000 0.000000 0.036895 0.000000 0.008748
# 5 0.013961 -0.003012 0.017071 0.000000 0.063685 0.000000
# 6 0.000000 0.000000 0.000000 0.008748 0.000000 0.030588
#
#
# Mechanical properties :
#
#
# Convention : Reuss Voigt Hill
#
# Bulk Modulus (GPa) = 34.49749 63.59445 49.04597
# Shear Modulus (GPa) = 22.57703 29.15856 25.86780
#
# Velocity S-wave (km/s) = 3.44717 3.91753 3.68985
# Velocity P-wave (km/s) = 5.83104 7.34400 6.63081
#
# Compressibility (1/GPa) = 0.02898761
#
# Stress axis : x y z
#
# Youngs Moduli (GPa) = 64.06930 54.14463 48.23104
#
# Poissons Ratio (x) = 0.42743 -0.04827
# Poissons Ratio (y) = 0.50578 0.29026
# Poissons Ratio (z) = -0.06412 0.32585
#
# Static dielectric constant tensor:
#      x y z
#    x 3.654790 0.000000 0.028610 
#    y 0.000000 3.126160 0.000000 
#    z 0.028610 0.000000 3.831220 
# 
# 
# High freq. dielectric constant tensor:
#      x y z
#    x 1.743980 0.000000 -0.017990 
#    y 0.000000 1.740530 0.000000 
#    z -0.017990 0.000000 1.721130 
# 
# From -- ./inp_files/320106.got.cif
#   From: 2010.06.25/outbox.cif.g09.slc.cpg/sg12_161_cif.got.tgz:320106.got - 2010.06.28 00:19:55.
