data_PCOD8091881
_publ_section_title
;
Structure prediction by ZEFSAII (Michael W. Deem and Ramdas Pophale) SiO2 
 PCOD8091881
Probable space group: C 2/M
;
_chemical_formula_sum "Si O2"
_cell_formula_units_Z 40
_cell_length_a 14.049372
_cell_length_b 14.465307
_cell_length_c 13.142942
_cell_angle_alpha 90.000000
_cell_angle_beta 140.047229
_cell_angle_gamma 90.000000
_cell_volume 1715.211431
_symmetry_space_group_name_H-M "C 2/M"
_symmetry_group_IT_number 12
_symmetry_cell_setting 'monoclinic'
loop_
_space_group_symop_operation_xyz
x,y,z
-x,y,-z
-x,-y,-z
x,-y,z
1/2+x,1/2+y,z
1/2-x,1/2+y,-z
1/2-x,1/2-y,-z
1/2+x,1/2-y,z
loop_
_atom_site_type_symbol
_atom_site_label
_atom_site_fract_x
_atom_site_fract_y
_atom_site_fract_z
Si Si1 0.393697 0.105470 0.702841
Si Si2 0.118999 0.290459 0.006762
Si Si3 0.034744 0.901063 0.909550
Si Si4 0.837022 0.206470 0.348783
Si Si5 0.293956 0.102752 0.398034
O O1 0.557722 0.136213 0.875002
O O2 0.267829 0.169044 0.648652
O O3 0.386479 0.118474 0.576579
O O4 0.366704 0.000000 0.714041
O O5 0.137736 0.188402 0.969196
O O6 0.274227 0.322261 0.185499
O O7 0.000000 0.279695 0.000000
O O8 0.881096 0.889022 0.721963
O O9 0.109463 0.000000 0.939020
O O10 0.000000 0.905027 0.000000
O O11 0.842036 0.318696 0.357404
O O12 0.000000 0.164404 0.500000
O O13 0.328863 0.000000 0.381572
#
# Coordination Sequence:
#
# PCOD8091881 Si02
#       5
#     8   8   8   8   8
#     4  10  21  37  59  79 101 143 189 223 256 308
#     4   9  17  32  52  78 101 141 182 216 257 309
#     4   9  14  25  50  80 104 130 174 221 257 304
#     4  11  22  35  53  84 113 140 172 220 277 318
#     4  10  19  34  58  83 108 138 178 223 265 317
#
# _framework density 23.320740000000001
#
# number of rings (size 3 to 8) (size 9 to 14) (size 15 to 20)
#    0.000    2.200    6.000    0.600    0.000    4.400 
#    0.000    1.000    0.000    0.000    0.000    0.000 
#    0.000    0.000    0.000    0.000    0.000    0.000 
#
# Total GULP energy -247858.262105 kJ/mol
# GULP energy per Si atom -12392.913105 kJ/mol
# Density = 2.326766 g / cm^3
# Si number density = 23.320740 Si / 1000 Ang^3
#
#
#
# Elastic Constant Matrix: (Units=GPa)
#
#
# Indices 1 2 3 4 5 6 
#
# 1 7.4141 0.5717 17.8210 0.0002 3.1234 0.0000
# 2 0.5717 101.3730 37.3515 0.0001 -4.0616 -0.0001
# 3 17.8210 37.3515 197.0893 0.0002 3.5741 -0.0001
# 4 0.0002 0.0001 0.0002 9.3828 0.0002 7.5360
# 5 3.1234 -4.0616 3.5741 0.0002 26.6386 0.0000
# 6 0.0000 -0.0001 -0.0001 7.5360 0.0000 -2.3566
#
#
#
# Elastic Compliance Matrix: (Units=1/GPa)
#
#
# Indices 1 2 3 4 5 6 
#
# 1 0.183464 0.004528 -0.017111 -0.000001 -0.018525 -0.000003
# 2 0.004528 0.010813 -0.002485 0.000000 0.001451 0.000000
# 3 -0.017111 -0.002485 0.007080 0.000000 0.000678 0.000000
# 4 -0.000001 0.000000 0.000000 0.029867 0.000000 0.095510
# 5 -0.018525 0.001451 0.000678 0.000000 0.039842 0.000000
# 6 -0.000003 0.000000 0.000000 0.095510 0.000000 -0.118915
#
#
# Mechanical properties :
#
#
# Convention : Reuss Voigt Hill
#
# Bulk Modulus (GPa) = 5.84045 46.37386 26.10715
# Shear Modulus (GPa) = 20.88906 23.40843 22.14874
#
# Velocity S-wave (km/s) = 2.99612 3.17165 3.08514
# Velocity P-wave (km/s) = 3.80510 5.77416 4.88977
#
# Compressibility (1/GPa) = 0.17121969
#
# Stress axis : x y z
#
# Youngs Moduli (GPa) = 5.45067 92.48345 141.24913
#
# Poissons Ratio (x) = -0.41874 2.41693
# Poissons Ratio (y) = -0.02468 0.35099
# Poissons Ratio (z) = 0.09327 0.22981
#
# Static dielectric constant tensor:
#      x y z
#    x 3.290260 0.000000 0.003910 
#    y 0.000000 4.567640 0.000000 
#    z 0.003910 0.000000 4.751450 
# 
# 
# High freq. dielectric constant tensor:
#      x y z
#    x 1.848200 0.000000 -0.005880 
#    y 0.000000 1.929280 0.000000 
#    z -0.005880 0.000000 1.947760 
# 
# From -- ./inp_files/72836.got.cif
#   From: 2010.06.25/outbox.cif.g09.slc.cpg/sg12_37_cif.got.tgz:72836.got - 2010.06.28 00:19:55.
