data_PCOD8091262
_publ_section_title
;
Structure prediction by ZEFSAII (Michael W. Deem and Ramdas Pophale) SiO2 
 PCOD8091262
Probable space group: C 2/M
;
_chemical_formula_sum "Si O2"
_cell_formula_units_Z 64
_cell_length_a 10.262878
_cell_length_b 17.447734
_cell_length_c 22.180756
_cell_angle_alpha 90.000000
_cell_angle_beta 124.288321
_cell_angle_gamma 90.000000
_cell_volume 3281.531991
_symmetry_space_group_name_H-M "C 2/M"
_symmetry_group_IT_number 12
_symmetry_cell_setting 'monoclinic'
loop_
_space_group_symop_operation_xyz
x,y,z
-x,y,-z
-x,-y,-z
x,-y,z
1/2+x,1/2+y,z
1/2-x,1/2+y,-z
1/2-x,1/2-y,-z
1/2+x,1/2-y,z
loop_
_atom_site_type_symbol
_atom_site_label
_atom_site_fract_x
_atom_site_fract_y
_atom_site_fract_z
Si Si1 0.412501 0.650042 0.537418
Si Si2 0.447232 0.828072 0.552914
Si Si3 0.191190 0.849276 0.160929
Si Si4 0.332800 0.661197 0.076280
Si Si5 0.987786 0.088331 0.312169
Si Si6 0.280323 0.831711 0.824277
Si Si7 0.282100 0.911196 0.310007
Si Si8 0.140500 0.657954 0.914135
O O1 0.500000 0.622043 0.500000
O O2 0.455233 0.737266 0.564093
O O3 0.226262 0.639779 0.479176
O O4 0.469626 0.597227 0.606834
O O5 0.500000 0.852422 0.500000
O O6 0.563277 0.864971 0.631293
O O7 0.224734 0.759865 0.180776
O O8 0.258468 0.898536 0.233193
O O9 0.274249 0.878557 0.121628
O O10 0.006954 0.867289 0.105956
O O11 0.280914 0.633090 0.128695
O O12 0.325372 0.752329 0.075527
O O13 0.214574 0.625339 0.995583
O O14 0.830287 0.136345 0.257415
O O15 0.131239 0.119844 0.308153
O O16 0.955005 0.000000 0.288966
O O17 0.457035 0.862188 0.861299
O O18 0.309660 0.000000 0.331488
#
# Coordination Sequence:
#
# PCOD8091262 Si02
#       8
#     8   8   8   8   8   8   8   8
#     4  10  22  39  62  90 115 142 180 235 288 331
#     4  10  20  39  63  87 114 143 186 231 274 334
#     4  10  19  34  55  82 113 145 189 237 280 329
#     4   9  16  31  53  82 114 143 186 233 286 338
#     4  11  23  39  58  81 116 156 190 227 275 337
#     4  10  19  34  56  82 113 149 187 232 283 336
#     4  11  23  38  59  83 113 155 196 229 267 332
#     4   9  18  29  53  85 111 143 183 242 289 323
#
# _framework density 19.503086
#
# number of rings (size 3 to 8) (size 9 to 14) (size 15 to 20)
#    0.000    2.000    2.500    1.500    0.000    5.000 
#    0.000    1.875    0.000    4.500    0.000    0.000 
#    0.000    0.000    0.000    0.000    0.000    0.000 
#
# Total GULP energy -396911.556158 kJ/mol
# GULP energy per Si atom -12403.486130 kJ/mol
# Density = 1.945870 g / cm^3
# Si number density = 19.503086 Si / 1000 Ang^3
#
#
#
# Elastic Constant Matrix: (Units=GPa)
#
#
# Indices 1 2 3 4 5 6 
#
# 1 143.7067 17.7275 45.6132 0.0000 1.6621 0.0000
# 2 17.7275 29.2542 20.4977 0.0000 11.3369 0.0000
# 3 45.6132 20.4977 113.1392 0.0000 8.1862 0.0000
# 4 0.0000 0.0000 0.0000 7.2423 0.0000 -6.2129
# 5 1.6621 11.3369 8.1862 0.0000 40.4678 0.0000
# 6 0.0000 0.0000 0.0000 -6.2129 0.0000 14.3832
#
#
#
# Elastic Compliance Matrix: (Units=1/GPa)
#
#
# Indices 1 2 3 4 5 6 
#
# 1 0.008262 -0.003529 -0.002779 0.000000 0.001211 0.000000
# 2 -0.003529 0.044787 -0.005880 0.000000 -0.011212 0.000000
# 3 -0.002779 -0.005880 0.011059 0.000000 -0.000476 0.000000
# 4 0.000000 0.000000 0.000000 0.219362 0.000000 0.094754
# 5 0.001211 -0.011212 -0.000476 0.000000 0.027899 0.000000
# 6 0.000000 0.000000 0.000000 0.094754 0.000000 0.110454
#
#
# Mechanical properties :
#
#
# Convention : Reuss Voigt Hill
#
# Bulk Modulus (GPa) = 25.16908 50.41966 37.79437
# Shear Modulus (GPa) = 10.88275 25.90279 18.39277
#
# Velocity S-wave (km/s) = 2.36477 3.64832 3.07428
# Velocity P-wave (km/s) = 4.51546 6.60721 5.65882
#
# Compressibility (1/GPa) = 0.03973129
#
# Stress axis : x y z
#
# Youngs Moduli (GPa) = 121.03513 22.32800 90.42476
#
# Poissons Ratio (x) = 0.07879 0.25132
# Poissons Ratio (y) = 0.42710 0.53172
# Poissons Ratio (z) = 0.33639 0.13129
#
# Static dielectric constant tensor:
#      x y z
#    x 3.731230 0.000000 -0.016670 
#    y 0.000000 3.105480 0.000000 
#    z -0.016670 0.000000 3.580220 
# 
# 
# High freq. dielectric constant tensor:
#      x y z
#    x 1.770110 0.000000 0.001790 
#    y 0.000000 1.718460 0.000000 
#    z 0.001790 0.000000 1.770980 
# 
# From -- ./inp_files/301767.got.cif
#   From: 2010.06.25/outbox.cif.g09.slc.cpg/sg12_151_cif.got.tgz:301767.got - 2010.06.28 00:19:55.
