data_PCOD8091188
_publ_section_title
;
Structure prediction by ZEFSAII (Michael W. Deem and Ramdas Pophale) SiO2 
 PCOD8091188
Probable space group: C 2/M
;
_chemical_formula_sum "Si O2"
_cell_formula_units_Z 48
_cell_length_a 16.457408
_cell_length_b 29.263919
_cell_length_c 9.653100
_cell_angle_alpha 90.000000
_cell_angle_beta 35.010933
_cell_angle_gamma 90.000000
_cell_volume 2667.290734
_symmetry_space_group_name_H-M "C 2/M"
_symmetry_group_IT_number 12
_symmetry_cell_setting 'monoclinic'
loop_
_space_group_symop_operation_xyz
x,y,z
-x,y,-z
-x,-y,-z
x,-y,z
1/2+x,1/2+y,z
1/2-x,1/2+y,-z
1/2-x,1/2-y,-z
1/2+x,1/2-y,z
loop_
_atom_site_type_symbol
_atom_site_label
_atom_site_fract_x
_atom_site_fract_y
_atom_site_fract_z
Si Si1 0.156381 0.880367 0.266644
Si Si2 0.348903 0.881484 0.264146
Si Si3 0.160951 0.223910 0.242022
Si Si4 0.157349 0.276708 0.740819
Si Si5 0.626397 0.051417 0.527548
Si Si6 0.188029 0.448842 0.133123
O O1 0.234960 0.887399 0.302492
O O2 0.155641 0.829049 0.208095
O O3 0.000000 0.898672 0.500000
O O4 0.213048 0.911036 0.066134
O O5 0.359075 0.828358 0.293066
O O6 0.309765 0.912357 0.451864
O O7 0.500000 0.899387 0.000000
O O8 0.251098 0.228298 0.252138
O O9 0.000000 0.242293 0.500000
O O10 0.250000 0.250000 0.000000
O O11 0.250000 0.250000 0.500000
O O12 0.000000 0.257219 0.000000
O O13 0.466518 0.062795 0.709109
O O14 0.710304 0.055245 0.266685
O O15 0.640262 0.000000 0.569553
O O16 0.229378 0.500000 0.028096
#
# Coordination Sequence:
#
# PCOD8091188 Si02
#       6
#     8   8   8   8   8   8
#     4  10  21  36  53  78 112 143 174 221 271 321
#     4  10  19  34  55  80 105 138 183 221 262 317
#     4  10  21  38  56  79 109 143 185 225 269 325
#     4  10  21  36  55  79 110 140 178 227 271 320
#     4   9  18  33  55  82 108 135 179 229 265 310
#     4   9  18  34  54  80 110 139 175 222 271 318
#
# _framework density 17.995788999999998
#
# number of rings (size 3 to 8) (size 9 to 14) (size 15 to 20)
#    0.000    2.333    1.667    2.000    0.000    2.667 
#    3.000    0.833    0.000    2.000    0.000    0.000 
#    0.000    0.000    0.000    0.000    0.000    0.000 
#
# Total GULP energy -297403.654088 kJ/mol
# GULP energy per Si atom -12391.818920 kJ/mol
# Density = 1.795483 g / cm^3
# Si number density = 17.995789 Si / 1000 Ang^3
#
#
#
# Elastic Constant Matrix: (Units=GPa)
#
#
# Indices 1 2 3 4 5 6 
#
# 1 66.6312 36.3878 35.7133 0.0000 -5.9229 0.0000
# 2 36.3878 86.4556 65.1003 0.0000 12.6870 0.0000
# 3 35.7133 65.1003 128.8121 0.0000 -4.0080 0.0000
# 4 0.0000 0.0000 0.0000 25.8582 0.0000 -25.9835
# 5 -5.9229 12.6870 -4.0080 0.0000 30.3198 0.0000
# 6 0.0000 0.0000 0.0000 -25.9835 0.0000 -43.8289
#
#
#
# Elastic Compliance Matrix: (Units=1/GPa)
#
#
# Indices 1 2 3 4 5 6 
#
# 1 0.021395 -0.009540 -0.000860 0.000000 0.008058 0.000000
# 2 -0.009540 0.025812 -0.010839 0.000000 -0.014097 0.000000
# 3 -0.000860 -0.010839 0.013672 0.000000 0.006175 0.000000
# 4 0.000000 0.000000 0.000000 0.024235 0.000000 -0.014368
# 5 0.008058 -0.014097 0.006175 0.000000 0.041271 0.000000
# 6 0.000000 0.000000 0.000000 -0.014368 0.000000 -0.014298
#
#
# Mechanical properties :
#
#
# Convention : Reuss Voigt Hill
#
# Bulk Modulus (GPa) = 54.34287 61.81131 58.07709
# Shear Modulus (GPa) = 31.11454 12.11633 21.61543
#
# Velocity S-wave (km/s) = 4.16262 2.59759 3.46950
# Velocity P-wave (km/s) = 7.30523 6.58930 6.95648
#
# Compressibility (1/GPa) = 0.01840168
#
# Stress axis : x y z
#
# Youngs Moduli (GPa) = 46.74042 38.74166 73.14455
#
# Poissons Ratio (x) = 0.36959 0.06288
# Poissons Ratio (y) = 0.44589 0.79280
# Poissons Ratio (z) = 0.04018 0.41991
#
# Static dielectric constant tensor:
#      x y z
#    x 3.279510 0.000000 -0.139290 
#    y 0.000000 3.429720 0.000000 
#    z -0.139290 0.000000 3.135730 
# 
# 
# High freq. dielectric constant tensor:
#      x y z
#    x 1.698410 0.000000 0.002170 
#    y 0.000000 1.695410 0.000000 
#    z 0.002170 0.000000 1.692250 
# 
# From -- ./inp_files/67296.got.cif
#   From: 2010.06.25/outbox.cif.g09.slc.cpg/sg12_34_cif.got.tgz:67296.got - 2010.06.28 00:19:55.
