data_PCOD8091738
_publ_section_title
;
Structure prediction by ZEFSAII (Michael W. Deem and Ramdas Pophale) SiO2 
 PCOD8091738
Probable space group: C 2/M
;
_chemical_formula_sum "Si O2"
_cell_formula_units_Z 56
_cell_length_a 8.268762
_cell_length_b 18.459896
_cell_length_c 27.852183
_cell_angle_alpha 90.000000
_cell_angle_beta 139.246066
_cell_angle_gamma 90.000000
_cell_volume 2775.344858
_symmetry_space_group_name_H-M "C 2/M"
_symmetry_group_IT_number 12
_symmetry_cell_setting 'monoclinic'
loop_
_space_group_symop_operation_xyz
x,y,z
-x,y,-z
-x,-y,-z
x,-y,z
1/2+x,1/2+y,z
1/2-x,1/2+y,-z
1/2-x,1/2-y,-z
1/2+x,1/2-y,z
loop_
_atom_site_type_symbol
_atom_site_label
_atom_site_fract_x
_atom_site_fract_y
_atom_site_fract_z
Si Si1 0.306510 0.915247 0.352056
Si Si2 0.129001 0.080176 0.210237
Si Si3 0.523866 0.414900 0.629600
Si Si4 0.098502 0.276795 0.161048
Si Si5 0.814256 0.342629 0.915481
Si Si6 0.786270 0.167608 0.491258
Si Si7 0.498290 0.833799 0.237723
O O1 0.190161 0.884678 0.275991
O O2 0.536982 0.862718 0.412044
O O3 0.102599 0.904807 0.347376
O O4 0.387341 0.000000 0.368121
O O5 0.278288 0.110840 0.198579
O O6 0.836503 0.085297 0.132977
O O7 0.217897 0.000000 0.235634
O O8 0.590854 0.500000 0.635988
O O9 0.340271 0.386352 0.547501
O O10 0.763273 0.362021 0.679329
O O11 0.036043 0.316744 0.097394
O O12 0.381766 0.244596 0.226978
O O13 0.892552 0.215381 0.117195
O O14 0.066168 0.333628 0.196858
O O15 0.000000 0.359664 0.000000
O O16 0.750000 0.250000 0.500000
O O17 0.000000 0.163879 0.500000
#
# Coordination Sequence:
#
# PCOD8091738 Si02
#       7
#     8   8   8   8   8   8   8
#     4  10  22  42  63  84 114 151 193 234 280 344
#     4  10  21  37  58  83 111 149 192 233 280 337
#     4  11  23  39  61  86 115 152 190 233 285 339
#     4   9  20  35  55  85 114 148 188 231 284 340
#     4  10  19  34  57  83 114 147 184 233 286 343
#     4  12  26  41  60  86 117 152 191 239 288 332
#     4  10  20  36  58  83 115 148 188 236 280 335
#
# _framework density 20.177672000000001
#
# number of rings (size 3 to 8) (size 9 to 14) (size 15 to 20)
#    0.000    1.714    0.000    4.286    0.000    9.429 
#    0.000    0.714    0.000    0.857    0.000    0.000 
#    0.000    0.000    0.000    0.000    0.000    0.000 
#
# Total GULP energy -347014.436124 kJ/mol
# GULP energy per Si atom -12393.372719 kJ/mol
# Density = 2.013175 g / cm^3
# Si number density = 20.177672 Si / 1000 Ang^3
#
#
#
# Elastic Constant Matrix: (Units=GPa)
#
#
# Indices 1 2 3 4 5 6 
#
# 1 117.5612 44.6076 47.0774 0.0000 -14.7100 -0.0002
# 2 44.6076 74.3263 56.1774 0.0003 -8.9371 0.0001
# 3 47.0774 56.1774 144.6657 -0.0006 -4.8185 -0.0008
# 4 0.0000 0.0003 -0.0006 25.7712 0.0000 -4.9381
# 5 -14.7100 -8.9371 -4.8185 0.0000 30.8088 -0.0001
# 6 -0.0002 0.0001 -0.0008 -4.9381 -0.0001 24.6065
#
#
#
# Elastic Compliance Matrix: (Units=1/GPa)
#
#
# Indices 1 2 3 4 5 6 
#
# 1 0.011636 -0.005328 -0.001593 0.000000 0.003761 0.000000
# 2 -0.005328 0.022092 -0.006752 0.000000 0.002809 0.000000
# 3 -0.001593 -0.006752 0.010014 0.000000 -0.001153 0.000000
# 4 0.000000 0.000000 0.000000 0.040355 0.000000 0.008098
# 5 0.003761 0.002809 -0.001153 0.000000 0.034889 0.000000
# 6 0.000000 0.000000 0.000000 0.008098 0.000000 0.042265
#
#
# Mechanical properties :
#
#
# Convention : Reuss Voigt Hill
#
# Bulk Modulus (GPa) = 60.97936 70.25310 65.61623
# Shear Modulus (GPa) = 25.76508 28.81670 27.29089
#
# Velocity S-wave (km/s) = 3.57726 3.78318 3.68166
# Velocity P-wave (km/s) = 6.88108 7.34685 7.11777
#
# Compressibility (1/GPa) = 0.01639899
#
# Stress axis : x y z
#
# Youngs Moduli (GPa) = 85.93976 45.26423 99.85786
#
# Poissons Ratio (x) = 0.24115 0.15903
# Poissons Ratio (y) = 0.45785 0.67422
# Poissons Ratio (z) = 0.13686 0.30562
#
# Static dielectric constant tensor:
#      x y z
#    x 3.902270 0.000000 -0.036440 
#    y 0.000000 3.743160 0.000000 
#    z -0.036440 0.000000 3.694700 
# 
# 
# High freq. dielectric constant tensor:
#      x y z
#    x 1.805780 0.000000 -0.003970 
#    y 0.000000 1.781340 0.000000 
#    z -0.003970 0.000000 1.779640 
# 
# From -- ./inp_files/356747.got.cif
#   From: 2010.06.25/outbox.cif.g09.slc.cpg/sg12_179_cif.got.tgz:356747.got - 2010.06.28 00:19:55.
