data_PCOD8091715
_publ_section_title
;
Structure prediction by ZEFSAII (Michael W. Deem and Ramdas Pophale) SiO2 
 PCOD8091715
Probable space group: C 2/M
;
_chemical_formula_sum "Si O2"
_cell_formula_units_Z 40
_cell_length_a 22.867014
_cell_length_b 13.152106
_cell_length_c 8.920492
_cell_angle_alpha 90.000000
_cell_angle_beta 131.279724
_cell_angle_gamma 90.000000
_cell_volume 2016.142353
_symmetry_space_group_name_H-M "C 2/M"
_symmetry_group_IT_number 12
_symmetry_cell_setting 'monoclinic'
loop_
_space_group_symop_operation_xyz
x,y,z
-x,y,-z
-x,-y,-z
x,-y,z
1/2+x,1/2+y,z
1/2-x,1/2+y,-z
1/2-x,1/2-y,-z
1/2+x,1/2-y,z
loop_
_atom_site_type_symbol
_atom_site_label
_atom_site_fract_x
_atom_site_fract_y
_atom_site_fract_z
Si Si1 0.838730 0.725569 0.674387
Si Si2 0.846197 0.885087 0.916996
Si Si3 0.055042 0.383503 0.961301
Si Si4 0.339141 0.881620 0.377502
Si Si5 0.072589 0.254895 0.715894
O O1 0.750000 0.750000 0.500000
O O2 0.875036 0.828022 0.812410
O O3 0.856041 0.639474 0.831716
O O4 0.873814 0.682447 0.577940
O O5 0.753684 0.878396 0.776787
O O6 0.875573 0.000000 0.953640
O O7 0.882220 0.837265 0.128929
O O8 0.040723 0.500000 0.907444
O O9 0.033912 0.328565 0.772440
O O10 0.000000 0.339899 0.000000
O O11 0.368481 0.824502 0.279668
O O12 0.367382 0.000000 0.431311
O O13 0.000000 0.209898 0.500000
#
# Coordination Sequence:
#
# PCOD8091715 Si02
#       5
#     8   8   8   8   8
#     4   9  18  33  54  78 103 135 176 218 261 312
#     4   9  20  38  56  75 105 145 184 220 258 307
#     4  10  20  34  53  78 109 142 175 216 269 325
#     4  10  19  34  57  83 110 137 170 219 274 322
#     4  11  22  34  53  80 111 142 177 219 266 317
#
# _framework density 19.839869
#
# number of rings (size 3 to 8) (size 9 to 14) (size 15 to 20)
#    0.000    2.200    0.000    3.000    0.000    4.400 
#    0.000    1.000    0.000   21.600    0.000    0.000 
#    0.000    0.000    0.000    0.000    0.000    0.000 
#
# Total GULP energy -247766.748583 kJ/mol
# GULP energy per Si atom -12388.337429 kJ/mol
# Density = 1.979471 g / cm^3
# Si number density = 19.839869 Si / 1000 Ang^3
#
#
#
# Elastic Constant Matrix: (Units=GPa)
#
#
# Indices 1 2 3 4 5 6 
#
# 1 51.5307 49.4176 27.0545 0.0000 -20.1516 0.0000
# 2 49.4176 152.2701 62.4556 0.0000 -26.6669 0.0000
# 3 27.0545 62.4556 134.1461 0.0000 -17.4296 0.0000
# 4 0.0000 0.0000 0.0000 22.3890 0.0000 -9.8338
# 5 -20.1516 -26.6669 -17.4296 0.0000 30.1197 0.0000
# 6 0.0000 0.0000 0.0000 -9.8338 0.0000 24.7843
#
#
#
# Elastic Compliance Matrix: (Units=1/GPa)
#
#
# Indices 1 2 3 4 5 6 
#
# 1 0.033157 -0.007701 -0.001195 0.000000 0.014674 0.000000
# 2 -0.007701 0.010811 -0.003142 0.000000 0.002601 0.000000
# 3 -0.001195 -0.003142 0.009400 0.000000 0.001858 0.000000
# 4 0.000000 0.000000 0.000000 0.054091 0.000000 0.021462
# 5 0.014674 0.002601 0.001858 0.000000 0.046396 0.000000
# 6 0.000000 0.000000 0.000000 0.021462 0.000000 0.048864
#
#
# Mechanical properties :
#
#
# Convention : Reuss Voigt Hill
#
# Bulk Modulus (GPa) = 34.13984 68.42248 51.28116
# Shear Modulus (GPa) = 21.13642 28.72656 24.93149
#
# Velocity S-wave (km/s) = 3.26751 3.80928 3.54875
# Velocity P-wave (km/s) = 5.61075 7.34233 6.53415
#
# Compressibility (1/GPa) = 0.02929129
#
# Stress axis : x y z
#
# Youngs Moduli (GPa) = 30.15994 92.50045 106.38335
#
# Poissons Ratio (x) = 0.71230 0.12715
# Poissons Ratio (y) = 0.23225 0.33428
# Poissons Ratio (z) = 0.03605 0.29066
#
# Static dielectric constant tensor:
#      x y z
#    x 3.419190 0.000000 -0.133120 
#    y 0.000000 3.756230 0.000000 
#    z -0.133120 0.000000 3.934660 
# 
# 
# High freq. dielectric constant tensor:
#      x y z
#    x 1.753310 0.000000 -0.001460 
#    y 0.000000 1.765090 0.000000 
#    z -0.001460 0.000000 1.801280 
# 
# From -- ./inp_files/71317.got.cif
#   From: 2010.06.25/outbox.cif.g09.slc.cpg/sg12_36_cif.got.tgz:71317.got - 2010.06.28 00:19:55.
