data_PCOD8091911
_publ_section_title
;
Structure prediction by ZEFSAII (Michael W. Deem and Ramdas Pophale) SiO2 
 PCOD8091911
Probable space group: C 2/M
;
_chemical_formula_sum "Si O2"
_cell_formula_units_Z 40
_cell_length_a 24.729133
_cell_length_b 8.620911
_cell_length_c 24.505968
_cell_angle_alpha 90.000000
_cell_angle_beta 22.779769
_cell_angle_gamma 90.000000
_cell_volume 2022.824046
_symmetry_space_group_name_H-M "C 2/M"
_symmetry_group_IT_number 12
_symmetry_cell_setting 'monoclinic'
loop_
_space_group_symop_operation_xyz
x,y,z
-x,y,-z
-x,-y,-z
x,-y,z
1/2+x,1/2+y,z
1/2-x,1/2+y,-z
1/2-x,1/2-y,-z
1/2+x,1/2-y,z
loop_
_atom_site_type_symbol
_atom_site_label
_atom_site_fract_x
_atom_site_fract_y
_atom_site_fract_z
Si Si1 0.358607 0.684028 0.786226
Si Si2 0.440999 0.184304 0.895036
Si Si3 0.869745 0.184116 0.653254
Si Si4 0.083278 0.316722 0.871925
Si Si5 0.094509 0.182933 0.648089
O O1 0.353671 0.500000 0.787443
O O2 0.357158 0.753768 0.726151
O O3 0.499826 0.740326 0.685077
O O4 0.220316 0.738452 0.947959
O O5 0.526166 0.247467 0.868085
O O6 0.511811 0.266147 0.778344
O O7 0.453518 0.000000 0.876280
O O8 0.742499 0.231565 0.732703
O O9 0.000000 0.256222 0.500000
O O10 0.882145 0.000000 0.647061
O O11 0.060676 0.500000 0.892886
O O12 0.000000 0.242977 0.000000
O O13 0.250000 0.250000 0.500000
O O14 0.109058 0.000000 0.633859
#
# Coordination Sequence:
#
# PCOD8091911 Si02
#       5
#     8   8   8   8   8
#     4   9  18  33  52  79 111 141 178 222 268 318
#     4  10  19  34  58  84 110 140 177 222 270 322
#     4   9  16  25  43  75 112 140 167 214 268 313
#     4   9  15  26  47  79 111 136 168 214 266 316
#     4  11  24  39  55  78 108 143 183 225 270 319
#
# _framework density 19.774336000000002
#
# number of rings (size 3 to 8) (size 9 to 14) (size 15 to 20)
#    0.000    2.400    2.000    1.200    2.800    0.000 
#    0.000    1.000    0.000    0.600    0.000    1.400 
#    0.000    0.000    0.000    0.000    0.000    0.000 
#
# Total GULP energy -247887.408456 kJ/mol
# GULP energy per Si atom -12394.370423 kJ/mol
# Density = 1.972933 g / cm^3
# Si number density = 19.774336 Si / 1000 Ang^3
#
#
#
# Elastic Constant Matrix: (Units=GPa)
#
#
# Indices 1 2 3 4 5 6 
#
# 1 136.3612 22.4629 65.3844 -0.0006 -14.4993 0.0005
# 2 22.4629 23.3993 19.7762 -0.0141 -4.3689 0.0059
# 3 65.3844 19.7762 168.4548 -0.0110 -9.6080 0.0037
# 4 -0.0006 -0.0141 -0.0110 21.7580 0.0007 3.1517
# 5 -14.4993 -4.3689 -9.6080 0.0007 39.2315 -0.0001
# 6 0.0005 0.0059 0.0037 3.1517 -0.0001 18.0168
#
#
#
# Elastic Compliance Matrix: (Units=1/GPa)
#
#
# Indices 1 2 3 4 5 6 
#
# 1 0.010130 -0.006760 -0.003010 -0.000006 0.002254 0.000004
# 2 -0.006760 0.052574 -0.003404 0.000035 0.002523 -0.000023
# 3 -0.003010 -0.003404 0.007524 0.000002 0.000351 -0.000001
# 4 -0.000006 0.000035 0.000002 0.047155 0.000001 -0.008249
# 5 0.002254 0.002523 0.000351 0.000001 0.026690 -0.000001
# 6 0.000004 -0.000023 -0.000001 -0.008249 -0.000001 0.056947
#
#
# Mechanical properties :
#
#
# Convention : Reuss Voigt Hill
#
# Bulk Modulus (GPa) = 22.78936 60.38468 41.58702
# Shear Modulus (GPa) = 20.66165 30.50739 25.58452
#
# Velocity S-wave (km/s) = 3.23595 3.93208 3.60088
# Velocity P-wave (km/s) = 5.05090 7.15669 6.19394
#
# Compressibility (1/GPa) = 0.04388013
#
# Stress axis : x y z
#
# Youngs Moduli (GPa) = 98.71862 19.02078 132.90488
#
# Poissons Ratio (x) = 0.12858 0.40000
# Poissons Ratio (y) = 0.66734 0.45245
# Poissons Ratio (z) = 0.29711 0.06475
#
# Static dielectric constant tensor:
#      x y z
#    x 3.977080 -0.000010 -0.096200 
#    y -0.000010 2.950550 0.000010 
#    z -0.096200 0.000010 3.826550 
# 
# 
# High freq. dielectric constant tensor:
#      x y z
#    x 1.789740 0.000000 -0.004600 
#    y 0.000000 1.700190 0.000000 
#    z -0.004600 0.000000 1.787150 
# 
# From -- ./inp_files/83360.got.cif
#   From: 2010.06.25/outbox.cif.g09.slc.cpg/sg12_42_cif.got.tgz:83360.got - 2010.06.28 00:19:55.
