data_PCOD8091925
_publ_section_title
;
Structure prediction by ZEFSAII (Michael W. Deem and Ramdas Pophale) SiO2 
 PCOD8091925
Probable space group: C 2/M
;
_chemical_formula_sum "Si O2"
_cell_formula_units_Z 56
_cell_length_a 15.433486
_cell_length_b 17.978522
_cell_length_c 18.451366
_cell_angle_alpha 90.000000
_cell_angle_beta 147.951825
_cell_angle_gamma 90.000000
_cell_volume 2716.689985
_symmetry_space_group_name_H-M "C 2/M"
_symmetry_group_IT_number 12
_symmetry_cell_setting 'monoclinic'
loop_
_space_group_symop_operation_xyz
x,y,z
-x,y,-z
-x,-y,-z
x,-y,z
1/2+x,1/2+y,z
1/2-x,1/2+y,-z
1/2-x,1/2-y,-z
1/2+x,1/2-y,z
loop_
_atom_site_type_symbol
_atom_site_label
_atom_site_fract_x
_atom_site_fract_y
_atom_site_fract_z
Si Si1 0.949127 0.081891 0.289544
Si Si2 0.391284 0.583807 0.082506
Si Si3 0.662007 0.736972 0.759131
Si Si4 0.404058 0.713888 0.813481
Si Si5 0.604229 0.173205 0.508482
Si Si6 0.922306 0.675715 0.159731
Si Si7 0.819210 0.415652 0.574180
O O1 0.967866 0.086689 0.216581
O O2 0.831409 0.147072 0.234700
O O3 0.126732 0.093095 0.450940
O O4 0.879065 0.000000 0.261627
O O5 0.392821 0.500000 0.052490
O O6 0.505246 0.634797 0.112109
O O7 0.205920 0.612690 0.953350
O O8 0.825166 0.765067 0.834640
O O9 0.498795 0.760709 0.601263
O O10 0.657246 0.770527 0.836261
O O11 0.270621 0.709479 0.654978
O O12 0.536006 0.775250 0.881520
O O13 0.500000 0.137499 0.500000
O O14 0.636771 0.106785 0.476420
O O15 0.087560 0.636634 0.303405
O O16 0.876739 0.500000 0.626345
#
# Coordination Sequence:
#
# PCOD8091925 Si02
#       7
#     8   8   8   8   8   8   8
#     4  10  20  37  61  86 117 153 193 241 286 342
#     4  11  23  40  60  87 119 154 192 239 300 342
#     4  10  21  37  60  90 117 149 201 237 286 346
#     4  11  21  37  63  87 114 159 195 237 289 345
#     4   9  18  32  54  87 118 147 189 246 286 336
#     4  11  22  39  58  84 120 154 194 242 286 341
#     4  10  19  34  58  84 113 156 194 233 293 345
#
# _framework density 20.613320000000002
#
# number of rings (size 3 to 8) (size 9 to 14) (size 15 to 20)
#    0.000    1.714    2.857    1.714    0.000    3.143 
#    0.000    8.571    0.000    7.286    0.000    0.000 
#    0.000    0.000    0.000    0.000    0.000    0.000 
#
# Total GULP energy -347244.874541 kJ/mol
# GULP energy per Si atom -12401.602662 kJ/mol
# Density = 2.056640 g / cm^3
# Si number density = 20.613320 Si / 1000 Ang^3
#
#
#
# Elastic Constant Matrix: (Units=GPa)
#
#
# Indices 1 2 3 4 5 6 
#
# 1 61.2531 44.0167 0.6100 0.0037 24.1641 -0.0034
# 2 44.0167 168.5411 34.1025 -0.0036 23.5332 0.0006
# 3 0.6100 34.1025 69.9266 0.0073 14.6148 0.0067
# 4 0.0037 -0.0036 0.0073 31.7482 0.0072 6.7933
# 5 24.1641 23.5332 14.6148 0.0072 19.9845 0.0004
# 6 -0.0034 0.0006 0.0067 6.7933 0.0004 29.2562
#
#
#
# Elastic Compliance Matrix: (Units=1/GPa)
#
#
# Indices 1 2 3 4 5 6 
#
# 1 0.041574 -0.006244 0.013754 0.000003 -0.052974 0.000002
# 2 -0.006244 0.008290 -0.004162 0.000003 0.000831 -0.000001
# 3 0.013754 -0.004162 0.022029 0.000000 -0.027839 -0.000003
# 4 0.000003 0.000003 0.000000 0.033145 -0.000018 -0.007696
# 5 -0.052974 0.000831 -0.027839 -0.000018 0.133472 0.000003
# 6 0.000002 -0.000001 -0.000003 -0.007696 0.000003 0.035968
#
#
# Mechanical properties :
#
#
# Convention : Reuss Voigt Hill
#
# Bulk Modulus (GPa) = 12.72449 50.79769 31.76109
# Shear Modulus (GPa) = 17.00814 30.93055 23.96935
#
# Velocity S-wave (km/s) = 2.87558 3.87785 3.41370
# Velocity P-wave (km/s) = 4.14869 6.68931 5.56590
#
# Compressibility (1/GPa) = 0.07858860
#
# Stress axis : x y z
#
# Youngs Moduli (GPa) = 24.05375 120.62712 45.39472
#
# Poissons Ratio (x) = 0.75316 -0.62436
# Poissons Ratio (y) = 0.15019 0.18894
# Poissons Ratio (z) = -0.33084 0.50208
#
# Static dielectric constant tensor:
#      x y z
#    x 3.454340 -0.000010 -0.013180 
#    y -0.000010 3.823820 -0.000020 
#    z -0.013180 -0.000020 3.820380 
# 
# 
# High freq. dielectric constant tensor:
#      x y z
#    x 1.777140 0.000000 -0.002290 
#    y 0.000000 1.808640 0.000000 
#    z -0.002290 0.000000 1.818650 
# 
# From -- ./inp_files/311656.got.cif
#   From: 2010.06.25/outbox.cif.g09.slc.cpg/sg12_156_cif.got.tgz:311656.got - 2010.06.28 00:19:55.
