data_PCOD8091764
_publ_section_title
;
Structure prediction by ZEFSAII (Michael W. Deem and Ramdas Pophale) SiO2 
 PCOD8091764
Probable space group: C 2/M
;
_chemical_formula_sum "Si O2"
_cell_formula_units_Z 48
_cell_length_a 24.472602
_cell_length_b 9.652816
_cell_length_c 10.766935
_cell_angle_alpha 90.000000
_cell_angle_beta 78.420355
_cell_angle_gamma 90.000000
_cell_volume 2491.699770
_symmetry_space_group_name_H-M "C 2/M"
_symmetry_group_IT_number 12
_symmetry_cell_setting 'monoclinic'
loop_
_space_group_symop_operation_xyz
x,y,z
-x,y,-z
-x,-y,-z
x,-y,z
1/2+x,1/2+y,z
1/2-x,1/2+y,-z
1/2-x,1/2-y,-z
1/2+x,1/2-y,z
loop_
_atom_site_type_symbol
_atom_site_label
_atom_site_fract_x
_atom_site_fract_y
_atom_site_fract_z
Si Si1 0.498384 0.338342 0.639306
Si Si2 0.719304 0.836494 0.621165
Si Si3 0.891086 0.156957 0.837979
Si Si4 0.093281 0.651180 0.698119
Si Si5 0.438006 0.152417 0.014480
Si Si6 0.735435 0.339612 0.129907
O O1 0.500000 0.282508 0.500000
O O2 0.511200 0.500000 0.642489
O O3 0.437287 0.299191 0.716385
O O4 0.546983 0.263624 0.690624
O O5 0.750000 0.750000 0.500000
O O6 0.654411 0.803428 0.625852
O O7 0.734992 0.789269 0.755502
O O8 0.732796 0.000000 0.600060
O O9 0.830029 0.177030 0.809147
O O10 0.900993 0.000000 0.877088
O O11 0.897664 0.252703 0.953510
O O12 0.077956 0.500000 0.648006
O O13 0.095564 0.637790 0.844253
O O14 0.445040 0.000000 0.948902
O O15 0.500000 0.218658 0.000000
O O16 0.750626 0.500000 0.093823
O O17 0.750000 0.250000 0.000000
#
# Coordination Sequence:
#
# PCOD8091764 Si02
#       6
#     8   8   8   8   8   8
#     4  10  22  37  56  83 113 150 189 228 282 342
#     4  10  23  41  62  87 118 156 199 246 294 347
#     4  10  21  36  57  86 116 146 187 235 283 338
#     4  10  21  38  58  84 115 147 187 234 283 339
#     4  10  19  34  57  84 114 148 183 223 281 343
#     4  10  22  41  63  87 119 157 198 246 294 346
#
# _framework density 19.263957999999999
#
# number of rings (size 3 to 8) (size 9 to 14) (size 15 to 20)
#    0.000    2.000    1.667    1.000    2.333    4.667 
#    0.000    0.000    0.000    0.000    0.000    0.000 
#    0.000    0.000    0.000    0.000    0.000    0.000 
#
# Total GULP energy -297511.707120 kJ/mol
# GULP energy per Si atom -12396.321130 kJ/mol
# Density = 1.922011 g / cm^3
# Si number density = 19.263958 Si / 1000 Ang^3
#
#
#
# Elastic Constant Matrix: (Units=GPa)
#
#
# Indices 1 2 3 4 5 6 
#
# 1 95.7629 38.2689 34.8702 0.0000 -13.3886 0.0000
# 2 38.2689 62.0946 48.0005 0.0000 -0.4265 0.0000
# 3 34.8702 48.0005 109.7101 0.0000 -7.6999 0.0000
# 4 0.0000 0.0000 0.0000 32.7868 0.0000 -2.8489
# 5 -13.3886 -0.4265 -7.6999 0.0000 34.3510 0.0000
# 6 0.0000 0.0000 0.0000 -2.8489 0.0000 12.6290
#
#
#
# Elastic Compliance Matrix: (Units=1/GPa)
#
#
# Indices 1 2 3 4 5 6 
#
# 1 0.014908 -0.008749 -0.000519 0.000000 0.005586 0.000000
# 2 -0.008749 0.029621 -0.010559 0.000000 -0.005409 0.000000
# 3 -0.000519 -0.010559 0.014098 0.000000 0.002827 0.000000
# 4 0.000000 0.000000 0.000000 0.031110 0.000000 0.007018
# 5 0.005586 -0.005409 0.002827 0.000000 0.031855 0.000000
# 6 0.000000 0.000000 0.000000 0.007018 0.000000 0.080766
#
#
# Mechanical properties :
#
#
# Convention : Reuss Voigt Hill
#
# Bulk Modulus (GPa) = 52.70064 56.64962 54.67513
# Shear Modulus (GPa) = 20.13399 25.71524 22.92461
#
# Velocity S-wave (km/s) = 3.23641 3.65758 3.45342
# Velocity P-wave (km/s) = 6.43291 6.87808 6.65922
#
# Compressibility (1/GPa) = 0.01897510
#
# Stress axis : x y z
#
# Youngs Moduli (GPa) = 67.07595 33.75937 70.93237
#
# Poissons Ratio (x) = 0.29535 0.03679
# Poissons Ratio (y) = 0.58683 0.74897
# Poissons Ratio (z) = 0.03479 0.35646
#
# Static dielectric constant tensor:
#      x y z
#    x 3.575000 0.000000 -0.103060 
#    y 0.000000 3.535790 0.000000 
#    z -0.103060 0.000000 3.534540 
# 
# 
# High freq. dielectric constant tensor:
#      x y z
#    x 1.760260 0.000000 -0.012020 
#    y 0.000000 1.744230 0.000000 
#    z -0.012020 0.000000 1.745310 
# 
# From -- ./inp_files/172196.got.cif
#   From: 2010.06.25/outbox.cif.g09.slc.cpg/sg12_87_cif.got.tgz:172196.got - 2010.06.28 00:19:55.
