data_PCOD8091766
_publ_section_title
;
Structure prediction by ZEFSAII (Michael W. Deem and Ramdas Pophale) SiO2 
 PCOD8091766
Probable space group: C 2/M
;
_chemical_formula_sum "Si O2"
_cell_formula_units_Z 48
_cell_length_a 27.718287
_cell_length_b 9.202892
_cell_length_c 10.142145
_cell_angle_alpha 90.000000
_cell_angle_beta 89.760548
_cell_angle_gamma 90.000000
_cell_volume 2587.120964
_symmetry_space_group_name_H-M "C 2/M"
_symmetry_group_IT_number 12
_symmetry_cell_setting 'monoclinic'
loop_
_space_group_symop_operation_xyz
x,y,z
-x,y,-z
-x,-y,-z
x,-y,z
1/2+x,1/2+y,z
1/2-x,1/2+y,-z
1/2-x,1/2-y,-z
1/2+x,1/2-y,z
loop_
_atom_site_type_symbol
_atom_site_label
_atom_site_fract_x
_atom_site_fract_y
_atom_site_fract_z
Si Si1 0.054440 0.170415 0.511609
Si Si2 0.794914 0.333479 0.848296
Si Si3 0.199344 0.668606 0.847070
Si Si4 0.604632 0.168119 0.278883
Si Si5 0.392737 0.329328 0.221204
Si Si6 0.943238 0.335141 0.989763
O O1 0.089483 0.240398 0.404617
O O2 0.074382 0.211206 0.654705
O O3 0.000000 0.232096 0.500000
O O4 0.054799 0.000000 0.485628
O O5 0.778057 0.500000 0.834975
O O6 0.751319 0.230521 0.805072
O O7 0.839667 0.297697 0.753618
O O8 0.810807 0.302568 0.998467
O O9 0.198027 0.500000 0.810556
O O10 0.158706 0.750611 0.763236
O O11 0.597077 0.000000 0.312294
O O12 0.571624 0.214350 0.156004
O O13 0.383779 0.500000 0.209241
O O14 0.419954 0.274648 0.092044
O O15 0.924523 0.500000 0.017451
O O16 0.000000 0.325656 0.000000
#
# Coordination Sequence:
#
# PCOD8091766 Si02
#       6
#     8   8   8   8   8   8
#     4  10  23  41  57  78 113 153 192 234 277 329
#     4   9  18  34  55  83 117 144 179 230 281 334
#     4  10  19  34  57  84 115 146 183 229 281 336
#     4  10  20  36  57  84 113 145 185 231 280 333
#     4  11  22  36  56  82 113 149 189 231 280 333
#     4  10  20  35  56  83 113 142 182 236 285 333
#
# _framework density 18.553443000000001
#
# number of rings (size 3 to 8) (size 9 to 14) (size 15 to 20)
#    0.000    2.000    1.667    2.000    0.000    4.000 
#    0.000    0.833    0.000    0.000    0.000    0.000 
#    0.000    0.000    0.000    0.000    0.000    0.000 
#
# Total GULP energy -297707.773367 kJ/mol
# GULP energy per Si atom -12404.490557 kJ/mol
# Density = 1.851121 g / cm^3
# Si number density = 18.553443 Si / 1000 Ang^3
#
#
#
# Elastic Constant Matrix: (Units=GPa)
#
#
# Indices 1 2 3 4 5 6 
#
# 1 108.8071 54.6632 35.1052 0.0000 8.0436 0.0000
# 2 54.6632 75.7593 36.5921 0.0000 9.3610 0.0000
# 3 35.1052 36.5921 47.3825 0.0000 -2.7491 0.0000
# 4 0.0000 0.0000 0.0000 37.1773 0.0000 5.3233
# 5 8.0436 9.3610 -2.7491 0.0000 30.7700 0.0000
# 6 0.0000 0.0000 0.0000 5.3233 0.0000 49.7929
#
#
#
# Elastic Compliance Matrix: (Units=1/GPa)
#
#
# Indices 1 2 3 4 5 6 
#
# 1 0.015061 -0.008289 -0.004865 0.000000 -0.001850 0.000000
# 2 -0.008289 0.027714 -0.015707 0.000000 -0.007668 0.000000
# 3 -0.004865 -0.015707 0.037384 0.000000 0.009390 0.000000
# 4 0.000000 0.000000 0.000000 0.027316 0.000000 -0.002920
# 5 -0.001850 -0.007668 0.009390 0.000000 0.036154 0.000000
# 6 0.000000 0.000000 0.000000 -0.002920 0.000000 0.020395
#
#
# Mechanical properties :
#
#
# Convention : Reuss Voigt Hill
#
# Bulk Modulus (GPa) = 44.56618 53.85220 49.20919
# Shear Modulus (GPa) = 21.81262 30.58728 26.19995
#
# Velocity S-wave (km/s) = 3.43252 4.06471 3.76191
# Velocity P-wave (km/s) = 6.30731 7.14966 6.74165
#
# Compressibility (1/GPa) = 0.02243854
#
# Stress axis : x y z
#
# Youngs Moduli (GPa) = 66.39626 36.08249 26.74969
#
# Poissons Ratio (x) = 0.29908 0.13013
# Poissons Ratio (y) = 0.55035 0.42015
# Poissons Ratio (z) = 0.32300 0.56674
#
# Static dielectric constant tensor:
#      x y z
#    x 3.605500 0.000000 0.114350 
#    y 0.000000 3.402530 0.000000 
#    z 0.114350 0.000000 3.209850 
# 
# 
# High freq. dielectric constant tensor:
#      x y z
#    x 1.736440 0.000000 0.003850 
#    y 0.000000 1.720000 0.000000 
#    z 0.003850 0.000000 1.701700 
# 
# From -- ./inp_files/108680.got.cif
#   From: 2010.06.25/outbox.cif.g09.slc.cpg/sg12_55_cif.got.tgz:108680.got - 2010.06.28 00:19:55.
