data_PCOD8091762
_publ_section_title
;
Structure prediction by ZEFSAII (Michael W. Deem and Ramdas Pophale) SiO2 
 PCOD8091762
Probable space group: C 2/M
;
_chemical_formula_sum "Si O2"
_cell_formula_units_Z 64
_cell_length_a 20.628593
_cell_length_b 9.032423
_cell_length_c 24.359883
_cell_angle_alpha 90.000000
_cell_angle_beta 132.417446
_cell_angle_gamma 90.000000
_cell_volume 3350.830979
_symmetry_space_group_name_H-M "C 2/M"
_symmetry_group_IT_number 12
_symmetry_cell_setting 'monoclinic'
loop_
_space_group_symop_operation_xyz
x,y,z
-x,y,-z
-x,-y,-z
x,-y,z
1/2+x,1/2+y,z
1/2-x,1/2+y,-z
1/2-x,1/2-y,-z
1/2+x,1/2-y,z
loop_
_atom_site_type_symbol
_atom_site_label
_atom_site_fract_x
_atom_site_fract_y
_atom_site_fract_z
Si Si1 0.555436 0.828153 0.285759
Si Si2 0.588106 0.174493 0.579569
Si Si3 0.335224 0.334886 0.798243
Si Si4 0.182282 0.331946 0.998448
Si Si5 0.761520 0.673453 0.654765
Si Si6 0.752032 0.169202 0.160092
Si Si7 0.976383 0.165445 0.138714
Si Si8 0.580415 0.172522 0.702543
O O1 0.658882 0.778937 0.341594
O O2 0.495968 0.740473 0.208308
O O3 0.515442 0.799623 0.323829
O O4 0.550038 0.000000 0.266208
O O5 0.500000 0.230927 0.500000
O O6 0.669031 0.245115 0.591392
O O7 0.582116 0.224171 0.640036
O O8 0.598027 0.000000 0.580183
O O9 0.293886 0.500000 0.767330
O O10 0.289693 0.220455 0.731434
O O11 0.316886 0.271458 0.847501
O O12 0.438020 0.342636 0.849418
O O13 0.172391 0.500000 0.973735
O O14 0.219941 0.319034 0.080275
O O15 0.250000 0.250000 0.000000
O O16 0.088838 0.255682 0.937021
O O17 0.744096 0.500000 0.641846
O O18 0.849747 0.233243 0.223118
O O19 0.750465 0.000000 0.179916
O O20 0.940060 0.000000 0.129981
O O21 0.604855 0.000000 0.720854
#
# Coordination Sequence:
#
# PCOD8091762 Si02
#       8
#     8   8   8   8   8   8   8   8
#     4   9  19  35  57  83 111 149 190 231 280 332
#     4  10  21  37  58  84 114 149 188 228 275 334
#     4  10  20  35  56  81 108 143 184 225 275 335
#     4  11  24  39  54  75 107 146 186 231 284 335
#     4  10  19  34  57  84 114 145 184 231 278 331
#     4  11  23  36  54  81 110 141 183 235 282 324
#     4  10  21  36  55  80 110 144 186 232 278 331
#     4  10  20  36  58  82 110 146 188 229 274 334
#
# _framework density 19.099740000000001
#
# number of rings (size 3 to 8) (size 9 to 14) (size 15 to 20)
#    0.000    1.875    1.250    2.625    0.000    7.250 
#    0.000    3.125    0.000    0.000    0.000    0.000 
#    0.000    0.000    0.000    0.000    0.000    0.000 
#
# Total GULP energy -396696.959133 kJ/mol
# GULP energy per Si atom -12396.779973 kJ/mol
# Density = 1.905627 g / cm^3
# Si number density = 19.099740 Si / 1000 Ang^3
#
#
#
# Elastic Constant Matrix: (Units=GPa)
#
#
# Indices 1 2 3 4 5 6 
#
# 1 116.3570 40.9378 39.3525 0.0000 6.0419 0.0000
# 2 40.9378 71.6540 32.4503 0.0000 9.5547 0.0000
# 3 39.3525 32.4503 81.9393 0.0000 25.4532 0.0000
# 4 0.0000 0.0000 0.0000 25.0799 0.0000 4.5989
# 5 6.0419 9.5547 25.4532 0.0000 24.2648 0.0000
# 6 0.0000 0.0000 0.0000 4.5989 0.0000 30.2806
#
#
#
# Elastic Compliance Matrix: (Units=1/GPa)
#
#
# Indices 1 2 3 4 5 6 
#
# 1 0.011854 -0.005072 -0.005025 0.000000 0.004317 0.000000
# 2 -0.005072 0.019181 -0.004756 0.000000 -0.001301 0.000000
# 3 -0.005025 -0.004756 0.023038 0.000000 -0.021042 0.000000
# 4 0.000000 0.000000 0.000000 0.041015 0.000000 -0.006229
# 5 0.004317 -0.001301 -0.021042 0.000000 0.062721 0.000000
# 6 0.000000 0.000000 0.000000 -0.006229 0.000000 0.033971
#
#
# Mechanical properties :
#
#
# Convention : Reuss Voigt Hill
#
# Bulk Modulus (GPa) = 41.04226 55.04793 48.04509
# Shear Modulus (GPa) = 21.77606 26.40570 24.09088
#
# Velocity S-wave (km/s) = 3.38023 3.72225 3.55536
# Velocity P-wave (km/s) = 6.06380 6.88167 6.48564
#
# Compressibility (1/GPa) = 0.02436513
#
# Stress axis : x y z
#
# Youngs Moduli (GPa) = 84.35732 52.13382 43.40735
#
# Poissons Ratio (x) = 0.26445 0.21814
# Poissons Ratio (y) = 0.42790 0.20645
# Poissons Ratio (z) = 0.42393 0.24796
#
# Static dielectric constant tensor:
#      x y z
#    x 3.733600 0.000000 0.114480 
#    y 0.000000 3.706120 0.000000 
#    z 0.114480 0.000000 3.179330 
# 
# 
# High freq. dielectric constant tensor:
#      x y z
#    x 1.758210 0.000000 0.011140 
#    y 0.000000 1.750840 0.000000 
#    z 0.011140 0.000000 1.717790 
# 
# From -- ./inp_files/346213.got.cif
#   From: 2010.06.25/outbox.cif.g09.slc.cpg/sg12_174_cif.got.tgz:346213.got - 2010.06.28 00:19:55.
