data_PCOD8091242
_publ_section_title
;
Structure prediction by ZEFSAII (Michael W. Deem and Ramdas Pophale) SiO2 
 PCOD8091242
Probable space group: C 2/M
;
_chemical_formula_sum "Si O2"
_cell_formula_units_Z 56
_cell_length_a 29.982690
_cell_length_b 8.721436
_cell_length_c 12.498538
_cell_angle_alpha 90.000000
_cell_angle_beta 105.133289
_cell_angle_gamma 90.000000
_cell_volume 3154.929167
_symmetry_space_group_name_H-M "C 2/M"
_symmetry_group_IT_number 12
_symmetry_cell_setting 'monoclinic'
loop_
_space_group_symop_operation_xyz
x,y,z
-x,y,-z
-x,-y,-z
x,-y,z
1/2+x,1/2+y,z
1/2-x,1/2+y,-z
1/2-x,1/2-y,-z
1/2+x,1/2-y,z
loop_
_atom_site_type_symbol
_atom_site_label
_atom_site_fract_x
_atom_site_fract_y
_atom_site_fract_z
Si Si1 0.052969 0.680714 0.922208
Si Si2 0.362664 0.679286 0.702262
Si Si3 0.307414 0.177641 0.857468
Si Si4 0.796495 0.178552 0.262698
Si Si5 0.852038 0.679437 0.110361
Si Si6 0.297632 0.819924 0.489779
Si Si7 0.951048 0.318522 0.838939
O O1 0.055815 0.500000 0.935473
O O2 0.095520 0.738384 0.876740
O O3 0.003705 0.726428 0.839132
O O4 0.057605 0.743020 0.045990
O O5 0.358814 0.500000 0.679547
O O6 0.337927 0.721267 0.797559
O O7 0.339547 0.765381 0.589095
O O8 0.416161 0.730373 0.738959
O O9 0.254194 0.223283 0.810708
O O10 0.316614 0.000000 0.835486
O O11 0.321315 0.214998 0.987180
O O12 0.833449 0.221795 0.196338
O O13 0.808433 0.272971 0.375748
O O14 0.799949 0.000000 0.291617
O O15 0.850248 0.500000 0.138182
O O16 0.250000 0.750000 0.500000
O O17 0.292821 0.000000 0.495850
O O18 0.942688 0.500000 0.824066
#
# Coordination Sequence:
#
# PCOD8091242 Si02
#       7
#     8   8   8   8   8   8   8
#     4   8  15  29  55  82 107 144 187 225 270 325
#     4  12  23  34  54  83 114 146 180 224 279 329
#     4  10  20  35  55  77 110 151 188 224 266 320
#     4  11  23  37  54  80 112 150 188 224 271 326
#     4  10  19  34  55  81 112 150 189 225 268 324
#     4  12  24  40  60  81 106 142 185 231 274 320
#     4   9  16  32  55  80 109 144 184 228 273 323
#
# _framework density 17.750003
#
# number of rings (size 3 to 8) (size 9 to 14) (size 15 to 20)
#    0.000    1.714    2.857    4.286    0.000    1.143 
#    0.000    2.143    0.000    0.857    0.000    6.000 
#    0.000    0.000    0.000    0.000    0.000    0.000 
#
# Total GULP energy -347240.034790 kJ/mol
# GULP energy per Si atom -12401.429814 kJ/mol
# Density = 1.770960 g / cm^3
# Si number density = 17.750003 Si / 1000 Ang^3
#
#
#
# Elastic Constant Matrix: (Units=GPa)
#
#
# Indices 1 2 3 4 5 6 
#
# 1 114.7805 31.3495 58.4319 0.0000 15.5909 0.0000
# 2 31.3495 85.5627 41.9672 0.0000 5.2177 0.0000
# 3 58.4319 41.9672 107.5104 0.0000 9.4922 0.0000
# 4 0.0000 0.0000 0.0000 26.9060 0.0000 -1.3961
# 5 15.5909 5.2177 9.4922 0.0000 28.0293 0.0000
# 6 0.0000 0.0000 0.0000 -1.3961 0.0000 26.9249
#
#
#
# Elastic Compliance Matrix: (Units=1/GPa)
#
#
# Indices 1 2 3 4 5 6 
#
# 1 0.012804 -0.001475 -0.005956 0.000000 -0.004830 0.000000
# 2 -0.001475 0.014642 -0.004892 0.000000 -0.000249 0.000000
# 3 -0.005956 -0.004892 0.014509 0.000000 -0.000690 0.000000
# 4 0.000000 0.000000 0.000000 0.037267 0.000000 0.001932
# 5 -0.004830 -0.000249 -0.000690 0.000000 0.038643 0.000000
# 6 0.000000 0.000000 0.000000 0.001932 0.000000 0.037240
#
#
# Mechanical properties :
#
#
# Convention : Reuss Voigt Hill
#
# Bulk Modulus (GPa) = 57.77662 63.48341 60.63002
# Shear Modulus (GPa) = 26.95092 28.11239 27.53165
#
# Velocity S-wave (km/s) = 3.90084 3.98401 3.94265
# Velocity P-wave (km/s) = 7.27390 7.55024 7.41336
#
# Compressibility (1/GPa) = 0.01730804
#
# Stress axis : x y z
#
# Youngs Moduli (GPa) = 78.10355 68.29464 68.92112
#
# Poissons Ratio (x) = 0.10073 0.41053
# Poissons Ratio (y) = 0.11520 0.33717
# Poissons Ratio (z) = 0.46522 0.33411
#
# Static dielectric constant tensor:
#      x y z
#    x 3.650420 0.000000 0.190480 
#    y 0.000000 3.193830 0.000000 
#    z 0.190480 0.000000 3.280790 
# 
# 
# High freq. dielectric constant tensor:
#      x y z
#    x 1.689230 0.000000 0.013540 
#    y 0.000000 1.675500 0.000000 
#    z 0.013540 0.000000 1.673870 
# 
# From -- ./inp_files/186822.got.cif
#   From: 2010.06.25/outbox.cif.g09.slc.cpg/sg12_94_cif.got.tgz:186822.got - 2010.06.28 00:19:55.
