data_PCOD8091867
_publ_section_title
;
Structure prediction by ZEFSAII (Michael W. Deem and Ramdas Pophale) SiO2 
 PCOD8091867
Probable space group: C 2/M
;
_chemical_formula_sum "Si O2"
_cell_formula_units_Z 56
_cell_length_a 19.437589
_cell_length_b 9.090626
_cell_length_c 27.597136
_cell_angle_alpha 90.000000
_cell_angle_beta 38.257322
_cell_angle_gamma 90.000000
_cell_volume 3019.445192
_symmetry_space_group_name_H-M "C 2/M"
_symmetry_group_IT_number 12
_symmetry_cell_setting 'monoclinic'
loop_
_space_group_symop_operation_xyz
x,y,z
-x,y,-z
-x,-y,-z
x,-y,z
1/2+x,1/2+y,z
1/2-x,1/2+y,-z
1/2-x,1/2-y,-z
1/2+x,1/2-y,z
loop_
_atom_site_type_symbol
_atom_site_label
_atom_site_fract_x
_atom_site_fract_y
_atom_site_fract_z
Si Si1 0.406800 0.828144 0.699428
Si Si2 0.618327 0.336248 0.459560
Si Si3 0.271248 0.667708 0.697644
Si Si4 0.167933 0.825568 0.007170
Si Si5 0.707805 0.672118 0.874383
Si Si6 0.563809 0.173185 0.875319
Si Si7 0.858067 0.328952 0.457840
O O1 0.363212 0.761685 0.673855
O O2 0.329710 0.779727 0.787296
O O3 0.535825 0.781010 0.634122
O O4 0.399653 0.000000 0.696055
O O5 0.500000 0.329761 0.500000
O O6 0.637525 0.500000 0.471006
O O7 0.716510 0.302323 0.366402
O O8 0.621496 0.212162 0.498042
O O9 0.299931 0.500000 0.694134
O O10 0.148067 0.705806 0.784550
O O11 0.209150 0.789108 0.930148
O O12 0.164235 0.000000 0.018768
O O13 0.250000 0.750000 0.000000
O O14 0.046506 0.756762 0.080014
O O15 0.683528 0.500000 0.878937
O O16 0.612273 0.762446 0.898985
O O17 0.540835 0.000000 0.895065
O O18 0.836973 0.500000 0.465571
O O19 0.750000 0.250000 0.500000
#
# Coordination Sequence:
#
# PCOD8091867 Si02
#       7
#     8   8   8   8   8   8   8
#     4   9  18  34  56  80 106 139 181 226 270 320
#     4  10  19  34  58  82 109 144 183 225 270 321
#     4   9  18  33  55  84 111 141 178 222 272 320
#     4  11  23  39  58  80 112 147 182 223 272 326
#     4   9  19  37  60  83 106 140 182 224 271 323
#     4  10  20  35  58  86 114 142 179 223 268 324
#     4  11  23  37  54  78 111 148 186 228 274 325
#
# _framework density 18.546454000000001
#
# number of rings (size 3 to 8) (size 9 to 14) (size 15 to 20)
#    0.000    2.143    1.429    1.714    0.000    4.857 
#    2.571    0.000    0.000    0.000    0.000    0.000 
#    0.000    0.000    0.000    0.000    0.000    0.000 
#
# Total GULP energy -347123.251865 kJ/mol
# GULP energy per Si atom -12397.258995 kJ/mol
# Density = 1.850424 g / cm^3
# Si number density = 18.546454 Si / 1000 Ang^3
#
#
#
# Elastic Constant Matrix: (Units=GPa)
#
#
# Indices 1 2 3 4 5 6 
#
# 1 105.8520 52.5330 68.3623 -0.0001 -15.6736 -0.0002
# 2 52.5330 55.0161 57.2955 -0.0003 -14.8658 -0.0006
# 3 68.3623 57.2955 127.3505 0.0001 -13.7420 -0.0002
# 4 -0.0001 -0.0003 0.0001 27.6014 0.0001 -2.6063
# 5 -15.6736 -14.8658 -13.7420 0.0001 28.7720 -0.0004
# 6 -0.0002 -0.0006 -0.0002 -2.6063 -0.0004 35.7775
#
#
#
# Elastic Compliance Matrix: (Units=1/GPa)
#
#
# Indices 1 2 3 4 5 6 
#
# 1 0.018939 -0.013689 -0.003857 0.000000 0.001402 0.000000
# 2 -0.013689 0.047665 -0.012909 0.000000 0.011005 0.000001
# 3 -0.003857 -0.012909 0.015587 0.000000 -0.001326 0.000000
# 4 0.000000 0.000000 0.000000 0.036481 0.000000 0.002658
# 5 0.001402 0.011005 -0.001326 0.000000 0.040573 0.000001
# 6 0.000000 0.000001 0.000000 0.002658 0.000001 0.028144
#
#
# Mechanical properties :
#
#
# Convention : Reuss Voigt Hill
#
# Bulk Modulus (GPa) = 46.98705 71.62225 59.30465
# Shear Modulus (GPa) = 19.57772 25.76536 22.67154
#
# Velocity S-wave (km/s) = 3.25253 3.73129 3.50010
# Velocity P-wave (km/s) = 6.28451 7.56736 6.95557
#
# Compressibility (1/GPa) = 0.02128246
#
# Stress axis : x y z
#
# Youngs Moduli (GPa) = 52.80053 20.97974 64.15526
#
# Poissons Ratio (x) = 0.28720 0.24742
# Poissons Ratio (y) = 0.72280 0.82817
# Poissons Ratio (z) = 0.20363 0.27082
#
# Static dielectric constant tensor:
#      x y z
#    x 3.127200 0.000000 -0.082370 
#    y 0.000000 3.569520 0.000000 
#    z -0.082370 0.000000 3.935380 
# 
# 
# High freq. dielectric constant tensor:
#      x y z
#    x 1.694540 0.000000 -0.003250 
#    y 0.000000 1.724040 0.000000 
#    z -0.003250 0.000000 1.740530 
# 
# From -- ./inp_files/363018.got.cif
#   From: 2010.06.25/outbox.cif.g09.slc.cpg/sg12_182_cif.got.tgz:363018.got - 2010.06.28 00:19:55.
