data_PCOD8091368
_publ_section_title
;
Structure prediction by ZEFSAII (Michael W. Deem and Ramdas Pophale) SiO2 
 PCOD8091368
Probable space group: C 2/M
;
_chemical_formula_sum "Si O2"
_cell_formula_units_Z 56
_cell_length_a 24.702134
_cell_length_b 8.828772
_cell_length_c 21.841457
_cell_angle_alpha 90.000000
_cell_angle_beta 41.521457
_cell_angle_gamma 90.000000
_cell_volume 3157.655273
_symmetry_space_group_name_H-M "C 2/M"
_symmetry_group_IT_number 12
_symmetry_cell_setting 'monoclinic'
loop_
_space_group_symop_operation_xyz
x,y,z
-x,y,-z
-x,-y,-z
x,-y,z
1/2+x,1/2+y,z
1/2-x,1/2+y,-z
1/2-x,1/2-y,-z
1/2+x,1/2-y,z
loop_
_atom_site_type_symbol
_atom_site_label
_atom_site_fract_x
_atom_site_fract_y
_atom_site_fract_z
Si Si1 0.284781 0.821280 0.409091
Si Si2 0.873878 0.821040 0.905918
Si Si3 0.337675 0.323713 0.712359
Si Si4 0.979752 0.175254 0.403086
Si Si5 0.547861 0.677598 0.714831
Si Si6 0.750653 0.677519 0.091104
Si Si7 0.668068 0.177305 0.410199
O O1 0.250000 0.750000 0.500000
O O2 0.377704 0.770651 0.319589
O O3 0.232147 0.768652 0.396374
O O4 0.278953 0.000000 0.420152
O O5 0.820713 0.761750 0.893380
O O6 0.966790 0.766027 0.818617
O O7 0.871933 0.000000 0.909985
O O8 0.836614 0.755223 0.000441
O O9 0.332077 0.500000 0.698813
O O10 0.426983 0.284929 0.662295
O O11 0.272249 0.281439 0.820072
O O12 0.315887 0.219409 0.673608
O O13 0.960233 0.215480 0.349802
O O14 0.923939 0.276633 0.494276
O O15 0.961046 0.000000 0.432860
O O16 0.563141 0.500000 0.711721
O O17 0.760736 0.500000 0.074225
O O18 0.680912 0.000000 0.409508
#
# Coordination Sequence:
#
# PCOD8091368 Si02
#       7
#     8   8   8   8   8   8   8
#     4  12  24  39  58  80 106 141 183 228 273 319
#     4   9  17  31  52  81 112 143 177 217 268 320
#     4  10  20  36  56  79 110 151 188 220 268 327
#     4  10  19  34  56  79 109 149 184 218 268 324
#     4  10  19  34  57  82 111 145 181 221 267 322
#     4   9  17  31  52  79 110 144 181 218 262 319
#     4  12  25  38  53  78 110 146 186 228 273 321
#
# _framework density 17.734677999999999
#
# number of rings (size 3 to 8) (size 9 to 14) (size 15 to 20)
#    0.000    1.714    2.857    3.000    0.000    3.429 
#    0.000    0.000    0.000    0.857    0.000    6.000 
#    0.000    0.000    0.000    0.000    0.000    0.000 
#
# Total GULP energy -347284.298612 kJ/mol
# GULP energy per Si atom -12403.010665 kJ/mol
# Density = 1.769431 g / cm^3
# Si number density = 17.734678 Si / 1000 Ang^3
#
#
#
# Elastic Constant Matrix: (Units=GPa)
#
#
# Indices 1 2 3 4 5 6 
#
# 1 55.8762 24.2211 30.1151 0.0000 -0.8722 -0.0007
# 2 24.2211 72.1128 42.3867 0.0025 -1.8786 -0.0047
# 3 30.1151 42.3867 134.8609 -0.0004 -1.8705 -0.0003
# 4 0.0000 0.0025 -0.0004 32.1452 0.0005 0.0872
# 5 -0.8722 -1.8786 -1.8705 0.0005 22.6224 0.0000
# 6 -0.0007 -0.0047 -0.0003 0.0872 0.0000 26.7726
#
#
#
# Elastic Compliance Matrix: (Units=1/GPa)
#
#
# Indices 1 2 3 4 5 6 
#
# 1 0.022004 -0.005520 -0.003177 0.000000 0.000127 0.000000
# 2 -0.005520 0.018416 -0.004542 -0.000002 0.000941 0.000003
# 3 -0.003177 -0.004542 0.009556 0.000000 0.000290 -0.000001
# 4 0.000000 -0.000002 0.000000 0.031109 -0.000001 -0.000101
# 5 0.000127 0.000941 0.000290 -0.000001 0.044311 0.000000
# 6 0.000000 0.000003 -0.000001 -0.000101 0.000000 0.037352
#
#
# Mechanical properties :
#
#
# Convention : Reuss Voigt Hill
#
# Bulk Modulus (GPa) = 42.55832 50.69952 46.62892
# Shear Modulus (GPa) = 25.37322 27.38317 26.37820
#
# Velocity S-wave (km/s) = 3.78658 3.93370 3.86084
# Velocity P-wave (km/s) = 6.57015 7.02010 6.79885
#
# Compressibility (1/GPa) = 0.02349717
#
# Stress axis : x y z
#
# Youngs Moduli (GPa) = 45.44697 54.30175 104.64485
#
# Poissons Ratio (x) = 0.29974 0.33244
# Poissons Ratio (y) = 0.25086 0.47533
# Poissons Ratio (z) = 0.14438 0.24666
#
# Static dielectric constant tensor:
#      x y z
#    x 3.281490 0.000000 -0.049270 
#    y 0.000000 3.213420 0.000000 
#    z -0.049270 0.000000 3.467780 
# 
# 
# High freq. dielectric constant tensor:
#      x y z
#    x 1.666820 0.000000 -0.001250 
#    y 0.000000 1.680250 0.000000 
#    z -0.001250 0.000000 1.692260 
# 
# From -- ./inp_files/348466.got.cif
#   From: 2010.06.25/outbox.cif.g09.slc.cpg/sg12_175_cif.got.tgz:348466.got - 2010.06.28 00:19:55.
