data_PCOD8091767
_publ_section_title
;
Structure prediction by ZEFSAII (Michael W. Deem and Ramdas Pophale) SiO2 
 PCOD8091767
Probable space group: C 2/M
;
_chemical_formula_sum "Si O2"
_cell_formula_units_Z 64
_cell_length_a 26.996868
_cell_length_b 9.915700
_cell_length_c 14.258057
_cell_angle_alpha 90.000000
_cell_angle_beta 55.461475
_cell_angle_gamma 90.000000
_cell_volume 3144.053901
_symmetry_space_group_name_H-M "C 2/M"
_symmetry_group_IT_number 12
_symmetry_cell_setting 'monoclinic'
loop_
_space_group_symop_operation_xyz
x,y,z
-x,y,-z
-x,-y,-z
x,-y,z
1/2+x,1/2+y,z
1/2-x,1/2+y,-z
1/2-x,1/2-y,-z
1/2+x,1/2-y,z
loop_
_atom_site_type_symbol
_atom_site_label
_atom_site_fract_x
_atom_site_fract_y
_atom_site_fract_z
Si Si1 0.445228 0.837764 0.844971
Si Si2 0.152222 0.656215 0.896194
Si Si3 0.238844 0.847880 0.096883
Si Si4 0.951190 0.852630 0.278072
Si Si5 0.331536 0.726437 0.319520
Si Si6 0.609071 0.346336 0.469548
Si Si7 0.300892 0.145591 0.539766
Si Si8 0.599905 0.653222 0.273076
O O1 0.508751 0.769740 0.806579
O O2 0.425694 0.764961 0.769660
O O3 0.451055 0.000000 0.825357
O O4 0.398205 0.796358 0.975571
O O5 0.145191 0.500000 0.887637
O O6 0.217766 0.695890 0.864769
O O7 0.142405 0.721382 0.806290
O O8 0.171481 0.836608 0.203760
O O9 0.255289 0.000000 0.046870
O O10 0.250000 0.750000 0.000000
O O11 0.885427 0.862863 0.302787
O O12 0.943524 0.824745 0.397702
O O13 0.981700 0.000000 0.229664
O O14 0.315872 0.840818 0.412951
O O15 0.270824 0.643279 0.367583
O O16 0.632797 0.500000 0.444270
O O17 0.667543 0.257131 0.429934
O O18 0.578941 0.311915 0.401407
O O19 0.325519 0.000000 0.545107
O O20 0.580732 0.500000 0.263818
#
# Coordination Sequence:
#
# PCOD8091767 Si02
#       8
#     8   8   8   8   8   8   8   8
#     4  11  24  40  59  83 114 151 197 248 292 335
#     4  10  21  38  59  85 117 155 194 232 283 345
#     4  10  19  34  57  84 115 148 183 225 277 335
#     4  10  22  42  61  81 113 153 196 243 289 341
#     4  10  21  37  60  85 117 155 193 232 283 345
#     4   9  20  38  62  87 116 154 192 230 284 354
#     4  10  20  35  59  93 123 147 183 237 292 339
#     4  10  20  37  61  87 114 152 194 233 284 348
#
# _framework density 20.355886999999999
#
# number of rings (size 3 to 8) (size 9 to 14) (size 15 to 20)
#    0.000    2.000    1.250    1.875    0.000    8.500 
#    0.000    9.375    0.000    0.000    0.000    0.000 
#    0.000    0.000    0.000    0.000    0.000    0.000 
#
# Total GULP energy -396653.880099 kJ/mol
# GULP energy per Si atom -12395.433753 kJ/mol
# Density = 2.030956 g / cm^3
# Si number density = 20.355887 Si / 1000 Ang^3
#
#
#
# Elastic Constant Matrix: (Units=GPa)
#
#
# Indices 1 2 3 4 5 6 
#
# 1 66.9556 37.6987 29.9316 0.0000 -3.0143 0.0000
# 2 37.6987 105.9497 43.9867 0.0000 -0.6107 0.0000
# 3 29.9316 43.9867 89.1908 0.0000 16.0464 0.0000
# 4 0.0000 0.0000 0.0000 17.3794 0.0000 -0.9963
# 5 -3.0143 -0.6107 16.0464 0.0000 33.5644 0.0000
# 6 0.0000 0.0000 0.0000 -0.9963 0.0000 27.0449
#
#
#
# Elastic Compliance Matrix: (Units=1/GPa)
#
#
# Indices 1 2 3 4 5 6 
#
# 1 0.020232 -0.005090 -0.005021 0.000000 0.004125 0.000000
# 2 -0.005090 0.013493 -0.005370 0.000000 0.002355 0.000000
# 3 -0.005021 -0.005370 0.017116 0.000000 -0.008731 0.000000
# 4 0.000000 0.000000 0.000000 0.057661 0.000000 0.002124
# 5 0.004125 0.002355 -0.008731 0.000000 0.034381 0.000000
# 6 0.000000 0.000000 0.000000 0.002124 0.000000 0.037054
#
#
# Mechanical properties :
#
#
# Convention : Reuss Voigt Hill
#
# Bulk Modulus (GPa) = 50.30744 53.92555 52.11649
# Shear Modulus (GPa) = 22.98587 25.62969 24.30778
#
# Velocity S-wave (km/s) = 3.36400 3.55220 3.45938
# Velocity P-wave (km/s) = 6.31318 6.58582 6.45094
#
# Compressibility (1/GPa) = 0.01987778
#
# Stress axis : x y z
#
# Youngs Moduli (GPa) = 49.42728 74.11487 58.42451
#
# Poissons Ratio (x) = 0.37727 0.29336
# Poissons Ratio (y) = 0.25160 0.31372
# Poissons Ratio (z) = 0.24819 0.39797
#
# Static dielectric constant tensor:
#      x y z
#    x 3.603190 0.000000 0.017030 
#    y 0.000000 3.587340 0.000000 
#    z 0.017030 0.000000 3.891030 
# 
# 
# High freq. dielectric constant tensor:
#      x y z
#    x 1.796510 0.000000 -0.001870 
#    y 0.000000 1.786960 0.000000 
#    z -0.001870 0.000000 1.795750 
# 
# From -- ./inp_files/249127.got.cif
#   From: 2010.06.25/outbox.cif.g09.slc.cpg/sg12_125_cif.got.tgz:249127.got - 2010.06.28 00:19:55.
