data_PCOD8091093
_publ_section_title
;
Structure prediction by ZEFSAII (Michael W. Deem and Ramdas Pophale) SiO2 
 PCOD8091093
Probable space group: C 2/M
;
_chemical_formula_sum "Si O2"
_cell_formula_units_Z 56
_cell_length_a 21.261579
_cell_length_b 8.903861
_cell_length_c 27.537903
_cell_angle_alpha 90.000000
_cell_angle_beta 148.720486
_cell_angle_gamma 90.000000
_cell_volume 2706.766452
_symmetry_space_group_name_H-M "C 2/M"
_symmetry_group_IT_number 12
_symmetry_cell_setting 'monoclinic'
loop_
_space_group_symop_operation_xyz
x,y,z
-x,y,-z
-x,-y,-z
x,-y,z
1/2+x,1/2+y,z
1/2-x,1/2+y,-z
1/2-x,1/2-y,-z
1/2+x,1/2-y,z
loop_
_atom_site_type_symbol
_atom_site_label
_atom_site_fract_x
_atom_site_fract_y
_atom_site_fract_z
Si Si1 0.604702 0.174785 0.776691
Si Si2 0.718818 0.172929 0.755346
Si Si3 0.004429 0.823810 0.557544
Si Si4 0.632720 0.678939 0.899137
Si Si5 0.867084 0.831325 0.597555
Si Si6 0.890312 0.176462 0.788588
Si Si7 0.271869 0.833578 0.402135
O O1 0.716487 0.199269 0.812215
O O2 0.625944 0.270154 0.838835
O O3 0.487188 0.232248 0.669415
O O4 0.589893 0.000000 0.780572
O O5 0.616278 0.268890 0.662102
O O6 0.850627 0.215044 0.818259
O O7 0.689855 0.000000 0.724830
O O8 0.876410 0.769026 0.495995
O O9 0.000000 0.756624 0.500000
O O10 0.009389 0.000000 0.560028
O O11 0.641810 0.500000 0.906769
O O12 0.519917 0.742342 0.857211
O O13 0.750000 0.750000 0.000000
O O14 0.750000 0.750000 0.500000
O O15 0.845515 0.843231 0.640976
O O16 0.884704 0.000000 0.587181
O O17 0.780028 0.238084 0.682117
O O18 0.899296 0.000000 0.785623
O O19 0.326515 0.000000 0.429992
#
# Coordination Sequence:
#
# PCOD8091093 Si02
#       7
#     8   8   8   8   8   8   8
#     4  11  23  39  61  92 124 157 200 251 307 364
#     4  10  21  38  60  84 115 161 208 247 289 349
#     4  11  22  32  46  79 122 161 201 250 302 351
#     4  11  23  44  71  97 121 153 196 250 310 369
#     4  11  22  36  54  81 118 162 207 252 300 354
#     4   9  18  37  63  86 110 149 201 245 286 346
#     4  10  19  34  55  76 104 153 209 248 283 341
#
# _framework density 20.688894000000001
#
# number of rings (size 3 to 8) (size 9 to 14) (size 15 to 20)
#    0.000    1.571    2.857    2.571    0.000    6.286 
#    0.000    2.143    0.000    4.286    0.000    0.000 
#    0.000    0.000    0.000    0.000    0.000    0.000 
#
# Total GULP energy -347018.611217 kJ/mol
# GULP energy per Si atom -12393.521829 kJ/mol
# Density = 2.064181 g / cm^3
# Si number density = 20.688894 Si / 1000 Ang^3
#
#
#
# Elastic Constant Matrix: (Units=GPa)
#
#
# Indices 1 2 3 4 5 6 
#
# 1 139.5349 32.5336 45.0498 0.0000 16.1507 0.0000
# 2 32.5336 83.4794 32.1626 -0.0002 2.6362 -0.0002
# 3 45.0498 32.1626 99.5874 -0.0009 9.5687 -0.0001
# 4 0.0000 -0.0002 -0.0009 31.1460 -0.0002 -2.3855
# 5 16.1507 2.6362 9.5687 -0.0002 23.3660 0.0000
# 6 0.0000 -0.0002 -0.0001 -2.3855 0.0000 25.9481
#
#
#
# Elastic Compliance Matrix: (Units=1/GPa)
#
#
# Indices 1 2 3 4 5 6 
#
# 1 0.009226 -0.002301 -0.002959 0.000000 -0.004906 0.000000
# 2 -0.002301 0.014257 -0.003708 0.000000 0.001500 0.000000
# 3 -0.002959 -0.003708 0.012846 0.000000 -0.002797 0.000000
# 4 0.000000 0.000000 0.000000 0.032335 0.000000 0.002973
# 5 -0.004906 0.001500 -0.002797 0.000000 0.047164 0.000000
# 6 0.000000 0.000000 0.000000 0.002973 0.000000 0.038812
#
#
# Mechanical properties :
#
#
# Convention : Reuss Voigt Hill
#
# Bulk Modulus (GPa) = 54.36541 60.23263 57.29902
# Shear Modulus (GPa) = 27.97881 30.28239 29.13060
#
# Velocity S-wave (km/s) = 3.68143 3.82999 3.75644
# Velocity P-wave (km/s) = 6.66372 6.98105 6.82423
#
# Compressibility (1/GPa) = 0.01839405
#
# Stress axis : x y z
#
# Youngs Moduli (GPa) = 108.38540 70.14230 77.84346
#
# Poissons Ratio (x) = 0.16137 0.23036
# Poissons Ratio (y) = 0.24935 0.28862
# Poissons Ratio (z) = 0.32074 0.26007
#
# Static dielectric constant tensor:
#      x y z
#    x 4.444950 0.000000 0.165350 
#    y 0.000000 3.596730 0.000000 
#    z 0.165350 0.000000 3.462160 
# 
# 
# High freq. dielectric constant tensor:
#      x y z
#    x 1.837470 0.000000 0.008110 
#    y 0.000000 1.795490 0.000000 
#    z 0.008110 0.000000 1.773290 
# 
# From -- ./inp_files/380778.got.cif
#   From: 2010.06.25/outbox.cif.g09.slc.cpg/sg12_191_cif.got.tgz:380778.got - 2010.06.28 00:19:55.
