data_PCOD8091433
_publ_section_title
;
Structure prediction by ZEFSAII (Michael W. Deem and Ramdas Pophale) SiO2 
 PCOD8091433
Probable space group: C 2/M
;
_chemical_formula_sum "Si O2"
_cell_formula_units_Z 64
_cell_length_a 20.637237
_cell_length_b 9.035691
_cell_length_c 24.577648
_cell_angle_alpha 90.000000
_cell_angle_beta 47.816893
_cell_angle_gamma 90.000000
_cell_volume 3396.041446
_symmetry_space_group_name_H-M "C 2/M"
_symmetry_group_IT_number 12
_symmetry_cell_setting 'monoclinic'
loop_
_space_group_symop_operation_xyz
x,y,z
-x,y,-z
-x,-y,-z
x,-y,z
1/2+x,1/2+y,z
1/2-x,1/2+y,-z
1/2-x,1/2-y,-z
1/2+x,1/2-y,z
loop_
_atom_site_type_symbol
_atom_site_label
_atom_site_fract_x
_atom_site_fract_y
_atom_site_fract_z
Si Si1 0.245914 0.666907 0.844496
Si Si2 0.050380 0.677062 0.714435
Si Si3 0.270627 0.826199 0.337856
Si Si4 0.434421 0.326780 0.694543
Si Si5 0.836233 0.163792 0.199997
Si Si6 0.681442 0.169203 0.002319
Si Si7 0.582402 0.323753 0.420583
Si Si8 0.523611 0.666883 0.139316
O O1 0.229938 0.500000 0.832402
O O2 0.347199 0.709299 0.777899
O O3 0.183183 0.780925 0.849387
O O4 0.219558 0.683634 0.921113
O O5 0.043041 0.500000 0.719979
O O6 0.152759 0.730874 0.664242
O O7 0.015005 0.739184 0.677100
O O8 0.992219 0.744474 0.795853
O O9 0.291945 0.779963 0.264853
O O10 0.170670 0.768849 0.402990
O O11 0.271518 0.000000 0.340230
O O12 0.457626 0.500000 0.682496
O O13 0.421940 0.268763 0.639624
O O14 0.938958 0.159734 0.149909
O O15 0.796621 0.000000 0.231657
O O16 0.670003 0.000000 0.026450
O O17 0.750000 0.250000 0.000000
O O18 0.590144 0.250820 0.062152
O O19 0.500000 0.258326 0.500000
O O20 0.580712 0.500000 0.421351
O O21 0.555408 0.500000 0.136506
#
# Coordination Sequence:
#
# PCOD8091433 Si02
#       8
#     8   8   8   8   8   8   8   8
#     4  10  21  36  54  76 104 140 180 223 271 322
#     4  10  20  33  55  82 109 145 185 228 274 324
#     4   9  17  34  56  79 110 144 181 223 268 324
#     4  10  19  34  56  81 110 142 181 229 273 322
#     4  10  20  33  54  81 105 137 179 225 272 322
#     4  11  23  37  54  76 104 142 184 228 277 326
#     4   9  17  32  58  86 108 140 185 225 266 325
#     4  10  21  37  54  76 109 143 181 227 275 325
#
# _framework density 18.845469999999999
#
# number of rings (size 3 to 8) (size 9 to 14) (size 15 to 20)
#    0.000    2.125    1.250    2.250    0.000    5.000 
#    0.000    3.125    0.000    1.500    0.000    0.000 
#    0.000    0.000    0.000    0.000    0.000    0.000 
#
# Total GULP energy -396630.873865 kJ/mol
# GULP energy per Si atom -12394.714808 kJ/mol
# Density = 1.880258 g / cm^3
# Si number density = 18.845470 Si / 1000 Ang^3
#
#
#
# Elastic Constant Matrix: (Units=GPa)
#
#
# Indices 1 2 3 4 5 6 
#
# 1 114.9084 46.1058 46.5918 0.0000 -1.9263 0.0000
# 2 46.1058 37.7274 23.9125 0.0000 -4.4753 0.0000
# 3 46.5918 23.9125 97.3847 0.0000 -20.8431 0.0001
# 4 0.0000 0.0000 0.0000 13.9938 0.0000 0.6636
# 5 -1.9263 -4.4753 -20.8431 0.0000 22.5011 0.0001
# 6 0.0000 0.0000 0.0001 0.6636 0.0001 32.9421
#
#
#
# Elastic Compliance Matrix: (Units=1/GPa)
#
#
# Indices 1 2 3 4 5 6 
#
# 1 0.019267 -0.020808 -0.005789 0.000000 -0.007852 0.000000
# 2 -0.020808 0.053886 -0.001701 0.000000 0.007361 0.000000
# 3 -0.005789 -0.001701 0.016561 0.000000 0.014507 0.000000
# 4 0.000000 0.000000 0.000000 0.071529 0.000000 -0.001441
# 5 -0.007852 0.007361 0.014507 0.000000 0.058672 0.000000
# 6 0.000000 0.000000 0.000000 -0.001441 0.000000 0.030385
#
#
# Mechanical properties :
#
#
# Convention : Reuss Voigt Hill
#
# Bulk Modulus (GPa) = 30.19530 53.69343 41.94437
# Shear Modulus (GPa) = 15.72640 22.78141 19.25390
#
# Velocity S-wave (km/s) = 2.89189 3.48063 3.19983
# Velocity P-wave (km/s) = 5.21614 6.68628 5.99643
#
# Compressibility (1/GPa) = 0.03311774
#
# Stress axis : x y z
#
# Youngs Moduli (GPa) = 51.90110 18.55754 60.38370
#
# Poissons Ratio (x) = 0.38615 0.34957
# Poissons Ratio (y) = 1.07997 0.10271
# Poissons Ratio (z) = 0.30047 0.03157
#
# Static dielectric constant tensor:
#      x y z
#    x 3.690120 0.000000 -0.222950 
#    y 0.000000 3.438210 0.000000 
#    z -0.222950 0.000000 3.349390 
# 
# 
# High freq. dielectric constant tensor:
#      x y z
#    x 1.745170 0.000000 -0.009820 
#    y 0.000000 1.723310 0.000000 
#    z -0.009820 0.000000 1.711880 
# 
# From -- ./inp_files/346043.got.cif
#   From: 2010.06.25/outbox.cif.g09.slc.cpg/sg12_174_cif.got.tgz:346043.got - 2010.06.28 00:19:55.
