data_PCOD8091682
_publ_section_title
;
Structure prediction by ZEFSAII (Michael W. Deem and Ramdas Pophale) SiO2 
 PCOD8091682
Probable space group: C 2/M
;
_chemical_formula_sum "Si O2"
_cell_formula_units_Z 64
_cell_length_a 19.849862
_cell_length_b 9.199387
_cell_length_c 23.991266
_cell_angle_alpha 90.000000
_cell_angle_beta 127.779529
_cell_angle_gamma 90.000000
_cell_volume 3462.598704
_symmetry_space_group_name_H-M "C 2/M"
_symmetry_group_IT_number 12
_symmetry_cell_setting 'monoclinic'
loop_
_space_group_symop_operation_xyz
x,y,z
-x,y,-z
-x,-y,-z
x,-y,z
1/2+x,1/2+y,z
1/2-x,1/2+y,-z
1/2-x,1/2-y,-z
1/2+x,1/2-y,z
loop_
_atom_site_type_symbol
_atom_site_label
_atom_site_fract_x
_atom_site_fract_y
_atom_site_fract_z
Si Si1 0.644684 0.668764 0.798545
Si Si2 0.680205 0.167291 0.428928
Si Si3 0.248038 0.827625 0.058075
Si Si4 0.252155 0.667653 0.347319
Si Si5 0.197624 0.666587 0.200612
Si Si6 0.488172 0.169118 0.336856
Si Si7 0.405470 0.330092 0.939249
Si Si8 0.578011 0.168358 0.575298
O O1 0.633382 0.500000 0.809211
O O2 0.675107 0.759715 0.867372
O O3 0.711605 0.689263 0.782687
O O4 0.554692 0.734714 0.733191
O O5 0.750000 0.250000 0.500000
O O6 0.690715 0.193307 0.368351
O O7 0.585240 0.221345 0.395498
O O8 0.691367 0.000000 0.450504
O O9 0.157812 0.791540 0.041903
O O10 0.261839 0.000000 0.058662
O O11 0.250000 0.750000 0.000000
O O12 0.276283 0.500000 0.350705
O O13 0.205225 0.724940 0.267763
O O14 0.338433 0.751912 0.403278
O O15 0.168682 0.500000 0.184077
O O16 0.124669 0.757261 0.133181
O O17 0.436770 0.196524 0.367260
O O18 0.485753 0.000000 0.317864
O O19 0.406874 0.500000 0.928490
O O20 0.500000 0.270978 0.000000
O O21 0.500000 0.231979 0.500000
O O22 0.590274 0.000000 0.567677
#
# Coordination Sequence:
#
# PCOD8091682 Si02
#       8
#     8   8   8   8   8   8   8   8
#     4  10  19  34  57  82 110 142 181 226 270 320
#     4  10  22  39  57  76 108 146 181 223 275 331
#     4  10  20  36  58  83 114 147 181 221 267 319
#     4  10  20  36  55  78 107 139 177 224 271 317
#     4   9  18  33  54  80 109 139 177 221 266 316
#     4  10  20  35  54  78 109 143 180 222 272 325
#     4   9  19  36  57  81 111 144 178 218 264 313
#     4  10  20  33  53  80 107 137 177 223 266 318
#
# _framework density 18.483226999999999
#
# number of rings (size 3 to 8) (size 9 to 14) (size 15 to 20)
#    0.000    2.250    1.250    1.500    0.000    4.000 
#    2.250    0.000    0.000    0.000    0.000    0.000 
#    0.000    0.000    0.000    0.000    0.000    0.000 
#
# Total GULP energy -396877.295425 kJ/mol
# GULP energy per Si atom -12402.415482 kJ/mol
# Density = 1.844116 g / cm^3
# Si number density = 18.483227 Si / 1000 Ang^3
#
#
#
# Elastic Constant Matrix: (Units=GPa)
#
#
# Indices 1 2 3 4 5 6 
#
# 1 45.4411 25.8309 25.3473 0.0000 9.1633 0.0000
# 2 25.8309 67.1326 52.5650 0.0000 4.2355 0.0000
# 3 25.3473 52.5650 129.0082 0.0000 7.3910 0.0000
# 4 0.0000 0.0000 0.0000 38.7320 0.0000 1.7509
# 5 9.1633 4.2355 7.3910 0.0000 35.2986 0.0000
# 6 0.0000 0.0000 0.0000 1.7509 0.0000 23.0298
#
#
#
# Elastic Compliance Matrix: (Units=1/GPa)
#
#
# Indices 1 2 3 4 5 6 
#
# 1 0.029695 -0.009904 -0.001443 0.000000 -0.006218 0.000000
# 2 -0.009904 0.025198 -0.008396 0.000000 0.001305 0.000000
# 3 -0.001443 -0.008396 0.011515 0.000000 -0.001029 0.000000
# 4 0.000000 0.000000 0.000000 0.025907 0.000000 -0.001970
# 5 -0.006218 0.001305 -0.001029 0.000000 0.030003 0.000000
# 6 0.000000 0.000000 0.000000 -0.001970 0.000000 0.043572
#
#
# Mechanical properties :
#
#
# Convention : Reuss Voigt Hill
#
# Bulk Modulus (GPa) = 37.14316 49.89648 43.51982
# Shear Modulus (GPa) = 23.32630 28.60133 25.96382
#
# Velocity S-wave (km/s) = 3.55635 3.93799 3.75203
# Velocity P-wave (km/s) = 6.08299 6.90878 6.50899
#
# Compressibility (1/GPa) = 0.02692286
#
# Stress axis : x y z
#
# Youngs Moduli (GPa) = 33.67561 39.68494 86.84381
#
# Poissons Ratio (x) = 0.39303 0.12530
# Poissons Ratio (y) = 0.33352 0.72915
# Poissons Ratio (z) = 0.04859 0.33320
#
# Static dielectric constant tensor:
#      x y z
#    x 3.357550 0.000000 -0.013910 
#    y 0.000000 3.361020 0.000000 
#    z -0.013910 0.000000 3.513130 
# 
# 
# High freq. dielectric constant tensor:
#      x y z
#    x 1.705310 0.000000 -0.001830 
#    y 0.000000 1.713440 0.000000 
#    z -0.001830 0.000000 1.727130 
# 
# From -- ./inp_files/346141.got.cif
#   From: 2010.06.25/outbox.cif.g09.slc.cpg/sg12_174_cif.got.tgz:346141.got - 2010.06.28 00:19:55.
