data_PCOD8091725
_publ_section_title
;
Structure prediction by ZEFSAII (Michael W. Deem and Ramdas Pophale) SiO2 
 PCOD8091725
Probable space group: C 2/M
;
_chemical_formula_sum "Si O2"
_cell_formula_units_Z 64
_cell_length_a 20.340884
_cell_length_b 9.080599
_cell_length_c 22.018542
_cell_angle_alpha 90.000000
_cell_angle_beta 123.600295
_cell_angle_gamma 90.000000
_cell_volume 3387.469007
_symmetry_space_group_name_H-M "C 2/M"
_symmetry_group_IT_number 12
_symmetry_cell_setting 'monoclinic'
loop_
_space_group_symop_operation_xyz
x,y,z
-x,y,-z
-x,-y,-z
x,-y,z
1/2+x,1/2+y,z
1/2-x,1/2+y,-z
1/2-x,1/2-y,-z
1/2+x,1/2-y,z
loop_
_atom_site_type_symbol
_atom_site_label
_atom_site_fract_x
_atom_site_fract_y
_atom_site_fract_z
Si Si1 0.994621 0.325333 0.316088
Si Si2 0.867018 0.325679 0.700715
Si Si3 0.274690 0.327659 0.451430
Si Si4 0.630196 0.328352 0.824929
Si Si5 0.915227 0.327107 0.856461
Si Si6 0.187523 0.328692 0.080243
Si Si7 0.076944 0.173173 0.931894
Si Si8 0.545315 0.670973 0.462222
O O1 0.991319 0.500000 0.315431
O O2 0.912201 0.263566 0.249305
O O3 0.065020 0.265404 0.309211
O O4 0.008135 0.268109 0.390496
O O5 0.870700 0.500000 0.704881
O O6 0.782053 0.272475 0.632223
O O7 0.880470 0.263803 0.775363
O O8 0.263038 0.500000 0.456105
O O9 0.250000 0.250000 0.500000
O O10 0.363729 0.286795 0.479877
O O11 0.619123 0.500000 0.805347
O O12 0.721450 0.283651 0.869860
O O13 0.592324 0.284856 0.869974
O O14 0.933064 0.500000 0.861589
O O15 0.851992 0.290031 0.875698
O O16 0.996720 0.247212 0.914215
O O17 0.176999 0.500000 0.058616
O O18 0.149555 0.233125 0.007811
O O19 0.070861 0.000000 0.938384
O O20 0.500000 0.711537 0.500000
O O21 0.535873 0.500000 0.440050
#
# Coordination Sequence:
#
# PCOD8091725 Si02
#       8
#     8   8   8   8   8   8   8   8
#     4  11  21  36  60  85 113 148 187 234 281 332
#     4   9  18  33  55  82 108 140 184 230 275 323
#     4  10  19  34  57  83 111 144 185 229 274 325
#     4  10  22  39  58  84 114 148 190 231 280 339
#     4  10  20  37  59  82 109 146 191 233 277 334
#     4  10  22  38  58  82 111 148 190 236 280 333
#     4  11  22  36  57  83 115 150 185 232 284 336
#     4  10  22  38  58  86 119 153 186 227 281 337
#
# _framework density 18.893160999999999
#
# number of rings (size 3 to 8) (size 9 to 14) (size 15 to 20)
#    0.000    1.875    2.500    1.500    0.000    4.250 
#    0.000    4.375    0.000    0.000    0.000    0.000 
#    0.000    0.000    0.000    0.000    0.000    0.000 
#
# Total GULP energy -396931.418854 kJ/mol
# GULP energy per Si atom -12404.106839 kJ/mol
# Density = 1.885016 g / cm^3
# Si number density = 18.893161 Si / 1000 Ang^3
#
#
#
# Elastic Constant Matrix: (Units=GPa)
#
#
# Indices 1 2 3 4 5 6 
#
# 1 109.6827 40.6760 44.8435 0.0000 15.1325 0.0000
# 2 40.6760 54.9478 49.7807 0.0000 5.8774 0.0000
# 3 44.8435 49.7807 133.4065 0.0000 18.9778 0.0000
# 4 0.0000 0.0000 0.0000 33.1645 0.0000 -0.9052
# 5 15.1325 5.8774 18.9778 0.0000 29.5955 0.0000
# 6 0.0000 0.0000 0.0000 -0.9052 0.0000 22.0328
#
#
#
# Elastic Compliance Matrix: (Units=1/GPa)
#
#
# Indices 1 2 3 4 5 6 
#
# 1 0.013253 -0.008880 -0.000471 0.000000 -0.004711 0.000000
# 2 -0.008880 0.033484 -0.010134 0.000000 0.004389 0.000000
# 3 -0.000471 -0.010134 0.012231 0.000000 -0.005589 0.000000
# 4 0.000000 0.000000 0.000000 0.030187 0.000000 0.001240
# 5 -0.004711 0.004389 -0.005589 0.000000 0.038910 0.000000
# 6 0.000000 0.000000 0.000000 0.001240 0.000000 0.045438
#
#
# Mechanical properties :
#
#
# Convention : Reuss Voigt Hill
#
# Bulk Modulus (GPa) = 50.00582 63.18191 56.59387
# Shear Modulus (GPa) = 22.81658 27.80770 25.31214
#
# Velocity S-wave (km/s) = 3.47891 3.84062 3.66423
# Velocity P-wave (km/s) = 6.53164 7.29256 6.92256
#
# Compressibility (1/GPa) = 0.01999767
#
# Stress axis : x y z
#
# Youngs Moduli (GPa) = 75.45515 29.86474 81.75975
#
# Poissons Ratio (x) = 0.26520 0.03852
# Poissons Ratio (y) = 0.67004 0.82856
# Poissons Ratio (z) = 0.03555 0.30265
#
# Static dielectric constant tensor:
#      x y z
#    x 3.498350 0.000000 0.070190 
#    y 0.000000 3.273240 0.000000 
#    z 0.070190 0.000000 3.751930 
# 
# 
# High freq. dielectric constant tensor:
#      x y z
#    x 1.739050 0.000000 0.005470 
#    y 0.000000 1.716970 0.000000 
#    z 0.005470 0.000000 1.747330 
# 
# From -- ./inp_files/320073.got.cif
#   From: 2010.06.25/outbox.cif.g09.slc.cpg/sg12_161_cif.got.tgz:320073.got - 2010.06.28 00:19:55.
