data_PCOD8091815
_publ_section_title
;
Structure prediction by ZEFSAII (Michael W. Deem and Ramdas Pophale) SiO2 
 PCOD8091815
Probable space group: C 2/M
;
_chemical_formula_sum "Si O2"
_cell_formula_units_Z 40
_cell_length_a 23.102364
_cell_length_b 20.402259
_cell_length_c 8.953441
_cell_angle_alpha 90.000000
_cell_angle_beta 30.425396
_cell_angle_gamma 90.000000
_cell_volume 2137.135651
_symmetry_space_group_name_H-M "C 2/M"
_symmetry_group_IT_number 12
_symmetry_cell_setting 'monoclinic'
loop_
_space_group_symop_operation_xyz
x,y,z
-x,y,-z
-x,-y,-z
x,-y,z
1/2+x,1/2+y,z
1/2-x,1/2+y,-z
1/2-x,1/2-y,-z
1/2+x,1/2-y,z
loop_
_atom_site_type_symbol
_atom_site_label
_atom_site_fract_x
_atom_site_fract_y
_atom_site_fract_z
Si Si1 0.472022 0.785684 0.389193
Si Si2 0.185919 0.317348 0.760602
Si Si3 0.261541 0.174934 0.680651
Si Si4 0.934238 0.156135 0.296647
Si Si5 0.933090 0.075155 0.798403
O O1 0.500000 0.782933 0.500000
O O2 0.347686 0.814959 0.627048
O O3 0.470314 0.711630 0.333616
O O4 0.566809 0.834632 0.106103
O O5 0.193981 0.239399 0.775634
O O6 0.170781 0.341822 0.623160
O O7 0.298438 0.351548 0.578079
O O8 0.178326 0.118971 0.925313
O O9 0.979275 0.086957 0.259622
O O10 0.000000 0.175313 0.000000
O O11 0.000000 0.095212 0.500000
O O12 0.893701 0.000000 0.882700
#
# Coordination Sequence:
#
# PCOD8091815 Si02
#       5
#     8   8   8   8   8
#     4  11  22  32  56  91 118 150 186 240 305 349
#     4  10  19  34  57  86 116 154 183 239 297 352
#     4  10  20  37  57  80 121 154 192 234 290 350
#     4  11  20  36  58  85 120 150 193 238 294 352
#     4  11  24  40  60  86 119 157 197 239 283 339
#
# _framework density 18.716640000000002
#
# number of rings (size 3 to 8) (size 9 to 14) (size 15 to 20)
#    0.000    1.400    4.000    3.600    2.800    2.000 
#    0.000    0.000    0.000    4.200    0.000    0.000 
#    0.000    0.000    0.000    0.000    0.000    0.000 
#
# Total GULP energy -247807.545345 kJ/mol
# GULP energy per Si atom -12390.377267 kJ/mol
# Density = 1.867404 g / cm^3
# Si number density = 18.716640 Si / 1000 Ang^3
#
#
#
# Elastic Constant Matrix: (Units=GPa)
#
#
# Indices 1 2 3 4 5 6 
#
# 1 138.7274 39.3062 38.2656 0.0000 12.8034 0.0000
# 2 39.3062 68.5696 50.7241 0.0000 4.1713 0.0000
# 3 38.2656 50.7241 92.6784 0.0000 13.8898 0.0000
# 4 0.0000 0.0000 0.0000 24.4928 0.0000 -0.5577
# 5 12.8034 4.1713 13.8898 0.0000 34.3778 0.0000
# 6 0.0000 0.0000 0.0000 -0.5577 0.0000 17.4221
#
#
#
# Elastic Compliance Matrix: (Units=1/GPa)
#
#
# Indices 1 2 3 4 5 6 
#
# 1 0.008901 -0.004207 -0.001014 0.000000 -0.002395 0.000000
# 2 -0.004207 0.026714 -0.013447 0.000000 0.003758 0.000000
# 3 -0.001014 -0.013447 0.019445 0.000000 -0.005847 0.000000
# 4 0.000000 0.000000 0.000000 0.040858 0.000000 0.001308
# 5 -0.002395 0.003758 -0.005847 0.000000 0.031887 0.000000
# 6 0.000000 0.000000 0.000000 0.001308 0.000000 0.057440
#
#
# Mechanical properties :
#
#
# Convention : Reuss Voigt Hill
#
# Bulk Modulus (GPa) = 56.42000 61.84081 59.13041
# Shear Modulus (GPa) = 21.88291 26.70385 24.29338
#
# Velocity S-wave (km/s) = 3.42302 3.78132 3.60662
# Velocity P-wave (km/s) = 6.76997 7.22335 7.00033
#
# Compressibility (1/GPa) = 0.01772421
#
# Stress axis : x y z
#
# Youngs Moduli (GPa) = 112.34766 37.43339 51.42758
#
# Poissons Ratio (x) = 0.15747 0.05214
# Poissons Ratio (y) = 0.47261 0.69157
# Poissons Ratio (z) = 0.11390 0.50338
#
# Static dielectric constant tensor:
#      x y z
#    x 3.567690 0.000000 -0.002170 
#    y 0.000000 2.983560 0.000000 
#    z -0.002170 0.000000 3.687580 
# 
# 
# High freq. dielectric constant tensor:
#      x y z
#    x 1.743370 0.000000 -0.001530 
#    y 0.000000 1.665650 0.000000 
#    z -0.001530 0.000000 1.741730 
# 
# From -- ./inp_files/47164.got.cif
#   From: 2010.06.25/outbox.cif.g09.slc.cpg/sg12_24_cif.got.tgz:47164.got - 2010.06.28 00:19:55.
