data_PCOD8091036
_publ_section_title
;
Structure prediction by ZEFSAII (Michael W. Deem and Ramdas Pophale) SiO2 
 PCOD8091036
Probable space group: C 2/M
;
_chemical_formula_sum "Si O2"
_cell_formula_units_Z 48
_cell_length_a 14.528297
_cell_length_b 23.426940
_cell_length_c 20.975982
_cell_angle_alpha 90.000000
_cell_angle_beta 160.868448
_cell_angle_gamma 90.000000
_cell_volume 2339.805011
_symmetry_space_group_name_H-M "C 2/M"
_symmetry_group_IT_number 12
_symmetry_cell_setting 'monoclinic'
loop_
_space_group_symop_operation_xyz
x,y,z
-x,y,-z
-x,-y,-z
x,-y,z
1/2+x,1/2+y,z
1/2-x,1/2+y,-z
1/2-x,1/2-y,-z
1/2+x,1/2-y,z
loop_
_atom_site_type_symbol
_atom_site_label
_atom_site_fract_x
_atom_site_fract_y
_atom_site_fract_z
Si Si1 0.181611 0.251669 0.528829
Si Si2 0.654286 0.437457 0.933248
Si Si3 0.102490 0.324333 0.877621
Si Si4 0.694630 0.122883 0.566921
Si Si5 0.969432 0.748940 0.904783
Si Si6 0.773736 0.063388 0.804367
O O1 0.250000 0.250000 0.500000
O O2 0.328562 0.198992 0.661446
O O3 0.295828 0.311783 0.629085
O O4 0.852147 0.249842 0.326495
O O5 0.788358 0.500000 0.006307
O O6 0.482915 0.413654 0.759730
O O7 0.416489 0.443876 0.830105
O O8 0.897876 0.393194 0.115263
O O9 0.121421 0.299594 0.962001
O O10 0.381196 0.308144 0.018504
O O11 0.500000 0.113412 0.500000
O O12 0.507776 0.102528 0.383635
O O13 0.000000 0.736647 0.000000
O O14 0.688313 0.000000 0.774096
O O15 0.000000 0.092376 0.000000
#
# Coordination Sequence:
#
# PCOD8091036 Si02
#       6
#     8   8   8   8   8   8
#     4  12  24  37  59  94 125 162 200 250 316 371
#     4  10  21  36  57  82 113 159 206 248 301 357
#     4  11  23  40  63  90 127 162 203 254 309 368
#     4  10  19  34  54  80 118 156 198 245 307 373
#     4  11  22  40  63  94 126 163 201 249 312 374
#     4   9  18  31  52  83 118 157 198 244 300 363
#
# _framework density 20.514529
#
# number of rings (size 3 to 8) (size 9 to 14) (size 15 to 20)
#    0.000    1.500    1.667    6.000    2.333    3.333 
#    0.000    0.000    0.000    2.500    0.000    0.000 
#    0.000    0.000    0.000    0.000    0.000    0.000 
#
# Total GULP energy -297432.365945 kJ/mol
# GULP energy per Si atom -12393.015248 kJ/mol
# Density = 2.046784 g / cm^3
# Si number density = 20.514529 Si / 1000 Ang^3
#
#
#
# Elastic Constant Matrix: (Units=GPa)
#
#
# Indices 1 2 3 4 5 6 
#
# 1 77.9948 19.0604 24.8085 -0.0790 -7.6951 -0.0130
# 2 19.0604 156.8104 65.8985 -0.0618 -10.4094 -0.0406
# 3 24.8085 65.8985 147.8279 0.0908 -14.4688 -0.1266
# 4 -0.0790 -0.0618 0.0908 27.0815 -0.0651 -3.0311
# 5 -7.6951 -10.4094 -14.4688 -0.0651 32.5997 -0.0711
# 6 -0.0130 -0.0406 -0.1266 -3.0311 -0.0711 16.8460
#
#
#
# Elastic Compliance Matrix: (Units=1/GPa)
#
#
# Indices 1 2 3 4 5 6 
#
# 1 0.013790 -0.000797 -0.001741 0.000051 0.002228 0.000014
# 2 -0.000797 0.007924 -0.003314 0.000029 0.000872 0.000003
# 3 -0.001741 -0.003314 0.008771 -0.000029 0.002424 0.000062
# 4 0.000051 0.000029 -0.000029 0.037685 0.000099 0.006781
# 5 0.002228 0.000872 0.002424 0.000099 0.032556 0.000177
# 6 0.000014 0.000003 0.000062 0.006781 0.000177 0.060583
#
#
# Mechanical properties :
#
#
# Convention : Reuss Voigt Hill
#
# Bulk Modulus (GPa) = 53.23955 66.90752 60.07353
# Shear Modulus (GPa) = 27.89057 33.49648 30.69353
#
# Velocity S-wave (km/s) = 3.69121 4.04520 3.87225
# Velocity P-wave (km/s) = 6.64644 7.38266 7.02420
#
# Compressibility (1/GPa) = 0.01878303
#
# Stress axis : x y z
#
# Youngs Moduli (GPa) = 72.51785 126.19404 114.00927
#
# Poissons Ratio (x) = 0.10052 0.19850
# Poissons Ratio (y) = 0.05776 0.37777
# Poissons Ratio (z) = 0.12626 0.41814
#
# Static dielectric constant tensor:
#      x y z
#    x 3.545040 -0.001710 -0.194890 
#    y -0.001710 3.863290 0.000520 
#    z -0.194890 0.000520 3.838170 
# 
# 
# High freq. dielectric constant tensor:
#      x y z
#    x 1.768640 -0.000020 -0.027250 
#    y -0.000020 1.794920 -0.000070 
#    z -0.027250 -0.000070 1.805120 
# 
# From -- ./inp_files/312517.got.cif
#   From: 2010.06.25/outbox.cif.g09.slc.cpg/sg12_157_cif.got.tgz:312517.got - 2010.06.28 00:19:55.
