data_PCOD8091740
_publ_section_title
;
Structure prediction by ZEFSAII (Michael W. Deem and Ramdas Pophale) SiO2 
 PCOD8091740
Probable space group: C 2/M
;
_chemical_formula_sum "Si O2"
_cell_formula_units_Z 64
_cell_length_a 19.956268
_cell_length_b 29.564202
_cell_length_c 14.284147
_cell_angle_alpha 90.000000
_cell_angle_beta 158.662551
_cell_angle_gamma 90.000000
_cell_volume 3066.438442
_symmetry_space_group_name_H-M "C 2/M"
_symmetry_group_IT_number 12
_symmetry_cell_setting 'monoclinic'
loop_
_space_group_symop_operation_xyz
x,y,z
-x,y,-z
-x,-y,-z
x,-y,z
1/2+x,1/2+y,z
1/2-x,1/2+y,-z
1/2-x,1/2-y,-z
1/2+x,1/2-y,z
loop_
_atom_site_type_symbol
_atom_site_label
_atom_site_fract_x
_atom_site_fract_y
_atom_site_fract_z
Si Si1 0.850542 0.592401 0.032865
Si Si2 0.208250 0.798423 0.239995
Si Si3 0.478204 0.374415 0.597975
Si Si4 0.193679 0.655783 0.457410
Si Si5 0.586934 0.630859 0.942281
Si Si6 0.210410 0.302339 0.281813
Si Si7 0.689319 0.949150 0.204159
Si Si8 0.173282 0.448751 0.792593
O O1 0.874940 0.573807 0.169481
O O2 0.017021 0.624088 0.214627
O O3 0.652134 0.617844 0.755601
O O4 0.836133 0.551234 0.941396
O O5 0.344915 0.816670 0.497900
O O6 0.260527 0.745718 0.299662
O O7 0.217594 0.830020 0.159429
O O8 0.000000 0.800286 0.000000
O O9 0.574685 0.356513 0.817861
O O10 0.333658 0.335994 0.379081
O O11 0.363270 0.420370 0.467381
O O12 0.381471 0.626907 0.718902
O O13 0.241034 0.690529 0.433810
O O14 0.676767 0.581106 0.067594
O O15 0.000000 0.315744 0.000000
O O16 0.725369 0.000000 0.285312
O O17 0.500000 0.929466 0.000000
O O18 0.245736 0.500000 0.902443
O O19 0.000000 0.449368 0.500000
#
# Coordination Sequence:
#
# PCOD8091740 Si02
#       8
#     8   8   8   8   8   8   8   8
#     4  11  22  37  59  86 119 158 193 238 295 352
#     4   9  18  33  58  86 110 147 195 244 290 342
#     4  10  21  36  56  83 117 152 188 233 291 352
#     4  10  19  34  57  83 114 152 195 240 287 344
#     4   9  19  36  58  83 114 152 196 240 290 344
#     4  10  19  34  57  84 114 149 192 240 290 347
#     4  11  23  39  60  86 114 148 194 245 296 352
#     4  10  21  38  60  87 121 159 198 242 294 353
#
# _framework density 20.871117999999999
#
# number of rings (size 3 to 8) (size 9 to 14) (size 15 to 20)
#    0.000    2.000    0.000    4.500    0.000    4.000 
#    0.000    1.875    0.000   24.375    0.000    0.000 
#    0.000    0.000    0.000    0.000    0.000    0.000 
#
# Total GULP energy -396425.481474 kJ/mol
# GULP energy per Si atom -12388.296296 kJ/mol
# Density = 2.082361 g / cm^3
# Si number density = 20.871118 Si / 1000 Ang^3
#
#
#
# Elastic Constant Matrix: (Units=GPa)
#
#
# Indices 1 2 3 4 5 6 
#
# 1 82.3703 45.1249 29.3435 -0.0006 0.6947 -0.0002
# 2 45.1249 142.7675 51.3938 0.0000 7.8815 0.0000
# 3 29.3435 51.3938 83.8438 -0.0015 8.4802 -0.0008
# 4 -0.0006 0.0000 -0.0015 25.8798 -0.0009 -6.7873
# 5 0.6947 7.8815 8.4802 -0.0009 34.8069 -0.0004
# 6 -0.0002 0.0000 -0.0008 -6.7873 -0.0004 29.3969
#
#
#
# Elastic Compliance Matrix: (Units=1/GPa)
#
#
# Indices 1 2 3 4 5 6 
#
# 1 0.015331 -0.003771 -0.003188 0.000000 0.001325 0.000000
# 2 -0.003771 0.009932 -0.004664 0.000000 -0.001038 0.000000
# 3 -0.003188 -0.004664 0.016187 0.000001 -0.002824 0.000001
# 4 0.000000 0.000000 0.000001 0.041131 0.000001 0.009496
# 5 0.001325 -0.001038 -0.002824 0.000001 0.029626 0.000001
# 6 0.000000 0.000000 0.000001 0.009496 0.000001 0.036210
#
#
# Mechanical properties :
#
#
# Convention : Reuss Voigt Hill
#
# Bulk Modulus (GPa) = 54.92987 62.30068 58.61528
# Shear Modulus (GPa) = 28.13253 30.22468 29.17861
#
# Velocity S-wave (km/s) = 3.67538 3.80960 3.74309
# Velocity P-wave (km/s) = 6.66236 7.01895 6.84298
#
# Compressibility (1/GPa) = 0.01820503
#
# Stress axis : x y z
#
# Youngs Moduli (GPa) = 65.22862 100.68019 61.77870
#
# Poissons Ratio (x) = 0.37969 0.19693
# Poissons Ratio (y) = 0.24599 0.28811
# Poissons Ratio (z) = 0.20793 0.46952
#
# Static dielectric constant tensor:
#      x y z
#    x 3.808540 0.000000 -0.128380 
#    y 0.000000 3.975110 0.000000 
#    z -0.128380 0.000000 4.054430 
# 
# 
# High freq. dielectric constant tensor:
#      x y z
#    x 1.808500 0.000000 -0.013050 
#    y 0.000000 1.807510 0.000000 
#    z -0.013050 0.000000 1.826970 
# 
# From -- ./inp_files/236010.got.cif
#   From: 2010.06.25/outbox.cif.g09.slc.cpg/sg12_119_cif.got.tgz:236010.got - 2010.06.28 00:19:55.
