data_PCOD8091559
_publ_section_title
;
Structure prediction by ZEFSAII (Michael W. Deem and Ramdas Pophale) SiO2 
 PCOD8091559
Probable space group: C 2/M
;
_chemical_formula_sum "Si O2"
_cell_formula_units_Z 48
_cell_length_a 12.178799
_cell_length_b 14.610269
_cell_length_c 21.179629
_cell_angle_alpha 90.000000
_cell_angle_beta 40.117196
_cell_angle_gamma 90.000000
_cell_volume 2428.314849
_symmetry_space_group_name_H-M "C 2/M"
_symmetry_group_IT_number 12
_symmetry_cell_setting 'monoclinic'
loop_
_space_group_symop_operation_xyz
x,y,z
-x,y,-z
-x,-y,-z
x,-y,z
1/2+x,1/2+y,z
1/2-x,1/2+y,-z
1/2-x,1/2-y,-z
1/2+x,1/2-y,z
loop_
_atom_site_type_symbol
_atom_site_label
_atom_site_fract_x
_atom_site_fract_y
_atom_site_fract_z
Si Si1 0.013618 0.609629 0.865794
Si Si2 0.128059 0.846640 0.248609
Si Si3 0.567446 0.393538 0.905142
Si Si4 0.024059 0.000000 0.384707
Si Si5 0.551947 0.849876 0.247668
Si Si6 0.308526 0.395886 0.920508
Si Si7 0.781481 0.500000 0.384829
O O1 0.052401 0.500000 0.850170
O O2 0.938295 0.640646 0.831864
O O3 0.185167 0.666789 0.803362
O O4 0.877124 0.642788 0.978278
O O5 0.018605 0.910873 0.342796
O O6 0.023439 0.753109 0.285013
O O7 0.155957 0.891532 0.168637
O O8 0.527940 0.500000 0.925744
O O9 0.766752 0.380204 0.804723
O O10 0.460937 0.348638 0.893787
O O11 0.500000 0.347647 0.000000
O O12 0.191856 0.000000 0.355478
O O13 0.854933 0.000000 0.500069
O O14 0.397903 0.910523 0.342081
O O15 0.300924 0.500000 0.945452
#
# Coordination Sequence:
#
# PCOD8091559 Si02
#       7
#     8   8   8   4   8   8   4
#     4  11  20  41  63  90 131 177 219 251 299 371
#     4  12  24  38  64  96 130 162 209 268 318 377
#     4  10  19  34  56  87 127 172 208 243 293 371
#     4  11  24  48  73  92 120 156 222 267 331 383
#     4  12  23  38  66  93 129 163 212 262 312 371
#     4  10  21  35  60  89 131 177 209 250 311 365
#     4  11  24  48  75  91 114 167 212 277 322 383
#
# _framework density 19.766794999999998
#
# number of rings (size 3 to 8) (size 9 to 14) (size 15 to 20)
#    0.000    1.000    6.667    0.500    2.333    4.000 
#    0.000    0.000    0.000    2.000    0.000    0.000 
#    0.000    0.000    0.000    0.000    0.000    0.000 
#
# Total GULP energy -297546.574473 kJ/mol
# GULP energy per Si atom -12397.773936 kJ/mol
# Density = 1.972180 g / cm^3
# Si number density = 19.766795 Si / 1000 Ang^3
#
#
#
# Elastic Constant Matrix: (Units=GPa)
#
#
# Indices 1 2 3 4 5 6 
#
# 1 78.6465 30.1926 40.9999 0.0000 -0.5949 0.0001
# 2 30.1926 93.9438 43.3086 -0.0001 -0.7285 0.0000
# 3 40.9999 43.3086 129.8778 -0.0004 0.3121 0.0003
# 4 0.0000 -0.0001 -0.0004 5.1514 0.0002 3.4900
# 5 -0.5949 -0.7285 0.3121 0.0002 32.5443 -0.0001
# 6 0.0001 0.0000 0.0003 3.4900 -0.0001 27.5973
#
#
#
# Elastic Compliance Matrix: (Units=1/GPa)
#
#
# Indices 1 2 3 4 5 6 
#
# 1 0.016061 -0.003335 -0.003959 0.000000 0.000257 0.000000
# 2 -0.003335 0.013274 -0.003374 0.000000 0.000269 0.000000
# 3 -0.003959 -0.003374 0.010075 0.000001 -0.000245 0.000000
# 4 0.000000 0.000000 0.000001 0.212313 -0.000001 -0.026849
# 5 0.000257 0.000269 -0.000245 -0.000001 0.030740 0.000000
# 6 0.000000 0.000000 0.000000 -0.026849 0.000000 0.039631
#
#
# Mechanical properties :
#
#
# Convention : Reuss Voigt Hill
#
# Bulk Modulus (GPa) = 55.32665 59.05224 57.18944
# Shear Modulus (GPa) = 14.30801 25.58974 19.94888
#
# Velocity S-wave (km/s) = 2.69335 3.60193 3.18026
# Velocity P-wave (km/s) = 6.14187 6.87298 6.51769
#
# Compressibility (1/GPa) = 0.01807447
#
# Stress axis : x y z
#
# Youngs Moduli (GPa) = 62.26224 75.33480 99.25568
#
# Poissons Ratio (x) = 0.25123 0.39293
# Poissons Ratio (y) = 0.20764 0.33491
# Poissons Ratio (z) = 0.24648 0.25420
#
# Static dielectric constant tensor:
#      x y z
#    x 3.839960 0.000000 -0.042400 
#    y 0.000000 3.627540 0.000000 
#    z -0.042400 0.000000 3.306470 
# 
# 
# High freq. dielectric constant tensor:
#      x y z
#    x 1.783920 0.000000 -0.003110 
#    y 0.000000 1.766320 0.000000 
#    z -0.003110 0.000000 1.745070 
# 
# From -- ./inp_files/305649.got.cif
#   From: 2010.06.25/outbox.cif.g09.slc.cpg/sg12_153_cif.got.tgz:305649.got - 2010.06.28 00:19:55.
