data_PCOD8091171
_publ_section_title
;
Structure prediction by ZEFSAII (Michael W. Deem and Ramdas Pophale) SiO2 
 PCOD8091171
Probable space group: C 2/M
;
_chemical_formula_sum "Si O2"
_cell_formula_units_Z 56
_cell_length_a 22.367419
_cell_length_b 8.865245
_cell_length_c 33.385679
_cell_angle_alpha 90.000000
_cell_angle_beta 154.888927
_cell_angle_gamma 90.000000
_cell_volume 2809.415877
_symmetry_space_group_name_H-M "C 2/M"
_symmetry_group_IT_number 12
_symmetry_cell_setting 'monoclinic'
loop_
_space_group_symop_operation_xyz
x,y,z
-x,y,-z
-x,-y,-z
x,-y,z
1/2+x,1/2+y,z
1/2-x,1/2+y,-z
1/2-x,1/2-y,-z
1/2+x,1/2-y,z
loop_
_atom_site_type_symbol
_atom_site_label
_atom_site_fract_x
_atom_site_fract_y
_atom_site_fract_z
Si Si1 0.761261 0.822346 0.414574
Si Si2 0.439902 0.324400 0.768708
Si Si3 0.019361 0.322736 0.326418
Si Si4 0.480596 0.823390 0.391614
Si Si5 0.032061 0.676543 0.974307
Si Si6 0.659078 0.672915 0.203498
Si Si7 0.175319 0.321053 0.862215
O O1 0.694103 0.747948 0.334657
O O2 0.668749 0.777737 0.397528
O O3 0.918281 0.761169 0.515903
O O4 0.763093 0.000000 0.408859
O O5 0.444272 0.500000 0.760712
O O6 0.424546 0.296049 0.806524
O O7 0.585979 0.247321 0.844566
O O8 0.003237 0.500000 0.320495
O O9 0.004750 0.252985 0.361794
O O10 0.893603 0.264022 0.221393
O O11 0.322606 0.789345 0.309671
O O12 0.516385 0.000000 0.414480
O O13 0.062508 0.500000 0.990307
O O14 0.898945 0.719559 0.866424
O O15 0.165870 0.765291 0.038481
O O16 0.000000 0.728139 0.000000
O O17 0.642142 0.500000 0.179129
O O18 0.169724 0.500000 0.862771
#
# Coordination Sequence:
#
# PCOD8091171 Si02
#       7
#     8   8   8   8   8   8   8
#     4  10  20  34  53  81 113 147 187 229 283 344
#     4  10  21  39  59  82 112 146 190 239 284 331
#     4   8  16  31  53  81 110 140 180 228 276 332
#     4  10  19  34  55  79 108 145 188 233 282 332
#     4  11  24  40  60  89 120 148 181 224 278 337
#     4  10  23  40  59  82 110 149 194 237 281 333
#     4  10  20  37  62  87 113 149 189 231 281 335
#
# _framework density 19.932970000000001
#
# number of rings (size 3 to 8) (size 9 to 14) (size 15 to 20)
#    0.000    2.143    0.000    3.857    0.000    5.143 
#    0.000    6.429    0.000    0.000    0.000    0.000 
#    0.000    0.000    0.000    0.000    0.000    0.000 
#
# Total GULP energy -347295.928897 kJ/mol
# GULP energy per Si atom -12403.426032 kJ/mol
# Density = 1.988760 g / cm^3
# Si number density = 19.932970 Si / 1000 Ang^3
#
#
#
# Elastic Constant Matrix: (Units=GPa)
#
#
# Indices 1 2 3 4 5 6 
#
# 1 91.2379 46.2681 41.9803 0.0009 2.6466 -0.0002
# 2 46.2681 86.9440 42.7267 0.0006 0.8736 -0.0009
# 3 41.9803 42.7267 94.4690 -0.0011 10.5514 -0.0004
# 4 0.0009 0.0006 -0.0011 35.1914 -0.0004 0.1903
# 5 2.6466 0.8736 10.5514 -0.0004 27.5596 0.0000
# 6 -0.0002 -0.0009 -0.0004 0.1903 0.0000 24.2065
#
#
#
# Elastic Compliance Matrix: (Units=1/GPa)
#
#
# Indices 1 2 3 4 5 6 
#
# 1 0.016242 -0.006536 -0.004294 0.000000 0.000291 0.000000
# 2 -0.006536 0.017546 -0.005264 0.000000 0.002087 0.000000
# 3 -0.004294 -0.005264 0.015472 0.000001 -0.005344 0.000000
# 4 0.000000 0.000000 0.000001 0.028417 0.000000 -0.000223
# 5 0.000291 0.002087 -0.005344 0.000000 0.038237 0.000000
# 6 0.000000 0.000000 0.000000 -0.000223 0.000000 0.041313
#
#
# Mechanical properties :
#
#
# Convention : Reuss Voigt Hill
#
# Bulk Modulus (GPa) = 58.58004 59.40012 58.99008
# Shear Modulus (GPa) = 25.62703 26.83655 26.23179
#
# Velocity S-wave (km/s) = 3.58950 3.67323 3.63161
# Velocity P-wave (km/s) = 6.82874 6.91772 6.87337
#
# Compressibility (1/GPa) = 0.01707066
#
# Stress axis : x y z
#
# Youngs Moduli (GPa) = 61.56758 56.99302 64.63466
#
# Poissons Ratio (x) = 0.37252 0.27755
# Poissons Ratio (y) = 0.40242 0.34026
# Poissons Ratio (z) = 0.26438 0.30003
#
# Static dielectric constant tensor:
#      x y z
#    x 3.662130 0.000000 -0.000940 
#    y 0.000000 3.470010 0.000000 
#    z -0.000940 0.000000 3.601980 
# 
# 
# High freq. dielectric constant tensor:
#      x y z
#    x 1.778070 0.000000 0.003500 
#    y 0.000000 1.767100 0.000000 
#    z 0.003500 0.000000 1.781190 
# 
# From -- ./inp_files/380751.got.cif
#   From: 2010.06.25/outbox.cif.g09.slc.cpg/sg12_191_cif.got.tgz:380751.got - 2010.06.28 00:19:55.
