data_PCOD8091938
_publ_section_title
;
Structure prediction by ZEFSAII (Michael W. Deem and Ramdas Pophale) SiO2 
 PCOD8091938
Probable space group: C 2/M
;
_chemical_formula_sum "Si O2"
_cell_formula_units_Z 56
_cell_length_a 30.151079
_cell_length_b 9.000350
_cell_length_c 19.050828
_cell_angle_alpha 90.000000
_cell_angle_beta 142.936467
_cell_angle_gamma 90.000000
_cell_volume 3115.856648
_symmetry_space_group_name_H-M "C 2/M"
_symmetry_group_IT_number 12
_symmetry_cell_setting 'monoclinic'
loop_
_space_group_symop_operation_xyz
x,y,z
-x,y,-z
-x,-y,-z
x,-y,z
1/2+x,1/2+y,z
1/2-x,1/2+y,-z
1/2-x,1/2-y,-z
1/2+x,1/2-y,z
loop_
_atom_site_type_symbol
_atom_site_label
_atom_site_fract_x
_atom_site_fract_y
_atom_site_fract_z
Si Si1 0.802059 0.670933 0.011003
Si Si2 0.463643 0.166710 0.203632
Si Si3 0.615240 0.172671 0.252115
Si Si4 0.753362 0.175511 0.337853
Si Si5 0.471707 0.329185 0.073495
Si Si6 0.691359 0.675521 0.130319
Si Si7 0.621592 0.831761 0.424184
O O1 0.778345 0.500000 0.973910
O O2 0.886267 0.684840 0.146699
O O3 0.750000 0.750000 0.000000
O O4 0.794735 0.747050 0.926337
O O5 0.468222 0.293304 0.151277
O O6 0.536587 0.183077 0.344195
O O7 0.466291 0.000000 0.172179
O O8 0.686784 0.234287 0.302563
O O9 0.540250 0.243009 0.124817
O O10 0.624184 0.212152 0.345347
O O11 0.607876 0.000000 0.230113
O O12 0.749689 0.257899 0.258577
O O13 0.829836 0.217704 0.470823
O O14 0.750653 0.000000 0.322812
O O15 0.489275 0.500000 0.083896
O O16 0.390422 0.287571 0.941861
O O17 0.702709 0.500000 0.135224
O O18 0.650696 0.000000 0.471728
#
# Coordination Sequence:
#
# PCOD8091938 Si02
#       7
#     8   8   8   8   8   8   8
#     4  10  19  34  58  85 108 129 156 195 242 298
#     4   8  16  31  51  74 101 131 161 195 243 296
#     4   9  19  33  48  68  97 133 173 212 254 299
#     4  11  22  33  47  70  99 135 174 212 252 294
#     4   9  17  29  48  71  95 125 166 212 251 288
#     4  10  21  36  51  72 102 134 166 203 251 303
#     4   9  17  32  51  70  96 133 173 210 245 287
#
# _framework density 17.972584000000001
#
# number of rings (size 3 to 8) (size 9 to 14) (size 15 to 20)
#    0.000    2.571    0.000    3.000    0.000    6.286 
#    0.000    2.857    0.000    0.857    0.000    6.000 
#    0.000    0.000    0.000    0.000    0.000    0.000 
#
# Total GULP energy -347020.801018 kJ/mol
# GULP energy per Si atom -12393.600036 kJ/mol
# Density = 1.793168 g / cm^3
# Si number density = 17.972584 Si / 1000 Ang^3
#
#
#
# Elastic Constant Matrix: (Units=GPa)
#
#
# Indices 1 2 3 4 5 6 
#
# 1 94.0724 36.2203 38.9051 0.0000 12.8810 0.0000
# 2 36.2203 73.8532 38.8057 0.0000 0.6026 0.0000
# 3 38.9051 38.8057 79.2054 0.0000 5.8878 0.0000
# 4 0.0000 0.0000 0.0000 28.0493 0.0000 4.3912
# 5 12.8810 0.6026 5.8878 0.0000 19.3211 0.0000
# 6 0.0000 0.0000 0.0000 4.3912 0.0000 27.1246
#
#
#
# Elastic Compliance Matrix: (Units=1/GPa)
#
#
# Indices 1 2 3 4 5 6 
#
# 1 0.015749 -0.005301 -0.004472 0.000000 -0.008972 0.000000
# 2 -0.005301 0.020111 -0.007638 0.000000 0.005235 0.000000
# 3 -0.004472 -0.007638 0.018750 0.000000 -0.002494 0.000000
# 4 0.000000 0.000000 0.000000 0.036579 0.000000 -0.005922
# 5 -0.008972 0.005235 -0.002494 0.000000 0.058335 0.000000
# 6 0.000000 0.000000 0.000000 -0.005922 0.000000 0.037826
#
#
# Mechanical properties :
#
#
# Convention : Reuss Voigt Hill
#
# Bulk Modulus (GPa) = 50.53746 52.77701 51.65724
# Shear Modulus (GPa) = 21.85632 23.77898 22.81765
#
# Velocity S-wave (km/s) = 3.49103 3.64135 3.56698
# Velocity P-wave (km/s) = 6.66558 6.86355 6.76529
#
# Compressibility (1/GPa) = 0.01978730
#
# Stress axis : x y z
#
# Youngs Moduli (GPa) = 63.49645 49.72383 53.33445
#
# Poissons Ratio (x) = 0.26359 0.23849
# Poissons Ratio (y) = 0.33660 0.40739
# Poissons Ratio (z) = 0.28393 0.37981
#
# Static dielectric constant tensor:
#      x y z
#    x 3.197670 0.000000 0.323380 
#    y 0.000000 3.322720 0.000000 
#    z 0.323380 0.000000 3.335920 
# 
# 
# High freq. dielectric constant tensor:
#      x y z
#    x 1.666370 0.000000 0.023360 
#    y 0.000000 1.703260 0.000000 
#    z 0.023360 0.000000 1.688000 
# 
# From -- ./inp_files/281730.got.cif
#   From: 2010.06.25/outbox.cif.g09.slc.cpg/sg12_141_cif.got.tgz:281730.got - 2010.06.28 00:19:55.
