data_PCOD8091073
_publ_section_title
;
Structure prediction by ZEFSAII (Michael W. Deem and Ramdas Pophale) SiO2 
 PCOD8091073
Probable space group: C 2/M
;
_chemical_formula_sum "Si O2"
_cell_formula_units_Z 56
_cell_length_a 20.428161
_cell_length_b 9.061021
_cell_length_c 22.261205
_cell_angle_alpha 90.000000
_cell_angle_beta 49.027624
_cell_angle_gamma 90.000000
_cell_volume 3111.120761
_symmetry_space_group_name_H-M "C 2/M"
_symmetry_group_IT_number 12
_symmetry_cell_setting 'monoclinic'
loop_
_space_group_symop_operation_xyz
x,y,z
-x,y,-z
-x,-y,-z
x,-y,z
1/2+x,1/2+y,z
1/2-x,1/2+y,-z
1/2-x,1/2-y,-z
1/2+x,1/2-y,z
loop_
_atom_site_type_symbol
_atom_site_label
_atom_site_fract_x
_atom_site_fract_y
_atom_site_fract_z
Si Si1 0.317593 0.171227 0.825723
Si Si2 0.188717 0.174849 0.408245
Si Si3 0.446649 0.825128 0.850931
Si Si4 0.613276 0.171111 0.339132
Si Si5 0.118305 0.325556 0.687210
Si Si6 0.818494 0.172377 0.001466
Si Si7 0.085710 0.328679 0.573068
O O1 0.386898 0.233863 0.831974
O O2 0.332290 0.237203 0.750370
O O3 0.218380 0.197436 0.908375
O O4 0.340315 0.000000 0.806189
O O5 0.137766 0.236192 0.382246
O O6 0.288704 0.228005 0.344886
O O7 0.148429 0.235283 0.493428
O O8 0.181539 0.000000 0.412937
O O9 0.544582 0.771951 0.778509
O O10 0.438900 0.000000 0.864463
O O11 0.412426 0.746903 0.933079
O O12 0.512579 0.195385 0.387469
O O13 0.634542 0.000000 0.338807
O O14 0.112930 0.500000 0.686259
O O15 0.098909 0.265012 0.632182
O O16 0.823010 0.000000 0.983767
O O17 0.750000 0.250000 0.000000
O O18 0.111911 0.500000 0.552582
#
# Coordination Sequence:
#
# PCOD8091073 Si02
#       7
#     8   8   8   8   8   8   8
#     4   8  14  27  49  72  94 123 162 203 238 279
#     4  11  23  35  48  73 107 134 158 202 263 307
#     4   9  15  29  51  73  96 125 164 206 246 287
#     4  10  19  34  55  74  94 129 175 209 236 288
#     4   9  18  34  55  74  97 133 171 204 245 301
#     4   9  16  26  44  73 104 129 157 199 249 293
#     4  10  19  35  58  75  90 126 179 215 239 288
#
# _framework density 17.999942999999998
#
# number of rings (size 3 to 8) (size 9 to 14) (size 15 to 20)
#    0.000    2.571    1.429    2.571    0.000    2.286 
#    0.000    6.429    0.000    0.857    0.000    6.000 
#    0.000    0.000    0.000    0.000    0.000    0.000 
#
# Total GULP energy -347024.583999 kJ/mol
# GULP energy per Si atom -12393.735143 kJ/mol
# Density = 1.795897 g / cm^3
# Si number density = 17.999943 Si / 1000 Ang^3
#
#
#
# Elastic Constant Matrix: (Units=GPa)
#
#
# Indices 1 2 3 4 5 6 
#
# 1 43.8188 18.3839 7.9951 0.0000 -13.1527 0.0002
# 2 18.3839 53.7024 36.5896 -0.0001 -10.0149 0.0007
# 3 7.9951 36.5896 124.3442 0.0000 -24.4298 0.0000
# 4 0.0000 -0.0001 0.0000 29.3103 0.0000 -3.7442
# 5 -13.1527 -10.0149 -24.4298 0.0000 14.0335 0.0000
# 6 0.0002 0.0007 0.0000 -3.7442 0.0000 14.5555
#
#
#
# Elastic Compliance Matrix: (Units=1/GPa)
#
#
# Indices 1 2 3 4 5 6 
#
# 1 0.039886 -0.011838 0.010036 0.000000 0.046405 0.000000
# 2 -0.011838 0.027283 -0.008544 0.000000 -0.006498 -0.000001
# 3 0.010036 -0.008544 0.016051 0.000000 0.031250 0.000000
# 4 0.000000 0.000000 0.000000 0.035277 0.000000 0.009074
# 5 0.046405 -0.006498 0.031250 0.000000 0.164514 0.000000
# 6 0.000000 -0.000001 0.000000 0.009074 0.000000 0.071037
#
#
# Mechanical properties :
#
#
# Convention : Reuss Voigt Hill
#
# Bulk Modulus (GPa) = 15.99286 38.64474 27.31880
# Shear Modulus (GPa) = 12.63965 22.17299 17.40632
#
# Velocity S-wave (km/s) = 2.65279 3.51356 3.11307
# Velocity P-wave (km/s) = 4.27636 6.16248 5.30393
#
# Compressibility (1/GPa) = 0.06252790
#
# Stress axis : x y z
#
# Youngs Moduli (GPa) = 25.07176 36.65283 62.30273
#
# Poissons Ratio (x) = 0.43389 -0.62527
# Poissons Ratio (y) = 0.29680 0.53230
# Poissons Ratio (z) = -0.25162 0.31315
#
# Static dielectric constant tensor:
#      x y z
#    x 3.121920 0.000000 -0.116970 
#    y 0.000000 3.132110 0.000000 
#    z -0.116970 0.000000 4.002490 
# 
# 
# High freq. dielectric constant tensor:
#      x y z
#    x 1.660240 0.000000 -0.006480 
#    y 0.000000 1.669610 0.000000 
#    z -0.006480 0.000000 1.722690 
# 
# From -- ./inp_files/348477.got.cif
#   From: 2010.06.25/outbox.cif.g09.slc.cpg/sg12_175_cif.got.tgz:348477.got - 2010.06.28 00:19:55.
