data_PCOD8091109
_publ_section_title
;
Structure prediction by ZEFSAII (Michael W. Deem and Ramdas Pophale) SiO2 
 PCOD8091109
Probable space group: C 2/M
;
_chemical_formula_sum "Si O2"
_cell_formula_units_Z 56
_cell_length_a 14.352377
_cell_length_b 8.775183
_cell_length_c 27.877425
_cell_angle_alpha 90.000000
_cell_angle_beta 121.812238
_cell_angle_gamma 90.000000
_cell_volume 2983.590656
_symmetry_space_group_name_H-M "C 2/M"
_symmetry_group_IT_number 12
_symmetry_cell_setting 'monoclinic'
loop_
_space_group_symop_operation_xyz
x,y,z
-x,y,-z
-x,-y,-z
x,-y,z
1/2+x,1/2+y,z
1/2-x,1/2+y,-z
1/2-x,1/2-y,-z
1/2+x,1/2-y,z
loop_
_atom_site_type_symbol
_atom_site_label
_atom_site_fract_x
_atom_site_fract_y
_atom_site_fract_z
Si Si1 0.657396 0.321763 0.643472
Si Si2 0.504575 0.320658 0.150312
Si Si3 0.204277 0.818740 0.849476
Si Si4 0.245831 0.180035 0.236411
Si Si5 0.914515 0.823522 0.547764
Si Si6 0.721973 0.176689 0.567348
Si Si7 0.070225 0.819881 0.064310
O O1 0.670687 0.500000 0.657055
O O2 0.691667 0.229355 0.699287
O O3 0.533440 0.274486 0.597827
O O4 0.732063 0.271747 0.619033
O O5 0.495467 0.500000 0.151545
O O6 0.400607 0.250921 0.150063
O O7 0.618889 0.266198 0.205325
O O8 0.504706 0.270422 0.094511
O O9 0.196138 0.757418 0.793261
O O10 0.312366 0.761068 0.905976
O O11 0.204445 0.000000 0.848400
O O12 0.253117 0.000000 0.231344
O O13 0.831969 0.785745 0.568342
O O14 0.883465 0.728262 0.492110
O O15 0.909557 0.000000 0.531696
O O16 0.710599 0.000000 0.576884
O O17 0.090991 0.000000 0.069225
O O18 0.000000 0.764256 0.000000
#
# Coordination Sequence:
#
# PCOD8091109 Si02
#       7
#     8   8   8   8   8   8   8
#     4  11  22  36  54  77 105 136 170 210 261 312
#     4   8  17  34  54  74 102 140 172 207 260 309
#     4  10  19  34  55  77 103 136 174 214 259 305
#     4  10  21  38  55  74 102 135 174 215 257 307
#     4   9  20  37  54  74 105 140 169 206 261 316
#     4  10  20  35  55  78 103 134 173 213 255 308
#     4   9  18  34  54  78 110 144 176 210 251 302
#
# _framework density 18.769331000000001
#
# number of rings (size 3 to 8) (size 9 to 14) (size 15 to 20)
#    0.000    2.429    0.000    3.000    0.000    5.429 
#    0.000   12.857    0.000    0.000    0.000    0.000 
#    0.000    0.000    0.000    0.000    0.000    0.000 
#
# Total GULP energy -347237.286087 kJ/mol
# GULP energy per Si atom -12401.331646 kJ/mol
# Density = 1.872661 g / cm^3
# Si number density = 18.769331 Si / 1000 Ang^3
#
#
#
# Elastic Constant Matrix: (Units=GPa)
#
#
# Indices 1 2 3 4 5 6 
#
# 1 126.4339 29.6296 51.3071 0.0000 -9.3176 0.0000
# 2 29.6296 45.6544 24.8738 0.0000 -1.0570 0.0000
# 3 51.3071 24.8738 116.1583 0.0000 -9.1179 0.0000
# 4 0.0000 0.0000 0.0000 32.5984 0.0000 -0.1211
# 5 -9.3176 -1.0570 -9.1179 0.0000 16.2027 0.0000
# 6 0.0000 0.0000 0.0000 -0.1211 0.0000 27.4838
#
#
#
# Elastic Compliance Matrix: (Units=1/GPa)
#
#
# Indices 1 2 3 4 5 6 
#
# 1 0.010747 -0.005056 -0.003353 0.000000 0.003963 0.000000
# 2 -0.005056 0.027207 -0.003852 0.000000 -0.003300 0.000000
# 3 -0.003353 -0.003852 0.011240 0.000000 0.004146 0.000000
# 4 0.000000 0.000000 0.000000 0.030677 0.000000 0.000135
# 5 0.003963 -0.003300 0.004146 0.000000 0.066115 0.000000
# 6 0.000000 0.000000 0.000000 0.000135 0.000000 0.036386
#
#
# Mechanical properties :
#
#
# Convention : Reuss Voigt Hill
#
# Bulk Modulus (GPa) = 40.53120 55.54083 48.03601
# Shear Modulus (GPa) = 23.24300 27.41939 25.33119
#
# Velocity S-wave (km/s) = 3.52284 3.82627 3.67768
# Velocity P-wave (km/s) = 6.17968 7.01256 6.60925
#
# Compressibility (1/GPa) = 0.02467235
#
# Stress axis : x y z
#
# Youngs Moduli (GPa) = 93.04971 36.75482 88.96588
#
# Poissons Ratio (x) = 0.18584 0.29831
# Poissons Ratio (y) = 0.47047 0.34268
# Poissons Ratio (z) = 0.31201 0.14157
#
# Static dielectric constant tensor:
#      x y z
#    x 3.702330 0.000000 -0.034270 
#    y 0.000000 3.314430 0.000000 
#    z -0.034270 0.000000 3.449930 
# 
# 
# High freq. dielectric constant tensor:
#      x y z
#    x 1.735910 0.000000 -0.004670 
#    y 0.000000 1.720710 0.000000 
#    z -0.004670 0.000000 1.729410 
# 
# From -- ./inp_files/359643.got.cif
#   From: 2010.06.25/outbox.cif.g09.slc.cpg/sg12_180_cif.got.tgz:359643.got - 2010.06.28 00:19:55.
