data_PCOD8091337
_publ_section_title
;
Structure prediction by ZEFSAII (Michael W. Deem and Ramdas Pophale) SiO2 
 PCOD8091337
Probable space group: C 2/M
;
_chemical_formula_sum "Si O2"
_cell_formula_units_Z 64
_cell_length_a 14.386300
_cell_length_b 8.736008
_cell_length_c 30.248096
_cell_angle_alpha 90.000000
_cell_angle_beta 61.569936
_cell_angle_gamma 90.000000
_cell_volume 3343.074759
_symmetry_space_group_name_H-M "C 2/M"
_symmetry_group_IT_number 12
_symmetry_cell_setting 'monoclinic'
loop_
_space_group_symop_operation_xyz
x,y,z
-x,y,-z
-x,-y,-z
x,-y,z
1/2+x,1/2+y,z
1/2-x,1/2+y,-z
1/2-x,1/2-y,-z
1/2+x,1/2-y,z
loop_
_atom_site_type_symbol
_atom_site_label
_atom_site_fract_x
_atom_site_fract_y
_atom_site_fract_z
Si Si1 0.266150 0.680024 0.632740
Si Si2 0.767099 0.183143 0.097287
Si Si3 0.964001 0.681706 0.290861
Si Si4 0.955112 0.182550 0.115623
Si Si5 0.458958 0.181288 0.821431
Si Si6 0.192027 0.681423 0.554898
Si Si7 0.099755 0.831569 0.009580
Si Si8 0.024514 0.182278 0.367348
O O1 0.274916 0.500000 0.634057
O O2 0.158733 0.734073 0.681484
O O3 0.259126 0.730417 0.583016
O O4 0.369770 0.749003 0.632933
O O5 0.653590 0.247828 0.137012
O O6 0.805091 0.249533 0.040160
O O7 0.847609 0.238354 0.116947
O O8 0.767730 0.000000 0.094598
O O9 0.973107 0.500000 0.295611
O O10 0.026966 0.762969 0.316108
O O11 0.015962 0.738584 0.233515
O O12 0.954015 0.252425 0.164818
O O13 0.960471 0.000000 0.116224
O O14 0.056975 0.248935 0.064325
O O15 0.462074 0.000000 0.822187
O O16 0.183599 0.500000 0.552829
O O17 0.250000 0.750000 0.500000
O O18 0.074458 0.748654 0.584040
O O19 0.139755 0.000000 0.013564
O O20 0.000000 0.846091 0.000000
O O21 0.018466 0.000000 0.370680
#
# Coordination Sequence:
#
# PCOD8091337 Si02
#       8
#     8   8   8   8   8   8   8   8
#     4   8  17  34  54  72  98 136 170 200 246 299
#     4   8  15  29  47  67  92 124 159 195 242 300
#     4   9  19  36  51  68  98 133 164 201 252 304
#     4   9  17  30  48  68  91 121 160 201 240 292
#     4  10  20  32  48  70  97 126 157 198 252 304
#     4  10  20  36  55  80 115 147 171 202 242 286
#     4   7  11  23  44  65  86 118 157 193 234 292
#     4  10  19  34  56  78  97 129 175 213 245 286
#
# _framework density 19.144054000000001
#
# number of rings (size 3 to 8) (size 9 to 14) (size 15 to 20)
#    0.000    3.125    0.000    3.000    0.000    2.500 
#    0.000    9.375    0.000    3.375    0.000    0.000 
#    0.000    0.000    0.000    0.000    0.000    0.000 
#
# Total GULP energy -396510.994945 kJ/mol
# GULP energy per Si atom -12390.968592 kJ/mol
# Density = 1.910048 g / cm^3
# Si number density = 19.144054 Si / 1000 Ang^3
#
#
#
# Elastic Constant Matrix: (Units=GPa)
#
#
# Indices 1 2 3 4 5 6 
#
# 1 109.0641 20.5352 48.5208 0.0000 4.5248 0.0000
# 2 20.5352 31.6951 26.4465 0.0000 1.7159 0.0000
# 3 48.5208 26.4465 137.3054 0.0000 7.3370 0.0000
# 4 0.0000 0.0000 0.0000 20.8771 0.0000 2.8573
# 5 4.5248 1.7159 7.3370 0.0000 20.8692 0.0000
# 6 0.0000 0.0000 0.0000 2.8573 0.0000 21.2414
#
#
#
# Elastic Compliance Matrix: (Units=1/GPa)
#
#
# Indices 1 2 3 4 5 6 
#
# 1 0.011487 -0.004821 -0.003077 0.000000 -0.001013 0.000000
# 2 -0.004821 0.039622 -0.005921 0.000000 -0.000131 0.000000
# 3 -0.003077 -0.005921 0.009630 0.000000 -0.002232 0.000000
# 4 0.000000 0.000000 0.000000 0.048798 0.000000 -0.006564
# 5 -0.001013 -0.000131 -0.002232 0.000000 0.048932 0.000000
# 6 0.000000 0.000000 0.000000 -0.006564 0.000000 0.047961
#
#
# Mechanical properties :
#
#
# Convention : Reuss Voigt Hill
#
# Bulk Modulus (GPa) = 30.20955 52.11884 41.16420
# Shear Modulus (GPa) = 20.39978 24.76834 22.58406
#
# Velocity S-wave (km/s) = 3.26788 3.60083 3.43839
# Velocity P-wave (km/s) = 5.48207 6.67620 6.10839
#
# Compressibility (1/GPa) = 0.03310211
#
# Stress axis : x y z
#
# Youngs Moduli (GPa) = 87.05199 25.23882 103.84183
#
# Poissons Ratio (x) = 0.12166 0.31950
# Poissons Ratio (y) = 0.41964 0.61486
# Poissons Ratio (z) = 0.26784 0.14944
#
# Static dielectric constant tensor:
#      x y z
#    x 3.643490 0.000000 -0.044110 
#    y 0.000000 3.059120 0.000000 
#    z -0.044110 0.000000 3.758110 
# 
# 
# High freq. dielectric constant tensor:
#      x y z
#    x 1.744100 0.000000 0.001220 
#    y 0.000000 1.703590 0.000000 
#    z 0.001220 0.000000 1.752730 
# 
# From -- ./inp_files/374983.got.cif
#   From: 2010.06.25/outbox.cif.g09.slc.cpg/sg12_188_cif.got.tgz:374983.got - 2010.06.28 00:19:55.
