data_PCOD8091492
_publ_section_title
;
Structure prediction by ZEFSAII (Michael W. Deem and Ramdas Pophale) SiO2 
 PCOD8091492
Probable space group: C 2/M
;
_chemical_formula_sum "Si O2"
_cell_formula_units_Z 48
_cell_length_a 23.750257
_cell_length_b 18.575353
_cell_length_c 11.316371
_cell_angle_alpha 90.000000
_cell_angle_beta 149.129033
_cell_angle_gamma 90.000000
_cell_volume 2561.651149
_symmetry_space_group_name_H-M "C 2/M"
_symmetry_group_IT_number 12
_symmetry_cell_setting 'monoclinic'
loop_
_space_group_symop_operation_xyz
x,y,z
-x,y,-z
-x,-y,-z
x,-y,z
1/2+x,1/2+y,z
1/2-x,1/2+y,-z
1/2-x,1/2-y,-z
1/2+x,1/2-y,z
loop_
_atom_site_type_symbol
_atom_site_label
_atom_site_fract_x
_atom_site_fract_y
_atom_site_fract_z
Si Si1 0.722877 0.329259 0.411859
Si Si2 0.558915 0.916521 0.230468
Si Si3 0.685041 0.186014 0.819377
Si Si4 0.019201 0.315648 0.709486
Si Si5 0.382860 0.666126 0.028226
Si Si6 0.056158 0.921092 0.228520
O O1 0.750000 0.250000 0.500000
O O2 0.823712 0.380341 0.565320
O O3 0.652042 0.320245 0.167998
O O4 0.656654 0.365651 0.400437
O O5 0.489530 0.874379 0.203719
O O6 0.571107 0.000000 0.289415
O O7 0.500000 0.908219 0.000000
O O8 0.598053 0.206416 0.559450
O O9 0.608305 0.147918 0.779722
O O10 0.781623 0.139443 0.929877
O O11 0.750000 0.250000 0.000000
O O12 0.066695 0.240623 0.838569
O O13 0.474828 0.604046 0.187517
O O14 0.099828 0.000000 0.343259
O O15 0.000000 0.925652 0.000000
#
# Coordination Sequence:
#
# PCOD8091492 Si02
#       6
#     8   8   8   8   8   8
#     4  11  20  33  56  82 113 150 193 236 280 340
#     4  11  23  38  56  84 124 160 187 231 294 354
#     4   9  19  35  59  85 113 147 189 243 294 332
#     4  10  19  37  58  86 116 144 196 241 288 342
#     4  10  19  34  56  83 109 144 193 235 290 335
#     4   9  19  33  49  75 112 146 180 224 274 332
#
# _framework density 18.737912999999999
#
# number of rings (size 3 to 8) (size 9 to 14) (size 15 to 20)
#    0.000    2.000    1.667    2.500    0.000    2.000 
#    0.000    2.500    0.000    0.000    0.000   10.500 
#    0.000    0.000    0.000    0.000    0.000    0.000 
#
# Total GULP energy -297317.383443 kJ/mol
# GULP energy per Si atom -12388.224310 kJ/mol
# Density = 1.869527 g / cm^3
# Si number density = 18.737913 Si / 1000 Ang^3
#
#
#
# Elastic Constant Matrix: (Units=GPa)
#
#
# Indices 1 2 3 4 5 6 
#
# 1 147.5604 61.5756 45.3536 0.0000 33.4918 0.0000
# 2 61.5756 123.7697 43.1960 0.0000 13.6400 0.0000
# 3 45.3536 43.1960 66.8919 0.0000 9.5310 0.0000
# 4 0.0000 0.0000 0.0000 55.5360 0.0000 -23.7485
# 5 33.4918 13.6400 9.5310 0.0000 37.9275 0.0000
# 6 0.0000 0.0000 0.0000 -23.7485 0.0000 32.4216
#
#
#
# Elastic Compliance Matrix: (Units=1/GPa)
#
#
# Indices 1 2 3 4 5 6 
#
# 1 0.011205 -0.003178 -0.004458 0.000000 -0.007632 0.000000
# 2 -0.003178 0.011501 -0.005271 0.000000 -0.000005 0.000000
# 3 -0.004458 -0.005271 0.021308 0.000000 0.000478 0.000000
# 4 0.000000 0.000000 0.000000 0.026219 0.000000 0.019205
# 5 -0.007632 -0.000005 0.000478 0.000000 0.032987 0.000000
# 6 0.000000 0.000000 0.000000 0.019205 0.000000 0.044911
#
#
# Mechanical properties :
#
#
# Convention : Reuss Voigt Hill
#
# Bulk Modulus (GPa) = 54.94519 70.94138 62.94329
# Shear Modulus (GPa) = 27.77595 37.71682 32.74639
#
# Velocity S-wave (km/s) = 3.85429 4.49136 4.18497
# Velocity P-wave (km/s) = 7.01385 8.05223 7.55091
#
# Compressibility (1/GPa) = 0.01819995
#
# Stress axis : x y z
#
# Youngs Moduli (GPa) = 89.24381 86.95060 46.93085
#
# Poissons Ratio (x) = 0.27631 0.20921
# Poissons Ratio (y) = 0.28360 0.24739
# Poissons Ratio (z) = 0.39783 0.45835
#
# Static dielectric constant tensor:
#      x y z
#    x 3.989290 0.000000 0.241180 
#    y 0.000000 3.191040 0.000000 
#    z 0.241180 0.000000 3.666740 
# 
# 
# High freq. dielectric constant tensor:
#      x y z
#    x 1.743740 0.000000 0.018080 
#    y 0.000000 1.702490 0.000000 
#    z 0.018080 0.000000 1.729440 
# 
# From -- ./inp_files/131055.got.cif
#   From: 2010.06.25/outbox.cif.g09.slc.cpg/sg12_66_cif.got.tgz:131055.got - 2010.06.28 00:19:55.
