data_PCOD8091606
_publ_section_title
;
Structure prediction by ZEFSAII (Michael W. Deem and Ramdas Pophale) SiO2 
 PCOD8091606
Probable space group: C 2/M
;
_chemical_formula_sum "Si O2"
_cell_formula_units_Z 64
_cell_length_a 13.172343
_cell_length_b 13.882629
_cell_length_c 32.772754
_cell_angle_alpha 90.000000
_cell_angle_beta 145.439339
_cell_angle_gamma 90.000000
_cell_volume 3399.726437
_symmetry_space_group_name_H-M "C 2/M"
_symmetry_group_IT_number 12
_symmetry_cell_setting 'monoclinic'
loop_
_space_group_symop_operation_xyz
x,y,z
-x,y,-z
-x,-y,-z
x,-y,z
1/2+x,1/2+y,z
1/2-x,1/2+y,-z
1/2-x,1/2-y,-z
1/2+x,1/2-y,z
loop_
_atom_site_type_symbol
_atom_site_label
_atom_site_fract_x
_atom_site_fract_y
_atom_site_fract_z
Si Si1 0.593838 0.889820 0.489660
Si Si2 0.498223 0.390532 0.353032
Si Si3 0.897866 0.390924 0.272089
Si Si4 0.327513 0.212964 0.898496
Si Si5 0.058056 0.103576 0.109159
Si Si6 0.872607 0.297312 0.348558
Si Si7 0.790936 0.324400 0.978030
Si Si8 0.996713 0.797794 0.731837
O O1 0.500000 0.856197 0.500000
O O2 0.804410 0.877626 0.563931
O O3 0.525692 0.818219 0.432231
O O4 0.541012 0.000000 0.461805
O O5 0.429594 0.500000 0.337127
O O6 0.373273 0.315235 0.335838
O O7 0.492589 0.367842 0.303244
O O8 0.967102 0.500000 0.286972
O O9 0.691634 0.377098 0.191116
O O10 0.916220 0.366938 0.325502
O O11 0.015153 0.314837 0.284867
O O12 0.408885 0.317930 0.914885
O O13 0.257105 0.218187 0.921448
O O14 0.170070 0.179793 0.816708
O O15 0.500324 0.140946 0.950464
O O16 0.858813 0.095307 0.062801
O O17 0.099854 0.000000 0.102791
O O18 0.678743 0.324557 0.301203
O O19 0.750000 0.250000 0.000000
#
# Coordination Sequence:
#
# PCOD8091606 Si02
#       8
#     8   8   8   8   8   8   8   8
#     4  10  19  34  57  80 106 139 179 221 260 308
#     4  10  22  38  54  79 110 138 174 221 265 311
#     4   9  19  33  51  78 107 135 175 220 260 309
#     4   9  18  33  52  74 101 138 173 206 258 316
#     4   9  17  32  53  76 102 131 171 219 256 299
#     4  11  20  33  57  81 104 141 179 216 263 313
#     4   9  17  32  52  72 100 135 168 207 254 305
#     4  10  20  34  54  77 105 139 175 213 262 318
#
# _framework density 18.825043999999998
#
# number of rings (size 3 to 8) (size 9 to 14) (size 15 to 20)
#    0.000    2.375    1.250    1.500    0.000    2.000 
#    0.000    7.500    0.000    0.375    0.000    0.000 
#    0.000    0.000    0.000    0.000    0.000    0.000 
#
# Total GULP energy -396591.430949 kJ/mol
# GULP energy per Si atom -12393.482217 kJ/mol
# Density = 1.878220 g / cm^3
# Si number density = 18.825044 Si / 1000 Ang^3
#
#
#
# Elastic Constant Matrix: (Units=GPa)
#
#
# Indices 1 2 3 4 5 6 
#
# 1 61.4181 3.7741 25.1881 0.0000 -9.9411 0.0000
# 2 3.7741 67.2284 17.3450 0.0000 -7.6674 0.0000
# 3 25.1881 17.3450 90.4001 0.0000 -3.1106 0.0000
# 4 0.0000 0.0000 0.0000 17.7570 0.0000 0.3679
# 5 -9.9411 -7.6674 -3.1106 0.0000 25.9388 0.0000
# 6 0.0000 0.0000 0.0000 0.3679 0.0000 14.2347
#
#
#
# Elastic Compliance Matrix: (Units=1/GPa)
#
#
# Indices 1 2 3 4 5 6 
#
# 1 0.019604 0.001121 -0.005430 0.000000 0.007193 0.000000
# 2 0.001121 0.016202 -0.003255 0.000000 0.004829 0.000000
# 3 -0.005430 -0.003255 0.013149 0.000000 -0.001466 0.000000
# 4 0.000000 0.000000 0.000000 0.056346 0.000000 -0.001456
# 5 0.007193 0.004829 -0.001466 0.000000 0.042561 0.000000
# 6 0.000000 0.000000 0.000000 -0.001456 0.000000 0.070288
#
#
# Mechanical properties :
#
#
# Convention : Reuss Voigt Hill
#
# Bulk Modulus (GPa) = 29.56179 34.62898 32.09538
# Shear Modulus (GPa) = 20.44542 23.10207 21.77375
#
# Velocity S-wave (km/s) = 3.29914 3.50694 3.40463
# Velocity P-wave (km/s) = 5.50000 5.90197 5.70453
#
# Compressibility (1/GPa) = 0.03382745
#
# Stress axis : x y z
#
# Youngs Moduli (GPa) = 51.00979 61.72004 76.05209
#
# Poissons Ratio (x) = -0.06917 0.41295
# Poissons Ratio (y) = -0.05717 0.24754
# Poissons Ratio (z) = 0.27697 0.20089
#
# Static dielectric constant tensor:
#      x y z
#    x 3.439800 0.000000 0.090560 
#    y 0.000000 3.391480 0.000000 
#    z 0.090560 0.000000 3.628400 
# 
# 
# High freq. dielectric constant tensor:
#      x y z
#    x 1.723640 0.000000 -0.003220 
#    y 0.000000 1.714930 0.000000 
#    z -0.003220 0.000000 1.743190 
# 
# From -- ./inp_files/358466.got.cif
#   From: 2010.06.25/outbox.cif.g09.slc.cpg/sg12_180_cif.got.tgz:358466.got - 2010.06.28 00:19:55.
