data_PCOD8091100
_publ_section_title
;
Structure prediction by ZEFSAII (Michael W. Deem and Ramdas Pophale) SiO2 
 PCOD8091100
Probable space group: C 2/M
;
_chemical_formula_sum "Si O2"
_cell_formula_units_Z 56
_cell_length_a 32.193484
_cell_length_b 9.050932
_cell_length_c 20.373779
_cell_angle_alpha 90.000000
_cell_angle_beta 30.137798
_cell_angle_gamma 90.000000
_cell_volume 2980.622510
_symmetry_space_group_name_H-M "C 2/M"
_symmetry_group_IT_number 12
_symmetry_cell_setting 'monoclinic'
loop_
_space_group_symop_operation_xyz
x,y,z
-x,y,-z
-x,-y,-z
x,-y,z
1/2+x,1/2+y,z
1/2-x,1/2+y,-z
1/2-x,1/2-y,-z
1/2+x,1/2-y,z
loop_
_atom_site_type_symbol
_atom_site_label
_atom_site_fract_x
_atom_site_fract_y
_atom_site_fract_z
Si Si1 0.708251 0.671561 0.617492
Si Si2 0.276449 0.174392 0.779851
Si Si3 0.504268 0.324762 0.310244
Si Si4 0.474787 0.323786 0.105566
Si Si5 0.094589 0.824202 0.055770
Si Si6 0.666269 0.172456 0.439091
Si Si7 0.433585 0.172343 0.646161
O O1 0.705040 0.500000 0.605054
O O2 0.750000 0.750000 0.500000
O O3 0.616292 0.735742 0.752557
O O4 0.758262 0.702224 0.615427
O O5 0.306902 0.236824 0.668268
O O6 0.342577 0.216486 0.745255
O O7 0.268729 0.000000 0.783001
O O8 0.187287 0.241204 0.921312
O O9 0.497958 0.500000 0.321443
O O10 0.557270 0.269621 0.175577
O O11 0.412992 0.259843 0.427046
O O12 0.549770 0.267831 0.312660
O O13 0.474984 0.500000 0.103779
O O14 0.538747 0.263189 0.072407
O O15 0.500000 0.260852 0.000000
O O16 0.096457 0.000000 0.050975
O O17 0.642860 0.000000 0.466535
O O18 0.500000 0.213399 0.500000
O O19 0.440166 0.000000 0.655118
#
# Coordination Sequence:
#
# PCOD8091100 Si02
#       7
#     8   8   8   8   8   8   8
#     4  10  20  32  51  78 107 137 173 217 262 310
#     4   9  17  32  54  75  99 134 179 219 251 299
#     4  11  22  34  52  79 112 140 165 211 272 322
#     4   9  16  29  50  76 104 134 174 220 259 297
#     4   9  18  31  48  75 108 138 168 211 266 310
#     4  10  19  34  55  77 100 137 184 219 252 302
#     4  10  19  35  57  79 102 135 178 218 255 303
#
# _framework density 18.788022000000002
#
# number of rings (size 3 to 8) (size 9 to 14) (size 15 to 20)
#    0.000    2.286    1.429    2.143    0.000    6.000 
#    0.000    0.000    0.000    3.000    0.000    0.000 
#    0.000    0.000    0.000    0.000    0.000    0.000 
#
# Total GULP energy -347234.278217 kJ/mol
# GULP energy per Si atom -12401.224222 kJ/mol
# Density = 1.874526 g / cm^3
# Si number density = 18.788022 Si / 1000 Ang^3
#
#
#
# Elastic Constant Matrix: (Units=GPa)
#
#
# Indices 1 2 3 4 5 6 
#
# 1 123.1681 30.4860 74.7926 0.0017 -3.2449 -0.0002
# 2 30.4860 29.5723 30.9942 -0.0057 1.6831 0.0009
# 3 74.7926 30.9942 181.2088 -0.0036 -6.4801 -0.0028
# 4 0.0017 -0.0057 -0.0036 19.3035 0.0041 1.5586
# 5 -3.2449 1.6831 -6.4801 0.0041 38.9415 -0.0005
# 6 -0.0002 0.0009 -0.0028 1.5586 -0.0005 22.1055
#
#
#
# Elastic Compliance Matrix: (Units=1/GPa)
#
#
# Indices 1 2 3 4 5 6 
#
# 1 0.012623 -0.009300 -0.003589 -0.000005 0.000857 0.000000
# 2 -0.009300 0.048398 -0.004569 0.000015 -0.003627 -0.000004
# 3 -0.003589 -0.004569 0.007824 0.000000 0.001200 0.000001
# 4 -0.000005 0.000015 0.000000 0.052101 -0.000007 -0.003674
# 5 0.000857 -0.003627 0.001200 -0.000007 0.026107 0.000001
# 6 0.000000 -0.000004 0.000001 -0.003674 0.000001 0.045497
#
#
# Mechanical properties :
#
#
# Convention : Reuss Voigt Hill
#
# Bulk Modulus (GPa) = 29.47331 67.38832 48.43081
# Shear Modulus (GPa) = 20.94017 29.24853 25.09435
#
# Velocity S-wave (km/s) = 3.34211 3.94987 3.65863
# Velocity P-wave (km/s) = 5.53302 7.53309 6.60915
#
# Compressibility (1/GPa) = 0.03392900
#
# Stress axis : x y z
#
# Youngs Moduli (GPa) = 79.22292 20.66187 127.81046
#
# Poissons Ratio (x) = 0.19216 0.45865
# Poissons Ratio (y) = 0.73680 0.58399
# Poissons Ratio (z) = 0.28429 0.09441
#
# Static dielectric constant tensor:
#      x y z
#    x 3.530460 0.000050 -0.078740 
#    y 0.000050 3.069290 0.000060 
#    z -0.078740 0.000060 3.757000 
# 
# 
# High freq. dielectric constant tensor:
#      x y z
#    x 1.747110 0.000000 -0.003950 
#    y 0.000000 1.675670 0.000000 
#    z -0.003950 0.000000 1.745210 
# 
# From -- ./inp_files/276360.got.cif
#   From: 2010.06.25/outbox.cif.g09.slc.cpg/sg12_139_cif.got.tgz:276360.got - 2010.06.28 00:19:55.
