data_PCOD8091542
_publ_section_title
;
Structure prediction by ZEFSAII (Michael W. Deem and Ramdas Pophale) SiO2 
 PCOD8091542
Probable space group: C 2/M
;
_chemical_formula_sum "Si O2"
_cell_formula_units_Z 48
_cell_length_a 30.284408
_cell_length_b 8.843060
_cell_length_c 14.796572
_cell_angle_alpha 90.000000
_cell_angle_beta 39.920383
_cell_angle_gamma 90.000000
_cell_volume 2542.904473
_symmetry_space_group_name_H-M "C 2/M"
_symmetry_group_IT_number 12
_symmetry_cell_setting 'monoclinic'
loop_
_space_group_symop_operation_xyz
x,y,z
-x,y,-z
-x,-y,-z
x,-y,z
1/2+x,1/2+y,z
1/2-x,1/2+y,-z
1/2-x,1/2-y,-z
1/2+x,1/2-y,z
loop_
_atom_site_type_symbol
_atom_site_label
_atom_site_fract_x
_atom_site_fract_y
_atom_site_fract_z
Si Si1 0.682115 0.678319 0.646361
Si Si2 0.170143 0.820910 0.338932
Si Si3 0.573452 0.178712 0.346683
Si Si4 0.811920 0.823645 0.158020
Si Si5 0.434962 0.322586 0.831442
Si Si6 0.085296 0.179025 0.643598
O O1 0.689988 0.500000 0.625771
O O2 0.750000 0.750000 0.500000
O O3 0.671055 0.729112 0.766788
O O4 0.617184 0.735479 0.688613
O O5 0.134755 0.751966 0.306723
O O6 0.248969 0.770378 0.216862
O O7 0.131557 0.757959 0.488623
O O8 0.166182 0.000000 0.338869
O O9 0.500000 0.235773 0.500000
O O10 0.583607 0.231136 0.228630
O O11 0.579591 0.000000 0.343418
O O12 0.792915 0.000000 0.184291
O O13 0.878658 0.785670 0.994918
O O14 0.438265 0.500000 0.803037
O O15 0.507585 0.261492 0.756059
O O16 0.085546 0.000000 0.639606
#
# Coordination Sequence:
#
# PCOD8091542 Si02
#       6
#     8   8   8   8   8   8
#     4  10  19  34  56  85 115 148 190 233 278 331
#     4  11  21  36  61  86 112 150 193 234 277 340
#     4  11  23  38  59  87 115 145 187 239 289 337
#     4  10  22  37  57  86 120 151 185 237 288 330
#     4  10  21  39  59  83 116 152 190 233 284 340
#     4   9  18  33  57  85 110 145 192 231 272 331
#
# _framework density 18.876052999999999
#
# number of rings (size 3 to 8) (size 9 to 14) (size 15 to 20)
#    0.000    1.833    3.333    1.000    0.000    2.667 
#    0.000    4.167    0.000    0.000    0.000    3.500 
#    0.000    0.000    0.000    0.000    0.000    0.000 
#
# Total GULP energy -297666.072197 kJ/mol
# GULP energy per Si atom -12402.753008 kJ/mol
# Density = 1.883309 g / cm^3
# Si number density = 18.876053 Si / 1000 Ang^3
#
#
#
# Elastic Constant Matrix: (Units=GPa)
#
#
# Indices 1 2 3 4 5 6 
#
# 1 185.9585 40.2991 70.7318 0.0002 -3.8511 0.0000
# 2 40.2991 43.7492 33.7895 0.0002 -0.2017 0.0004
# 3 70.7318 33.7895 126.8513 0.0003 0.1877 0.0002
# 4 0.0002 0.0002 0.0003 26.7519 0.0001 -0.0233
# 5 -3.8511 -0.2017 0.1877 0.0001 35.1470 0.0000
# 6 0.0000 0.0004 0.0002 -0.0233 0.0000 18.3197
#
#
#
# Elastic Compliance Matrix: (Units=1/GPa)
#
#
# Indices 1 2 3 4 5 6 
#
# 1 0.007527 -0.004642 -0.002962 0.000000 0.000814 0.000000
# 2 -0.004642 0.031643 -0.005840 0.000000 -0.000296 -0.000001
# 3 -0.002962 -0.005840 0.011091 0.000000 -0.000417 0.000000
# 4 0.000000 0.000000 0.000000 0.037381 0.000000 0.000048
# 5 0.000814 -0.000296 -0.000417 0.000000 0.028542 0.000000
# 6 0.000000 -0.000001 0.000000 0.000048 0.000000 0.054586
#
#
# Mechanical properties :
#
#
# Convention : Reuss Voigt Hill
#
# Bulk Modulus (GPa) = 42.78414 71.79997 57.29206
# Shear Modulus (GPa) = 24.33719 30.15963 27.24841
#
# Velocity S-wave (km/s) = 3.59460 4.00155 3.80352
# Velocity P-wave (km/s) = 6.32007 7.71168 7.05029
#
# Compressibility (1/GPa) = 0.02337315
#
# Stress axis : x y z
#
# Youngs Moduli (GPa) = 132.85678 31.60297 90.16469
#
# Poissons Ratio (x) = 0.14671 0.26704
# Poissons Ratio (y) = 0.61674 0.52654
# Poissons Ratio (z) = 0.39347 0.18455
#
# Static dielectric constant tensor:
#      x y z
#    x 3.759590 0.000000 0.021950 
#    y 0.000000 3.259110 0.000000 
#    z 0.021950 0.000000 3.433600 
# 
# 
# High freq. dielectric constant tensor:
#      x y z
#    x 1.752650 0.000000 -0.001330 
#    y 0.000000 1.713830 0.000000 
#    z -0.001330 0.000000 1.731420 
# 
# From -- ./inp_files/244742.got.cif
#   From: 2010.06.25/outbox.cif.g09.slc.cpg/sg12_123_cif.got.tgz:244742.got - 2010.06.28 00:19:55.
