data_PCOD8091642
_publ_section_title
;
Structure prediction by ZEFSAII (Michael W. Deem and Ramdas Pophale) SiO2 
 PCOD8091642
Probable space group: C 2/M
;
_chemical_formula_sum "Si O2"
_cell_formula_units_Z 56
_cell_length_a 19.073523
_cell_length_b 9.063084
_cell_length_c 24.852219
_cell_angle_alpha 90.000000
_cell_angle_beta 134.831770
_cell_angle_gamma 90.000000
_cell_volume 3046.691783
_symmetry_space_group_name_H-M "C 2/M"
_symmetry_group_IT_number 12
_symmetry_cell_setting 'monoclinic'
loop_
_space_group_symop_operation_xyz
x,y,z
-x,y,-z
-x,-y,-z
x,-y,z
1/2+x,1/2+y,z
1/2-x,1/2+y,-z
1/2-x,1/2-y,-z
1/2+x,1/2-y,z
loop_
_atom_site_type_symbol
_atom_site_label
_atom_site_fract_x
_atom_site_fract_y
_atom_site_fract_z
Si Si1 0.568122 0.840509 0.813159
Si Si2 0.849760 0.670640 0.709398
Si Si3 0.115841 0.827865 0.068459
Si Si4 0.749378 0.672339 0.943031
Si Si5 0.162589 0.323414 0.420326
Si Si6 0.548572 0.839299 0.677336
Si Si7 0.759435 0.175660 0.760779
O O1 0.464820 0.803308 0.786203
O O2 0.642403 0.705719 0.860469
O O3 0.548348 0.862368 0.740442
O O4 0.608853 0.000000 0.857170
O O5 0.820721 0.500000 0.700766
O O6 0.826657 0.724611 0.636272
O O7 0.788204 0.767025 0.717922
O O8 0.164852 0.736960 0.047340
O O9 0.161941 0.774143 0.150601
O O10 0.139143 0.000000 0.072582
O O11 0.000000 0.794879 0.000000
O O12 0.765514 0.500000 0.957826
O O13 0.750000 0.750000 0.000000
O O14 0.165809 0.500000 0.426654
O O15 0.250000 0.250000 0.500000
O O16 0.058802 0.263077 0.391138
O O17 0.649237 0.756373 0.713256
O O18 0.549062 0.000000 0.649403
O O19 0.755313 0.000000 0.758287
#
# Coordination Sequence:
#
# PCOD8091642 Si02
#       7
#     8   8   8   8   8   8   8
#     4   9  17  36  58  75 101 141 183 227 273 323
#     4   9  20  35  55  82 113 145 178 221 277 328
#     4  10  22  40  59  81 112 148 186 233 285 329
#     4  12  25  38  55  79 108 143 187 234 280 332
#     4   9  18  35  58  82 109 143 180 221 268 321
#     4   8  15  32  57  78 102 141 181 214 264 326
#     4  10  19  34  57  81 110 146 184 226 270 326
#
# _framework density 18.380590999999999
#
# number of rings (size 3 to 8) (size 9 to 14) (size 15 to 20)
#    0.000    2.429    1.429    3.000    2.000    2.000 
#    0.000    3.571    0.000    4.286    0.000    0.000 
#    0.000    0.000    0.000    0.000    0.000    0.000 
#
# Total GULP energy -346916.782235 kJ/mol
# GULP energy per Si atom -12389.885080 kJ/mol
# Density = 1.833876 g / cm^3
# Si number density = 18.380591 Si / 1000 Ang^3
#
#
#
# Elastic Constant Matrix: (Units=GPa)
#
#
# Indices 1 2 3 4 5 6 
#
# 1 148.2671 46.2275 66.9487 0.0000 14.9595 0.0000
# 2 46.2275 57.4119 38.8970 0.0000 2.7896 0.0000
# 3 66.9487 38.8970 109.6652 0.0000 21.6642 0.0000
# 4 0.0000 0.0000 0.0000 23.3979 0.0000 -7.3378
# 5 14.9595 2.7896 21.6642 0.0000 30.1215 0.0000
# 6 0.0000 0.0000 0.0000 -7.3378 0.0000 22.8078
#
#
#
# Elastic Compliance Matrix: (Units=1/GPa)
#
#
# Indices 1 2 3 4 5 6 
#
# 1 0.010516 -0.005619 -0.004077 0.000000 -0.001770 0.000000
# 2 -0.005619 0.026428 -0.007007 0.000000 0.005382 0.000000
# 3 -0.004077 -0.007007 0.015811 0.000000 -0.008698 0.000000
# 4 0.000000 0.000000 0.000000 0.047535 0.000000 0.015293
# 5 -0.001770 0.005382 -0.008698 0.000000 0.039835 0.000000
# 6 0.000000 0.000000 0.000000 0.015293 0.000000 0.048765
#
#
# Mechanical properties :
#
#
# Convention : Reuss Voigt Hill
#
# Bulk Modulus (GPa) = 51.68141 68.83226 60.25683
# Shear Modulus (GPa) = 21.85830 26.15018 24.00424
#
# Velocity S-wave (km/s) = 3.45223 3.77597 3.61772
# Velocity P-wave (km/s) = 6.63844 7.51932 7.09257
#
# Compressibility (1/GPa) = 0.01934932
#
# Stress axis : x y z
#
# Youngs Moduli (GPa) = 95.09163 37.83873 63.24642
#
# Poissons Ratio (x) = 0.21262 0.25787
# Poissons Ratio (y) = 0.53433 0.44314
# Poissons Ratio (z) = 0.38771 0.26512
#
# Static dielectric constant tensor:
#      x y z
#    x 3.518910 0.000000 0.226270 
#    y 0.000000 3.113750 0.000000 
#    z 0.226270 0.000000 3.478660 
# 
# 
# High freq. dielectric constant tensor:
#      x y z
#    x 1.722430 0.000000 0.013360 
#    y 0.000000 1.686390 0.000000 
#    z 0.013360 0.000000 1.704810 
# 
# From -- ./inp_files/342548.got.cif
#   From: 2010.06.25/outbox.cif.g09.slc.cpg/sg12_172_cif.got.tgz:342548.got - 2010.06.28 00:19:55.
