data_PCOD8091491
_publ_section_title
;
Structure prediction by ZEFSAII (Michael W. Deem and Ramdas Pophale) SiO2 
 PCOD8091491
Probable space group: C 2/M
;
_chemical_formula_sum "Si O2"
_cell_formula_units_Z 56
_cell_length_a 20.030219
_cell_length_b 8.836633
_cell_length_c 16.360219
_cell_angle_alpha 90.000000
_cell_angle_beta 91.601043
_cell_angle_gamma 90.000000
_cell_volume 2894.623277
_symmetry_space_group_name_H-M "C 2/M"
_symmetry_group_IT_number 12
_symmetry_cell_setting 'monoclinic'
loop_
_space_group_symop_operation_xyz
x,y,z
-x,y,-z
-x,-y,-z
x,-y,z
1/2+x,1/2+y,z
1/2-x,1/2+y,-z
1/2-x,1/2-y,-z
1/2+x,1/2-y,z
loop_
_atom_site_type_symbol
_atom_site_label
_atom_site_fract_x
_atom_site_fract_y
_atom_site_fract_z
Si Si1 0.014926 0.676052 0.240181
Si Si2 0.924086 0.320216 0.485781
Si Si3 0.377726 0.822709 0.309146
Si Si4 0.440539 0.177575 0.938659
Si Si5 0.800575 0.820608 0.937910
Si Si6 0.120237 0.178430 0.356095
Si Si7 0.262432 0.680168 0.756740
O O1 0.029155 0.500000 0.258787
O O2 0.038292 0.724564 0.151579
O O3 0.052666 0.774263 0.308545
O O4 0.936324 0.711856 0.246275
O O5 0.921148 0.500000 0.489786
O O6 0.896444 0.256548 0.398783
O O7 0.876981 0.252865 0.554611
O O8 0.000000 0.263321 0.500000
O O9 0.309252 0.751024 0.272194
O O10 0.366892 0.000000 0.318894
O O11 0.374981 0.267961 0.962848
O O12 0.425919 0.000000 0.945752
O O13 0.500000 0.227673 0.000000
O O14 0.781540 0.759218 0.847166
O O15 0.796194 0.000000 0.942766
O O16 0.750000 0.750000 0.000000
O O17 0.183082 0.239059 0.306188
O O18 0.122420 0.000000 0.365948
O O19 0.261086 0.500000 0.758673
#
# Coordination Sequence:
#
# PCOD8091491 Si02
#       7
#     8   8   8   8   8   8   8
#     4  10  19  35  60  84 109 147 193 233 273 330
#     4  10  19  34  56  83 109 141 191 238 279 329
#     4   9  18  34  57  81 108 146 192 234 276 333
#     4  10  22  38  61  92 119 148 194 243 289 346
#     4  11  23  40  61  85 119 157 195 238 291 348
#     4  11  21  35  56  82 115 149 183 225 285 343
#     4   9  20  37  57  81 112 151 187 227 283 344
#
# _framework density 19.346212999999999
#
# number of rings (size 3 to 8) (size 9 to 14) (size 15 to 20)
#    0.000    2.000    2.857    0.857    2.000    1.143 
#    0.000    0.000    0.000    4.286    0.000    0.000 
#    0.000    0.000    0.000    0.000    0.000    0.000 
#
# Total GULP energy -347261.716359 kJ/mol
# GULP energy per Si atom -12402.204156 kJ/mol
# Density = 1.930218 g / cm^3
# Si number density = 19.346213 Si / 1000 Ang^3
#
#
#
# Elastic Constant Matrix: (Units=GPa)
#
#
# Indices 1 2 3 4 5 6 
#
# 1 152.8434 28.1798 66.3378 0.0000 -3.6814 0.0000
# 2 28.1798 32.3014 29.0119 0.0000 -3.3020 0.0000
# 3 66.3378 29.0119 122.0840 0.0000 -12.8329 0.0000
# 4 0.0000 0.0000 0.0000 23.9157 0.0000 -6.4915
# 5 -3.6814 -3.3020 -12.8329 0.0000 41.5441 0.0000
# 6 0.0000 0.0000 0.0000 -6.4915 0.0000 24.4780
#
#
#
# Elastic Compliance Matrix: (Units=1/GPa)
#
#
# Indices 1 2 3 4 5 6 
#
# 1 0.009055 -0.004432 -0.003948 0.000000 -0.000769 0.000000
# 2 -0.004432 0.041531 -0.007395 0.000000 0.000624 0.000000
# 3 -0.003948 -0.007395 0.012398 0.000000 0.002892 0.000000
# 4 0.000000 0.000000 0.000000 0.045057 0.000000 0.011949
# 5 -0.000769 0.000624 0.002892 0.000000 0.024946 0.000000
# 6 0.000000 0.000000 0.000000 0.011949 0.000000 0.044022
#
#
# Mechanical properties :
#
#
# Convention : Reuss Voigt Hill
#
# Bulk Modulus (GPa) = 31.81405 61.58754 46.70079
# Shear Modulus (GPa) = 22.82727 30.23417 26.53072
#
# Velocity S-wave (km/s) = 3.43874 3.95751 3.70721
# Velocity P-wave (km/s) = 5.67864 7.26540 6.52047
#
# Compressibility (1/GPa) = 0.03143265
#
# Stress axis : x y z
#
# Youngs Moduli (GPa) = 110.43976 24.07823 80.66056
#
# Poissons Ratio (x) = 0.10672 0.31843
# Poissons Ratio (y) = 0.48950 0.59652
# Poissons Ratio (z) = 0.43599 0.17807
#
# Static dielectric constant tensor:
#      x y z
#    x 3.722980 0.000000 0.021330 
#    y 0.000000 3.169740 0.000000 
#    z 0.021330 0.000000 3.767290 
# 
# 
# High freq. dielectric constant tensor:
#      x y z
#    x 1.761470 0.000000 -0.006050 
#    y 0.000000 1.717220 0.000000 
#    z -0.006050 0.000000 1.765560 
# 
# From -- ./inp_files/231047.got.cif
#   From: 2010.06.25/outbox.cif.g09.slc.cpg/sg12_116_cif.got.tgz:231047.got - 2010.06.28 00:19:55.
