data_PCOD8091999
_publ_section_title
;
Structure prediction by ZEFSAII (Michael W. Deem and Ramdas Pophale) SiO2 
 PCOD8091999
Probable space group: C 2/M
;
_chemical_formula_sum "Si O2"
_cell_formula_units_Z 48
_cell_length_a 10.292899
_cell_length_b 14.150013
_cell_length_c 29.924647
_cell_angle_alpha 90.000000
_cell_angle_beta 33.976621
_cell_angle_gamma 90.000000
_cell_volume 2435.692156
_symmetry_space_group_name_H-M "C 2/M"
_symmetry_group_IT_number 12
_symmetry_cell_setting 'monoclinic'
loop_
_space_group_symop_operation_xyz
x,y,z
-x,y,-z
-x,-y,-z
x,-y,z
1/2+x,1/2+y,z
1/2-x,1/2+y,-z
1/2-x,1/2-y,-z
1/2+x,1/2-y,z
loop_
_atom_site_type_symbol
_atom_site_label
_atom_site_fract_x
_atom_site_fract_y
_atom_site_fract_z
Si Si1 0.977449 0.785281 0.879117
Si Si2 0.334127 0.601341 0.840410
Si Si3 0.186282 0.394316 0.031063
Si Si4 0.450831 0.268377 0.627130
Si Si5 0.316810 0.388934 0.512691
Si Si6 0.962722 0.785788 0.727409
O O1 0.942739 0.815553 0.838258
O O2 0.838634 0.685331 0.923404
O O3 0.253984 0.778495 0.806929
O O4 0.885354 0.864097 0.939630
O O5 0.426755 0.500000 0.830525
O O6 0.423937 0.614385 0.763780
O O7 0.057283 0.604041 0.925411
O O8 0.242507 0.500000 0.034081
O O9 0.591136 0.348998 0.560646
O O10 0.578840 0.166684 0.591188
O O11 0.433074 0.303127 0.683179
O O12 0.205844 0.260610 0.671756
O O13 0.500000 0.369707 0.500000
O O14 0.261594 0.500000 0.523662
#
# Coordination Sequence:
#
# PCOD8091999 Si02
#       6
#     8   8   8   8   8   8
#     4  10  19  34  58  86 121 159 207 252 311 355
#     4  10  20  35  60  89 119 159 211 258 301 359
#     4   9  19  35  57  85 117 160 213 261 302 359
#     4  11  22  42  64  91 129 159 195 252 299 360
#     4  10  22  41  68  95 121 160 201 242 300 364
#     4  11  22  38  60  90 125 165 196 245 311 355
#
# _framework density 19.706924999999998
#
# number of rings (size 3 to 8) (size 9 to 14) (size 15 to 20)
#    0.000    1.833    3.333    1.000    0.000    2.667 
#    0.000    2.500    0.000   23.000    0.000    0.000 
#    0.000    0.000    0.000    0.000    0.000    0.000 
#
# Total GULP energy -297451.583013 kJ/mol
# GULP energy per Si atom -12393.815959 kJ/mol
# Density = 1.966207 g / cm^3
# Si number density = 19.706925 Si / 1000 Ang^3
#
#
#
# Elastic Constant Matrix: (Units=GPa)
#
#
# Indices 1 2 3 4 5 6 
#
# 1 86.4316 36.7596 33.2013 -0.0023 13.2385 -0.0018
# 2 36.7596 142.4878 40.0507 -0.0047 9.9264 -0.0009
# 3 33.2013 40.0507 101.7965 -0.0168 5.2274 -0.0006
# 4 -0.0023 -0.0047 -0.0168 13.4226 0.0008 4.9757
# 5 13.2385 9.9264 5.2274 0.0008 32.5660 0.0020
# 6 -0.0018 -0.0009 -0.0006 4.9757 0.0020 25.1516
#
#
#
# Elastic Compliance Matrix: (Units=1/GPa)
#
#
# Indices 1 2 3 4 5 6 
#
# 1 0.014708 -0.002461 -0.003590 -0.000003 -0.004653 0.000002
# 2 -0.002461 0.008424 -0.002451 -0.000001 -0.001174 0.000000
# 3 -0.003590 -0.002451 0.011944 0.000015 0.000289 -0.000003
# 4 -0.000003 -0.000001 0.000015 0.080397 -0.000002 -0.015905
# 5 -0.004653 -0.001174 0.000289 -0.000002 0.032910 -0.000003
# 6 0.000002 0.000000 -0.000003 -0.015905 -0.000003 0.042905
#
#
# Mechanical properties :
#
#
# Convention : Reuss Voigt Hill
#
# Bulk Modulus (GPa) = 55.33661 61.19325 58.26493
# Shear Modulus (GPa) = 23.33000 28.94167 26.13584
#
# Velocity S-wave (km/s) = 3.44444 3.83639 3.64569
# Velocity P-wave (km/s) = 6.63021 7.12341 6.88123
#
# Compressibility (1/GPa) = 0.01807122
#
# Stress axis : x y z
#
# Youngs Moduli (GPa) = 67.98899 118.70996 83.72461
#
# Poissons Ratio (x) = 0.29219 0.30056
# Poissons Ratio (y) = 0.16734 0.20523
# Poissons Ratio (z) = 0.24407 0.29099
#
# Static dielectric constant tensor:
#      x y z
#    x 3.499450 0.000000 0.016550 
#    y 0.000000 3.669420 0.000000 
#    z 0.016550 0.000000 3.733360 
# 
# 
# High freq. dielectric constant tensor:
#      x y z
#    x 1.756090 0.000000 0.002060 
#    y 0.000000 1.761060 0.000000 
#    z 0.002060 0.000000 1.780420 
# 
# From -- ./inp_files/356290.got.cif
#   From: 2010.06.25/outbox.cif.g09.slc.cpg/sg12_179_cif.got.tgz:356290.got - 2010.06.28 00:19:55.
