data_PCOD8091706
_publ_section_title
;
Structure prediction by ZEFSAII (Michael W. Deem and Ramdas Pophale) SiO2 
 PCOD8091706
Probable space group: C 2/M
;
_chemical_formula_sum "Si O2"
_cell_formula_units_Z 64
_cell_length_a 21.859475
_cell_length_b 16.759814
_cell_length_c 11.444292
_cell_angle_alpha 90.000000
_cell_angle_beta 125.800329
_cell_angle_gamma 90.000000
_cell_volume 3400.565009
_symmetry_space_group_name_H-M "C 2/M"
_symmetry_group_IT_number 12
_symmetry_cell_setting 'monoclinic'
loop_
_space_group_symop_operation_xyz
x,y,z
-x,y,-z
-x,-y,-z
x,-y,z
1/2+x,1/2+y,z
1/2-x,1/2+y,-z
1/2-x,1/2-y,-z
1/2+x,1/2-y,z
loop_
_atom_site_type_symbol
_atom_site_label
_atom_site_fract_x
_atom_site_fract_y
_atom_site_fract_z
Si Si1 0.204761 0.687294 0.303603
Si Si2 0.443943 0.089033 0.846189
Si Si3 0.567536 0.239855 0.505123
Si Si4 0.347842 0.673722 0.596008
Si Si5 0.015179 0.589090 0.676467
Si Si6 0.181758 0.211350 0.061518
Si Si7 0.155314 0.693828 0.812052
Si Si8 0.912246 0.908143 0.884668
O O1 0.135687 0.630741 0.256484
O O2 0.282597 0.643405 0.432618
O O3 0.194510 0.767949 0.363828
O O4 0.204524 0.712401 0.167402
O O5 0.489948 0.088171 0.780196
O O6 0.426419 0.000000 0.871936
O O7 0.500000 0.133500 0.000000
O O8 0.500000 0.284772 0.500000
O O9 0.586054 0.284093 0.405063
O O10 0.540813 0.148547 0.453812
O O11 0.639429 0.237740 0.670406
O O12 0.386496 0.606564 0.720853
O O13 0.008945 0.500000 0.616109
O O14 0.102013 0.617256 0.767067
O O15 0.257275 0.168207 0.096651
O O16 0.131817 0.146785 0.072750
O O17 0.137759 0.246037 0.899975
O O18 0.895229 0.000000 0.895434
O O19 0.000000 0.888018 0.000000
#
# Coordination Sequence:
#
# PCOD8091706 Si02
#       8
#     8   8   8   8   8   8   8   8
#     4  10  19  34  57  82 114 146 195 236 280 342
#     4  10  20  33  52  81 118 154 188 229 283 346
#     4  10  20  34  56  83 115 150 192 230 277 346
#     4  10  20  36  58  83 111 145 189 246 291 338
#     4  10  21  35  53  83 120 153 186 226 277 344
#     4  10  21  37  59  84 113 152 193 239 286 338
#     4  10  21  35  55  85 118 151 195 230 274 347
#     4  10  24  41  61  86 111 144 197 255 304 348
#
# _framework density 18.820401
#
# number of rings (size 3 to 8) (size 9 to 14) (size 15 to 20)
#    0.000    2.000    2.500    0.750    3.500    5.250 
#    0.000    1.250    0.000    1.875    0.000    0.000 
#    0.000    0.000    0.000    0.000    0.000    0.000 
#
# Total GULP energy -396571.707945 kJ/mol
# GULP energy per Si atom -12392.865873 kJ/mol
# Density = 1.877757 g / cm^3
# Si number density = 18.820401 Si / 1000 Ang^3
#
#
#
# Elastic Constant Matrix: (Units=GPa)
#
#
# Indices 1 2 3 4 5 6 
#
# 1 88.1743 35.8119 28.9791 0.0000 0.2357 0.0000
# 2 35.8119 59.0893 34.6016 0.0000 -1.8720 0.0000
# 3 28.9791 34.6016 113.5870 0.0000 -0.0135 0.0000
# 4 0.0000 0.0000 0.0000 100.2780 0.0000 165.7111
# 5 0.2357 -1.8720 -0.0135 0.0000 34.1959 0.0000
# 6 0.0000 0.0000 0.0000 165.7111 0.0000 352.7271
#
#
#
# Elastic Compliance Matrix: (Units=1/GPa)
#
#
# Indices 1 2 3 4 5 6 
#
# 1 0.015213 -0.008477 -0.001299 0.000000 -0.000569 0.000000
# 2 -0.008477 0.025365 -0.005564 0.000000 0.001445 0.000000
# 3 -0.001299 -0.005564 0.010830 0.000000 -0.000291 0.000000
# 4 0.000000 0.000000 0.000000 0.044589 0.000000 -0.020948
# 5 -0.000569 0.001445 -0.000291 0.000000 0.029326 0.000000
# 6 0.000000 0.000000 0.000000 -0.020948 0.000000 0.012676
#
#
# Mechanical properties :
#
#
# Convention : Reuss Voigt Hill
#
# Bulk Modulus (GPa) = 48.24441 51.07067 49.65754
# Shear Modulus (GPa) = 28.47558 108.20407 68.33983
#
# Velocity S-wave (km/s) = 3.89397 7.59064 6.03245
# Velocity P-wave (km/s) = 6.77548 10.19894 8.65810
#
# Compressibility (1/GPa) = 0.02072779
#
# Stress axis : x y z
#
# Youngs Moduli (GPa) = 65.73501 39.42400 92.33541
#
# Poissons Ratio (x) = 0.33421 0.11993
# Poissons Ratio (y) = 0.55725 0.51375
# Poissons Ratio (z) = 0.08538 0.21935
#
# Static dielectric constant tensor:
#      x y z
#    x 3.505200 0.000000 -0.063850 
#    y 0.000000 3.205530 0.000000 
#    z -0.063850 0.000000 3.830360 
# 
# 
# High freq. dielectric constant tensor:
#      x y z
#    x 1.742520 0.000000 -0.004970 
#    y 0.000000 1.688440 0.000000 
#    z -0.004970 0.000000 1.752260 
# 
# From -- ./inp_files/168473.got.cif
#   From: 2010.06.25/outbox.cif.g09.slc.cpg/sg12_85_cif.got.tgz:168473.got - 2010.06.28 00:19:55.
