data_PCOD8091056
_publ_section_title
;
Structure prediction by ZEFSAII (Michael W. Deem and Ramdas Pophale) SiO2 
 PCOD8091056
Probable space group: C 2/M
;
_chemical_formula_sum "Si O2"
_cell_formula_units_Z 48
_cell_length_a 25.786831
_cell_length_b 12.668716
_cell_length_c 7.618944
_cell_angle_alpha 90.000000
_cell_angle_beta 115.981164
_cell_angle_gamma 90.000000
_cell_volume 2237.459328
_symmetry_space_group_name_H-M "C 2/M"
_symmetry_group_IT_number 12
_symmetry_cell_setting 'monoclinic'
loop_
_space_group_symop_operation_xyz
x,y,z
-x,y,-z
-x,-y,-z
x,-y,z
1/2+x,1/2+y,z
1/2-x,1/2+y,-z
1/2-x,1/2-y,-z
1/2+x,1/2-y,z
loop_
_atom_site_type_symbol
_atom_site_label
_atom_site_fract_x
_atom_site_fract_y
_atom_site_fract_z
Si Si1 0.946850 0.618295 0.151473
Si Si2 0.435194 0.292002 0.422643
Si Si3 0.736869 0.220300 0.212085
Si Si4 0.195396 0.613463 0.499074
Si Si5 0.571680 0.163716 0.263235
Si Si6 0.176080 0.880157 0.907156
O O1 0.918915 0.500000 0.117295
O O2 0.930208 0.684161 0.299773
O O3 0.015536 0.600547 0.242752
O O4 0.928088 0.682526 0.947423
O O5 0.500000 0.341057 0.500000
O O6 0.425604 0.271459 0.616959
O O7 0.384907 0.370826 0.285401
O O8 0.787342 0.304367 0.326414
O O9 0.717103 0.153711 0.345614
O O10 0.765934 0.138260 0.121818
O O11 0.681264 0.288176 0.062696
O O12 0.224255 0.500000 0.580685
O O13 0.127223 0.595990 0.395512
O O14 0.178787 0.000000 0.985148
#
# Coordination Sequence:
#
# PCOD8091056 Si02
#       6
#     8   8   8   8   8   8
#     4  10  20  33  54  85 123 158 188 236 302 353
#     4  10  22  38  58  87 117 156 203 247 288 352
#     4  10  23  38  58  88 115 147 197 242 297 358
#     4  11  20  35  59  86 116 150 188 237 296 359
#     4  10  19  34  54  83 119 153 191 237 288 359
#     4  11  22  42  61  81 117 156 197 250 298 344
#
# _framework density 21.452902999999999
#
# number of rings (size 3 to 8) (size 9 to 14) (size 15 to 20)
#    0.000    1.667    1.667    4.000    0.000    4.667 
#    0.000    0.833    0.000    0.000    0.000    7.000 
#    0.000    0.000    0.000    0.000    0.000    0.000 
#
# Total GULP energy -297340.418522 kJ/mol
# GULP energy per Si atom -12389.184105 kJ/mol
# Density = 2.140408 g / cm^3
# Si number density = 21.452903 Si / 1000 Ang^3
#
#
#
# Elastic Constant Matrix: (Units=GPa)
#
#
# Indices 1 2 3 4 5 6 
#
# 1 53.1373 18.8569 16.1331 0.0000 13.6480 0.0000
# 2 18.8569 63.0950 -2.1431 0.0000 7.2758 0.0000
# 3 16.1331 -2.1431 69.9156 0.0000 10.4947 0.0000
# 4 0.0000 0.0000 0.0000 3.2336 0.0000 12.5776
# 5 13.6480 7.2758 10.4947 0.0000 38.7377 0.0000
# 6 0.0000 0.0000 0.0000 12.5776 0.0000 11.0727
#
#
#
# Elastic Compliance Matrix: (Units=1/GPa)
#
#
# Indices 1 2 3 4 5 6 
#
# 1 0.024218 -0.006719 -0.004902 0.000000 -0.005942 0.000000
# 2 -0.006719 0.018131 0.002358 0.000000 -0.001677 0.000000
# 3 -0.004902 0.002358 0.015963 0.000000 -0.003040 0.000000
# 4 0.000000 0.000000 0.000000 -0.090471 0.000000 0.102766
# 5 -0.005942 -0.001677 -0.003040 0.000000 0.029047 0.000000
# 6 0.000000 0.000000 0.000000 0.102766 0.000000 -0.026421
#
#
# Mechanical properties :
#
#
# Convention : Reuss Voigt Hill
#
# Bulk Modulus (GPa) = 25.13547 27.98242 26.55894
# Shear Modulus (GPa) = 2215.85993 20.82887 1118.34440
#
# Velocity S-wave (km/s) = 32.17355 3.11933 22.85681
# Velocity P-wave (km/s) = 37.30851 5.10348 26.62678
#
# Compressibility (1/GPa) = 0.03978441
#
# Stress axis : x y z
#
# Youngs Moduli (GPa) = 41.29100 55.15496 62.64549
#
# Poissons Ratio (x) = 0.37060 0.30711
# Poissons Ratio (y) = 0.27745 -0.14771
# Poissons Ratio (z) = 0.20243 -0.13005
#
# Static dielectric constant tensor:
#      x y z
#    x 3.749100 0.000000 0.121590 
#    y 0.000000 3.506230 0.000000 
#    z 0.121590 0.000000 4.228300 
# 
# 
# High freq. dielectric constant tensor:
#      x y z
#    x 1.838030 0.000000 0.008390 
#    y 0.000000 1.807800 0.000000 
#    z 0.008390 0.000000 1.854610 
# 
# From -- ./inp_files/102807.got.cif
#   From: 2010.06.25/outbox.cif.g09.slc.cpg/sg12_52_cif.got.tgz:102807.got - 2010.06.28 00:19:55.
