data_PCOD8091950
_publ_section_title
;
Structure prediction by ZEFSAII (Michael W. Deem and Ramdas Pophale) SiO2 
 PCOD8091950
Probable space group: C 2/M
;
_chemical_formula_sum "Si O2"
_cell_formula_units_Z 48
_cell_length_a 23.228063
_cell_length_b 9.055079
_cell_length_c 23.285024
_cell_angle_alpha 90.000000
_cell_angle_beta 30.012512
_cell_angle_gamma 90.000000
_cell_volume 2449.718366
_symmetry_space_group_name_H-M "C 2/M"
_symmetry_group_IT_number 12
_symmetry_cell_setting 'monoclinic'
loop_
_space_group_symop_operation_xyz
x,y,z
-x,y,-z
-x,-y,-z
x,-y,z
1/2+x,1/2+y,z
1/2-x,1/2+y,-z
1/2-x,1/2-y,-z
1/2+x,1/2-y,z
loop_
_atom_site_type_symbol
_atom_site_label
_atom_site_fract_x
_atom_site_fract_y
_atom_site_fract_z
Si Si1 0.058308 0.327815 0.068105
Si Si2 0.182281 0.162969 0.605247
Si Si3 0.804428 0.171329 0.819739
Si Si4 0.919251 0.167134 0.833461
Si Si5 0.674257 0.676373 0.740322
Si Si6 0.877894 0.825172 0.633110
O O1 0.027283 0.500000 0.099756
O O2 0.096497 0.269539 0.097578
O O3 0.950210 0.241478 0.133991
O O4 0.167369 0.300864 0.931815
O O5 0.250000 0.250000 0.500000
O O6 0.197344 0.231917 0.655531
O O7 0.050625 0.162087 0.700373
O O8 0.234795 0.000000 0.560857
O O9 0.851315 0.242336 0.838615
O O10 0.871572 0.228224 0.705012
O O11 0.832272 0.000000 0.802095
O O12 0.876983 0.000000 0.884660
O O13 0.667262 0.500000 0.750914
O O14 0.776002 0.739192 0.690318
O O15 0.000000 0.779262 0.500000
O O16 0.856652 0.000000 0.645625
#
# Coordination Sequence:
#
# PCOD8091950 Si02
#       6
#     8   8   8   8   8   8
#     4  10  19  34  58  85 113 144 185 231 275 329
#     4   9  19  32  52  78 106 143 181 223 272 322
#     4   9  19  35  56  84 115 147 183 229 279 324
#     4   9  18  34  54  80 117 148 176 224 282 331
#     4  10  22  40  57  78 113 148 182 231 282 324
#     4  10  22  39  61  84 108 146 192 230 270 329
#
# _framework density 19.594089
#
# number of rings (size 3 to 8) (size 9 to 14) (size 15 to 20)
#    0.000    2.500    0.000    2.500    2.333    4.333 
#    0.000    6.667    0.000    0.000    0.000    0.000 
#    0.000    0.000    0.000    0.000    0.000    0.000 
#
# Total GULP energy -297499.780663 kJ/mol
# GULP energy per Si atom -12395.824194 kJ/mol
# Density = 1.954949 g / cm^3
# Si number density = 19.594089 Si / 1000 Ang^3
#
#
#
# Elastic Constant Matrix: (Units=GPa)
#
#
# Indices 1 2 3 4 5 6 
#
# 1 105.2639 29.3851 45.9256 0.0000 -18.4363 0.0000
# 2 29.3851 61.4079 35.6671 0.0021 -2.2957 -0.0011
# 3 45.9256 35.6671 113.8538 0.0005 5.2517 -0.0003
# 4 0.0000 0.0021 0.0005 21.7570 -0.0007 -4.4646
# 5 -18.4363 -2.2957 5.2517 -0.0007 20.1520 0.0003
# 6 0.0000 -0.0011 -0.0003 -4.4646 0.0003 30.5233
#
#
#
# Elastic Compliance Matrix: (Units=1/GPa)
#
#
# Indices 1 2 3 4 5 6 
#
# 1 0.015847 -0.003502 -0.006018 0.000001 0.015667 0.000000
# 2 -0.003502 0.020995 -0.005189 -0.000002 0.000540 0.000000
# 3 -0.006018 -0.005189 0.013277 0.000000 -0.009557 0.000000
# 4 0.000001 -0.000002 0.000000 0.047384 0.000002 0.006931
# 5 0.015667 0.000540 -0.009557 0.000002 0.066508 0.000000
# 6 0.000000 0.000000 0.000000 0.006931 0.000000 0.033776
#
#
# Mechanical properties :
#
#
# Convention : Reuss Voigt Hill
#
# Bulk Modulus (GPa) = 48.30844 55.83123 52.06984
# Shear Modulus (GPa) = 21.35787 25.78966 23.57376
#
# Velocity S-wave (km/s) = 3.30512 3.63188 3.47234
# Velocity P-wave (km/s) = 6.26683 6.79288 6.53515
#
# Compressibility (1/GPa) = 0.02070032
#
# Stress axis : x y z
#
# Youngs Moduli (GPa) = 63.10286 47.63121 75.31773
#
# Poissons Ratio (x) = 0.16681 0.45325
# Poissons Ratio (y) = 0.22100 0.39084
# Poissons Ratio (z) = 0.37974 0.24717
#
# Static dielectric constant tensor:
#      x y z
#    x 4.335820 0.000000 -0.146410 
#    y 0.000000 3.465900 0.000000 
#    z -0.146410 0.000000 3.697420 
# 
# 
# High freq. dielectric constant tensor:
#      x y z
#    x 1.763790 0.000000 -0.003630 
#    y 0.000000 1.743850 0.000000 
#    z -0.003630 0.000000 1.768620 
# 
# From -- ./inp_files/348764.got.cif
#   From: 2010.06.25/outbox.cif.g09.slc.cpg/sg12_175_cif.got.tgz:348764.got - 2010.06.28 00:19:55.
