data_PCOD8091543
_publ_section_title
;
Structure prediction by ZEFSAII (Michael W. Deem and Ramdas Pophale) SiO2 
 PCOD8091543
Probable space group: C 2/M
;
_chemical_formula_sum "Si O2"
_cell_formula_units_Z 64
_cell_length_a 24.289405
_cell_length_b 11.231772
_cell_length_c 11.898865
_cell_angle_alpha 90.000000
_cell_angle_beta 96.807451
_cell_angle_gamma 90.000000
_cell_volume 3223.280621
_symmetry_space_group_name_H-M "C 2/M"
_symmetry_group_IT_number 12
_symmetry_cell_setting 'monoclinic'
loop_
_space_group_symop_operation_xyz
x,y,z
-x,y,-z
-x,-y,-z
x,-y,z
1/2+x,1/2+y,z
1/2-x,1/2+y,-z
1/2-x,1/2-y,-z
1/2+x,1/2-y,z
loop_
_atom_site_type_symbol
_atom_site_label
_atom_site_fract_x
_atom_site_fract_y
_atom_site_fract_z
Si Si1 0.926527 0.138471 0.771141
Si Si2 0.768170 0.872082 0.872029
Si Si3 0.061553 0.635664 0.061970
Si Si4 0.136606 0.140942 0.735106
Si Si5 0.732851 0.372984 0.605091
Si Si6 0.309277 0.670654 0.642118
Si Si7 0.160656 0.280490 0.951460
Si Si8 0.477820 0.638623 0.379720
O O1 0.924944 0.247375 0.859331
O O2 0.874244 0.152857 0.676512
O O3 0.980801 0.160748 0.712240
O O4 0.926466 0.000000 0.820475
O O5 0.774276 0.876301 0.739301
O O6 0.704119 0.857593 0.890599
O O7 0.787619 0.000000 0.924213
O O8 0.808248 0.771019 0.931292
O O9 0.065583 0.500000 0.116848
O O10 0.108080 0.640108 0.975481
O O11 0.000000 0.653461 0.000000
O O12 0.188423 0.192388 0.675966
O O13 0.140052 0.174382 0.866574
O O14 0.080769 0.197098 0.668442
O O15 0.134621 0.000000 0.725217
O O16 0.746586 0.500000 0.662544
O O17 0.707767 0.396223 0.475432
O O18 0.791739 0.307191 0.617021
O O19 0.500000 0.699332 0.500000
O O20 0.469066 0.500000 0.400484
#
# Coordination Sequence:
#
# PCOD8091543 Si02
#       8
#     8   8   8   8   8   8   8   8
#     4  11  22  38  62  91 118 153 199 248 296 348
#     4  11  22  37  57  83 116 150 191 246 295 344
#     4  11  25  43  61  84 119 160 200 243 296 354
#     4  10  19  34  56  85 117 148 189 244 295 346
#     4  10  21  36  57  85 121 157 193 238 296 357
#     4  11  21  37  57  85 119 154 195 238 293 350
#     4  11  22  38  57  85 111 155 197 238 289 356
#     4   9  18  33  57  88 118 149 189 242 301 350
#
# _framework density 19.855547000000001
#
# number of rings (size 3 to 8) (size 9 to 14) (size 15 to 20)
#    0.000    1.500    2.500    3.375    0.000    3.250 
#    0.000    0.000    0.000    0.375    0.000    0.000 
#    0.000    0.000    0.000    0.000    0.000    0.000 
#
# Total GULP energy -396449.711194 kJ/mol
# GULP energy per Si atom -12389.053475 kJ/mol
# Density = 1.981035 g / cm^3
# Si number density = 19.855547 Si / 1000 Ang^3
#
#
#
# Elastic Constant Matrix: (Units=GPa)
#
#
# Indices 1 2 3 4 5 6 
#
# 1 92.1210 27.7701 4.3011 0.0000 -0.5277 0.0000
# 2 27.7701 94.2768 22.7727 0.0000 1.3409 0.0000
# 3 4.3011 22.7727 71.1730 0.0000 -3.4260 0.0000
# 4 0.0000 0.0000 0.0000 4.6241 0.0000 -7.1474
# 5 -0.5277 1.3409 -3.4260 0.0000 26.0611 0.0000
# 6 0.0000 0.0000 0.0000 -7.1474 0.0000 5.7228
#
#
#
# Elastic Compliance Matrix: (Units=1/GPa)
#
#
# Indices 1 2 3 4 5 6 
#
# 1 0.011932 -0.003634 0.000465 0.000000 0.000490 0.000000
# 2 -0.003634 0.012633 -0.003882 0.000000 -0.001234 0.000000
# 3 0.000465 -0.003882 0.015372 0.000000 0.002230 0.000000
# 4 0.000000 0.000000 0.000000 -0.232419 0.000000 -0.290276
# 5 0.000490 -0.001234 0.002230 0.000000 0.038738 0.000000
# 6 0.000000 0.000000 0.000000 -0.290276 0.000000 -0.187796
#
#
# Mechanical properties :
#
#
# Convention : Reuss Voigt Hill
#
# Bulk Modulus (GPa) = 38.70711 40.80650 39.75681
# Shear Modulus (GPa) = -15.68241 20.79674 2.55716
#
# Velocity S-wave (km/s) = -2.81343 3.23987 1.13608
# Velocity P-wave (km/s) = 2.99713 5.88149 4.66770
#
# Compressibility (1/GPa) = 0.02583504
#
# Stress axis : x y z
#
# Youngs Moduli (GPa) = 83.80934 79.15971 65.05540
#
# Poissons Ratio (x) = 0.28767 -0.03027
# Poissons Ratio (y) = 0.30456 0.25253
# Poissons Ratio (z) = -0.03899 0.30728
#
# Static dielectric constant tensor:
#      x y z
#    x 3.851260 0.000000 -0.037900 
#    y 0.000000 3.582950 0.000000 
#    z -0.037900 0.000000 3.532080 
# 
# 
# High freq. dielectric constant tensor:
#      x y z
#    x 1.788100 0.000000 -0.005430 
#    y 0.000000 1.758120 0.000000 
#    z -0.005430 0.000000 1.768310 
# 
# From -- ./inp_files/174686.got.cif
#   From: 2010.06.25/outbox.cif.g09.slc.cpg/sg12_88_cif.got.tgz:174686.got - 2010.06.28 00:19:55.
