data_PCOD8091989
_publ_section_title
;
Structure prediction by ZEFSAII (Michael W. Deem and Ramdas Pophale) SiO2 
 PCOD8091989
Probable space group: C 2/M
;
_chemical_formula_sum "Si O2"
_cell_formula_units_Z 64
_cell_length_a 32.460513
_cell_length_b 8.704104
_cell_length_c 19.958046
_cell_angle_alpha 90.000000
_cell_angle_beta 142.707744
_cell_angle_gamma 90.000000
_cell_volume 3416.525899
_symmetry_space_group_name_H-M "C 2/M"
_symmetry_group_IT_number 12
_symmetry_cell_setting 'monoclinic'
loop_
_space_group_symop_operation_xyz
x,y,z
-x,y,-z
-x,-y,-z
x,-y,z
1/2+x,1/2+y,z
1/2-x,1/2+y,-z
1/2-x,1/2-y,-z
1/2+x,1/2-y,z
loop_
_atom_site_type_symbol
_atom_site_label
_atom_site_fract_x
_atom_site_fract_y
_atom_site_fract_z
Si Si1 0.818538 0.818960 0.849974
Si Si2 0.072590 0.680370 0.621418
Si Si3 0.411221 0.323051 0.589655
Si Si4 0.572183 0.318750 0.117530
Si Si5 0.827296 0.820631 0.353751
Si Si6 0.094694 0.319394 0.924920
Si Si7 0.442120 0.178927 0.762679
Si Si8 0.562750 0.320820 0.748517
O O1 0.869808 0.763904 0.858299
O O2 0.750831 0.722948 0.751546
O O3 0.803672 0.000000 0.827997
O O4 0.849748 0.775418 0.962006
O O5 0.070928 0.500000 0.633265
O O6 0.131035 0.719478 0.644621
O O7 0.090949 0.766912 0.713694
O O8 0.000000 0.738989 0.500000
O O9 0.409624 0.500000 0.608743
O O10 0.352362 0.281107 0.461100
O O11 0.399346 0.225337 0.641584
O O12 0.482867 0.280855 0.648018
O O13 0.567556 0.500000 0.113089
O O14 0.590272 0.260355 0.214896
O O15 0.500000 0.248439 0.000000
O O16 0.838560 0.000000 0.352350
O O17 0.107115 0.500000 0.949409
O O18 0.102544 0.272181 0.857581
O O19 0.020255 0.268783 0.854557
O O20 0.436017 0.000000 0.765953
O O21 0.577066 0.500000 0.777021
#
# Coordination Sequence:
#
# PCOD8091989 Si02
#       8
#     8   8   8   8   8   8   8   8
#     4  11  23  39  59  84 115 154 193 234 286 345
#     4  11  22  36  58  88 119 150 190 239 283 332
#     4   9  19  35  56  81 113 151 189 229 281 340
#     4  10  20  36  58  83 113 149 192 236 283 340
#     4  11  23  40  60  84 116 155 193 234 285 342
#     4  10  20  35  55  84 118 151 187 233 288 341
#     4  10  20  32  55  87 116 144 185 240 287 330
#     4  10  19  34  58  86 115 148 190 238 283 334
#
# _framework density 18.732479999999999
#
# number of rings (size 3 to 8) (size 9 to 14) (size 15 to 20)
#    0.000    1.750    2.500    2.250    0.000    4.250 
#    0.000    1.250    0.000    0.000    0.000    0.000 
#    0.000    0.000    0.000    0.000    0.000    0.000 
#
# Total GULP energy -396968.176492 kJ/mol
# GULP energy per Si atom -12405.255515 kJ/mol
# Density = 1.868984 g / cm^3
# Si number density = 18.732480 Si / 1000 Ang^3
#
#
#
# Elastic Constant Matrix: (Units=GPa)
#
#
# Indices 1 2 3 4 5 6 
#
# 1 91.8478 17.7168 46.2362 0.0000 -10.3668 0.0000
# 2 17.7168 30.3359 13.1989 0.0000 -0.1342 0.0000
# 3 46.2362 13.1989 106.1818 0.0000 -8.1662 0.0000
# 4 0.0000 0.0000 0.0000 28.9349 0.0000 -2.0521
# 5 -10.3668 -0.1342 -8.1662 0.0000 28.5870 0.0000
# 6 0.0000 0.0000 0.0000 -2.0521 0.0000 27.5824
#
#
#
# Elastic Compliance Matrix: (Units=1/GPa)
#
#
# Indices 1 2 3 4 5 6 
#
# 1 0.015414 -0.006551 -0.005593 0.000000 0.003961 0.000000
# 2 -0.006551 0.037667 -0.002044 0.000000 -0.002783 0.000000
# 3 -0.005593 -0.002044 0.012219 0.000000 0.001453 0.000000
# 4 0.000000 0.000000 0.000000 0.034744 0.000000 0.002585
# 5 0.003961 -0.002783 0.001453 0.000000 0.036819 0.000000
# 6 0.000000 0.000000 0.000000 0.002585 0.000000 0.036447
#
#
# Mechanical properties :
#
#
# Convention : Reuss Voigt Hill
#
# Bulk Modulus (GPa) = 27.08209 42.51882 34.80046
# Shear Modulus (GPa) = 23.36522 27.10177 25.23349
#
# Velocity S-wave (km/s) = 3.53556 3.80778 3.67419
# Velocity P-wave (km/s) = 5.58172 6.48687 6.05124
#
# Compressibility (1/GPa) = 0.03692477
#
# Stress axis : x y z
#
# Youngs Moduli (GPa) = 64.87708 26.54843 81.84015
#
# Poissons Ratio (x) = 0.17392 0.45772
# Poissons Ratio (y) = 0.42501 0.16725
# Poissons Ratio (z) = 0.36285 0.05425
#
# Static dielectric constant tensor:
#      x y z
#    x 3.330630 0.000000 -0.150530 
#    y 0.000000 3.373070 0.000000 
#    z -0.150530 0.000000 3.419290 
# 
# 
# High freq. dielectric constant tensor:
#      x y z
#    x 1.715760 0.000000 -0.022480 
#    y 0.000000 1.733630 0.000000 
#    z -0.022480 0.000000 1.722700 
# 
# From -- ./inp_files/295610.got.cif
#   From: 2010.06.25/outbox.cif.g09.slc.cpg/sg12_148_cif.got.tgz:295610.got - 2010.06.28 00:19:55.
