data_PCOD8091737
_publ_section_title
;
Structure prediction by ZEFSAII (Michael W. Deem and Ramdas Pophale) SiO2 
 PCOD8091737
Probable space group: C 2/M
;
_chemical_formula_sum "Si O2"
_cell_formula_units_Z 56
_cell_length_a 21.015595
_cell_length_b 8.695302
_cell_length_c 14.802058
_cell_angle_alpha 90.000000
_cell_angle_beta 86.534052
_cell_angle_gamma 90.000000
_cell_volume 2699.935373
_symmetry_space_group_name_H-M "C 2/M"
_symmetry_group_IT_number 12
_symmetry_cell_setting 'monoclinic'
loop_
_space_group_symop_operation_xyz
x,y,z
-x,y,-z
-x,-y,-z
x,-y,z
1/2+x,1/2+y,z
1/2-x,1/2+y,-z
1/2-x,1/2-y,-z
1/2+x,1/2-y,z
loop_
_atom_site_type_symbol
_atom_site_label
_atom_site_fract_x
_atom_site_fract_y
_atom_site_fract_z
Si Si1 0.131340 0.317378 0.116315
Si Si2 0.474780 0.820904 0.377023
Si Si3 0.245859 0.180444 0.787871
Si Si4 0.008030 0.679721 0.828507
Si Si5 0.280273 0.180423 0.586828
Si Si6 0.867373 0.682024 0.087801
Si Si7 0.091973 0.820107 0.464576
O O1 0.128004 0.500000 0.124760
O O2 0.187661 0.253866 0.176004
O O3 0.062192 0.246161 0.150312
O O4 0.147219 0.265052 0.012848
O O5 0.465307 0.785021 0.273278
O O6 0.412210 0.767995 0.438064
O O7 0.531194 0.714617 0.408782
O O8 0.490216 0.000000 0.393084
O O9 0.241244 0.218961 0.681490
O O10 0.185871 0.255195 0.840967
O O11 0.243199 0.000000 0.805870
O O12 0.000438 0.500000 0.846729
O O13 0.062150 0.745791 0.891269
O O14 0.250000 0.250000 0.500000
O O15 0.348860 0.255301 0.595894
O O16 0.287241 0.000000 0.573003
O O17 0.867166 0.500000 0.097502
O O18 0.099369 0.000000 0.482336
#
# Coordination Sequence:
#
# PCOD8091737 Si02
#       7
#     8   8   8   8   8   8   8
#     4   9  17  34  59  85 116 151 193 237 281 340
#     4  10  19  34  57  83 113 154 196 238 287 345
#     4  10  22  39  59  83 114 155 192 233 291 352
#     4   9  18  32  55  86 115 147 191 240 288 337
#     4  11  24  41  60  83 113 152 195 240 293 351
#     4  10  20  34  58  90 118 149 190 240 287 337
#     4  11  22  37  56  82 114 149 193 243 293 345
#
# _framework density 20.741237000000002
#
# number of rings (size 3 to 8) (size 9 to 14) (size 15 to 20)
#    0.000    2.000    0.000    4.714    2.000    5.143 
#    0.000    0.714    0.000    4.286    0.000    0.000 
#    0.000    0.000    0.000    0.000    0.000    0.000 
#
# Total GULP energy -347132.038237 kJ/mol
# GULP energy per Si atom -12397.572794 kJ/mol
# Density = 2.069403 g / cm^3
# Si number density = 20.741237 Si / 1000 Ang^3
#
#
#
# Elastic Constant Matrix: (Units=GPa)
#
#
# Indices 1 2 3 4 5 6 
#
# 1 108.3014 21.8524 44.1159 0.0000 -2.8563 0.0000
# 2 21.8524 55.0118 38.8987 0.0000 -6.9522 0.0000
# 3 44.1159 38.8987 118.3848 0.0000 5.2580 0.0000
# 4 0.0000 0.0000 0.0000 23.1759 0.0000 -4.9228
# 5 -2.8563 -6.9522 5.2580 0.0000 35.3070 0.0000
# 6 0.0000 0.0000 0.0000 -4.9228 0.0000 30.6303
#
#
#
# Elastic Compliance Matrix: (Units=1/GPa)
#
#
# Indices 1 2 3 4 5 6 
#
# 1 0.011080 -0.001704 -0.003618 0.000000 0.001100 0.000000
# 2 -0.001704 0.025211 -0.007915 0.000000 0.006005 0.000000
# 3 -0.003618 -0.007915 0.012561 0.000000 -0.003722 0.000000
# 4 0.000000 0.000000 0.000000 0.044673 0.000000 0.007180
# 5 0.001100 0.006005 -0.003722 0.000000 0.030149 0.000000
# 6 0.000000 0.000000 0.000000 0.007180 0.000000 0.033801
#
#
# Mechanical properties :
#
#
# Convention : Reuss Voigt Hill
#
# Bulk Modulus (GPa) = 44.68812 54.60355 49.64583
# Shear Modulus (GPa) = 26.12202 29.61136 27.86669
#
# Velocity S-wave (km/s) = 3.55269 3.78253 3.66941
# Velocity P-wave (km/s) = 6.19848 6.74240 6.47615
#
# Compressibility (1/GPa) = 0.02237731
#
# Stress axis : x y z
#
# Youngs Moduli (GPa) = 90.25222 39.66569 79.60941
#
# Poissons Ratio (x) = 0.06760 0.28801
# Poissons Ratio (y) = 0.15381 0.63013
# Poissons Ratio (z) = 0.32652 0.31397
#
# Static dielectric constant tensor:
#      x y z
#    x 3.968640 0.000000 -0.045060 
#    y 0.000000 3.407610 0.000000 
#    z -0.045060 0.000000 3.976750 
# 
# 
# High freq. dielectric constant tensor:
#      x y z
#    x 1.819040 0.000000 -0.005150 
#    y 0.000000 1.774220 0.000000 
#    z -0.005150 0.000000 1.825930 
# 
# From -- ./inp_files/230940.got.cif
#   From: 2010.06.25/outbox.cif.g09.slc.cpg/sg12_116_cif.got.tgz:230940.got - 2010.06.28 00:19:55.
