data_PCOD8091294
_publ_section_title
;
Structure prediction by ZEFSAII (Michael W. Deem and Ramdas Pophale) SiO2 
 PCOD8091294
Probable space group: C 2/M
;
_chemical_formula_sum "Si O2"
_cell_formula_units_Z 56
_cell_length_a 15.118988
_cell_length_b 17.872007
_cell_length_c 11.871779
_cell_angle_alpha 90.000000
_cell_angle_beta 60.862596
_cell_angle_gamma 90.000000
_cell_volume 2801.896967
_symmetry_space_group_name_H-M "C 2/M"
_symmetry_group_IT_number 12
_symmetry_cell_setting 'monoclinic'
loop_
_space_group_symop_operation_xyz
x,y,z
-x,y,-z
-x,-y,-z
x,-y,z
1/2+x,1/2+y,z
1/2-x,1/2+y,-z
1/2-x,1/2-y,-z
1/2+x,1/2-y,z
loop_
_atom_site_type_symbol
_atom_site_label
_atom_site_fract_x
_atom_site_fract_y
_atom_site_fract_z
Si Si1 0.529164 0.919630 0.110855
Si Si2 0.864784 0.084723 0.401224
Si Si3 0.617514 0.696818 0.411329
Si Si4 0.920709 0.861537 0.798099
Si Si5 0.252462 0.084345 0.935073
Si Si6 0.763780 0.174776 0.280904
Si Si7 0.966220 0.734989 0.149218
O O1 0.648997 0.903012 0.048828
O O2 0.467939 0.849303 0.200854
O O3 0.502643 0.000000 0.186634
O O4 0.500000 0.927041 0.000000
O O5 0.842724 0.141641 0.516442
O O6 0.788304 0.105840 0.348035
O O7 0.980813 0.087950 0.286771
O O8 0.842290 0.000000 0.454164
O O9 0.500000 0.712746 0.500000
O O10 0.639608 0.656030 0.279210
O O11 0.668484 0.778357 0.384912
O O12 0.953963 0.783167 0.830792
O O13 0.847267 0.904541 0.928074
O O14 0.254977 0.142930 0.831532
O O15 0.248894 0.000000 0.889067
O O16 0.854799 0.233533 0.227294
O O17 0.000000 0.732170 0.000000
#
# Coordination Sequence:
#
# PCOD8091294 Si02
#       7
#     8   8   8   8   8   8   8
#     4   9  20  35  50  74 120 164 193 228 273 344
#     4  10  22  41  61  85 122 157 198 251 300 349
#     4  10  23  40  61  85 115 158 214 250 284 340
#     4  10  21  35  59  93 122 158 191 244 301 359
#     4  11  22  36  59  93 125 155 194 238 305 371
#     4  11  22  38  64  90 119 157 196 248 302 354
#     4  10  19  34  55  87 125 154 189 232 293 364
#
# _framework density 19.986457999999999
#
# number of rings (size 3 to 8) (size 9 to 14) (size 15 to 20)
#    0.000    1.857    1.429    2.143    4.000    4.286 
#    0.000    2.857    0.000    3.429    0.000    0.000 
#    0.000    0.000    0.000    0.000    0.000    0.000 
#
# Total GULP energy -347139.921127 kJ/mol
# GULP energy per Si atom -12397.854326 kJ/mol
# Density = 1.994097 g / cm^3
# Si number density = 19.986458 Si / 1000 Ang^3
#
#
#
# Elastic Constant Matrix: (Units=GPa)
#
#
# Indices 1 2 3 4 5 6 
#
# 1 98.2987 41.8537 31.8139 0.0000 14.6436 0.0000
# 2 41.8537 140.8853 40.3076 0.0000 -4.5528 0.0000
# 3 31.8139 40.3076 79.0209 0.0000 11.7831 0.0000
# 4 0.0000 0.0000 0.0000 -41.7643 0.0000 -134.9316
# 5 14.6436 -4.5528 11.7831 0.0000 23.8905 0.0000
# 6 0.0000 0.0000 0.0000 -134.9316 0.0000 -170.0644
#
#
#
# Elastic Compliance Matrix: (Units=1/GPa)
#
#
# Indices 1 2 3 4 5 6 
#
# 1 0.013685 -0.003603 -0.002503 0.000000 -0.007840 0.000000
# 2 -0.003603 0.009623 -0.004383 0.000000 0.006204 0.000000
# 3 -0.002503 -0.004383 0.017048 0.000000 -0.007709 0.000000
# 4 0.000000 0.000000 0.000000 0.015316 0.000000 -0.012152
# 5 -0.007840 0.006204 -0.007709 0.000000 0.051648 0.000000
# 6 0.000000 0.000000 0.000000 -0.012152 0.000000 0.003761
#
#
# Mechanical properties :
#
#
# Convention : Reuss Voigt Hill
#
# Bulk Modulus (GPa) = 51.60384 60.68394 56.14389
# Shear Modulus (GPa) = 36.09649 -23.97234 6.06207
#
# Velocity S-wave (km/s) = 4.25437 -3.46704 1.74347
# Velocity P-wave (km/s) = 7.07166 3.79491 5.67493
#
# Compressibility (1/GPa) = 0.01937840
#
# Stress axis : x y z
#
# Youngs Moduli (GPa) = 73.07211 103.92001 58.65850
#
# Poissons Ratio (x) = 0.37441 0.14681
# Poissons Ratio (y) = 0.26327 0.25710
# Poissons Ratio (z) = 0.18288 0.45549
#
# Static dielectric constant tensor:
#      x y z
#    x 3.719260 0.000000 0.142200 
#    y 0.000000 4.057170 0.000000 
#    z 0.142200 0.000000 3.459120 
# 
# 
# High freq. dielectric constant tensor:
#      x y z
#    x 1.789340 0.000000 0.011830 
#    y 0.000000 1.793390 0.000000 
#    z 0.011830 0.000000 1.752840 
# 
# From -- ./inp_files/146037.got.cif
#   From: 2010.06.25/outbox.cif.g09.slc.cpg/sg12_74_cif.got.tgz:146037.got - 2010.06.28 00:19:55.
