data_PCOD8091289
_publ_section_title
;
Structure prediction by ZEFSAII (Michael W. Deem and Ramdas Pophale) SiO2 
 PCOD8091289
Probable space group: C 2/M
;
_chemical_formula_sum "Si O2"
_cell_formula_units_Z 52
_cell_length_a 11.924014
_cell_length_b 23.177605
_cell_length_c 15.077645
_cell_angle_alpha 90.000000
_cell_angle_beta 139.644901
_cell_angle_gamma 90.000000
_cell_volume 2698.234464
_symmetry_space_group_name_H-M "C 2/M"
_symmetry_group_IT_number 12
_symmetry_cell_setting 'monoclinic'
loop_
_space_group_symop_operation_xyz
x,y,z
-x,y,-z
-x,-y,-z
x,-y,z
1/2+x,1/2+y,z
1/2-x,1/2+y,-z
1/2-x,1/2-y,-z
1/2+x,1/2-y,z
loop_
_atom_site_type_symbol
_atom_site_label
_atom_site_fract_x
_atom_site_fract_y
_atom_site_fract_z
Si Si1 0.381565 0.566281 0.624077
Si Si2 0.254290 0.066237 0.781840
Si Si3 0.283896 0.137641 0.146215
Si Si4 0.447051 0.350708 0.825667
Si Si5 0.396110 0.932731 0.679343
Si Si6 0.940033 0.728974 0.132163
Si Si7 0.500000 0.152649 0.000000
O O1 0.352090 0.500000 0.635695
O O2 0.547852 0.571225 0.660379
O O3 0.406662 0.602780 0.727443
O O4 0.219768 0.592106 0.471402
O O5 0.325923 0.090166 0.731298
O O6 0.312393 0.000000 0.835442
O O7 0.333856 0.109653 0.903719
O O8 0.207271 0.146659 0.196699
O O9 0.400318 0.080038 0.212434
O O10 0.425067 0.188308 0.209788
O O11 0.131338 0.134451 0.981739
O O12 0.443458 0.285972 0.782396
O O13 0.365253 0.000000 0.660487
O O14 0.010535 0.693484 0.091232
O O15 0.750000 0.750000 0.000000
#
# Coordination Sequence:
#
# PCOD8091289 Si02
#       7
#     8   8   8   8   8   8   4
#     4  10  22  39  59  82 115 156 194 233 285 345
#     4  10  20  34  57  89 120 148 187 241 289 335
#     4  10  20  38  58  84 118 148 188 240 289 330
#     4  10  22  38  59  86 116 150 192 238 285 339
#     4  10  21  38  59  84 117 155 190 233 288 340
#     4  10  19  34  55  85 113 150 185 232 286 337
#     4  12  19  32  60  90 113 144 190 234 286 340
#
# _framework density 19.271861000000001
#
# number of rings (size 3 to 8) (size 9 to 14) (size 15 to 20)
#    0.000    1.846    1.538    4.385    0.000    3.692 
#    0.000    3.846    0.000    0.000    0.000    0.000 
#    0.000    0.000    0.000    0.000    0.000    0.000 
#
# Total GULP energy -322290.975559 kJ/mol
# GULP energy per Si atom -12395.806752 kJ/mol
# Density = 1.922800 g / cm^3
# Si number density = 19.271861 Si / 1000 Ang^3
#
#
#
# Elastic Constant Matrix: (Units=GPa)
#
#
# Indices 1 2 3 4 5 6 
#
# 1 115.4515 35.6048 33.3264 0.0000 -1.2222 0.0000
# 2 35.6048 80.7944 36.4246 0.0000 -6.9657 0.0000
# 3 33.3264 36.4246 69.8042 0.0000 0.7188 0.0000
# 4 0.0000 0.0000 0.0000 13.6976 0.0000 -1.9459
# 5 -1.2222 -6.9657 0.7188 0.0000 23.1087 0.0000
# 6 0.0000 0.0000 0.0000 -1.9459 0.0000 31.6030
#
#
#
# Elastic Compliance Matrix: (Units=1/GPa)
#
#
# Indices 1 2 3 4 5 6 
#
# 1 0.010621 -0.003165 -0.003416 0.000000 -0.000286 0.000000
# 2 -0.003165 0.017763 -0.007814 0.000000 0.005430 0.000000
# 3 -0.003416 -0.007814 0.020067 0.000000 -0.003160 0.000000
# 4 0.000000 0.000000 0.000000 0.073650 0.000000 0.004535
# 5 -0.000286 0.005430 -0.003160 0.000000 0.044994 0.000000
# 6 0.000000 0.000000 0.000000 0.004535 0.000000 0.031922
#
#
# Mechanical properties :
#
#
# Convention : Reuss Voigt Hill
#
# Bulk Modulus (GPa) = 50.86360 52.97352 51.91856
# Shear Modulus (GPa) = 21.33488 24.39482 22.86485
#
# Velocity S-wave (km/s) = 3.33084 3.56170 3.44821
# Velocity P-wave (km/s) = 6.42204 6.66794 6.54615
#
# Compressibility (1/GPa) = 0.01966043
#
# Stress axis : x y z
#
# Youngs Moduli (GPa) = 94.15493 56.29814 49.83423
#
# Poissons Ratio (x) = 0.17818 0.17024
# Poissons Ratio (y) = 0.29799 0.38938
# Poissons Ratio (z) = 0.32165 0.43989
#
# Static dielectric constant tensor:
#      x y z
#    x 3.586980 0.000000 0.021750 
#    y 0.000000 3.971580 0.000000 
#    z 0.021750 0.000000 3.382450 
# 
# 
# High freq. dielectric constant tensor:
#      x y z
#    x 1.757190 0.000000 0.004340 
#    y 0.000000 1.753690 0.000000 
#    z 0.004340 0.000000 1.723150 
# 
# From -- ./inp_files/208667.got.cif
#   From: 2010.06.25/outbox.cif.g09.slc.cpg/sg12_105_cif.got.tgz:208667.got - 2010.06.28 00:19:55.
