data_PCOD8091820
_publ_section_title
;
Structure prediction by ZEFSAII (Michael W. Deem and Ramdas Pophale) SiO2 
 PCOD8091820
Probable space group: C 2/M
;
_chemical_formula_sum "Si O2"
_cell_formula_units_Z 64
_cell_length_a 20.413858
_cell_length_b 8.788421
_cell_length_c 21.644217
_cell_angle_alpha 90.000000
_cell_angle_beta 61.824543
_cell_angle_gamma 90.000000
_cell_volume 3422.969204
_symmetry_space_group_name_H-M "C 2/M"
_symmetry_group_IT_number 12
_symmetry_cell_setting 'monoclinic'
loop_
_space_group_symop_operation_xyz
x,y,z
-x,y,-z
-x,-y,-z
x,-y,z
1/2+x,1/2+y,z
1/2-x,1/2+y,-z
1/2-x,1/2-y,-z
1/2+x,1/2-y,z
loop_
_atom_site_type_symbol
_atom_site_label
_atom_site_fract_x
_atom_site_fract_y
_atom_site_fract_z
Si Si1 0.912952 0.176551 0.535328
Si Si2 0.803901 0.677395 0.673567
Si Si3 0.578502 0.822585 0.819849
Si Si4 0.330527 0.178977 0.458986
Si Si5 0.349388 0.322469 0.324620
Si Si6 0.770031 0.675102 0.182621
Si Si7 0.798871 0.320943 0.031701
Si Si8 0.459285 0.677362 0.954540
O O1 0.874614 0.231863 0.615940
O O2 0.881977 0.271623 0.492209
O O3 0.000000 0.208441 0.500000
O O4 0.895113 0.000000 0.533075
O O5 0.822051 0.500000 0.664320
O O6 0.733186 0.718033 0.662413
O O7 0.787540 0.726001 0.751503
O O8 0.590067 0.730455 0.751745
O O9 0.645105 0.784100 0.837600
O O10 0.501011 0.767577 0.882111
O O11 0.574530 0.000000 0.806445
O O12 0.250000 0.250000 0.500000
O O13 0.367673 0.232355 0.378807
O O14 0.321790 0.000000 0.464362
O O15 0.358058 0.500000 0.333466
O O16 0.753470 0.500000 0.205067
O O17 0.758978 0.711424 0.115207
O O18 0.810093 0.500000 0.016529
O O19 0.750000 0.250000 0.000000
O O20 0.876873 0.238136 0.995786
O O21 0.458912 0.500000 0.938465
O O22 0.500000 0.712395 0.000000
#
# Coordination Sequence:
#
# PCOD8091820 Si02
#       8
#     8   8   8   8   8   8   8   8
#     4  11  24  41  61  86 119 158 198 242 294 350
#     4  10  20  34  58  87 116 151 192 240 290 348
#     4  10  19  34  57  86 118 153 194 242 296 348
#     4  12  23  37  60  88 118 153 194 242 291 344
#     4  10  20  35  56  87 121 153 192 241 296 348
#     4   9  19  35  57  83 115 152 192 238 290 350
#     4  11  23  40  60  86 119 157 199 243 295 352
#     4  11  22  36  58  87 118 152 193 242 293 346
#
# _framework density 18.697217999999999
#
# number of rings (size 3 to 8) (size 9 to 14) (size 15 to 20)
#    0.000    1.500    2.500    3.375    0.000    4.000 
#    0.000    1.250    0.000    4.500    0.000    0.000 
#    0.000    0.000    0.000    0.000    0.000    0.000 
#
# Total GULP energy -396954.993459 kJ/mol
# GULP energy per Si atom -12404.843546 kJ/mol
# Density = 1.865466 g / cm^3
# Si number density = 18.697218 Si / 1000 Ang^3
#
#
#
# Elastic Constant Matrix: (Units=GPa)
#
#
# Indices 1 2 3 4 5 6 
#
# 1 78.6333 50.0253 44.9168 0.0001 3.6213 -0.0009
# 2 50.0253 86.2290 50.5607 0.0004 -2.1498 -0.0014
# 3 44.9168 50.5607 120.0088 0.0001 0.6559 -0.0001
# 4 0.0001 0.0004 0.0001 38.1832 0.0000 -0.1618
# 5 3.6213 -2.1498 0.6559 0.0000 30.6001 0.0002
# 6 -0.0009 -0.0014 -0.0001 -0.1618 0.0002 29.3288
#
#
#
# Elastic Compliance Matrix: (Units=1/GPa)
#
#
# Indices 1 2 3 4 5 6 
#
# 1 0.021622 -0.010478 -0.003661 0.000000 -0.003216 0.000000
# 2 -0.010478 0.020525 -0.004741 0.000000 0.002784 0.000001
# 3 -0.003661 -0.004741 0.011701 0.000000 -0.000151 0.000000
# 4 0.000000 0.000000 0.000000 0.026190 0.000000 0.000144
# 5 -0.003216 0.002784 -0.000151 0.000000 0.033259 0.000000
# 6 0.000000 0.000001 0.000000 0.000144 0.000000 0.034097
#
#
# Mechanical properties :
#
#
# Convention : Reuss Voigt Hill
#
# Bulk Modulus (GPa) = 62.15301 63.98629 63.06965
# Shear Modulus (GPa) = 26.24445 28.91364 27.57904
#
# Velocity S-wave (km/s) = 3.75060 3.93671 3.84478
# Velocity P-wave (km/s) = 7.21596 7.41352 7.31541
#
# Compressibility (1/GPa) = 0.01608932
#
# Stress axis : x y z
#
# Youngs Moduli (GPa) = 46.24863 48.72141 85.46194
#
# Poissons Ratio (x) = 0.51049 0.31286
# Poissons Ratio (y) = 0.48458 0.40517
# Poissons Ratio (z) = 0.16931 0.23098
#
# Static dielectric constant tensor:
#      x y z
#    x 3.420710 0.000000 0.124480 
#    y 0.000000 3.564550 0.000000 
#    z 0.124480 0.000000 3.652790 
# 
# 
# High freq. dielectric constant tensor:
#      x y z
#    x 1.694990 0.000000 0.000780 
#    y 0.000000 1.742080 0.000000 
#    z 0.000780 0.000000 1.742590 
# 
# From -- ./inp_files/319883.got.cif
#   From: 2010.06.25/outbox.cif.g09.slc.cpg/sg12_160_cif.got.tgz:319883.got - 2010.06.28 00:19:55.
