data_PCOD8091917
_publ_section_title
;
Structure prediction by ZEFSAII (Michael W. Deem and Ramdas Pophale) SiO2 
 PCOD8091917
Probable space group: C 2/M
;
_chemical_formula_sum "Si O2"
_cell_formula_units_Z 64
_cell_length_a 20.404313
_cell_length_b 8.717948
_cell_length_c 18.972633
_cell_angle_alpha 90.000000
_cell_angle_beta 89.841473
_cell_angle_gamma 90.000000
_cell_volume 3374.909992
_symmetry_space_group_name_H-M "C 2/M"
_symmetry_group_IT_number 12
_symmetry_cell_setting 'monoclinic'
loop_
_space_group_symop_operation_xyz
x,y,z
-x,y,-z
-x,-y,-z
x,-y,z
1/2+x,1/2+y,z
1/2-x,1/2+y,-z
1/2-x,1/2-y,-z
1/2+x,1/2-y,z
loop_
_atom_site_type_symbol
_atom_site_label
_atom_site_fract_x
_atom_site_fract_y
_atom_site_fract_z
Si Si1 0.799574 0.818068 0.943936
Si Si2 0.631342 0.822777 0.575499
Si Si3 0.889068 0.178898 0.572735
Si Si4 0.760272 0.179469 0.658335
Si Si5 0.501968 0.176789 0.660066
Si Si6 0.558243 0.678640 0.210541
Si Si7 0.802791 0.320342 0.795560
Si Si8 0.053125 0.820266 0.052704
O O1 0.778789 0.764114 0.866287
O O2 0.873294 0.756573 0.960518
O O3 0.796922 0.000000 0.946572
O O4 0.750000 0.750000 0.000000
O O5 0.620676 0.715456 0.508787
O O6 0.698813 0.772394 0.611267
O O7 0.574422 0.792732 0.631825
O O8 0.632688 0.000000 0.551254
O O9 0.824901 0.228716 0.615796
O O10 0.950678 0.272703 0.600937
O O11 0.903668 0.000000 0.582153
O O12 0.755672 0.271232 0.731712
O O13 0.759495 0.000000 0.675607
O O14 0.495447 0.274042 0.731905
O O15 0.490165 0.000000 0.678148
O O16 0.576021 0.500000 0.217347
O O17 0.623888 0.772583 0.226032
O O18 0.530848 0.716210 0.132729
O O19 0.798405 0.500000 0.808645
O O20 0.054873 0.000000 0.038443
O O21 0.000000 0.742824 0.000000
#
# Coordination Sequence:
#
# PCOD8091917 Si02
#       8
#     8   8   8   8   8   8   8   8
#     4  10  20  36  59  85 118 151 187 232 279 334
#     4  10  23  40  56  79 115 152 184 230 289 340
#     4  11  22  36  60  85 108 144 192 237 280 335
#     4  10  21  39  59  81 113 150 187 231 286 337
#     4  11  22  37  57  81 112 149 189 230 279 337
#     4  10  19  34  58  84 111 147 188 232 279 330
#     4  11  21  35  59  86 112 148 194 235 276 333
#     4   8  16  33  57  83 111 144 182 226 276 325
#
# _framework density 18.963469
#
# number of rings (size 3 to 8) (size 9 to 14) (size 15 to 20)
#    0.000    1.875    1.250    4.125    0.000    3.500 
#    2.250    0.000    0.000   12.750    0.000    0.000 
#    0.000    0.000    0.000    0.000    0.000    0.000 
#
# Total GULP energy -396895.547895 kJ/mol
# GULP energy per Si atom -12402.985872 kJ/mol
# Density = 1.892031 g / cm^3
# Si number density = 18.963469 Si / 1000 Ang^3
#
#
#
# Elastic Constant Matrix: (Units=GPa)
#
#
# Indices 1 2 3 4 5 6 
#
# 1 53.8002 21.8203 24.9388 0.0000 3.1925 0.0000
# 2 21.8203 61.2492 29.8031 0.0000 -3.2899 0.0000
# 3 24.9388 29.8031 114.7744 0.0000 -0.5323 0.0000
# 4 0.0000 0.0000 0.0000 33.6772 0.0000 -5.5003
# 5 3.1925 -3.2899 -0.5323 0.0000 30.9121 0.0000
# 6 0.0000 0.0000 0.0000 -5.5003 0.0000 20.9542
#
#
#
# Elastic Compliance Matrix: (Units=1/GPa)
#
#
# Indices 1 2 3 4 5 6 
#
# 1 0.023039 -0.006793 -0.003257 0.000000 -0.003158 0.000000
# 2 -0.006793 0.020804 -0.003913 0.000000 0.002848 0.000000
# 3 -0.003257 -0.003913 0.010437 0.000000 0.000100 0.000000
# 4 0.000000 0.000000 0.000000 0.031024 0.000000 0.008144
# 5 -0.003158 0.002848 0.000100 0.000000 0.032981 0.000000
# 6 0.000000 0.000000 0.000000 0.008144 0.000000 0.049861
#
#
# Mechanical properties :
#
#
# Convention : Reuss Voigt Hill
#
# Bulk Modulus (GPa) = 37.94356 42.54980 40.24668
# Shear Modulus (GPa) = 24.40745 27.32613 25.86679
#
# Velocity S-wave (km/s) = 3.59148 3.80015 3.69729
# Velocity P-wave (km/s) = 6.10332 6.46076 6.28458
#
# Compressibility (1/GPa) = 0.02635493
#
# Stress axis : x y z
#
# Youngs Moduli (GPa) = 43.40374 48.06854 95.81376
#
# Poissons Ratio (x) = 0.32652 0.31206
# Poissons Ratio (y) = 0.29483 0.37490
# Poissons Ratio (z) = 0.14136 0.18808
#
# Static dielectric constant tensor:
#      x y z
#    x 3.556510 0.000000 0.064280 
#    y 0.000000 3.390480 0.000000 
#    z 0.064280 0.000000 3.622260 
# 
# 
# High freq. dielectric constant tensor:
#      x y z
#    x 1.727560 0.000000 -0.000130 
#    y 0.000000 1.730720 0.000000 
#    z -0.000130 0.000000 1.748950 
# 
# From -- ./inp_files/281323.got.cif
#   From: 2010.06.25/outbox.cif.g09.slc.cpg/sg12_141_cif.got.tgz:281323.got - 2010.06.28 00:19:55.
