data_PCOD8091614
_publ_section_title
;
Structure prediction by ZEFSAII (Michael W. Deem and Ramdas Pophale) SiO2 
 PCOD8091614
Probable space group: C 2/M
;
_chemical_formula_sum "Si O2"
_cell_formula_units_Z 56
_cell_length_a 21.586407
_cell_length_b 8.726010
_cell_length_c 15.961061
_cell_angle_alpha 90.000000
_cell_angle_beta 96.705617
_cell_angle_gamma 90.000000
_cell_volume 2985.909895
_symmetry_space_group_name_H-M "C 2/M"
_symmetry_group_IT_number 12
_symmetry_cell_setting 'monoclinic'
loop_
_space_group_symop_operation_xyz
x,y,z
-x,y,-z
-x,-y,-z
x,-y,z
1/2+x,1/2+y,z
1/2-x,1/2+y,-z
1/2-x,1/2-y,-z
1/2+x,1/2-y,z
loop_
_atom_site_type_symbol
_atom_site_label
_atom_site_fract_x
_atom_site_fract_y
_atom_site_fract_z
Si Si1 0.817726 0.825622 0.225130
Si Si2 0.310746 0.821768 0.050803
Si Si3 0.235169 0.675804 0.622894
Si Si4 0.038775 0.173908 0.757460
Si Si5 0.345638 0.826991 0.543853
Si Si6 0.951063 0.318121 0.062571
Si Si7 0.473128 0.679145 0.582270
O O1 0.804041 0.714158 0.146645
O O2 0.777177 0.755711 0.291889
O O3 0.889938 0.820222 0.259886
O O4 0.796719 0.000000 0.202164
O O5 0.379701 0.759715 0.031349
O O6 0.307748 0.000000 0.032615
O O7 0.250000 0.750000 0.000000
O O8 0.257087 0.500000 0.637663
O O9 0.287935 0.778826 0.590671
O O10 0.173032 0.683306 0.556606
O O11 0.026459 0.263129 0.842240
O O12 0.002104 0.249484 0.672683
O O13 0.016648 0.000000 0.769915
O O14 0.400049 0.708983 0.572293
O O15 0.365836 0.000000 0.569984
O O16 0.951331 0.500000 0.064251
O O17 0.000000 0.256669 0.000000
O O18 0.500000 0.753148 0.500000
O O19 0.488234 0.500000 0.584759
#
# Coordination Sequence:
#
# PCOD8091614 Si02
#       7
#     8   8   8   8   8   8   8
#     4  10  19  34  57  81 106 138 179 221 269 325
#     4  10  20  36  57  82 112 143 182 229 280 334
#     4  10  20  35  54  76 104 139 180 222 269 322
#     4   9  19  34  54  81 109 140 180 222 266 322
#     4  10  21  35  52  76 106 141 180 224 269 317
#     4   9  19  37  59  81 107 144 185 229 281 332
#     4  10  20  35  54  77 109 146 181 221 270 321
#
# _framework density 18.754753000000001
#
# number of rings (size 3 to 8) (size 9 to 14) (size 15 to 20)
#    0.000    2.286    0.000    2.571    0.000    5.143 
#    2.571    0.000    0.000    0.000    0.000    0.000 
#    0.000    0.000    0.000    0.000    0.000    0.000 
#
# Total GULP energy -347069.317628 kJ/mol
# GULP energy per Si atom -12395.332772 kJ/mol
# Density = 1.871207 g / cm^3
# Si number density = 18.754753 Si / 1000 Ang^3
#
#
#
# Elastic Constant Matrix: (Units=GPa)
#
#
# Indices 1 2 3 4 5 6 
#
# 1 94.9999 18.4385 67.9777 0.0000 10.2808 0.0000
# 2 18.4385 35.4070 19.5443 0.0000 0.0879 0.0000
# 3 67.9777 19.5443 110.8561 0.0000 -5.2142 0.0000
# 4 0.0000 0.0000 0.0000 27.6144 0.0000 -0.1259
# 5 10.2808 0.0879 -5.2142 0.0000 28.4619 0.0000
# 6 0.0000 0.0000 0.0000 -0.1259 0.0000 28.7019
#
#
#
# Elastic Compliance Matrix: (Units=1/GPa)
#
#
# Indices 1 2 3 4 5 6 
#
# 1 0.021853 -0.004088 -0.013164 0.000000 -0.010293 0.000000
# 2 -0.004088 0.032088 -0.003112 0.000000 0.000808 0.000000
# 3 -0.013164 -0.003112 0.018021 0.000000 0.008066 0.000000
# 4 0.000000 0.000000 0.000000 0.036214 0.000000 0.000159
# 5 -0.010293 0.000808 0.008066 0.000000 0.040328 0.000000
# 6 0.000000 0.000000 0.000000 0.000159 0.000000 0.034842
#
#
# Mechanical properties :
#
#
# Convention : Reuss Voigt Hill
#
# Bulk Modulus (GPa) = 32.01718 50.35379 41.18548
# Shear Modulus (GPa) = 21.32334 25.97581 23.64957
#
# Velocity S-wave (km/s) = 3.37554 3.72563 3.55490
# Velocity P-wave (km/s) = 5.68339 6.73899 6.23357
#
# Compressibility (1/GPa) = 0.03123323
#
# Stress axis : x y z
#
# Youngs Moduli (GPa) = 45.76011 31.16427 55.49114
#
# Poissons Ratio (x) = 0.12741 0.73047
# Poissons Ratio (y) = 0.18709 0.17270
# Poissons Ratio (z) = 0.60238 0.09699
#
# Static dielectric constant tensor:
#      x y z
#    x 3.271240 0.000000 -0.549470 
#    y 0.000000 3.427890 0.000000 
#    z -0.549470 0.000000 1.963780 
# 
# 
# High freq. dielectric constant tensor:
#      x y z
#    x 1.723730 0.000000 -0.001950 
#    y 0.000000 1.724990 0.000000 
#    z -0.001950 0.000000 1.729420 
# 
# From -- ./inp_files/231061.got.cif
#   From: 2010.06.25/outbox.cif.g09.slc.cpg/sg12_116_cif.got.tgz:231061.got - 2010.06.28 00:19:55.
