data_PCOD8091349
_publ_section_title
;
Structure prediction by ZEFSAII (Michael W. Deem and Ramdas Pophale) SiO2 
 PCOD8091349
Probable space group: C 2/M
;
_chemical_formula_sum "Si O2"
_cell_formula_units_Z 56
_cell_length_a 27.368167
_cell_length_b 8.701475
_cell_length_c 13.702967
_cell_angle_alpha 90.000000
_cell_angle_beta 119.977113
_cell_angle_gamma 90.000000
_cell_volume 2826.727502
_symmetry_space_group_name_H-M "C 2/M"
_symmetry_group_IT_number 12
_symmetry_cell_setting 'monoclinic'
loop_
_space_group_symop_operation_xyz
x,y,z
-x,y,-z
-x,-y,-z
x,-y,z
1/2+x,1/2+y,z
1/2-x,1/2+y,-z
1/2-x,1/2-y,-z
1/2+x,1/2-y,z
loop_
_atom_site_type_symbol
_atom_site_label
_atom_site_fract_x
_atom_site_fract_y
_atom_site_fract_z
Si Si1 0.775349 0.682842 0.737451
Si Si2 0.440676 0.682735 0.402570
Si Si3 0.345188 0.682031 0.451605
Si Si4 0.130098 0.320596 0.316731
Si Si5 0.912916 0.819951 0.157801
Si Si6 0.494265 0.822449 0.881417
Si Si7 0.296517 0.818521 0.975947
O O1 0.775277 0.500000 0.739118
O O2 0.715970 0.748433 0.638717
O O3 0.824744 0.742941 0.716120
O O4 0.786086 0.746570 0.856747
O O5 0.500000 0.750646 0.500000
O O6 0.441975 0.500000 0.408609
O O7 0.391017 0.748537 0.421460
O O8 0.430444 0.738823 0.282387
O O9 0.344248 0.500000 0.444982
O O10 0.361796 0.730538 0.575800
O O11 0.139095 0.500000 0.345489
O O12 0.068783 0.284252 0.213921
O O13 0.858343 0.727400 0.071263
O O14 0.963944 0.786173 0.136041
O O15 0.899006 0.000000 0.143937
O O16 0.510021 0.000000 0.877956
O O17 0.500000 0.780915 0.000000
O O18 0.290573 0.000000 0.971518
O O19 0.250000 0.750000 0.000000
#
# Coordination Sequence:
#
# PCOD8091349 Si02
#       7
#     8   8   8   8   8   8   8
#     4   9  19  36  57  78 106 148 188 221 269 338
#     4   9  18  33  53  77 108 146 183 221 274 339
#     4  10  19  34  56  79 105 141 184 226 273 330
#     4  10  20  35  55  80 109 142 183 229 277 327
#     4  11  22  37  59  86 113 143 185 234 279 326
#     4  10  21  38  58  79 109 151 190 225 276 339
#     4  11  22  39  61  84 113 149 188 228 275 330
#
# _framework density 19.810894000000001
#
# number of rings (size 3 to 8) (size 9 to 14) (size 15 to 20)
#    0.000    2.000    0.000    3.857    0.000    6.571 
#    0.000    7.143    0.000    3.857    0.000    0.000 
#    0.000    0.000    0.000    0.000    0.000    0.000 
#
# Total GULP energy -347301.574443 kJ/mol
# GULP energy per Si atom -12403.627659 kJ/mol
# Density = 1.976580 g / cm^3
# Si number density = 19.810894 Si / 1000 Ang^3
#
#
#
# Elastic Constant Matrix: (Units=GPa)
#
#
# Indices 1 2 3 4 5 6 
#
# 1 166.8187 20.9382 74.9685 0.0000 -4.6660 0.0000
# 2 20.9382 28.2964 20.6655 0.0000 -2.4722 0.0000
# 3 74.9685 20.6655 174.0093 0.0000 -3.8439 0.0000
# 4 0.0000 0.0000 0.0000 29.1657 0.0000 -3.6610
# 5 -4.6660 -2.4722 -3.8439 0.0000 43.2931 0.0000
# 6 0.0000 0.0000 0.0000 -3.6610 0.0000 26.6099
#
#
#
# Elastic Compliance Matrix: (Units=1/GPa)
#
#
# Indices 1 2 3 4 5 6 
#
# 1 0.007763 -0.003586 -0.002910 0.000000 0.000373 0.000000
# 2 -0.003586 0.040494 -0.003228 0.000000 0.001639 0.000000
# 3 -0.002910 -0.003228 0.007388 0.000000 0.000158 0.000000
# 4 0.000000 0.000000 0.000000 0.034889 0.000000 0.004800
# 5 0.000373 0.001639 0.000158 0.000000 0.023246 0.000000
# 6 0.000000 0.000000 0.000000 0.004800 0.000000 0.038240
#
#
# Mechanical properties :
#
#
# Convention : Reuss Voigt Hill
#
# Bulk Modulus (GPa) = 27.62731 66.91874 47.27303
# Shear Modulus (GPa) = 27.24271 36.65057 31.94664
#
# Velocity S-wave (km/s) = 3.71231 4.30585 4.02005
# Velocity P-wave (km/s) = 5.68777 7.65327 6.74253
#
# Compressibility (1/GPa) = 0.03619607
#
# Stress axis : x y z
#
# Youngs Moduli (GPa) = 128.81564 24.69473 135.36297
#
# Poissons Ratio (x) = 0.08856 0.39396
# Poissons Ratio (y) = 0.46196 0.43694
# Poissons Ratio (z) = 0.37491 0.07971
#
# Static dielectric constant tensor:
#      x y z
#    x 3.766280 0.000000 0.004950 
#    y 0.000000 3.221110 0.000000 
#    z 0.004950 0.000000 3.824920 
# 
# 
# High freq. dielectric constant tensor:
#      x y z
#    x 1.793470 0.000000 0.001060 
#    y 0.000000 1.737090 0.000000 
#    z 0.001060 0.000000 1.792460 
# 
# From -- ./inp_files/181060.got.cif
#   From: 2010.06.25/outbox.cif.g09.slc.cpg/sg12_91_cif.got.tgz:181060.got - 2010.06.28 00:19:55.
