data_PCOD8091303
_publ_section_title
;
Structure prediction by ZEFSAII (Michael W. Deem and Ramdas Pophale) SiO2 
 PCOD8091303
Probable space group: C 2/M
;
_chemical_formula_sum "Si O2"
_cell_formula_units_Z 48
_cell_length_a 19.293231
_cell_length_b 8.743306
_cell_length_c 15.762520
_cell_angle_alpha 90.000000
_cell_angle_beta 77.699919
_cell_angle_gamma 90.000000
_cell_volume 2597.891333
_symmetry_space_group_name_H-M "C 2/M"
_symmetry_group_IT_number 12
_symmetry_cell_setting 'monoclinic'
loop_
_space_group_symop_operation_xyz
x,y,z
-x,y,-z
-x,-y,-z
x,-y,z
1/2+x,1/2+y,z
1/2-x,1/2+y,-z
1/2-x,1/2-y,-z
1/2+x,1/2-y,z
loop_
_atom_site_type_symbol
_atom_site_label
_atom_site_fract_x
_atom_site_fract_y
_atom_site_fract_z
Si Si1 0.670786 0.680601 0.867394
Si Si2 0.937243 0.177987 0.791721
Si Si3 0.226918 0.181202 0.594283
Si Si4 0.706326 0.322168 0.261571
Si Si5 0.591570 0.679772 0.721766
Si Si6 0.927422 0.320233 0.975390
O O1 0.681932 0.500000 0.867714
O O2 0.746439 0.757779 0.828062
O O3 0.615927 0.733731 0.808683
O O4 0.640226 0.739124 0.964207
O O5 0.875503 0.206540 0.740378
O O6 0.925290 0.278351 0.877747
O O7 0.010712 0.233099 0.727566
O O8 0.942060 0.000000 0.817379
O O9 0.250000 0.250000 0.500000
O O10 0.279901 0.233749 0.654614
O O11 0.147155 0.242708 0.637058
O O12 0.229967 0.000000 0.587440
O O13 0.722966 0.500000 0.270307
O O14 0.597274 0.500000 0.715992
O O15 0.919296 0.500000 0.989296
O O16 0.000000 0.260652 0.000000
#
# Coordination Sequence:
#
# PCOD8091303 Si02
#       6
#     8   8   8   8   8   8
#     4  10  19  34  56  76 104 148 190 226 264 320
#     4  10  20  36  56  78 107 146 184 223 271 324
#     4  10  20  37  61  85 108 139 178 220 267 328
#     4  10  21  36  56  82 112 140 175 226 278 324
#     4   8  16  32  55  79 101 135 183 220 259 317
#     4  11  22  33  50  80 112 142 184 235 276 312
#
# _framework density 18.476524000000001
#
# number of rings (size 3 to 8) (size 9 to 14) (size 15 to 20)
#    0.000    2.167    1.667    3.000    0.000    2.667 
#    0.000    1.667    0.000    5.000    0.000    0.000 
#    0.000    0.000    0.000    0.000    0.000    0.000 
#
# Total GULP energy -297574.670619 kJ/mol
# GULP energy per Si atom -12398.944609 kJ/mol
# Density = 1.843447 g / cm^3
# Si number density = 18.476524 Si / 1000 Ang^3
#
#
#
# Elastic Constant Matrix: (Units=GPa)
#
#
# Indices 1 2 3 4 5 6 
#
# 1 127.0862 37.3229 57.0199 0.0000 -17.2247 0.0000
# 2 37.3229 70.7697 36.2713 0.0000 -4.5324 0.0000
# 3 57.0199 36.2713 130.6905 0.0000 -19.0915 0.0000
# 4 0.0000 0.0000 0.0000 32.8249 0.0000 -0.1568
# 5 -17.2247 -4.5324 -19.0915 0.0000 23.1379 0.0000
# 6 0.0000 0.0000 0.0000 -0.1568 0.0000 24.3013
#
#
#
# Elastic Compliance Matrix: (Units=1/GPa)
#
#
# Indices 1 2 3 4 5 6 
#
# 1 0.011054 -0.003978 -0.002991 0.000000 0.004982 0.000000
# 2 -0.003978 0.017913 -0.003589 0.000000 -0.002413 0.000000
# 3 -0.002991 -0.003589 0.010830 0.000000 0.006006 0.000000
# 4 0.000000 0.000000 0.000000 0.030466 0.000000 0.000197
# 5 0.004982 -0.002413 0.006006 0.000000 0.051411 0.000000
# 6 0.000000 0.000000 0.000000 0.000197 0.000000 0.041151
#
#
# Mechanical properties :
#
#
# Convention : Reuss Voigt Hill
#
# Bulk Modulus (GPa) = 53.52679 65.53053 59.52866
# Shear Modulus (GPa) = 26.29266 29.24831 27.77049
#
# Velocity S-wave (km/s) = 3.77640 3.98301 3.88108
# Velocity P-wave (km/s) = 6.93167 7.52970 7.23686
#
# Compressibility (1/GPa) = 0.01868223
#
# Stress axis : x y z
#
# Youngs Moduli (GPa) = 90.46407 55.82612 92.33547
#
# Poissons Ratio (x) = 0.22206 0.27619
# Poissons Ratio (y) = 0.35984 0.33135
# Poissons Ratio (z) = 0.27059 0.20033
#
# Static dielectric constant tensor:
#      x y z
#    x 3.738890 0.000000 -0.385400 
#    y 0.000000 3.327240 0.000000 
#    z -0.385400 0.000000 3.421710 
# 
# 
# High freq. dielectric constant tensor:
#      x y z
#    x 1.717130 0.000000 -0.016780 
#    y 0.000000 1.712840 0.000000 
#    z -0.016780 0.000000 1.704080 
# 
# From -- ./inp_files/229950.got.cif
#   From: 2010.06.25/outbox.cif.g09.slc.cpg/sg12_115_cif.got.tgz:229950.got - 2010.06.28 00:19:55.
