data_PCOD8091450
_publ_section_title
;
Structure prediction by ZEFSAII (Michael W. Deem and Ramdas Pophale) SiO2 
 PCOD8091450
Probable space group: C 2/M
;
_chemical_formula_sum "Si O2"
_cell_formula_units_Z 64
_cell_length_a 14.065105
_cell_length_b 24.635013
_cell_length_c 9.044076
_cell_angle_alpha 90.000000
_cell_angle_beta 88.946406
_cell_angle_gamma 90.000000
_cell_volume 3133.188664
_symmetry_space_group_name_H-M "C 2/M"
_symmetry_group_IT_number 12
_symmetry_cell_setting 'monoclinic'
loop_
_space_group_symop_operation_xyz
x,y,z
-x,y,-z
-x,-y,-z
x,-y,z
1/2+x,1/2+y,z
1/2-x,1/2+y,-z
1/2-x,1/2-y,-z
1/2+x,1/2-y,z
loop_
_atom_site_type_symbol
_atom_site_label
_atom_site_fract_x
_atom_site_fract_y
_atom_site_fract_z
Si Si1 0.434793 0.262618 0.697011
Si Si2 0.727245 0.364452 0.968682
Si Si3 0.639702 0.713491 0.764787
Si Si4 0.895544 0.061041 0.508364
Si Si5 0.817714 0.669523 0.586163
Si Si6 0.789298 0.853403 0.684077
Si Si7 0.255830 0.061253 0.726022
Si Si8 0.103092 0.707891 0.013580
O O1 0.543659 0.282286 0.669473
O O2 0.412616 0.204800 0.615891
O O3 0.367293 0.309112 0.639472
O O4 0.415662 0.257550 0.873252
O O5 0.638645 0.334953 0.888424
O O6 0.737935 0.424977 0.900468
O O7 0.822281 0.332301 0.913098
O O8 0.727769 0.363342 0.143653
O O9 0.727616 0.703970 0.652628
O O10 0.648493 0.769630 0.858631
O O11 0.827589 0.089394 0.627188
O O12 0.847210 0.064376 0.348699
O O13 0.000000 0.088282 0.500000
O O14 0.905847 0.000000 0.565819
O O15 0.804701 0.663386 0.407989
O O16 0.823437 0.608203 0.653589
O O17 0.299086 0.000000 0.709853
O O18 0.000000 0.678530 0.000000
#
# Coordination Sequence:
#
# PCOD8091450 Si02
#       8
#     8   8   8   8   8   8   8   8
#     4  11  20  33  54  84 112 150 196 231 285 348
#     4  11  20  36  56  84 118 143 192 246 286 340
#     4  10  20  33  57  77 109 157 191 228 278 349
#     4   9  20  39  56  77 114 157 200 238 284 346
#     4  10  21  38  53  81 122 153 191 238 283 345
#     4  11  23  31  55  83 119 152 189 240 291 337
#     4   9  19  36  61  81 104 151 195 234 288 339
#     4  10  19  34  56  81 111 157 189 226 290 352
#
# _framework density 20.426473000000001
#
# number of rings (size 3 to 8) (size 9 to 14) (size 15 to 20)
#    0.000    1.875    3.750    1.500    5.250    0.500 
#    0.000    1.250    0.000    2.625    0.000    0.000 
#    0.000    3.250    0.000    0.000    0.000    0.000 
#
# Total GULP energy -396481.362151 kJ/mol
# GULP energy per Si atom -12390.042567 kJ/mol
# Density = 2.037998 g / cm^3
# Si number density = 20.426473 Si / 1000 Ang^3
#
#
#
# Elastic Constant Matrix: (Units=GPa)
#
#
# Indices 1 2 3 4 5 6 
#
# 1 63.8303 38.9645 23.2286 0.0000 10.9110 0.0000
# 2 38.9645 101.5196 30.3542 0.0000 13.2252 0.0000
# 3 23.2286 30.3542 106.2087 0.0000 11.6154 0.0000
# 4 0.0000 0.0000 0.0000 19.5728 0.0000 10.1203
# 5 10.9110 13.2252 11.6154 0.0000 25.6691 0.0000
# 6 0.0000 0.0000 0.0000 10.1203 0.0000 7.9459
#
#
#
# Elastic Compliance Matrix: (Units=1/GPa)
#
#
# Indices 1 2 3 4 5 6 
#
# 1 0.021525 -0.007010 -0.002208 0.000000 -0.004539 0.000000
# 2 -0.007010 0.013541 -0.001999 0.000000 -0.003093 0.000000
# 3 -0.002208 -0.001999 0.010788 0.000000 -0.002913 0.000000
# 4 0.000000 0.000000 0.000000 0.149630 0.000000 -0.190575
# 5 -0.004539 -0.003093 -0.002913 0.000000 0.043798 0.000000
# 6 0.000000 0.000000 0.000000 -0.190575 0.000000 0.368574
#
#
# Mechanical properties :
#
#
# Convention : Reuss Voigt Hill
#
# Bulk Modulus (GPa) = 42.69632 50.73924 46.71778
# Shear Modulus (GPa) = 7.83579 22.57165 15.20372
#
# Velocity S-wave (km/s) = 1.96072 3.32779 2.73117
# Velocity P-wave (km/s) = 5.10624 6.29757 5.73294
#
# Compressibility (1/GPa) = 0.02342122
#
# Stress axis : x y z
#
# Youngs Moduli (GPa) = 46.45723 73.84757 92.69435
#
# Poissons Ratio (x) = 0.51769 0.20465
# Poissons Ratio (y) = 0.32568 0.18527
# Poissons Ratio (z) = 0.10257 0.14760
#
# Static dielectric constant tensor:
#      x y z
#    x 3.588610 0.000000 0.334430 
#    y 0.000000 3.733980 0.000000 
#    z 0.334430 0.000000 3.824490 
# 
# 
# High freq. dielectric constant tensor:
#      x y z
#    x 1.771050 0.000000 0.023320 
#    y 0.000000 1.777130 0.000000 
#    z 0.023320 0.000000 1.813210 
# 
# From -- ./inp_files/65865.got.cif
#   From: 2010.06.25/outbox.cif.g09.slc.cpg/sg12_33_cif.got.tgz:65865.got - 2010.06.28 00:19:55.
