data_PCOD8091822
_publ_section_title
;
Structure prediction by ZEFSAII (Michael W. Deem and Ramdas Pophale) SiO2 
 PCOD8091822
Probable space group: C 2/M
;
_chemical_formula_sum "Si O2"
_cell_formula_units_Z 64
_cell_length_a 11.926196
_cell_length_b 20.367875
_cell_length_c 17.236060
_cell_angle_alpha 90.000000
_cell_angle_beta 50.295593
_cell_angle_gamma 90.000000
_cell_volume 3221.141895
_symmetry_space_group_name_H-M "C 2/M"
_symmetry_group_IT_number 12
_symmetry_cell_setting 'monoclinic'
loop_
_space_group_symop_operation_xyz
x,y,z
-x,y,-z
-x,-y,-z
x,-y,z
1/2+x,1/2+y,z
1/2-x,1/2+y,-z
1/2-x,1/2-y,-z
1/2+x,1/2-y,z
loop_
_atom_site_type_symbol
_atom_site_label
_atom_site_fract_x
_atom_site_fract_y
_atom_site_fract_z
Si Si1 0.434441 0.152656 0.306464
Si Si2 0.192924 0.217261 0.604338
Si Si3 0.355115 0.574356 0.890101
Si Si4 0.156352 0.922909 0.401181
Si Si5 0.900378 0.876561 0.112163
Si Si6 0.325028 0.797409 0.699182
Si Si7 0.094733 0.153008 0.282320
Si Si8 0.848018 0.426500 0.881529
O O1 0.391318 0.227550 0.307165
O O2 0.288756 0.110875 0.390223
O O3 0.540947 0.155343 0.334481
O O4 0.519323 0.123020 0.195001
O O5 0.250000 0.250000 0.500000
O O6 0.320785 0.195469 0.606905
O O7 0.082644 0.157200 0.635521
O O8 0.346532 0.500000 0.860421
O O9 0.502474 0.578230 0.875094
O O10 0.353728 0.629892 0.824904
O O11 0.215258 0.589752 0.005682
O O12 0.161042 0.901831 0.309646
O O13 0.000000 0.897441 0.500000
O O14 0.173716 0.000000 0.403219
O O15 0.826645 0.819674 0.195478
O O16 0.777710 0.922046 0.127520
O O17 0.000000 0.844451 0.000000
O O18 0.345012 0.723463 0.719715
O O19 0.911755 0.500000 0.850764
#
# Coordination Sequence:
#
# PCOD8091822 Si02
#       8
#     8   8   8   8   8   8   8   8
#     4  10  21  38  60  85 117 153 196 241 293 350
#     4  11  22  39  63  87 117 155 200 253 305 355
#     4  10  19  34  57  86 119 155 196 244 294 353
#     4  11  23  40  61  84 115 157 201 241 291 356
#     4   9  17  34  56  87 118 154 194 239 297 352
#     4  10  21  38  58  90 118 153 195 247 302 351
#     4  11  22  36  58  85 121 153 200 245 301 352
#     4   9  18  34  58  86 117 156 199 237 290 359
#
# _framework density 19.868731
#
# number of rings (size 3 to 8) (size 9 to 14) (size 15 to 20)
#    0.000    1.875    2.500    1.875    0.000    3.000 
#    2.250    3.125    0.000    2.250    0.000    4.375 
#    0.000    0.000    0.000    0.000    0.000    0.000 
#
# Total GULP energy -396619.528209 kJ/mol
# GULP energy per Si atom -12394.360257 kJ/mol
# Density = 1.982351 g / cm^3
# Si number density = 19.868731 Si / 1000 Ang^3
#
#
#
# Elastic Constant Matrix: (Units=GPa)
#
#
# Indices 1 2 3 4 5 6 
#
# 1 102.0801 30.4464 48.4851 0.0000 2.0961 -0.0001
# 2 30.4464 50.8216 27.4315 0.0000 0.7745 0.0000
# 3 48.4851 27.4315 99.0819 0.0000 3.4331 0.0000
# 4 0.0000 0.0000 0.0000 33.6182 0.0000 -3.8595
# 5 2.0961 0.7745 3.4331 0.0000 34.7560 0.0000
# 6 -0.0001 0.0000 0.0000 -3.8595 0.0000 26.1441
#
#
#
# Elastic Compliance Matrix: (Units=1/GPa)
#
#
# Indices 1 2 3 4 5 6 
#
# 1 0.013958 -0.005497 -0.005301 0.000000 -0.000196 0.000000
# 2 -0.005497 0.025299 -0.004321 0.000000 0.000195 0.000000
# 3 -0.005301 -0.004321 0.013916 0.000000 -0.000959 0.000000
# 4 0.000000 0.000000 0.000000 0.030259 0.000000 0.004467
# 5 -0.000196 0.000195 -0.000959 0.000000 0.028874 0.000000
# 6 0.000000 0.000000 0.000000 0.004467 0.000000 0.038909
#
#
# Mechanical properties :
#
#
# Convention : Reuss Voigt Hill
#
# Bulk Modulus (GPa) = 43.60324 51.63440 47.61882
# Shear Modulus (GPa) = 26.44106 28.61169 27.52637
#
# Velocity S-wave (km/s) = 3.65195 3.79890 3.72615
# Velocity P-wave (km/s) = 6.30679 6.72951 6.52158
#
# Compressibility (1/GPa) = 0.02293408
#
# Stress axis : x y z
#
# Youngs Moduli (GPa) = 71.64369 39.52664 71.85781
#
# Poissons Ratio (x) = 0.21730 0.38095
# Poissons Ratio (y) = 0.39386 0.31049
# Poissons Ratio (z) = 0.37982 0.17079
#
# Static dielectric constant tensor:
#      x y z
#    x 3.819940 0.000000 -0.128350 
#    y 0.000000 3.498640 0.000000 
#    z -0.128350 0.000000 3.655890 
# 
# 
# High freq. dielectric constant tensor:
#      x y z
#    x 1.781410 0.000000 -0.005740 
#    y 0.000000 1.760730 0.000000 
#    z -0.005740 0.000000 1.767980 
# 
# From -- ./inp_files/265071.got.cif
#   From: 2010.06.25/outbox.cif.g09.slc.cpg/sg12_133_cif.got.tgz:265071.got - 2010.06.28 00:19:55.
