data_PCOD8091060
_publ_section_title
;
Structure prediction by ZEFSAII (Michael W. Deem and Ramdas Pophale) SiO2 
 PCOD8091060
Probable space group: C 2/M
;
_chemical_formula_sum "Si O2"
_cell_formula_units_Z 48
_cell_length_a 10.389634
_cell_length_b 23.150109
_cell_length_c 11.582438
_cell_angle_alpha 90.000000
_cell_angle_beta 114.258546
_cell_angle_gamma 90.000000
_cell_volume 2539.835539
_symmetry_space_group_name_H-M "C 2/M"
_symmetry_group_IT_number 12
_symmetry_cell_setting 'monoclinic'
loop_
_space_group_symop_operation_xyz
x,y,z
-x,y,-z
-x,-y,-z
x,-y,z
1/2+x,1/2+y,z
1/2-x,1/2+y,-z
1/2-x,1/2-y,-z
1/2+x,1/2-y,z
loop_
_atom_site_type_symbol
_atom_site_label
_atom_site_fract_x
_atom_site_fract_y
_atom_site_fract_z
Si Si1 0.175074 0.380651 0.849280
Si Si2 0.789789 0.125970 0.143337
Si Si3 0.934610 0.500000 0.154087
Si Si4 0.935571 0.173688 0.858762
Si Si5 0.497241 0.200879 0.375530
Si Si6 0.762469 0.721328 0.696204
Si Si7 0.783412 0.500000 0.854375
O O1 0.112549 0.443027 0.795303
O O2 0.328676 0.378764 0.846843
O O3 0.073682 0.332819 0.756554
O O4 0.190773 0.369001 0.992793
O O5 0.720367 0.163797 0.219434
O O6 0.807026 0.058933 0.188592
O O7 0.946278 0.150090 0.183150
O O8 0.103322 0.500000 0.206932
O O9 0.862667 0.500000 0.004034
O O10 0.855184 0.227441 0.779570
O O11 0.000000 0.197626 0.000000
O O12 0.500000 0.166915 0.500000
O O13 0.401895 0.258615 0.368993
O O14 0.661431 0.211055 0.400142
#
# Coordination Sequence:
#
# PCOD8091060 Si02
#       7
#     8   8   4   8   8   8   4
#     4   9  20  33  55  76 112 139 176 226 264 329
#     4  10  19  34  54  85 109 142 178 218 279 319
#     4   9  16  33  48  79 102 145 177 214 276 309
#     4   9  19  31  49  83 110 139 175 213 274 329
#     4  11  23  37  52  77 106 144 183 222 271 320
#     4  11  21  35  57  77 110 141 175 230 268 329
#     4   9  18  29  51  77 115 137 174 218 264 335
#
# _framework density 18.898861
#
# number of rings (size 3 to 8) (size 9 to 14) (size 15 to 20)
#    0.000    2.167    1.667    1.500    2.333    4.000 
#    0.000    3.750    0.000    0.000    0.000    0.583 
#    0.000    0.000    0.000    0.000    0.000    0.000 
#
# Total GULP energy -297378.948944 kJ/mol
# GULP energy per Si atom -12390.789539 kJ/mol
# Density = 1.885585 g / cm^3
# Si number density = 18.898861 Si / 1000 Ang^3
#
#
#
# Elastic Constant Matrix: (Units=GPa)
#
#
# Indices 1 2 3 4 5 6 
#
# 1 111.9945 38.6392 27.8186 0.0000 -23.0303 0.0000
# 2 38.6392 101.9883 23.9338 0.0000 -12.9374 0.0000
# 3 27.8186 23.9338 47.2190 0.0000 -9.2499 0.0000
# 4 0.0000 0.0000 0.0000 17.4722 0.0000 -1.3426
# 5 -23.0303 -12.9374 -9.2499 0.0000 26.3015 0.0000
# 6 0.0000 0.0000 0.0000 -1.3426 0.0000 26.3892
#
#
#
# Elastic Compliance Matrix: (Units=1/GPa)
#
#
# Indices 1 2 3 4 5 6 
#
# 1 0.012658 -0.002706 -0.004484 0.000000 0.008175 0.000000
# 2 -0.002706 0.012062 -0.004104 0.000000 0.002120 0.000000
# 3 -0.004484 -0.004104 0.026566 0.000000 0.003398 0.000000
# 4 0.000000 0.000000 0.000000 0.057459 0.000000 0.002923
# 5 0.008175 0.002120 0.003398 0.000000 0.047417 0.000000
# 6 0.000000 0.000000 0.000000 0.002923 0.000000 0.038043
#
#
# Mechanical properties :
#
#
# Convention : Reuss Voigt Hill
#
# Bulk Modulus (GPa) = 34.84735 49.10943 41.97839
# Shear Modulus (GPa) = 22.08886 25.41994 23.75440
#
# Velocity S-wave (km/s) = 3.42247 3.67147 3.54916
# Velocity P-wave (km/s) = 5.83923 6.63436 6.24946
#
# Compressibility (1/GPa) = 0.02869659
#
# Stress axis : x y z
#
# Youngs Moduli (GPa) = 79.00411 82.90194 37.64272
#
# Poissons Ratio (x) = 0.22434 0.16879
# Poissons Ratio (y) = 0.21380 0.15450
# Poissons Ratio (z) = 0.35425 0.34026
#
# Static dielectric constant tensor:
#      x y z
#    x 3.938980 0.000000 -0.100860 
#    y 0.000000 3.556070 0.000000 
#    z -0.100860 0.000000 3.263820 
# 
# 
# High freq. dielectric constant tensor:
#      x y z
#    x 1.752690 0.000000 -0.006290 
#    y 0.000000 1.721190 0.000000 
#    z -0.006290 0.000000 1.701790 
# 
# From -- ./inp_files/122591.got.cif
#   From: 2010.06.25/outbox.cif.g09.slc.cpg/sg12_62_cif.got.tgz:122591.got - 2010.06.28 00:19:55.
