data_PCOD8091696
_publ_section_title
;
Structure prediction by ZEFSAII (Michael W. Deem and Ramdas Pophale) SiO2 
 PCOD8091696
Probable space group: C 2/M
;
_chemical_formula_sum "Si O2"
_cell_formula_units_Z 64
_cell_length_a 25.555644
_cell_length_b 8.805255
_cell_length_c 14.634573
_cell_angle_alpha 90.000000
_cell_angle_beta 99.883757
_cell_angle_gamma 90.000000
_cell_volume 3244.253061
_symmetry_space_group_name_H-M "C 2/M"
_symmetry_group_IT_number 12
_symmetry_cell_setting 'monoclinic'
loop_
_space_group_symop_operation_xyz
x,y,z
-x,y,-z
-x,-y,-z
x,-y,z
1/2+x,1/2+y,z
1/2-x,1/2+y,-z
1/2-x,1/2-y,-z
1/2+x,1/2-y,z
loop_
_atom_site_type_symbol
_atom_site_label
_atom_site_fract_x
_atom_site_fract_y
_atom_site_fract_z
Si Si1 0.019157 0.172045 0.102305
Si Si2 0.711198 0.679089 0.710736
Si Si3 0.405837 0.676937 0.365207
Si Si4 0.095799 0.824646 0.425088
Si Si5 0.141961 0.827972 0.163471
Si Si6 0.000789 0.678582 0.284740
Si Si7 0.315899 0.821248 0.649433
Si Si8 0.268855 0.820252 0.912187
O O1 0.081917 0.174492 0.115411
O O2 0.996808 0.272531 0.178252
O O3 0.997926 0.000000 0.109213
O O4 0.000000 0.240546 0.000000
O O5 0.709218 0.500000 0.699534
O O6 0.653008 0.745308 0.671649
O O7 0.755603 0.738308 0.650750
O O8 0.728286 0.724444 0.818423
O O9 0.409002 0.500000 0.339323
O O10 0.420471 0.700665 0.475311
O O11 0.447428 0.769058 0.318392
O O12 0.155493 0.758552 0.428148
O O13 0.052581 0.747985 0.347567
O O14 0.097059 0.000000 0.398481
O O15 0.148325 0.720769 0.252861
O O16 0.174657 0.756419 0.089950
O O17 0.161057 0.000000 0.190536
O O18 0.005577 0.500000 0.293410
O O19 0.316839 0.000000 0.634178
O O20 0.275190 0.000000 0.922297
O O21 0.250000 0.750000 0.000000
#
# Coordination Sequence:
#
# PCOD8091696 Si02
#       8
#     8   8   8   8   8   8   8   8
#     4  10  22  40  62  87 115 152 196 240 292 354
#     4   8  18  37  58  82 114 154 193 236 294 351
#     4  10  22  41  62  83 116 159 202 244 291 356
#     4  11  22  37  61  89 114 153 203 245 292 354
#     4  10  19  34  57  82 111 147 191 236 284 343
#     4  12  25  40  60  86 120 156 195 248 302 351
#     4  10  19  34  59  87 117 151 188 236 292 347
#     4  10  20  35  57  83 114 150 193 238 289 349
#
# _framework density 19.72719
#
# number of rings (size 3 to 8) (size 9 to 14) (size 15 to 20)
#    0.000    1.875    1.250    3.750    0.000    4.750 
#    0.000    8.750    0.000    0.000    0.000    0.000 
#    0.000    0.000    0.000    0.000    0.000    0.000 
#
# Total GULP energy -396782.676327 kJ/mol
# GULP energy per Si atom -12399.458635 kJ/mol
# Density = 1.968229 g / cm^3
# Si number density = 19.727190 Si / 1000 Ang^3
#
#
#
# Elastic Constant Matrix: (Units=GPa)
#
#
# Indices 1 2 3 4 5 6 
#
# 1 119.7585 50.0739 51.3176 0.0000 -14.9031 0.0000
# 2 50.0739 101.2386 50.8700 0.0000 -14.7363 0.0000
# 3 51.3176 50.8700 97.9409 0.0000 -15.2697 0.0000
# 4 0.0000 0.0000 0.0000 22.7730 0.0000 -10.1291
# 5 -14.9031 -14.7363 -15.2697 0.0000 30.7074 0.0000
# 6 0.0000 0.0000 0.0000 -10.1291 0.0000 31.0415
#
#
#
# Elastic Compliance Matrix: (Units=1/GPa)
#
#
# Indices 1 2 3 4 5 6 
#
# 1 0.011804 -0.003510 -0.004045 0.000000 0.002033 0.000000
# 2 -0.003510 0.014708 -0.005383 0.000000 0.002678 0.000000
# 3 -0.004045 -0.005383 0.015628 0.000000 0.003225 0.000000
# 4 0.000000 0.000000 0.000000 0.051367 0.000000 0.016761
# 5 0.002033 0.002678 0.003225 0.000000 0.036441 0.000000
# 6 0.000000 0.000000 0.000000 0.016761 0.000000 0.037684
#
#
# Mechanical properties :
#
#
# Convention : Reuss Voigt Hill
#
# Bulk Modulus (GPa) = 61.48062 69.27344 65.37703
# Shear Modulus (GPa) = 25.13450 28.01616 26.57533
#
# Velocity S-wave (km/s) = 3.57333 3.77262 3.67433
# Velocity P-wave (km/s) = 6.94680 7.35994 7.15635
#
# Compressibility (1/GPa) = 0.01626529
#
# Stress axis : x y z
#
# Youngs Moduli (GPa) = 84.71700 67.98880 63.98708
#
# Poissons Ratio (x) = 0.23865 0.25882
# Poissons Ratio (y) = 0.29736 0.34442
# Poissons Ratio (z) = 0.34266 0.36596
#
# Static dielectric constant tensor:
#      x y z
#    x 3.859390 0.000000 -0.099560 
#    y 0.000000 3.646790 0.000000 
#    z -0.099560 0.000000 3.589700 
# 
# 
# High freq. dielectric constant tensor:
#      x y z
#    x 1.778240 0.000000 -0.011860 
#    y 0.000000 1.760700 0.000000 
#    z -0.011860 0.000000 1.766870 
# 
# From -- ./inp_files/238691.got.cif
#   From: 2010.06.25/outbox.cif.g09.slc.cpg/sg12_120_cif.got.tgz:238691.got - 2010.06.28 00:19:55.
