data_PCOD8091863
_publ_section_title
;
Structure prediction by ZEFSAII (Michael W. Deem and Ramdas Pophale) SiO2 
 PCOD8091863
Probable space group: C 2/M
;
_chemical_formula_sum "Si O2"
_cell_formula_units_Z 64
_cell_length_a 24.141296
_cell_length_b 9.070515
_cell_length_c 20.508223
_cell_angle_alpha 90.000000
_cell_angle_beta 51.951601
_cell_angle_gamma 90.000000
_cell_volume 3536.436234
_symmetry_space_group_name_H-M "C 2/M"
_symmetry_group_IT_number 12
_symmetry_cell_setting 'monoclinic'
loop_
_space_group_symop_operation_xyz
x,y,z
-x,y,-z
-x,-y,-z
x,-y,z
1/2+x,1/2+y,z
1/2-x,1/2+y,-z
1/2-x,1/2-y,-z
1/2+x,1/2-y,z
loop_
_atom_site_type_symbol
_atom_site_label
_atom_site_fract_x
_atom_site_fract_y
_atom_site_fract_z
Si Si1 0.317151 0.326372 0.623568
Si Si2 0.539898 0.329613 0.036100
Si Si3 0.037811 0.670890 0.288270
Si Si4 0.964118 0.327583 0.206113
Si Si5 0.325672 0.327275 0.268209
Si Si6 0.326783 0.672249 0.766827
Si Si7 0.050324 0.327626 0.523007
Si Si8 0.187939 0.167851 0.871407
O O1 0.308991 0.500000 0.620015
O O2 0.245077 0.248690 0.654298
O O3 0.335193 0.283982 0.684994
O O4 0.378372 0.265361 0.533160
O O5 0.521312 0.500000 0.064789
O O6 0.516133 0.228223 0.112432
O O7 0.500000 0.278703 0.000000
O O8 0.623142 0.305827 0.966956
O O9 0.056161 0.500000 0.282678
O O10 0.110739 0.757900 0.237066
O O11 0.000063 0.707797 0.248480
O O12 0.987012 0.721867 0.383436
O O13 0.949942 0.500000 0.206619
O O14 0.890633 0.242240 0.259470
O O15 0.321845 0.500000 0.285729
O O16 0.336973 0.293073 0.183617
O O17 0.328630 0.500000 0.776677
O O18 0.252268 0.730737 0.847734
O O19 0.069291 0.500000 0.508315
O O20 0.000000 0.284648 0.500000
O O21 0.214281 0.000000 0.854574
#
# Coordination Sequence:
#
# PCOD8091863 Si02
#       8
#     8   8   8   8   8   8   8   8
#     4  10  20  33  53  85 117 139 173 233 285 320
#     4  10  19  36  58  83 110 142 187 228 266 323
#     4  10  22  39  56  78 112 149 186 223 270 331
#     4  11  23  37  55  82 115 147 179 227 280 324
#     4  10  19  35  57  80 109 147 186 221 267 331
#     4  10  20  33  53  82 113 142 178 224 276 327
#     4  10  19  34  58  82 105 144 191 228 266 326
#     4   9  18  33  56  81 108 141 179 226 270 315
#
# _framework density 18.097314999999998
#
# number of rings (size 3 to 8) (size 9 to 14) (size 15 to 20)
#    0.000    2.000    2.500    1.500    0.000    4.000 
#    0.000    1.250    0.000    0.000    0.000    0.000 
#    0.000    0.000    0.000    0.000    0.000    0.000 
#
# Total GULP energy -396957.587696 kJ/mol
# GULP energy per Si atom -12404.924616 kJ/mol
# Density = 1.805612 g / cm^3
# Si number density = 18.097315 Si / 1000 Ang^3
#
#
#
# Elastic Constant Matrix: (Units=GPa)
#
#
# Indices 1 2 3 4 5 6 
#
# 1 118.8955 70.2264 65.2533 -0.0012 -16.5767 0.0009
# 2 70.2264 86.6512 46.8903 -0.0016 -10.6311 0.0020
# 3 65.2533 46.8903 98.7192 -0.0013 -8.3393 0.0013
# 4 -0.0012 -0.0016 -0.0013 29.9383 0.0004 -6.6495
# 5 -16.5767 -10.6311 -8.3393 0.0004 29.5631 -0.0005
# 6 0.0009 0.0020 0.0013 -6.6495 -0.0005 27.8422
#
#
#
# Elastic Compliance Matrix: (Units=1/GPa)
#
#
# Indices 1 2 3 4 5 6 
#
# 1 0.019954 -0.011646 -0.007239 0.000000 0.004959 0.000001
# 2 -0.011646 0.022711 -0.003023 0.000000 0.000784 -0.000001
# 3 -0.007239 -0.003023 0.016304 0.000000 -0.000547 0.000000
# 4 0.000000 0.000000 0.000000 0.035273 0.000000 0.008424
# 5 0.004959 0.000784 -0.000547 0.000000 0.036734 0.000000
# 6 0.000001 -0.000001 0.000000 0.008424 0.000000 0.037929
#
#
# Mechanical properties :
#
#
# Convention : Reuss Voigt Hill
#
# Bulk Modulus (GPa) = 65.99284 74.33399 70.16342
# Shear Modulus (GPa) = 22.95976 25.59510 24.27743
#
# Velocity S-wave (km/s) = 3.56572 3.76480 3.66661
# Velocity P-wave (km/s) = 7.31418 7.74997 7.53523
#
# Compressibility (1/GPa) = 0.01515316
#
# Stress axis : x y z
#
# Youngs Moduli (GPa) = 50.11605 44.03120 61.33292
#
# Poissons Ratio (x) = 0.51278 0.44398
# Poissons Ratio (y) = 0.58364 0.18543
# Poissons Ratio (z) = 0.36278 0.13312
#
# Static dielectric constant tensor:
#      x y z
#    x 3.230020 0.000000 -0.138320 
#    y 0.000000 3.317570 0.000000 
#    z -0.138320 0.000000 3.299270 
# 
# 
# High freq. dielectric constant tensor:
#      x y z
#    x 1.692590 0.000000 -0.021510 
#    y 0.000000 1.705310 0.000000 
#    z -0.021510 0.000000 1.694850 
# 
# From -- ./inp_files/295585.got.cif
#   From: 2010.06.25/outbox.cif.g09.slc.cpg/sg12_148_cif.got.tgz:295585.got - 2010.06.28 00:19:55.
