data_PCOD8091377
_publ_section_title
;
Structure prediction by ZEFSAII (Michael W. Deem and Ramdas Pophale) SiO2 
 PCOD8091377
Probable space group: C 2/M
;
_chemical_formula_sum "Si O2"
_cell_formula_units_Z 40
_cell_length_a 17.345359
_cell_length_b 13.304532
_cell_length_c 20.203591
_cell_angle_alpha 90.000000
_cell_angle_beta 27.920937
_cell_angle_gamma 90.000000
_cell_volume 2183.191239
_symmetry_space_group_name_H-M "C 2/M"
_symmetry_group_IT_number 12
_symmetry_cell_setting 'monoclinic'
loop_
_space_group_symop_operation_xyz
x,y,z
-x,y,-z
-x,-y,-z
x,-y,z
1/2+x,1/2+y,z
1/2-x,1/2+y,-z
1/2-x,1/2-y,-z
1/2+x,1/2-y,z
loop_
_atom_site_type_symbol
_atom_site_label
_atom_site_fract_x
_atom_site_fract_y
_atom_site_fract_z
Si Si1 0.834065 0.724398 0.162988
Si Si2 0.306470 0.886195 0.639325
Si Si3 0.508936 0.116002 0.838819
Si Si4 0.822252 0.883588 0.836036
Si Si5 0.360485 0.720575 0.354389
O O1 0.769837 0.828799 0.240543
O O2 0.868139 0.642651 0.194361
O O3 0.700750 0.678884 0.213954
O O4 0.000000 0.752214 0.000000
O O5 0.500000 0.882671 0.500000
O O6 0.256527 0.833360 0.609242
O O7 0.239927 0.000000 0.690719
O O8 0.554127 0.179787 0.739804
O O9 0.532084 0.000000 0.802627
O O10 0.321488 0.140628 0.002068
O O11 0.997472 0.857146 0.733789
O O12 0.816696 0.000000 0.820958
O O13 0.250000 0.750000 0.500000
#
# Coordination Sequence:
#
# PCOD8091377 Si02
#       5
#     8   8   8   8   8
#     4   9  18  34  56  80 103 130 169 213 257 307
#     4  10  21  37  53  71 102 141 175 209 254 306
#     4   9  19  35  55  78 105 137 170 209 258 311
#     4  10  19  34  56  80 105 133 169 214 262 307
#     4  11  22  35  53  77 107 138 175 216 257 304
#
# _framework density 18.321802000000002
#
# number of rings (size 3 to 8) (size 9 to 14) (size 15 to 20)
#    0.000    2.200    0.000    3.000    0.000    4.400 
#    0.000    1.000    0.000    6.600    0.000    0.000 
#    0.000    0.000    0.000    0.000    0.000    0.000 
#
# Total GULP energy -248061.670578 kJ/mol
# GULP energy per Si atom -12403.083529 kJ/mol
# Density = 1.828010 g / cm^3
# Si number density = 18.321802 Si / 1000 Ang^3
#
#
#
# Elastic Constant Matrix: (Units=GPa)
#
#
# Indices 1 2 3 4 5 6 
#
# 1 94.9861 49.7293 48.8701 0.0013 6.2202 0.0005
# 2 49.7293 129.1469 58.1890 0.0050 14.5180 -0.0016
# 3 48.8701 58.1890 87.5184 0.0100 13.8415 -0.0029
# 4 0.0013 0.0050 0.0100 21.9183 -0.0021 -6.4944
# 5 6.2202 14.5180 13.8415 -0.0021 34.0231 0.0002
# 6 0.0005 -0.0016 -0.0029 -6.4944 0.0002 22.2520
#
#
#
# Elastic Compliance Matrix: (Units=1/GPa)
#
#
# Indices 1 2 3 4 5 6 
#
# 1 0.015574 -0.003041 -0.006872 0.000003 0.001246 -0.000001
# 2 -0.003041 0.011758 -0.005786 0.000000 -0.002107 0.000000
# 3 -0.006872 -0.005786 0.019795 -0.000008 -0.004328 0.000000
# 4 0.000003 0.000000 -0.000008 0.049943 0.000006 0.014576
# 5 0.001246 -0.002107 -0.004328 0.000006 0.031824 0.000001
# 6 -0.000001 0.000000 0.000000 0.014576 0.000001 0.049194
#
#
# Mechanical properties :
#
#
# Convention : Reuss Voigt Hill
#
# Bulk Modulus (GPa) = 63.57640 69.46980 66.52310
# Shear Modulus (GPa) = 23.28526 25.96287 24.62407
#
# Velocity S-wave (km/s) = 3.56884 3.76845 3.67001
# Velocity P-wave (km/s) = 7.19426 7.54545 7.37194
#
# Compressibility (1/GPa) = 0.01572911
#
# Stress axis : x y z
#
# Youngs Moduli (GPa) = 64.21095 85.04821 50.51782
#
# Poissons Ratio (x) = 0.25861 0.34714
# Poissons Ratio (y) = 0.19525 0.29232
# Poissons Ratio (z) = 0.44123 0.49213
#
# Static dielectric constant tensor:
#      x y z
#    x 3.448540 0.000000 0.000570 
#    y 0.000000 3.410070 0.000010 
#    z 0.000570 0.000010 3.397170 
# 
# 
# High freq. dielectric constant tensor:
#      x y z
#    x 1.716500 0.000000 -0.003160 
#    y 0.000000 1.715780 0.000000 
#    z -0.003160 0.000000 1.709840 
# 
# From -- ./inp_files/59075.got.cif
#   From: 2010.06.25/outbox.cif.g09.slc.cpg/sg12_30_cif.got.tgz:59075.got - 2010.06.28 00:19:55.
