data_PCOD8091578
_publ_section_title
;
Structure prediction by ZEFSAII (Michael W. Deem and Ramdas Pophale) SiO2 
 PCOD8091578
Probable space group: C 2/M
;
_chemical_formula_sum "Si O2"
_cell_formula_units_Z 56
_cell_length_a 17.904852
_cell_length_b 9.231632
_cell_length_c 28.786791
_cell_angle_alpha 90.000000
_cell_angle_beta 141.039332
_cell_angle_gamma 90.000000
_cell_volume 2991.891624
_symmetry_space_group_name_H-M "C 2/M"
_symmetry_group_IT_number 12
_symmetry_cell_setting 'monoclinic'
loop_
_space_group_symop_operation_xyz
x,y,z
-x,y,-z
-x,-y,-z
x,-y,z
1/2+x,1/2+y,z
1/2-x,1/2+y,-z
1/2-x,1/2-y,-z
1/2+x,1/2-y,z
loop_
_atom_site_type_symbol
_atom_site_label
_atom_site_fract_x
_atom_site_fract_y
_atom_site_fract_z
Si Si1 0.793866 0.170058 0.566569
Si Si2 0.905884 0.170548 0.993477
Si Si3 0.773812 0.672603 0.283128
Si Si4 0.662576 0.331341 0.860856
Si Si5 0.933251 0.833149 0.286988
Si Si6 0.632208 0.827798 0.572732
Si Si7 0.007806 0.828031 0.140247
O O1 0.750000 0.250000 0.500000
O O2 0.718372 0.228455 0.573774
O O3 0.930023 0.209088 0.641166
O O4 0.773906 0.000000 0.550107
O O5 0.784169 0.246008 0.921899
O O6 0.883534 0.000000 0.984227
O O7 0.954465 0.229419 0.066056
O O8 0.000000 0.213875 0.000000
O O9 0.777997 0.500000 0.282826
O O10 0.856244 0.732568 0.282637
O O11 0.820471 0.731020 0.355162
O O12 0.640693 0.732582 0.211248
O O13 0.689522 0.500000 0.881448
O O14 0.600292 0.300765 0.782050
O O15 0.574980 0.271071 0.858259
O O16 0.910205 0.000000 0.288867
O O17 0.500000 0.766583 0.500000
O O18 0.631459 0.000000 0.573208
O O19 0.013192 0.000000 0.143248
#
# Coordination Sequence:
#
# PCOD8091578 Si02
#       7
#     8   8   8   8   8   8   8
#     4  10  20  35  54  77 106 137 170 210 255 301
#     4  10  20  34  52  76 105 133 167 215 261 299
#     4  10  19  34  57  78  99 134 176 212 251 304
#     4  10  20  35  54  75 102 137 173 207 252 310
#     4  10  21  35  51  75 107 136 164 208 260 303
#     4   9  17  30  51  78 102 127 167 213 248 289
#     4   9  18  33  53  76 101 132 171 213 255 300
#
# _framework density 18.717257
#
# number of rings (size 3 to 8) (size 9 to 14) (size 15 to 20)
#    0.000    2.286    0.000    3.000    0.000    7.143 
#    0.000    2.143    0.000    4.286    0.000    0.000 
#    0.000    0.000    0.000    0.000    0.000    0.000 
#
# Total GULP energy -347274.402302 kJ/mol
# GULP energy per Si atom -12402.657225 kJ/mol
# Density = 1.867466 g / cm^3
# Si number density = 18.717257 Si / 1000 Ang^3
#
#
#
# Elastic Constant Matrix: (Units=GPa)
#
#
# Indices 1 2 3 4 5 6 
#
# 1 171.0469 41.5959 79.4737 0.0000 4.4055 0.0000
# 2 41.5959 24.4547 37.7310 0.0000 4.3890 -0.0001
# 3 79.4737 37.7310 165.9553 0.0000 9.0165 0.0000
# 4 0.0000 0.0000 0.0000 19.5226 0.0000 1.3068
# 5 4.4055 4.3890 9.0165 0.0000 41.3320 0.0000
# 6 0.0000 -0.0001 0.0000 1.3068 0.0000 26.6904
#
#
#
# Elastic Compliance Matrix: (Units=1/GPa)
#
#
# Indices 1 2 3 4 5 6 
#
# 1 0.010221 -0.015272 -0.001469 0.000000 0.000853 0.000000
# 2 -0.015272 0.086342 -0.012050 0.000000 -0.004912 0.000000
# 3 -0.001469 -0.012050 0.009503 0.000000 -0.000637 0.000000
# 4 0.000000 0.000000 0.000000 0.051391 0.000000 -0.002516
# 5 0.000853 -0.004912 -0.000637 0.000000 0.024764 0.000000
# 6 0.000000 0.000000 0.000000 -0.002516 0.000000 0.037590
#
#
# Mechanical properties :
#
#
# Convention : Reuss Voigt Hill
#
# Bulk Modulus (GPa) = 20.62502 75.45090 48.03796
# Shear Modulus (GPa) = 17.03269 31.01943 24.02606
#
# Velocity S-wave (km/s) = 3.01989 4.07537 3.58667
# Velocity P-wave (km/s) = 4.81693 7.90843 6.54775
#
# Compressibility (1/GPa) = 0.04848480
#
# Stress axis : x y z
#
# Youngs Moduli (GPa) = 97.84151 11.58188 105.22584
#
# Poissons Ratio (x) = 0.17687 0.15455
# Poissons Ratio (y) = 1.49419 1.26799
# Poissons Ratio (z) = 0.14370 0.13956
#
# Static dielectric constant tensor:
#      x y z
#    x 3.593270 0.000000 0.118430 
#    y 0.000000 3.050550 0.000000 
#    z 0.118430 0.000000 3.409760 
# 
# 
# High freq. dielectric constant tensor:
#      x y z
#    x 1.746240 0.000000 -0.000670 
#    y 0.000000 1.684800 0.000000 
#    z -0.000670 0.000000 1.747990 
# 
# From -- ./inp_files/275146.got.cif
#   From: 2010.06.25/outbox.cif.g09.slc.cpg/sg12_138_cif.got.tgz:275146.got - 2010.06.28 00:19:55.
