data_PCOD8091130
_publ_section_title
;
Structure prediction by ZEFSAII (Michael W. Deem and Ramdas Pophale) SiO2 
 PCOD8091130
Probable space group: C 2/M
;
_chemical_formula_sum "Si O2"
_cell_formula_units_Z 64
_cell_length_a 21.014701
_cell_length_b 9.142273
_cell_length_c 23.039229
_cell_angle_alpha 90.000000
_cell_angle_beta 129.891154
_cell_angle_gamma 90.000000
_cell_volume 3396.176592
_symmetry_space_group_name_H-M "C 2/M"
_symmetry_group_IT_number 12
_symmetry_cell_setting 'monoclinic'
loop_
_space_group_symop_operation_xyz
x,y,z
-x,y,-z
-x,-y,-z
x,-y,z
1/2+x,1/2+y,z
1/2-x,1/2+y,-z
1/2-x,1/2-y,-z
1/2+x,1/2-y,z
loop_
_atom_site_type_symbol
_atom_site_label
_atom_site_fract_x
_atom_site_fract_y
_atom_site_fract_z
Si Si1 0.476840 0.668517 0.188445
Si Si2 0.817249 0.169905 0.502706
Si Si3 0.627862 0.838390 0.686939
Si Si4 0.515415 0.331265 0.339014
Si Si5 0.786175 0.161649 0.859592
Si Si6 0.873794 0.826203 0.798953
Si Si7 0.278882 0.671851 0.348987
Si Si8 0.211152 0.825033 0.921738
O O1 0.460692 0.500000 0.167500
O O2 0.528313 0.694504 0.277834
O O3 0.534850 0.727957 0.169525
O O4 0.383833 0.736187 0.137599
O O5 0.750000 0.250000 0.500000
O O6 0.906380 0.221413 0.578051
O O7 0.803878 0.212336 0.428618
O O8 0.806476 0.000000 0.507670
O O9 0.559193 0.771037 0.687388
O O10 0.710027 0.850912 0.772121
O O11 0.643401 0.732184 0.641919
O O12 0.601300 0.000000 0.649838
O O13 0.493055 0.500000 0.338537
O O14 0.861808 0.212977 0.860740
O O15 0.766425 0.276183 0.898743
O O16 0.805315 0.000000 0.897469
O O17 0.806588 0.748207 0.718749
O O18 0.863473 0.000000 0.783484
O O19 0.269450 0.500000 0.333175
O O20 0.216115 0.000000 0.928358
O O21 0.250000 0.750000 0.000000
#
# Coordination Sequence:
#
# PCOD8091130 Si02
#       8
#     8   8   8   8   8   8   8   8
#     4   9  18  34  58  84 107 140 186 228 271 325
#     4  10  22  36  52  74 105 144 184 230 283 332
#     4  10  20  34  54  80 106 141 184 229 276 323
#     4  10  19  34  55  78 105 141 185 233 278 324
#     4   9  18  34  56  82 111 141 178 224 272 323
#     4   9  18  35  59  84 110 145 189 232 271 319
#     4  10  20  34  51  77 111 145 183 225 277 332
#     4  11  22  37  59  85 112 145 180 220 272 330
#
# _framework density 18.844719999999999
#
# number of rings (size 3 to 8) (size 9 to 14) (size 15 to 20)
#    0.000    2.250    1.250    2.625    0.000    5.000 
#    0.000    5.000    0.000    3.750    0.000    0.000 
#    0.000    0.000    0.000    0.000    0.000    0.000 
#
# Total GULP energy -396615.937259 kJ/mol
# GULP energy per Si atom -12394.248039 kJ/mol
# Density = 1.880183 g / cm^3
# Si number density = 18.844720 Si / 1000 Ang^3
#
#
#
# Elastic Constant Matrix: (Units=GPa)
#
#
# Indices 1 2 3 4 5 6 
#
# 1 135.3205 43.0581 42.7859 0.0000 -22.5724 0.0000
# 2 43.0581 62.5072 32.8049 0.0000 -12.9033 0.0000
# 3 42.7859 32.8049 78.3069 0.0000 -14.8456 0.0000
# 4 0.0000 0.0000 0.0000 26.5238 0.0000 -5.1643
# 5 -22.5724 -12.9033 -14.8456 0.0000 24.0003 0.0000
# 6 0.0000 0.0000 0.0000 -5.1643 0.0000 30.6723
#
#
#
# Elastic Compliance Matrix: (Units=1/GPa)
#
#
# Indices 1 2 3 4 5 6 
#
# 1 0.010752 -0.004741 -0.002781 0.000000 0.005844 0.000000
# 2 -0.004741 0.023524 -0.006471 0.000000 0.004186 0.000000
# 3 -0.002781 -0.006471 0.017950 0.000000 0.005009 0.000000
# 4 0.000000 0.000000 0.000000 0.038980 0.000000 0.006563
# 5 0.005844 0.004186 0.005009 0.000000 0.052511 0.000000
# 6 0.000000 0.000000 0.000000 0.006563 0.000000 0.033708
#
#
# Mechanical properties :
#
#
# Convention : Reuss Voigt Hill
#
# Bulk Modulus (GPa) = 41.25273 57.04806 49.15039
# Shear Modulus (GPa) = 23.42018 26.73834 25.07926
#
# Velocity S-wave (km/s) = 3.52916 3.77089 3.65202
# Velocity P-wave (km/s) = 6.20846 7.02124 6.62732
#
# Compressibility (1/GPa) = 0.02424082
#
# Stress axis : x y z
#
# Youngs Moduli (GPa) = 93.00169 42.50956 55.70970
#
# Poissons Ratio (x) = 0.20154 0.15493
# Poissons Ratio (y) = 0.44092 0.36049
# Poissons Ratio (z) = 0.25864 0.27508
#
# Static dielectric constant tensor:
#      x y z
#    x 4.508800 0.000000 -0.085760 
#    y 0.000000 3.257670 0.000000 
#    z -0.085760 0.000000 3.360740 
# 
# 
# High freq. dielectric constant tensor:
#      x y z
#    x 1.744490 0.000000 -0.012050 
#    y 0.000000 1.720750 0.000000 
#    z -0.012050 0.000000 1.716760 
# 
# From -- ./inp_files/319835.got.cif
#   From: 2010.06.25/outbox.cif.g09.slc.cpg/sg12_160_cif.got.tgz:319835.got - 2010.06.28 00:19:55.
