data_PCOD8091151
_publ_section_title
;
Structure prediction by ZEFSAII (Michael W. Deem and Ramdas Pophale) SiO2 
 PCOD8091151
Probable space group: C 2/M
;
_chemical_formula_sum "Si O2"
_cell_formula_units_Z 56
_cell_length_a 12.744177
_cell_length_b 13.718630
_cell_length_c 29.960944
_cell_angle_alpha 90.000000
_cell_angle_beta 36.398418
_cell_angle_gamma 90.000000
_cell_volume 3108.301441
_symmetry_space_group_name_H-M "C 2/M"
_symmetry_group_IT_number 12
_symmetry_cell_setting 'monoclinic'
loop_
_space_group_symop_operation_xyz
x,y,z
-x,y,-z
-x,-y,-z
x,-y,z
1/2+x,1/2+y,z
1/2-x,1/2+y,-z
1/2-x,1/2-y,-z
1/2+x,1/2-y,z
loop_
_atom_site_type_symbol
_atom_site_label
_atom_site_fract_x
_atom_site_fract_y
_atom_site_fract_z
Si Si1 0.763600 0.384079 0.695077
Si Si2 0.940539 0.778270 0.312262
Si Si3 0.064954 0.231449 0.586116
Si Si4 0.376759 0.387299 0.081374
Si Si5 0.835775 0.777318 0.182165
Si Si6 0.763825 0.890079 0.655507
Si Si7 0.505695 0.108509 0.824964
O O1 0.789371 0.500000 0.686938
O O2 0.639946 0.354353 0.695623
O O3 0.673863 0.348199 0.771651
O O4 0.953928 0.332184 0.625472
O O5 0.906440 0.813976 0.374417
O O6 0.847925 0.672491 0.341249
O O7 0.147653 0.766632 0.232205
O O8 0.250000 0.250000 0.500000
O O9 0.961589 0.151220 0.592211
O O10 0.421295 0.500000 0.072880
O O11 0.423528 0.335026 0.111496
O O12 0.171908 0.369377 0.141108
O O13 0.500000 0.343801 0.000000
O O14 0.968247 0.687188 0.145272
O O15 0.672209 0.881000 0.735087
O O16 0.768717 0.000000 0.635910
O O17 0.498489 0.000000 0.848318
#
# Coordination Sequence:
#
# PCOD8091151 Si02
#       7
#     8   8   8   8   8   8   8
#     4  10  21  34  52  80 105 136 178 222 268 319
#     4  10  19  35  53  77 103 137 173 224 264 317
#     4  10  22  38  53  75 108 142 176 221 271 321
#     4  10  21  35  55  83 113 145 178 219 271 319
#     4  11  18  35  57  80 108 142 178 222 266 313
#     4  10  19  34  55  79 101 136 181 220 262 317
#     4  10  19  34  55  81 107 136 182 221 259 321
#
# _framework density 18.016271
#
# number of rings (size 3 to 8) (size 9 to 14) (size 15 to 20)
#    0.000    1.857    5.714    0.429    0.000    6.857 
#    0.000    1.429    0.000    0.429    0.000    0.000 
#    0.000    0.000    0.000    0.000    0.000    0.000 
#
# Total GULP energy -347208.586495 kJ/mol
# GULP energy per Si atom -12400.306661 kJ/mol
# Density = 1.797527 g / cm^3
# Si number density = 18.016271 Si / 1000 Ang^3
#
#
#
# Elastic Constant Matrix: (Units=GPa)
#
#
# Indices 1 2 3 4 5 6 
#
# 1 61.6801 22.6114 -1.1053 0.0001 9.4601 -0.0001
# 2 22.6114 87.8843 -0.9030 0.0005 -3.6232 -0.0001
# 3 -1.1053 -0.9030 54.7477 0.0008 8.4050 -0.0003
# 4 0.0001 0.0005 0.0008 18.2394 0.0000 4.1119
# 5 9.4601 -3.6232 8.4050 0.0000 19.1901 0.0001
# 6 -0.0001 -0.0001 -0.0003 4.1119 0.0001 21.5169
#
#
#
# Elastic Compliance Matrix: (Units=1/GPa)
#
#
# Indices 1 2 3 4 5 6 
#
# 1 0.020157 -0.005656 0.002148 0.000000 -0.011945 0.000000
# 2 -0.005656 0.013056 -0.000756 0.000000 0.005585 0.000000
# 3 0.002148 -0.000756 0.019813 -0.000001 -0.009879 0.000001
# 4 0.000000 0.000000 -0.000001 0.057295 0.000000 -0.010949
# 5 -0.011945 0.005585 -0.009879 0.000000 0.063380 -0.000001
# 6 0.000000 0.000000 0.000001 -0.010949 -0.000001 0.048567
#
#
# Mechanical properties :
#
#
# Convention : Reuss Voigt Hill
#
# Bulk Modulus (GPa) = 22.47389 27.27981 24.87685
# Shear Modulus (GPa) = 20.35573 24.03657 22.19615
#
# Velocity S-wave (km/s) = 3.36497 3.65658 3.51380
# Velocity P-wave (km/s) = 5.25345 5.74474 5.50458
#
# Compressibility (1/GPa) = 0.04449608
#
# Stress axis : x y z
#
# Youngs Moduli (GPa) = 49.61091 76.59080 50.47141
#
# Poissons Ratio (x) = 0.43323 -0.10839
# Poissons Ratio (y) = 0.28062 0.03817
# Poissons Ratio (z) = -0.10654 0.05792
#
# Static dielectric constant tensor:
#      x y z
#    x 3.384870 0.000000 0.010570 
#    y 0.000000 3.352580 0.000000 
#    z 0.010570 0.000000 3.127390 
# 
# 
# High freq. dielectric constant tensor:
#      x y z
#    x 1.705520 0.000000 -0.003220 
#    y 0.000000 1.692430 0.000000 
#    z -0.003220 0.000000 1.677600 
# 
# From -- ./inp_files/358173.got.cif
#   From: 2010.06.25/outbox.cif.g09.slc.cpg/sg12_180_cif.got.tgz:358173.got - 2010.06.28 00:19:55.
