data_PCOD8091613
_publ_section_title
;
Structure prediction by ZEFSAII (Michael W. Deem and Ramdas Pophale) SiO2 
 PCOD8091613
Probable space group: C 2/M
;
_chemical_formula_sum "Si O2"
_cell_formula_units_Z 40
_cell_length_a 25.629651
_cell_length_b 22.058086
_cell_length_c 5.251213
_cell_angle_alpha 90.000000
_cell_angle_beta 138.265235
_cell_angle_gamma 90.000000
_cell_volume 1976.231383
_symmetry_space_group_name_H-M "C 2/M"
_symmetry_group_IT_number 12
_symmetry_cell_setting 'monoclinic'
loop_
_space_group_symop_operation_xyz
x,y,z
-x,y,-z
-x,-y,-z
x,-y,z
1/2+x,1/2+y,z
1/2-x,1/2+y,-z
1/2-x,1/2-y,-z
1/2+x,1/2-y,z
loop_
_atom_site_type_symbol
_atom_site_label
_atom_site_fract_x
_atom_site_fract_y
_atom_site_fract_z
Si Si1 0.090858 0.337331 0.335364
Si Si2 0.857732 0.129253 0.996644
Si Si3 0.219745 0.568233 0.722037
Si Si4 0.591145 0.762161 0.836266
Si Si5 0.372315 0.432080 0.544545
O O1 0.138654 0.399633 0.496173
O O2 0.113432 0.303849 0.678320
O O3 0.113043 0.295185 0.178034
O O4 0.000000 0.355529 0.000000
O O5 0.767418 0.105654 0.678123
O O6 0.898573 0.103968 0.890868
O O7 0.857429 0.201694 0.994996
O O8 0.905688 0.103186 0.416422
O O9 0.201328 0.500000 0.558661
O O10 0.277146 0.565844 0.177582
O O11 0.500000 0.744217 0.500000
O O12 0.407181 0.500000 0.679976
#
# Coordination Sequence:
#
# PCOD8091613 Si02
#       5
#     8   8   8   8   8
#     4  10  22  38  55  79 110 144 181 219 264 318
#     4  10  19  34  57  81 105 143 179 218 270 318
#     4   9  21  36  57  81 110 141 178 224 267 314
#     4  10  22  39  56  78 111 144 178 222 267 317
#     4   9  18  33  52  80 112 139 173 220 264 313
#
# _framework density 20.240545000000001
#
# number of rings (size 3 to 8) (size 9 to 14) (size 15 to 20)
#    1.200    1.200    0.000    2.400    2.800    2.000 
#    0.000    0.000    0.000   10.200    0.000    0.000 
#    0.000    0.000    0.000    0.000    0.000    0.000 
#
# Total GULP energy -247868.061875 kJ/mol
# GULP energy per Si atom -12393.403094 kJ/mol
# Density = 2.019448 g / cm^3
# Si number density = 20.240545 Si / 1000 Ang^3
#
#
#
# Elastic Constant Matrix: (Units=GPa)
#
#
# Indices 1 2 3 4 5 6 
#
# 1 96.8751 56.0744 46.9399 0.0000 -28.1029 0.0000
# 2 56.0744 141.9779 32.1540 0.0000 15.6466 0.0000
# 3 46.9399 32.1540 36.0935 0.0000 -11.2944 0.0000
# 4 0.0000 0.0000 0.0000 10.5033 0.0000 -11.3427
# 5 -28.1029 15.6466 -11.2944 0.0000 34.3756 0.0000
# 6 0.0000 0.0000 0.0000 -11.3427 0.0000 14.8215
#
#
#
# Elastic Compliance Matrix: (Units=1/GPa)
#
#
# Indices 1 2 3 4 5 6 
#
# 1 0.043568 -0.012060 -0.036841 0.000000 0.029002 0.000000
# 2 -0.012060 0.014219 -0.002334 0.000000 -0.017098 0.000000
# 3 -0.036841 -0.002334 0.076466 0.000000 -0.003933 0.000000
# 4 0.000000 0.000000 0.000000 0.548577 0.000000 0.419819
# 5 0.029002 -0.017098 -0.003933 0.000000 0.059291 0.000000
# 6 0.000000 0.000000 0.000000 0.419819 0.000000 0.388751
#
#
# Mechanical properties :
#
#
# Convention : Reuss Voigt Hill
#
# Bulk Modulus (GPa) = 31.46233 60.58701 46.02467
# Shear Modulus (GPa) = 4.01950 21.25860 12.63905
#
# Velocity S-wave (km/s) = 1.41074 3.24435 2.50160
# Velocity P-wave (km/s) = 4.26984 6.63572 5.57962
#
# Compressibility (1/GPa) = 0.03178404
#
# Stress axis : x y z
#
# Youngs Moduli (GPa) = 22.95284 70.32764 13.07765
#
# Poissons Ratio (x) = 0.84814 0.48179
# Poissons Ratio (y) = 0.27681 0.03052
# Poissons Ratio (z) = 0.84561 0.16412
#
# Static dielectric constant tensor:
#      x y z
#    x 3.528850 0.000000 -0.196400 
#    y 0.000000 3.487540 0.000000 
#    z -0.196400 0.000000 3.405100 
# 
# 
# High freq. dielectric constant tensor:
#      x y z
#    x 1.784050 0.000000 -0.017950 
#    y 0.000000 1.791320 0.000000 
#    z -0.017950 0.000000 1.767920 
# 
# From -- ./inp_files/29274.got.cif
#   From: 2010.06.25/outbox.cif.g09.slc.cpg/sg12_15_cif.got.tgz:29274.got - 2010.06.28 00:19:55.
