data_PCOD8091330
_publ_section_title
;
Structure prediction by ZEFSAII (Michael W. Deem and Ramdas Pophale) SiO2 
 PCOD8091330
Probable space group: C 2/M
;
_chemical_formula_sum "Si O2"
_cell_formula_units_Z 48
_cell_length_a 31.683402
_cell_length_b 8.828747
_cell_length_c 9.579878
_cell_angle_alpha 90.000000
_cell_angle_beta 104.578902
_cell_angle_gamma 90.000000
_cell_volume 2593.446773
_symmetry_space_group_name_H-M "C 2/M"
_symmetry_group_IT_number 12
_symmetry_cell_setting 'monoclinic'
loop_
_space_group_symop_operation_xyz
x,y,z
-x,y,-z
-x,-y,-z
x,-y,z
1/2+x,1/2+y,z
1/2-x,1/2+y,-z
1/2-x,1/2-y,-z
1/2+x,1/2-y,z
loop_
_atom_site_type_symbol
_atom_site_label
_atom_site_fract_x
_atom_site_fract_y
_atom_site_fract_z
Si Si1 0.364142 0.174440 0.398894
Si Si2 0.431355 0.176105 0.689909
Si Si3 0.106502 0.321693 0.881792
Si Si4 0.636709 0.678212 0.171556
Si Si5 0.796966 0.822671 0.536773
Si Si6 0.986462 0.177587 0.145434
O O1 0.408308 0.205685 0.522439
O O2 0.372402 0.224381 0.247689
O O3 0.323826 0.269823 0.424191
O O4 0.350495 0.000000 0.398358
O O5 0.407805 0.272446 0.790550
O O6 0.480832 0.235638 0.721742
O O7 0.430011 0.000000 0.730098
O O8 0.097843 0.500000 0.884244
O O9 0.061768 0.233061 0.863398
O O10 0.140519 0.267382 0.028673
O O11 0.634737 0.500000 0.141644
O O12 0.677763 0.725138 0.301032
O O13 0.750000 0.750000 0.500000
O O14 0.791362 0.000000 0.522740
O O15 0.989434 0.000000 0.176235
O O16 0.000000 0.220544 0.000000
#
# Coordination Sequence:
#
# PCOD8091330 Si02
#       6
#     8   8   8   8   8   8
#     4   9  21  39  57  82 114 143 179 228 277 325
#     4  10  19  34  56  78 105 145 189 230 271 320
#     4  11  22  36  56  81 111 148 185 226 275 323
#     4  10  20  35  55  82 112 142 180 224 271 323
#     4  10  21  38  63  88 111 141 178 221 269 328
#     4  11  22  34  51  77 112 148 188 234 271 315
#
# _framework density 18.508188000000001
#
# number of rings (size 3 to 8) (size 9 to 14) (size 15 to 20)
#    0.000    1.833    1.667    2.500    0.000    5.333 
#    0.000    4.167    0.000    0.000    0.000    0.000 
#    0.000    0.000    0.000    0.000    0.000    0.000 
#
# Total GULP energy -297692.536603 kJ/mol
# GULP energy per Si atom -12403.855692 kJ/mol
# Density = 1.846606 g / cm^3
# Si number density = 18.508188 Si / 1000 Ang^3
#
#
#
# Elastic Constant Matrix: (Units=GPa)
#
#
# Indices 1 2 3 4 5 6 
#
# 1 120.3113 41.4214 57.5976 0.0000 7.1220 0.0000
# 2 41.4214 58.1164 43.0976 0.0000 -0.8835 0.0000
# 3 57.5976 43.0976 133.4708 0.0000 -5.7780 0.0000
# 4 0.0000 0.0000 0.0000 29.4494 0.0000 3.4637
# 5 7.1220 -0.8835 -5.7780 0.0000 20.9036 0.0000
# 6 0.0000 0.0000 0.0000 3.4637 0.0000 33.8116
#
#
#
# Elastic Compliance Matrix: (Units=1/GPa)
#
#
# Indices 1 2 3 4 5 6 
#
# 1 0.012555 -0.006360 -0.003604 0.000000 -0.005543 0.000000
# 2 -0.006360 0.025870 -0.005534 0.000000 0.001730 0.000000
# 3 -0.003604 -0.005534 0.011009 0.000000 0.004037 0.000000
# 4 0.000000 0.000000 0.000000 0.034371 0.000000 -0.003521
# 5 -0.005543 0.001730 0.004037 0.000000 0.050916 0.000000
# 6 0.000000 0.000000 0.000000 -0.003521 0.000000 0.029936
#
#
# Mechanical properties :
#
#
# Convention : Reuss Voigt Hill
#
# Bulk Modulus (GPa) = 54.23555 66.23685 60.23620
# Shear Modulus (GPa) = 24.77712 28.15172 26.46442
#
# Velocity S-wave (km/s) = 3.66281 3.90428 3.78547
# Velocity P-wave (km/s) = 6.87426 7.49601 7.19185
#
# Compressibility (1/GPa) = 0.01843809
#
# Stress axis : x y z
#
# Youngs Moduli (GPa) = 79.64979 38.65522 90.83177
#
# Poissons Ratio (x) = 0.24584 0.32739
# Poissons Ratio (y) = 0.50655 0.50266
# Poissons Ratio (z) = 0.28708 0.21392
#
# Static dielectric constant tensor:
#      x y z
#    x 3.198730 0.000000 0.132650 
#    y 0.000000 3.465750 0.000000 
#    z 0.132650 0.000000 3.629930 
# 
# 
# High freq. dielectric constant tensor:
#      x y z
#    x 1.703760 0.000000 0.012260 
#    y 0.000000 1.731240 0.000000 
#    z 0.012260 0.000000 1.718010 
# 
# From -- ./inp_files/108648.got.cif
#   From: 2010.06.25/outbox.cif.g09.slc.cpg/sg12_55_cif.got.tgz:108648.got - 2010.06.28 00:19:55.
