data_PCOD8091582
_publ_section_title
;
Structure prediction by ZEFSAII (Michael W. Deem and Ramdas Pophale) SiO2 
 PCOD8091582
Probable space group: C 2/M
;
_chemical_formula_sum "Si O2"
_cell_formula_units_Z 56
_cell_length_a 30.146167
_cell_length_b 9.290507
_cell_length_c 18.236580
_cell_angle_alpha 90.000000
_cell_angle_beta 144.062112
_cell_angle_gamma 90.000000
_cell_volume 2997.677139
_symmetry_space_group_name_H-M "C 2/M"
_symmetry_group_IT_number 12
_symmetry_cell_setting 'monoclinic'
loop_
_space_group_symop_operation_xyz
x,y,z
-x,y,-z
-x,-y,-z
x,-y,z
1/2+x,1/2+y,z
1/2-x,1/2+y,-z
1/2-x,1/2-y,-z
1/2+x,1/2-y,z
loop_
_atom_site_type_symbol
_atom_site_label
_atom_site_fract_x
_atom_site_fract_y
_atom_site_fract_z
Si Si1 0.277277 0.665050 0.264240
Si Si2 0.275970 0.332065 0.427718
Si Si3 0.644533 0.333149 0.023514
Si Si4 0.829491 0.831917 0.105583
Si Si5 0.138057 0.333718 0.343946
Si Si6 0.016799 0.331483 0.939791
Si Si7 0.077897 0.164749 0.632775
O O1 0.249067 0.500000 0.220058
O O2 0.271135 0.722700 0.338547
O O3 0.226938 0.766151 0.145979
O O4 0.363508 0.679739 0.355105
O O5 0.292914 0.500000 0.453731
O O6 0.196975 0.289416 0.359513
O O7 0.345860 0.254894 0.561056
O O8 0.644794 0.500000 0.045426
O O9 0.627217 0.311693 0.914013
O O10 0.586113 0.253417 0.998094
O O11 0.885535 0.768612 0.243736
O O12 0.811629 0.000000 0.097109
O O13 0.750000 0.750000 0.000000
O O14 0.146599 0.500000 0.374769
O O15 0.055152 0.295035 0.205819
O O16 0.037026 0.500000 0.967005
O O17 0.000000 0.279472 0.000000
O O18 0.000000 0.240572 0.500000
O O19 0.058846 0.000000 0.625914
#
# Coordination Sequence:
#
# PCOD8091582 Si02
#       7
#     8   8   8   8   8   8   8
#     4  10  19  34  57  79 103 144 191 229 272 335
#     4   9  18  32  53  78 102 136 182 225 269 327
#     4  11  23  35  54  85 115 145 184 235 290 336
#     4  10  20  36  58  83 112 147 186 232 281 335
#     4   9  18  33  51  74 105 140 177 222 276 327
#     4  10  21  38  58  79 109 148 190 231 271 331
#     4   9  18  33  55  82 109 141 185 234 278 325
#
# _framework density 18.681131000000001
#
# number of rings (size 3 to 8) (size 9 to 14) (size 15 to 20)
#    0.000    2.286    1.429    1.286    0.000    5.429 
#    0.000    5.714    0.000    1.714    0.000    0.000 
#    0.000    0.000    0.000    0.000    0.000    0.000 
#
# Total GULP energy -347190.962886 kJ/mol
# GULP energy per Si atom -12399.677246 kJ/mol
# Density = 1.863861 g / cm^3
# Si number density = 18.681131 Si / 1000 Ang^3
#
#
#
# Elastic Constant Matrix: (Units=GPa)
#
#
# Indices 1 2 3 4 5 6 
#
# 1 94.1508 30.4514 48.6203 0.0000 -8.4981 0.0000
# 2 30.4514 46.4391 38.9715 0.0000 0.2330 0.0000
# 3 48.6203 38.9715 130.2175 0.0000 -4.0809 0.0000
# 4 0.0000 0.0000 0.0000 29.9673 0.0000 0.0471
# 5 -8.4981 0.2330 -4.0809 0.0000 33.6758 0.0000
# 6 0.0000 0.0000 0.0000 0.0471 0.0000 13.6674
#
#
#
# Elastic Compliance Matrix: (Units=1/GPa)
#
#
# Indices 1 2 3 4 5 6 
#
# 1 0.014929 -0.006968 -0.003382 0.000000 0.003406 0.000000
# 2 -0.006968 0.032060 -0.007082 0.000000 -0.002839 0.000000
# 3 -0.003382 -0.007082 0.011079 0.000000 0.000538 0.000000
# 4 0.000000 0.000000 0.000000 0.033370 0.000000 -0.000115
# 5 0.003406 -0.002839 0.000538 0.000000 0.030639 0.000000
# 6 0.000000 0.000000 0.000000 -0.000115 0.000000 0.073167
#
#
# Mechanical properties :
#
#
# Convention : Reuss Voigt Hill
#
# Bulk Modulus (GPa) = 43.09759 56.32153 49.70956
# Shear Modulus (GPa) = 21.02223 25.64638 23.33431
#
# Velocity S-wave (km/s) = 3.35822 3.70922 3.53807
# Velocity P-wave (km/s) = 6.17714 6.96841 6.58467
#
# Compressibility (1/GPa) = 0.02320315
#
# Stress axis : x y z
#
# Youngs Moduli (GPa) = 66.98432 31.19109 90.26398
#
# Poissons Ratio (x) = 0.21735 0.30526
# Poissons Ratio (y) = 0.46676 0.63927
# Poissons Ratio (z) = 0.22654 0.22090
#
# Static dielectric constant tensor:
#      x y z
#    x 3.451790 0.000000 -0.169980 
#    y 0.000000 3.266810 0.000000 
#    z -0.169980 0.000000 3.671140 
# 
# 
# High freq. dielectric constant tensor:
#      x y z
#    x 1.730480 0.000000 -0.008970 
#    y 0.000000 1.699860 0.000000 
#    z -0.008970 0.000000 1.732200 
# 
# From -- ./inp_files/292524.got.cif
#   From: 2010.06.25/outbox.cif.g09.slc.cpg/sg12_147_cif.got.tgz:292524.got - 2010.06.28 00:19:55.
