data_PCOD8091774
_publ_section_title
;
Structure prediction by ZEFSAII (Michael W. Deem and Ramdas Pophale) SiO2 
 PCOD8091774
Probable space group: C 2/M
;
_chemical_formula_sum "Si O2"
_cell_formula_units_Z 64
_cell_length_a 30.577029
_cell_length_b 8.781626
_cell_length_c 22.704607
_cell_angle_alpha 90.000000
_cell_angle_beta 148.542825
_cell_angle_gamma 90.000000
_cell_volume 3181.552956
_symmetry_space_group_name_H-M "C 2/M"
_symmetry_group_IT_number 12
_symmetry_cell_setting 'monoclinic'
loop_
_space_group_symop_operation_xyz
x,y,z
-x,y,-z
-x,-y,-z
x,-y,z
1/2+x,1/2+y,z
1/2-x,1/2+y,-z
1/2-x,1/2-y,-z
1/2+x,1/2-y,z
loop_
_atom_site_type_symbol
_atom_site_label
_atom_site_fract_x
_atom_site_fract_y
_atom_site_fract_z
Si Si1 0.361183 0.320850 0.496116
Si Si2 0.851699 0.821528 0.900468
Si Si3 0.524451 0.321301 0.153198
Si Si4 0.187442 0.181158 0.275656
Si Si5 0.492954 0.320534 0.247730
Si Si6 0.922023 0.174460 0.443299
Si Si7 0.668252 0.820206 0.876714
Si Si8 0.712173 0.673976 0.809014
O O1 0.345468 0.500000 0.471151
O O2 0.271690 0.241876 0.402714
O O3 0.421436 0.281943 0.619532
O O4 0.403799 0.251419 0.485907
O O5 0.822851 0.760538 0.803446
O O6 0.803503 0.738470 0.898427
O O7 0.833963 0.000000 0.886336
O O8 0.949492 0.783626 0.021904
O O9 0.536103 0.500000 0.173716
O O10 0.609861 0.252401 0.224493
O O11 0.505326 0.255369 0.196110
O O12 0.187198 0.000000 0.275982
O O13 0.473659 0.500000 0.227092
O O14 0.415087 0.235902 0.187185
O O15 0.839687 0.190734 0.310109
O O16 0.000000 0.256835 0.500000
O O17 0.947894 0.000000 0.484259
O O18 0.665983 0.769863 0.806202
O O19 0.673331 0.000000 0.887167
O O20 0.750000 0.750000 0.000000
O O21 0.719591 0.500000 0.838823
#
# Coordination Sequence:
#
# PCOD8091774 Si02
#       8
#     8   8   8   8   8   8   8   8
#     4  10  20  36  57  83 117 156 197 241 295 355
#     4  10  19  34  57  84 117 152 194 247 303 358
#     4   9  19  36  58  83 110 150 199 247 297 357
#     4  10  20  35  57  84 116 153 196 245 302 356
#     4  10  21  39  62  85 115 157 204 246 292 351
#     4   9  17  31  52  77 107 145 188 231 278 341
#     4  12  25  41  61  87 121 156 196 241 291 348
#     4  11  21  35  58  85 116 152 192 236 292 350
#
# _framework density 20.115963000000001
#
# number of rings (size 3 to 8) (size 9 to 14) (size 15 to 20)
#    0.000    1.875    1.250    3.375    0.000    5.500 
#    0.000    1.250    0.000    3.375    0.000    0.000 
#    0.000    0.000    0.000    0.000    0.000    0.000 
#
# Total GULP energy -396833.533598 kJ/mol
# GULP energy per Si atom -12401.047925 kJ/mol
# Density = 2.007018 g / cm^3
# Si number density = 20.115963 Si / 1000 Ang^3
#
#
#
# Elastic Constant Matrix: (Units=GPa)
#
#
# Indices 1 2 3 4 5 6 
#
# 1 136.4798 38.8052 50.6376 0.0000 16.2027 0.0000
# 2 38.8052 62.1483 38.9510 0.0000 3.9930 0.0000
# 3 50.6376 38.9510 106.9149 0.0000 12.3554 0.0000
# 4 0.0000 0.0000 0.0000 28.2620 0.0000 5.3547
# 5 16.2027 3.9930 12.3554 0.0000 41.6643 0.0000
# 6 0.0000 0.0000 0.0000 5.3547 0.0000 24.9066
#
#
#
# Elastic Compliance Matrix: (Units=1/GPa)
#
#
# Indices 1 2 3 4 5 6 
#
# 1 0.009893 -0.004227 -0.002845 0.000000 -0.002598 0.000000
# 2 -0.004227 0.022661 -0.006412 0.000000 0.001374 0.000000
# 3 -0.002845 -0.006412 0.013294 0.000000 -0.002221 0.000000
# 4 0.000000 0.000000 0.000000 0.036886 0.000000 -0.007930
# 5 -0.002598 0.001374 -0.002221 0.000000 0.025539 0.000000
# 6 0.000000 0.000000 0.000000 -0.007930 0.000000 0.041855
#
#
# Mechanical properties :
#
#
# Convention : Reuss Voigt Hill
#
# Bulk Modulus (GPa) = 52.97205 62.48118 57.72661
# Shear Modulus (GPa) = 27.26447 30.77652 29.02050
#
# Velocity S-wave (km/s) = 3.68552 3.91571 3.80236
# Velocity P-wave (km/s) = 6.67093 7.18134 6.93083
#
# Compressibility (1/GPa) = 0.01887788
#
# Stress axis : x y z
#
# Youngs Moduli (GPa) = 101.08016 44.12964 75.22360
#
# Poissons Ratio (x) = 0.18653 0.21404
# Poissons Ratio (y) = 0.42726 0.48236
# Poissons Ratio (z) = 0.28761 0.28298
#
# Static dielectric constant tensor:
#      x y z
#    x 3.939460 0.000000 0.010100 
#    y 0.000000 3.383750 0.000000 
#    z 0.010100 0.000000 3.700030 
# 
# 
# High freq. dielectric constant tensor:
#      x y z
#    x 1.798870 0.000000 0.003350 
#    y 0.000000 1.747960 0.000000 
#    z 0.003350 0.000000 1.795430 
# 
# From -- ./inp_files/250053.got.cif
#   From: 2010.06.25/outbox.cif.g09.slc.cpg/sg12_126_cif.got.tgz:250053.got - 2010.06.28 00:19:55.
