data_PCOD8091684
_publ_section_title
;
Structure prediction by ZEFSAII (Michael W. Deem and Ramdas Pophale) SiO2 
 PCOD8091684
Probable space group: C 2/M
;
_chemical_formula_sum "Si O2"
_cell_formula_units_Z 64
_cell_length_a 15.551704
_cell_length_b 9.167139
_cell_length_c 30.803089
_cell_angle_alpha 90.000000
_cell_angle_beta 129.671877
_cell_angle_gamma 90.000000
_cell_volume 3380.141548
_symmetry_space_group_name_H-M "C 2/M"
_symmetry_group_IT_number 12
_symmetry_cell_setting 'monoclinic'
loop_
_space_group_symop_operation_xyz
x,y,z
-x,y,-z
-x,-y,-z
x,-y,z
1/2+x,1/2+y,z
1/2-x,1/2+y,-z
1/2-x,1/2-y,-z
1/2+x,1/2-y,z
loop_
_atom_site_type_symbol
_atom_site_label
_atom_site_fract_x
_atom_site_fract_y
_atom_site_fract_z
Si Si1 0.466954 0.169209 0.441379
Si Si2 0.741769 0.329614 0.324825
Si Si3 0.854656 0.167038 0.553204
Si Si4 0.675074 0.329065 0.130942
Si Si5 0.677306 0.172857 0.740190
Si Si6 0.946191 0.831860 0.675238
Si Si7 0.732146 0.170656 0.062064
Si Si8 0.082859 0.830854 0.946385
O O1 0.500000 0.219291 0.500000
O O2 0.337384 0.201819 0.391190
O O3 0.531995 0.266547 0.428290
O O4 0.497587 0.000000 0.443736
O O5 0.729247 0.500000 0.313558
O O6 0.770023 0.259706 0.287071
O O7 0.624475 0.272100 0.306218
O O8 0.750000 0.250000 0.500000
O O9 0.862604 0.183229 0.607504
O O10 0.843598 0.000000 0.535447
O O11 0.687163 0.500000 0.125558
O O12 0.744162 0.278801 0.195087
O O13 0.728328 0.245005 0.107624
O O14 0.546641 0.287576 0.099407
O O15 0.554360 0.233861 0.706789
O O16 0.666552 0.000000 0.733478
O O17 0.982853 0.000000 0.692713
O O18 0.852211 0.201665 0.077895
O O19 0.711161 0.000000 0.061110
O O20 0.632987 0.234643 0.000987
O O21 0.097388 0.000000 0.963890
#
# Coordination Sequence:
#
# PCOD8091684 Si02
#       8
#     8   8   8   8   8   8   8   8
#     4  10  19  34  57  82 110 143 182 227 278 339
#     4   9  18  35  58  79 105 144 184 222 274 336
#     4  11  22  35  54  82 115 146 181 227 281 341
#     4  10  21  36  55  79 110 149 191 230 275 334
#     4  10  21  38  58  80 107 145 192 235 275 329
#     4  10  21  38  59  82 109 143 183 229 281 335
#     4  10  20  34  56  86 115 146 186 233 281 327
#     4   9  19  36  56  80 114 153 187 225 276 334
#
# _framework density 18.934118000000002
#
# number of rings (size 3 to 8) (size 9 to 14) (size 15 to 20)
#    0.000    2.125    1.250    1.875    0.000    6.750 
#    0.000    3.750    0.000    0.000    0.000    0.000 
#    0.000    0.000    0.000    0.000    0.000    0.000 
#
# Total GULP energy -396789.149581 kJ/mol
# GULP energy per Si atom -12399.660924 kJ/mol
# Density = 1.889102 g / cm^3
# Si number density = 18.934118 Si / 1000 Ang^3
#
#
#
# Elastic Constant Matrix: (Units=GPa)
#
#
# Indices 1 2 3 4 5 6 
#
# 1 131.3225 26.5671 54.5024 0.0000 -13.8661 0.0000
# 2 26.5671 42.3011 28.3216 0.0000 -6.5052 0.0000
# 3 54.5024 28.3216 109.8344 0.0000 -14.2446 0.0000
# 4 0.0000 0.0000 0.0000 21.5473 0.0000 -3.0340
# 5 -13.8661 -6.5052 -14.2446 0.0000 27.7740 0.0000
# 6 0.0000 0.0000 0.0000 -3.0340 0.0000 28.4609
#
#
#
# Elastic Compliance Matrix: (Units=1/GPa)
#
#
# Indices 1 2 3 4 5 6 
#
# 1 0.010152 -0.003445 -0.003853 0.000000 0.002285 0.000000
# 2 -0.003445 0.029997 -0.005718 0.000000 0.002374 0.000000
# 3 -0.003853 -0.005718 0.012928 0.000000 0.003367 0.000000
# 4 0.000000 0.000000 0.000000 0.047117 0.000000 0.005023
# 5 0.002285 0.002374 0.003367 0.000000 0.039429 0.000000
# 6 0.000000 0.000000 0.000000 0.005023 0.000000 0.035671
#
#
# Mechanical properties :
#
#
# Convention : Reuss Voigt Hill
#
# Bulk Modulus (GPa) = 36.97481 55.80447 46.38964
# Shear Modulus (GPa) = 23.77104 27.16089 25.46597
#
# Velocity S-wave (km/s) = 3.54709 3.79158 3.67137
# Velocity P-wave (km/s) = 6.02879 6.97890 6.52117
#
# Compressibility (1/GPa) = 0.02704544
#
# Stress axis : x y z
#
# Youngs Moduli (GPa) = 98.50088 33.33700 77.35346
#
# Poissons Ratio (x) = 0.11484 0.29805
# Poissons Ratio (y) = 0.33932 0.44228
# Poissons Ratio (z) = 0.37953 0.19061
#
# Static dielectric constant tensor:
#      x y z
#    x 4.106680 0.000000 -0.120670 
#    y 0.000000 3.451080 0.000000 
#    z -0.120670 0.000000 3.550120 
# 
# 
# High freq. dielectric constant tensor:
#      x y z
#    x 1.751260 0.000000 -0.002710 
#    y 0.000000 1.718070 0.000000 
#    z -0.002710 0.000000 1.733530 
# 
# From -- ./inp_files/375633.got.cif
#   From: 2010.06.25/outbox.cif.g09.slc.cpg/sg12_188_cif.got.tgz:375633.got - 2010.06.28 00:19:55.
