data_PCOD8091381
_publ_section_title
;
Structure prediction by ZEFSAII (Michael W. Deem and Ramdas Pophale) SiO2 
 PCOD8091381
Probable space group: C 2/M
;
_chemical_formula_sum "Si O2"
_cell_formula_units_Z 64
_cell_length_a 30.316513
_cell_length_b 15.233573
_cell_length_c 9.402095
_cell_angle_alpha 90.000000
_cell_angle_beta 45.517992
_cell_angle_gamma 90.000000
_cell_volume 3098.001969
_symmetry_space_group_name_H-M "C 2/M"
_symmetry_group_IT_number 12
_symmetry_cell_setting 'monoclinic'
loop_
_space_group_symop_operation_xyz
x,y,z
-x,y,-z
-x,-y,-z
x,-y,z
1/2+x,1/2+y,z
1/2-x,1/2+y,-z
1/2-x,1/2-y,-z
1/2+x,1/2-y,z
loop_
_atom_site_type_symbol
_atom_site_label
_atom_site_fract_x
_atom_site_fract_y
_atom_site_fract_z
Si Si1 0.759810 0.671449 0.229607
Si Si2 0.636946 0.102664 0.813042
Si Si3 0.050512 0.601978 0.506783
Si Si4 0.017339 0.715338 0.124286
Si Si5 0.690446 0.097712 0.149599
Si Si6 0.670874 0.595453 0.634280
Si Si7 0.542841 0.598050 0.037074
Si Si8 0.229376 0.360849 0.372591
O O1 0.811869 0.609625 0.179805
O O2 0.692587 0.645236 0.442745
O O3 0.766342 0.771027 0.264058
O O4 0.766063 0.660691 0.045160
O O5 0.664284 0.144464 0.605190
O O6 0.619056 0.000000 0.832177
O O7 0.579399 0.158426 0.999254
O O8 0.049092 0.500000 0.556563
O O9 0.119108 0.628755 0.300202
O O10 0.000000 0.621344 0.500000
O O11 0.036213 0.663328 0.673085
O O12 0.020374 0.816664 0.179850
O O13 0.000000 0.722272 0.000000
O O14 0.715506 0.095782 0.253219
O O15 0.696198 0.000000 0.075105
O O16 0.651384 0.500000 0.624947
O O17 0.609346 0.636884 0.838675
O O18 0.724107 0.584715 0.633681
O O19 0.547079 0.500000 0.104668
O O20 0.500000 0.583163 0.000000
#
# Coordination Sequence:
#
# PCOD8091381 Si02
#       8
#     8   8   8   8   8   8   8   8
#     4  11  21  35  55  79 107 145 188 225 264 326
#     4  11  21  35  56  83 116 150 184 226 276 330
#     4  10  22  38  55  78 113 155 191 226 275 336
#     4  11  21  34  56  85 112 144 188 234 277 326
#     4  11  22  37  54  77 111 147 184 228 282 335
#     4  10  19  34  56  80 106 137 176 222 274 328
#     4   9  19  36  58  84 112 143 183 233 285 332
#     4  11  21  34  52  79 111 143 181 228 281 327
#
# _framework density 20.658476
#
# number of rings (size 3 to 8) (size 9 to 14) (size 15 to 20)
#    0.000    1.500    0.000    8.250    0.000    4.000 
#    0.000    0.000    0.000    0.375    0.000    1.750 
#    0.000    0.000    0.000    0.000    0.000    0.000 
#
# Total GULP energy -396515.851783 kJ/mol
# GULP energy per Si atom -12391.120368 kJ/mol
# Density = 2.061146 g / cm^3
# Si number density = 20.658476 Si / 1000 Ang^3
#
#
#
# Elastic Constant Matrix: (Units=GPa)
#
#
# Indices 1 2 3 4 5 6 
#
# 1 56.0063 4.0457 17.1937 0.0000 -2.6288 0.0000
# 2 4.0457 124.9331 44.5487 0.0000 -1.0462 0.0000
# 3 17.1937 44.5487 76.8416 0.0000 11.2884 0.0000
# 4 0.0000 0.0000 0.0000 27.8100 0.0000 2.1636
# 5 -2.6288 -1.0462 11.2884 0.0000 26.3096 0.0000
# 6 0.0000 0.0000 0.0000 2.1636 0.0000 25.6737
#
#
#
# Elastic Compliance Matrix: (Units=1/GPa)
#
#
# Indices 1 2 3 4 5 6 
#
# 1 0.019803 0.001537 -0.006000 0.000000 0.004614 0.000000
# 2 0.001537 0.010453 -0.006924 0.000000 0.003540 0.000000
# 3 -0.006000 -0.006924 0.019743 0.000000 -0.009346 0.000000
# 4 0.000000 0.000000 0.000000 0.036196 0.000000 -0.003050
# 5 0.004614 0.003540 -0.009346 0.000000 0.042621 0.000000
# 6 0.000000 0.000000 0.000000 -0.003050 0.000000 0.039207
#
#
# Mechanical properties :
#
#
# Convention : Reuss Voigt Hill
#
# Bulk Modulus (GPa) = 36.73081 43.26193 39.99637
# Shear Modulus (GPa) = 25.01600 28.75817 26.88709
#
# Velocity S-wave (km/s) = 3.48362 3.73510 3.61155
# Velocity P-wave (km/s) = 5.83090 6.29192 6.06579
#
# Compressibility (1/GPa) = 0.02722510
#
# Stress axis : x y z
#
# Youngs Moduli (GPa) = 50.49851 95.66486 50.64980
#
# Poissons Ratio (x) = -0.14701 0.30388
# Poissons Ratio (y) = -0.07760 0.35070
# Poissons Ratio (z) = 0.30297 0.66239
#
# Static dielectric constant tensor:
#      x y z
#    x 3.550060 0.000000 -0.176950 
#    y 0.000000 3.987270 0.000000 
#    z -0.176950 0.000000 3.800890 
# 
# 
# High freq. dielectric constant tensor:
#      x y z
#    x 1.790240 0.000000 -0.016030 
#    y 0.000000 1.823240 0.000000 
#    z -0.016030 0.000000 1.795090 
# 
# From -- ./inp_files/111946.got.cif
#   From: 2010.06.25/outbox.cif.g09.slc.cpg/sg12_56_cif.got.tgz:111946.got - 2010.06.28 00:19:55.
