data_PCOD8091844
_publ_section_title
;
Structure prediction by ZEFSAII (Michael W. Deem and Ramdas Pophale) SiO2 
 PCOD8091844
Probable space group: C 2/M
;
_chemical_formula_sum "Si O2"
_cell_formula_units_Z 56
_cell_length_a 28.446363
_cell_length_b 14.438532
_cell_length_c 8.886400
_cell_angle_alpha 90.000000
_cell_angle_beta 51.989388
_cell_angle_gamma 90.000000
_cell_volume 2875.708976
_symmetry_space_group_name_H-M "C 2/M"
_symmetry_group_IT_number 12
_symmetry_cell_setting 'monoclinic'
loop_
_space_group_symop_operation_xyz
x,y,z
-x,y,-z
-x,-y,-z
x,-y,z
1/2+x,1/2+y,z
1/2-x,1/2+y,-z
1/2-x,1/2-y,-z
1/2+x,1/2-y,z
loop_
_atom_site_type_symbol
_atom_site_label
_atom_site_fract_x
_atom_site_fract_y
_atom_site_fract_z
Si Si1 0.721737 0.103929 0.640793
Si Si2 0.704430 0.392410 0.077885
Si Si3 0.568799 0.268558 0.854735
Si Si4 0.152170 0.894946 0.504460
Si Si5 0.647969 0.755465 0.976309
Si Si6 0.625558 0.896098 0.593927
Si Si7 0.344334 0.107259 0.798753
O O1 0.792776 0.117575 0.487066
O O2 0.697635 0.185226 0.792232
O O3 0.691711 0.111635 0.536327
O O4 0.709532 0.000000 0.734583
O O5 0.694361 0.500000 0.059666
O O6 0.673025 0.364390 0.296791
O O7 0.676364 0.334136 0.997971
O O8 0.774321 0.370272 0.953267
O O9 0.598423 0.333598 0.670791
O O10 0.596685 0.280405 0.965503
O O11 0.577656 0.163747 0.780009
O O12 0.500000 0.294574 0.000000
O O13 0.129426 0.000000 0.546212
O O14 0.620408 0.826525 0.154339
O O15 0.632454 0.862926 0.410245
O O16 0.601079 0.000000 0.651178
O O17 0.358309 0.000000 0.804342
#
# Coordination Sequence:
#
# PCOD8091844 Si02
#       7
#     8   8   8   8   8   8   8
#     4   9  18  33  55  89 119 148 181 225 291 351
#     4  10  21  35  55  90 125 149 175 222 291 361
#     4  11  26  42  57  79 110 156 210 246 271 315
#     4  10  21  39  60  81 116 151 187 237 289 341
#     4  11  21  34  60  84 117 152 184 236 284 343
#     4   9  20  36  59  86 119 151 183 230 284 346
#     4  10  19  34  57  91 125 145 172 220 292 367
#
# _framework density 19.473458999999998
#
# number of rings (size 3 to 8) (size 9 to 14) (size 15 to 20)
#    0.000    2.000    1.429    1.714    4.000    2.857 
#    0.000    2.857    0.000    3.429    0.000    0.000 
#    0.000    0.000    0.000    0.000    0.000    0.000 
#
# Total GULP energy -347169.805039 kJ/mol
# GULP energy per Si atom -12398.921609 kJ/mol
# Density = 1.942914 g / cm^3
# Si number density = 19.473459 Si / 1000 Ang^3
#
#
#
# Elastic Constant Matrix: (Units=GPa)
#
#
# Indices 1 2 3 4 5 6 
#
# 1 65.7863 24.7852 30.8824 0.0000 1.4576 0.0000
# 2 24.7852 60.3744 17.8643 0.0000 3.5057 0.0000
# 3 30.8824 17.8643 69.3626 0.0000 2.1103 0.0000
# 4 0.0000 0.0000 0.0000 29.5227 0.0000 9.8097
# 5 1.4576 3.5057 2.1103 0.0000 32.3288 0.0000
# 6 0.0000 0.0000 0.0000 9.8097 0.0000 19.9506
#
#
#
# Elastic Compliance Matrix: (Units=1/GPa)
#
#
# Indices 1 2 3 4 5 6 
#
# 1 0.021298 -0.006441 -0.007831 0.000000 0.000249 0.000000
# 2 -0.006441 0.019965 -0.002222 0.000000 -0.001730 0.000000
# 3 -0.007831 -0.002222 0.018495 0.000000 -0.000613 0.000000
# 4 0.000000 0.000000 0.000000 0.040487 0.000000 -0.019908
# 5 0.000249 -0.001730 -0.000613 0.000000 0.031148 0.000000
# 6 0.000000 0.000000 0.000000 -0.019908 0.000000 0.059912
#
#
# Mechanical properties :
#
#
# Convention : Reuss Voigt Hill
#
# Bulk Modulus (GPa) = 37.35490 38.06523 37.71006
# Shear Modulus (GPa) = 21.43927 24.49318 22.96623
#
# Velocity S-wave (km/s) = 3.32165 3.55036 3.43791
# Velocity P-wave (km/s) = 5.82540 6.03294 5.93008
#
# Compressibility (1/GPa) = 0.02677025
#
# Stress axis : x y z
#
# Youngs Moduli (GPa) = 46.95270 50.08713 54.06967
#
# Poissons Ratio (x) = 0.32259 0.42344
# Poissons Ratio (y) = 0.30240 0.12013
# Poissons Ratio (z) = 0.36770 0.11129
#
# Static dielectric constant tensor:
#      x y z
#    x 3.392290 0.000000 0.367520 
#    y 0.000000 3.727280 0.000000 
#    z 0.367520 0.000000 3.408320 
# 
# 
# High freq. dielectric constant tensor:
#      x y z
#    x 1.728000 0.000000 0.034990 
#    y 0.000000 1.775640 0.000000 
#    z 0.034990 0.000000 1.742930 
# 
# From -- ./inp_files/111567.got.cif
#   From: 2010.06.25/outbox.cif.g09.slc.cpg/sg12_56_cif.got.tgz:111567.got - 2010.06.28 00:19:55.
