data_PCOD8091197
_publ_section_title
;
Structure prediction by ZEFSAII (Michael W. Deem and Ramdas Pophale) SiO2 
 PCOD8091197
Probable space group: C 2/M
;
_chemical_formula_sum "Si O2"
_cell_formula_units_Z 48
_cell_length_a 13.909761
_cell_length_b 33.969847
_cell_length_c 14.593410
_cell_angle_alpha 90.000000
_cell_angle_beta 20.478906
_cell_angle_gamma 90.000000
_cell_volume 2412.500731
_symmetry_space_group_name_H-M "C 2/M"
_symmetry_group_IT_number 12
_symmetry_cell_setting 'monoclinic'
loop_
_space_group_symop_operation_xyz
x,y,z
-x,y,-z
-x,-y,-z
x,-y,z
1/2+x,1/2+y,z
1/2-x,1/2+y,-z
1/2-x,1/2-y,-z
1/2+x,1/2-y,z
loop_
_atom_site_type_symbol
_atom_site_label
_atom_site_fract_x
_atom_site_fract_y
_atom_site_fract_z
Si Si1 0.685554 0.887115 0.251622
Si Si2 0.694104 0.045854 0.744197
Si Si3 0.573668 0.658359 0.205823
Si Si4 0.808540 0.224042 0.757344
Si Si5 0.192035 0.805063 0.913867
Si Si6 0.945211 0.606097 0.284427
O O1 0.500000 0.902258 0.500000
O O2 0.613849 0.841556 0.289440
O O3 0.610028 0.910802 0.226521
O O4 0.000000 0.892544 0.000000
O O5 0.621664 0.068524 0.716686
O O6 0.000000 0.056689 0.500000
O O7 0.656562 0.000000 0.756113
O O8 0.500000 0.059657 0.000000
O O9 0.576055 0.687354 0.289308
O O10 0.333039 0.626954 0.433729
O O11 0.528099 0.682750 0.152162
O O12 0.866864 0.636436 0.939945
O O13 0.844133 0.263119 0.790452
O O14 0.000000 0.230578 0.500000
O O15 0.500000 0.215104 0.000000
O O16 0.000000 0.795765 0.000000
#
# Coordination Sequence:
#
# PCOD8091197 Si02
#       6
#     8   8   8   8   8   8
#     4  10  19  34  55  80 108 141 186 232 275 324
#     4  10  22  40  63  89 117 151 187 222 266 328
#     4  11  23  36  55  82 111 144 186 234 285 332
#     4  11  23  37  52  74 107 149 191 233 284 333
#     4   9  19  36  54  74 103 144 191 235 275 323
#     4  11  22  37  59  85 112 146 183 230 284 331
#
# _framework density 19.896367999999999
#
# number of rings (size 3 to 8) (size 9 to 14) (size 15 to 20)
#    0.000    1.667    0.000    6.000    0.000    8.000 
#    0.000    8.333    0.000    1.000    0.000    0.000 
#    0.000    0.667    0.000    0.000    0.000    0.000 
#
# Total GULP energy -297529.873295 kJ/mol
# GULP energy per Si atom -12397.078054 kJ/mol
# Density = 1.985108 g / cm^3
# Si number density = 19.896368 Si / 1000 Ang^3
#
#
#
# Elastic Constant Matrix: (Units=GPa)
#
#
# Indices 1 2 3 4 5 6 
#
# 1 136.2736 66.8980 47.7943 -0.0010 8.3306 0.0002
# 2 66.8980 65.7504 34.5880 0.0004 7.6591 0.0007
# 3 47.7943 34.5880 135.5388 -0.0118 8.8802 -0.0015
# 4 -0.0010 0.0004 -0.0118 34.6530 0.0004 1.8175
# 5 8.3306 7.6591 8.8802 0.0004 27.5459 0.0006
# 6 0.0002 0.0007 -0.0015 1.8175 0.0006 39.4829
#
#
#
# Elastic Compliance Matrix: (Units=1/GPa)
#
#
# Indices 1 2 3 4 5 6 
#
# 1 0.014958 -0.014373 -0.001606 0.000000 -0.000010 0.000000
# 2 -0.014373 0.031718 -0.002792 -0.000002 -0.003572 0.000000
# 3 -0.001606 -0.002792 0.008759 0.000003 -0.001562 0.000000
# 4 0.000000 -0.000002 0.000003 0.028927 -0.000001 -0.001332
# 5 -0.000010 -0.003572 -0.001562 -0.000001 0.037803 0.000000
# 6 0.000000 0.000000 0.000000 -0.001332 0.000000 0.025389
#
#
# Mechanical properties :
#
#
# Convention : Reuss Voigt Hill
#
# Bulk Modulus (GPa) = 55.88758 70.68035 63.28397
# Shear Modulus (GPa) = 26.16994 32.88853 29.52923
#
# Velocity S-wave (km/s) = 3.63066 4.07011 3.85665
# Velocity P-wave (km/s) = 6.76209 7.59533 7.19079
#
# Compressibility (1/GPa) = 0.01789306
#
# Stress axis : x y z
#
# Youngs Moduli (GPa) = 66.85444 31.52828 114.16800
#
# Poissons Ratio (x) = 0.45316 0.18336
# Poissons Ratio (y) = 0.96090 0.31872
# Poissons Ratio (z) = 0.10737 0.08802
#
# Static dielectric constant tensor:
#      x y z
#    x 3.789610 0.000000 0.076370 
#    y 0.000000 3.435790 0.000000 
#    z 0.076370 0.000000 3.585040 
# 
# 
# High freq. dielectric constant tensor:
#      x y z
#    x 1.786280 0.000000 0.006240 
#    y 0.000000 1.744060 0.000000 
#    z 0.006240 0.000000 1.786180 
# 
# From -- ./inp_files/219519.got.cif
#   From: 2010.06.25/outbox.cif.g09.slc.cpg/sg12_110_cif.got.tgz:219519.got - 2010.06.28 00:19:55.
