data_PCOD8091427
_publ_section_title
;
Structure prediction by ZEFSAII (Michael W. Deem and Ramdas Pophale) SiO2 
 PCOD8091427
Probable space group: C 2/M
;
_chemical_formula_sum "Si O2"
_cell_formula_units_Z 64
_cell_length_a 20.076586
_cell_length_b 9.208962
_cell_length_c 33.084827
_cell_angle_alpha 90.000000
_cell_angle_beta 146.183876
_cell_angle_gamma 90.000000
_cell_volume 3404.219544
_symmetry_space_group_name_H-M "C 2/M"
_symmetry_group_IT_number 12
_symmetry_cell_setting 'monoclinic'
loop_
_space_group_symop_operation_xyz
x,y,z
-x,y,-z
-x,-y,-z
x,-y,z
1/2+x,1/2+y,z
1/2-x,1/2+y,-z
1/2-x,1/2-y,-z
1/2+x,1/2-y,z
loop_
_atom_site_type_symbol
_atom_site_label
_atom_site_fract_x
_atom_site_fract_y
_atom_site_fract_z
Si Si1 0.011892 0.666883 0.051519
Si Si2 0.352245 0.165286 0.660274
Si Si3 0.256506 0.327909 0.812293
Si Si4 0.137333 0.334083 0.428152
Si Si5 0.244914 0.330418 0.039759
Si Si6 0.607443 0.172576 0.661931
Si Si7 0.128117 0.327798 0.581723
Si Si8 0.887541 0.671478 0.180570
O O1 0.052986 0.500000 0.073295
O O2 0.111458 0.763273 0.123044
O O3 0.888046 0.692406 0.011304
O O4 0.000000 0.722974 0.000000
O O5 0.386844 0.184685 0.631242
O O6 0.238526 0.264396 0.612453
O O7 0.471460 0.209561 0.745034
O O8 0.316470 0.000000 0.651993
O O9 0.264696 0.500000 0.815944
O O10 0.195926 0.266985 0.740863
O O11 0.182500 0.276480 0.814431
O O12 0.157581 0.500000 0.450183
O O13 0.250000 0.250000 0.500000
O O14 0.024690 0.268105 0.395237
O O15 0.276520 0.500000 0.050718
O O16 0.339114 0.259221 0.117887
O O17 0.250000 0.250000 0.000000
O O18 0.644682 0.225904 0.636221
O O19 0.605198 0.000000 0.663219
O O20 0.134469 0.500000 0.581243
O O21 0.000000 0.272559 0.500000
O O22 0.868640 0.500000 0.164294
#
# Coordination Sequence:
#
# PCOD8091427 Si02
#       8
#     8   8   8   8   8   8   8   8
#     4  10  21  38  58  83 116 150 184 232 292 337
#     4  10  21  37  58  83 114 151 189 232 290 348
#     4  10  19  34  60  87 111 147 195 239 279 339
#     4  10  19  34  56  81 109 143 184 232 280 331
#     4  11  24  41  61  86 120 157 192 236 287 343
#     4   9  18  35  56  79 110 145 185 232 280 327
#     4  10  21  37  57  82 114 153 194 238 285 338
#     4  10  20  37  60  86 116 151 191 237 291 345
#
# _framework density 18.800198000000002
#
# number of rings (size 3 to 8) (size 9 to 14) (size 15 to 20)
#    0.000    2.000    2.500    1.125    0.000    4.500 
#    0.000    4.375    0.000    0.000    0.000    0.000 
#    0.000    0.000    0.000    0.000    0.000    0.000 
#
# Total GULP energy -396821.979839 kJ/mol
# GULP energy per Si atom -12400.686870 kJ/mol
# Density = 1.875741 g / cm^3
# Si number density = 18.800198 Si / 1000 Ang^3
#
#
#
# Elastic Constant Matrix: (Units=GPa)
#
#
# Indices 1 2 3 4 5 6 
#
# 1 66.1653 28.3639 21.6752 0.0000 0.5103 0.0001
# 2 28.3639 48.3290 41.0207 -0.0001 -0.1650 0.0003
# 3 21.6752 41.0207 123.8216 0.0000 -0.3834 0.0001
# 4 0.0000 -0.0001 0.0000 30.6648 0.0000 2.8792
# 5 0.5103 -0.1650 -0.3834 0.0000 35.5842 0.0000
# 6 0.0001 0.0003 0.0001 2.8792 0.0000 28.6545
#
#
#
# Elastic Compliance Matrix: (Units=1/GPa)
#
#
# Indices 1 2 3 4 5 6 
#
# 1 0.020225 -0.012333 0.000544 0.000000 -0.000341 0.000000
# 2 -0.012333 0.036306 -0.009868 0.000000 0.000239 0.000000
# 3 0.000544 -0.009868 0.011250 0.000000 0.000068 0.000000
# 4 0.000000 0.000000 0.000000 0.032921 0.000000 -0.003308
# 5 -0.000341 0.000239 0.000068 0.000000 0.028109 0.000000
# 6 0.000000 0.000000 0.000000 -0.003308 0.000000 0.035231
#
#
# Mechanical properties :
#
#
# Convention : Reuss Voigt Hill
#
# Bulk Modulus (GPa) = 40.87009 46.71504 43.79256
# Shear Modulus (GPa) = 23.20050 28.79779 25.99914
#
# Velocity S-wave (km/s) = 3.51672 3.91804 3.72280
# Velocity P-wave (km/s) = 6.18677 6.73574 6.46708
#
# Compressibility (1/GPa) = 0.02446777
#
# Stress axis : x y z
#
# Youngs Moduli (GPa) = 49.44394 27.54337 88.88657
#
# Poissons Ratio (x) = 0.33969 -0.04838
# Poissons Ratio (y) = 0.60979 0.87715
# Poissons Ratio (z) = -0.02691 0.27180
#
# Static dielectric constant tensor:
#      x y z
#    x 3.445650 0.000000 0.042260 
#    y 0.000000 3.476550 0.000000 
#    z 0.042260 0.000000 3.331060 
# 
# 
# High freq. dielectric constant tensor:
#      x y z
#    x 1.735090 0.000000 -0.000450 
#    y 0.000000 1.708920 0.000000 
#    z -0.000450 0.000000 1.745810 
# 
# From -- ./inp_files/320009.got.cif
#   From: 2010.06.25/outbox.cif.g09.slc.cpg/sg12_161_cif.got.tgz:320009.got - 2010.06.28 00:19:55.
