data_PCOD8091833
_publ_section_title
;
Structure prediction by ZEFSAII (Michael W. Deem and Ramdas Pophale) SiO2 
 PCOD8091833
Probable space group: C 2/M
;
_chemical_formula_sum "Si O2"
_cell_formula_units_Z 64
_cell_length_a 23.813321
_cell_length_b 14.388818
_cell_length_c 18.801573
_cell_angle_alpha 90.000000
_cell_angle_beta 29.911181
_cell_angle_gamma 90.000000
_cell_volume 3212.484971
_symmetry_space_group_name_H-M "C 2/M"
_symmetry_group_IT_number 12
_symmetry_cell_setting 'monoclinic'
loop_
_space_group_symop_operation_xyz
x,y,z
-x,y,-z
-x,-y,-z
x,-y,z
1/2+x,1/2+y,z
1/2-x,1/2+y,-z
1/2-x,1/2-y,-z
1/2+x,1/2-y,z
loop_
_atom_site_type_symbol
_atom_site_label
_atom_site_fract_x
_atom_site_fract_y
_atom_site_fract_z
Si Si1 0.115450 0.603625 0.691454
Si Si2 0.632185 0.605288 0.560879
Si Si3 0.316115 0.393498 0.090743
Si Si4 0.464517 0.599734 0.619643
Si Si5 0.600333 0.895841 0.542254
Si Si6 0.079126 0.297775 0.343940
Si Si7 0.480568 0.293509 0.185827
Si Si8 0.664249 0.606217 0.769607
O O1 0.074434 0.500000 0.759994
O O2 0.235949 0.628239 0.594368
O O3 0.132801 0.607105 0.588493
O O4 0.024237 0.681088 0.814824
O O5 0.618112 0.500000 0.605066
O O6 0.574190 0.618162 0.547992
O O7 0.578412 0.675132 0.676709
O O8 0.319732 0.500000 0.060080
O O9 0.188325 0.360008 0.231762
O O10 0.368339 0.385673 0.112103
O O11 0.390440 0.329471 0.956439
O O12 0.500000 0.589568 0.500000
O O13 0.407384 0.500000 0.705200
O O14 0.384509 0.690457 0.712666
O O15 0.492136 0.832812 0.645361
O O16 0.708226 0.857390 0.380886
O O17 0.571508 0.000000 0.548400
O O18 0.000000 0.306133 0.500000
O O19 0.420561 0.333325 0.182531
O O20 0.655862 0.500000 0.751958
#
# Coordination Sequence:
#
# PCOD8091833 Si02
#       8
#     8   8   8   8   8   8   8   8
#     4  10  22  37  57  87 119 152 197 243 288 337
#     4  10  19  34  58  87 115 150 194 245 294 344
#     4  11  24  39  56  87 124 158 190 234 294 357
#     4   9  20  36  55  82 115 147 195 252 291 327
#     4  10  19  34  57  88 118 145 187 247 297 338
#     4  11  21  35  59  84 113 153 201 238 289 346
#     4  12  22  35  59  85 123 157 193 231 293 353
#     4  10  20  35  58  87 119 150 186 238 297 350
#
# _framework density 19.922272
#
# number of rings (size 3 to 8) (size 9 to 14) (size 15 to 20)
#    0.000    1.625    2.500    3.000    1.750    1.500 
#    0.000    3.125    0.000    4.500    0.000    0.000 
#    0.000    0.000    0.000    0.000    0.000    0.000 
#
# Total GULP energy -396701.726083 kJ/mol
# GULP energy per Si atom -12396.928940 kJ/mol
# Density = 1.987693 g / cm^3
# Si number density = 19.922272 Si / 1000 Ang^3
#
#
#
# Elastic Constant Matrix: (Units=GPa)
#
#
# Indices 1 2 3 4 5 6 
#
# 1 81.1726 28.6279 13.4182 0.0000 -1.4508 0.0000
# 2 28.6279 136.0763 57.3883 0.0000 -11.0319 0.0000
# 3 13.4182 57.3883 75.1471 0.0000 -13.4826 0.0000
# 4 0.0000 0.0000 0.0000 162.3661 0.0000 118.3171
# 5 -1.4508 -11.0319 -13.4826 0.0000 14.3125 0.0000
# 6 0.0000 0.0000 0.0000 118.3171 0.0000 135.4105
#
#
#
# Elastic Compliance Matrix: (Units=1/GPa)
#
#
# Indices 1 2 3 4 5 6 
#
# 1 0.013331 -0.002666 -0.000566 0.000000 -0.001237 0.000000
# 2 -0.002666 0.011379 -0.008049 0.000000 0.000918 0.000000
# 3 -0.000566 -0.008049 0.022181 0.000000 0.014633 0.000000
# 4 0.000000 0.000000 0.000000 0.016954 0.000000 -0.014813
# 5 -0.001237 0.000918 0.014633 0.000000 0.084236 0.000000
# 6 0.000000 0.000000 0.000000 -0.014813 0.000000 0.020328
#
#
# Mechanical properties :
#
#
# Convention : Reuss Voigt Hill
#
# Bulk Modulus (GPa) = 41.10522 54.58496 47.84509
# Shear Modulus (GPa) = 25.11556 75.28194 50.19875
#
# Velocity S-wave (km/s) = 3.55445 6.15385 5.02514
# Velocity P-wave (km/s) = 6.12561 8.82902 7.59851
#
# Compressibility (1/GPa) = 0.02432781
#
# Stress axis : x y z
#
# Youngs Moduli (GPa) = 75.01199 87.88398 45.08459
#
# Poissons Ratio (x) = 0.23431 0.02553
# Poissons Ratio (y) = 0.19999 0.36288
# Poissons Ratio (z) = 0.04248 0.70737
#
# Static dielectric constant tensor:
#      x y z
#    x 3.626510 0.000000 -0.029090 
#    y 0.000000 4.127460 0.000000 
#    z -0.029090 0.000000 3.236060 
# 
# 
# High freq. dielectric constant tensor:
#      x y z
#    x 1.782710 0.000000 -0.001060 
#    y 0.000000 1.793450 0.000000 
#    z -0.001060 0.000000 1.729340 
# 
# From -- ./inp_files/290086.got.cif
#   From: 2010.06.25/outbox.cif.g09.slc.cpg/sg12_146_cif.got.tgz:290086.got - 2010.06.28 00:19:55.
