data_PCOD8091996
_publ_section_title
;
Structure prediction by ZEFSAII (Michael W. Deem and Ramdas Pophale) SiO2 
 PCOD8091996
Probable space group: C 2/M
;
_chemical_formula_sum "Si O2"
_cell_formula_units_Z 64
_cell_length_a 15.433856
_cell_length_b 8.775841
_cell_length_c 33.381574
_cell_angle_alpha 90.000000
_cell_angle_beta 45.813257
_cell_angle_gamma 90.000000
_cell_volume 3242.147008
_symmetry_space_group_name_H-M "C 2/M"
_symmetry_group_IT_number 12
_symmetry_cell_setting 'monoclinic'
loop_
_space_group_symop_operation_xyz
x,y,z
-x,y,-z
-x,-y,-z
x,-y,z
1/2+x,1/2+y,z
1/2-x,1/2+y,-z
1/2-x,1/2-y,-z
1/2+x,1/2-y,z
loop_
_atom_site_type_symbol
_atom_site_label
_atom_site_fract_x
_atom_site_fract_y
_atom_site_fract_z
Si Si1 0.466775 0.320810 0.252875
Si Si2 0.547525 0.174278 0.363029
Si Si3 0.393551 0.179464 0.064625
Si Si4 0.903806 0.679941 0.563078
Si Si5 0.860600 0.318869 0.864326
Si Si6 0.726192 0.175851 0.739861
Si Si7 0.855257 0.674817 0.362922
Si Si8 0.945655 0.676247 0.135327
O O1 0.487453 0.500000 0.247994
O O2 0.584154 0.245525 0.194710
O O3 0.345371 0.281775 0.267944
O O4 0.449135 0.256964 0.303014
O O5 0.549499 0.230840 0.408230
O O6 0.634499 0.278790 0.307833
O O7 0.412476 0.190705 0.388937
O O8 0.592267 0.000000 0.345761
O O9 0.274857 0.261583 0.086185
O O10 0.430492 0.249405 0.096160
O O11 0.367361 0.000000 0.075548
O O12 0.500000 0.219089 0.000000
O O13 0.890520 0.500000 0.564133
O O14 0.775001 0.750151 0.594756
O O15 0.000000 0.742630 0.500000
O O16 0.865631 0.500000 0.860705
O O17 0.941049 0.256452 0.875904
O O18 0.678321 0.204489 0.800296
O O19 0.705640 0.000000 0.734535
O O20 0.841964 0.500000 0.354074
O O21 0.972218 0.500000 0.120197
#
# Coordination Sequence:
#
# PCOD8091996 Si02
#       8
#     8   8   8   8   8   8   8   8
#     4  11  21  36  59  86 119 155 193 240 301 356
#     4  10  22  38  57  86 122 156 193 240 290 346
#     4  10  21  38  59  84 115 154 198 240 285 347
#     4  10  22  42  64  85 116 160 202 243 292 345
#     4  10  21  38  58  83 115 152 193 241 294 348
#     4  10  19  34  58  86 118 154 194 239 292 351
#     4  11  23  38  58  89 122 155 198 243 291 344
#     4   8  18  36  55  80 115 152 188 232 289 345
#
# _framework density 19.740003999999999
#
# number of rings (size 3 to 8) (size 9 to 14) (size 15 to 20)
#    0.000    2.000    1.250    3.000    1.750    2.500 
#    0.000    3.125    0.000    0.000    0.000    0.000 
#    0.000    0.000    0.000    0.000    0.000    0.000 
#
# Total GULP energy -396820.040274 kJ/mol
# GULP energy per Si atom -12400.626259 kJ/mol
# Density = 1.969508 g / cm^3
# Si number density = 19.740004 Si / 1000 Ang^3
#
#
#
# Elastic Constant Matrix: (Units=GPa)
#
#
# Indices 1 2 3 4 5 6 
#
# 1 118.3625 23.5915 72.3897 0.0001 6.8373 -0.0008
# 2 23.5915 46.7445 39.5514 0.0011 -2.4671 -0.0007
# 3 72.3897 39.5514 138.5472 0.0003 4.5951 0.0002
# 4 0.0001 0.0011 0.0003 26.4859 0.0007 -6.9286
# 5 6.8373 -2.4671 4.5951 0.0007 25.0249 0.0004
# 6 -0.0008 -0.0007 0.0002 -6.9286 0.0004 28.4529
#
#
#
# Elastic Compliance Matrix: (Units=1/GPa)
#
#
# Indices 1 2 3 4 5 6 
#
# 1 0.012598 -0.001300 -0.006130 0.000000 -0.002445 0.000000
# 2 -0.001300 0.028804 -0.007696 -0.000001 0.004608 0.000000
# 3 -0.006130 -0.007696 0.012664 0.000000 -0.001409 0.000000
# 4 0.000000 -0.000001 0.000000 0.040325 -0.000001 0.009820
# 5 -0.002445 0.004608 -0.001409 -0.000001 0.041341 -0.000001
# 6 0.000000 0.000000 0.000000 0.009820 -0.000001 0.037537
#
#
# Mechanical properties :
#
#
# Convention : Reuss Voigt Hill
#
# Bulk Modulus (GPa) = 41.99301 63.85770 52.92535
# Shear Modulus (GPa) = 23.64501 27.20085 25.42293
#
# Velocity S-wave (km/s) = 3.46471 3.71611 3.59261
# Velocity P-wave (km/s) = 6.10941 7.12967 6.63917
#
# Compressibility (1/GPa) = 0.02381349
#
# Stress axis : x y z
#
# Youngs Moduli (GPa) = 79.37662 34.71702 78.96096
#
# Poissons Ratio (x) = 0.04515 0.48404
# Poissons Ratio (y) = 0.10322 0.60770
# Poissons Ratio (z) = 0.48659 0.26719
#
# Static dielectric constant tensor:
#      x y z
#    x 3.674960 0.000000 0.158900 
#    y 0.000000 3.442850 0.000000 
#    z 0.158900 0.000000 3.663650 
# 
# 
# High freq. dielectric constant tensor:
#      x y z
#    x 1.774990 0.000000 0.003130 
#    y 0.000000 1.756960 0.000000 
#    z 0.003130 0.000000 1.765270 
# 
# From -- ./inp_files/375402.got.cif
#   From: 2010.06.25/outbox.cif.g09.slc.cpg/sg12_188_cif.got.tgz:375402.got - 2010.06.28 00:19:55.
