data_PCOD8091346
_publ_section_title
;
Structure prediction by ZEFSAII (Michael W. Deem and Ramdas Pophale) SiO2 
 PCOD8091346
Probable space group: C 2/M
;
_chemical_formula_sum "Si O2"
_cell_formula_units_Z 64
_cell_length_a 18.702989
_cell_length_b 9.502342
_cell_length_c 29.948300
_cell_angle_alpha 90.000000
_cell_angle_beta 39.138695
_cell_angle_gamma 90.000000
_cell_volume 3359.546702
_symmetry_space_group_name_H-M "C 2/M"
_symmetry_group_IT_number 12
_symmetry_cell_setting 'monoclinic'
loop_
_space_group_symop_operation_xyz
x,y,z
-x,y,-z
-x,-y,-z
x,-y,z
1/2+x,1/2+y,z
1/2-x,1/2+y,-z
1/2-x,1/2-y,-z
1/2+x,1/2-y,z
loop_
_atom_site_type_symbol
_atom_site_label
_atom_site_fract_x
_atom_site_fract_y
_atom_site_fract_z
Si Si1 0.623580 0.836060 0.924565
Si Si2 0.554646 0.833755 0.696398
Si Si3 0.404758 0.835245 0.161246
Si Si4 0.726567 0.832002 0.689045
Si Si5 0.354492 0.844269 0.937263
Si Si6 0.134797 0.665397 0.560231
Si Si7 0.045348 0.661405 0.428406
Si Si8 0.329089 0.843895 0.848122
O O1 0.650525 0.802781 0.859703
O O2 0.718839 0.753101 0.905126
O O3 0.635274 0.000000 0.929980
O O4 0.500000 0.782846 0.000000
O O5 0.651860 0.778033 0.683142
O O6 0.579687 0.787349 0.633810
O O7 0.429626 0.775177 0.769530
O O8 0.549610 0.000000 0.704461
O O9 0.329796 0.774125 0.237833
O O10 0.532097 0.772909 0.097656
O O11 0.419171 0.000000 0.162973
O O12 0.849039 0.763089 0.628199
O O13 0.741454 0.000000 0.681558
O O14 0.378734 0.855757 0.873273
O O15 0.332907 0.000000 0.967996
O O16 0.250000 0.750000 0.000000
O O17 0.162719 0.500000 0.546439
O O18 0.250000 0.750000 0.500000
O O19 0.050939 0.706113 0.560520
O O20 0.081922 0.500000 0.402211
O O21 0.000000 0.682172 0.500000
O O22 0.295475 0.000000 0.846660
#
# Coordination Sequence:
#
# PCOD8091346 Si02
#       8
#     8   8   8   8   8   8   8   8
#     4  10  21  36  53  75 107 144 179 220 272 326
#     4   9  18  35  57  80 106 140 180 222 267 313
#     4   9  18  34  54  76 105 141 178 221 270 314
#     4  10  19  35  59  81 104 139 185 226 259 311
#     4  10  19  34  56  79 105 139 180 225 272 318
#     4  10  21  37  58  82 111 145 179 216 262 316
#     4  10  22  38  55  81 117 147 171 213 273 321
#     4  10  20  35  56  80 107 140 180 226 272 317
#
# _framework density 19.050187999999999
#
# number of rings (size 3 to 8) (size 9 to 14) (size 15 to 20)
#    0.000    2.250    1.250    1.500    1.750    2.500 
#    0.000    2.500    0.000    0.000    0.000    0.000 
#    0.000    0.000    0.000    0.000    0.000    0.000 
#
# Total GULP energy -396739.074971 kJ/mol
# GULP energy per Si atom -12398.096093 kJ/mol
# Density = 1.900683 g / cm^3
# Si number density = 19.050188 Si / 1000 Ang^3
#
#
#
# Elastic Constant Matrix: (Units=GPa)
#
#
# Indices 1 2 3 4 5 6 
#
# 1 100.8532 25.5061 37.1271 -0.0001 -3.3746 0.0012
# 2 25.5061 44.5714 35.3013 -0.0002 -12.6150 0.0005
# 3 37.1271 35.3013 114.0251 0.0000 -7.1060 0.0002
# 4 -0.0001 -0.0002 0.0000 27.6470 0.0000 -8.5476
# 5 -3.3746 -12.6150 -7.1060 0.0000 41.2815 -0.0001
# 6 0.0012 0.0005 0.0002 -8.5476 -0.0001 21.9122
#
#
#
# Elastic Compliance Matrix: (Units=1/GPa)
#
#
# Indices 1 2 3 4 5 6 
#
# 1 0.012100 -0.005366 -0.002344 0.000000 -0.001054 -0.000001
# 2 -0.005366 0.034652 -0.008439 0.000000 0.008698 0.000000
# 3 -0.002344 -0.008439 0.012103 0.000000 -0.000687 0.000000
# 4 0.000000 0.000000 0.000000 0.041131 0.000000 0.016044
# 5 -0.001054 0.008698 -0.000687 0.000000 0.026677 0.000000
# 6 -0.000001 0.000000 0.000000 0.016044 0.000000 0.051895
#
#
# Mechanical properties :
#
#
# Convention : Reuss Voigt Hill
#
# Bulk Modulus (GPa) = 37.65460 50.59096 44.12278
# Shear Modulus (GPa) = 22.75736 28.93584 25.84660
#
# Velocity S-wave (km/s) = 3.46005 3.90157 3.68742
# Velocity P-wave (km/s) = 5.98093 6.84913 6.42970
#
# Compressibility (1/GPa) = 0.02655718
#
# Stress axis : x y z
#
# Youngs Moduli (GPa) = 82.64320 28.85834 82.62358
#
# Poissons Ratio (x) = 0.15485 0.19369
# Poissons Ratio (y) = 0.44346 0.69724
# Poissons Ratio (z) = 0.19374 0.24353
#
# Static dielectric constant tensor:
#      x y z
#    x 3.611750 0.000000 0.169550 
#    y 0.000000 3.162640 0.000000 
#    z 0.169550 0.000000 3.629150 
# 
# 
# High freq. dielectric constant tensor:
#      x y z
#    x 1.752720 0.000000 0.005150 
#    y 0.000000 1.703110 0.000000 
#    z 0.005150 0.000000 1.753580 
# 
# From -- ./inp_files/378240.got.cif
#   From: 2010.06.25/outbox.cif.g09.slc.cpg/sg12_190_cif.got.tgz:378240.got - 2010.06.28 00:19:55.
