data_PCOD8091595
_publ_section_title
;
Structure prediction by ZEFSAII (Michael W. Deem and Ramdas Pophale) SiO2 
 PCOD8091595
Probable space group: C 2/M
;
_chemical_formula_sum "Si O2"
_cell_formula_units_Z 56
_cell_length_a 21.635314
_cell_length_b 9.619009
_cell_length_c 28.482438
_cell_angle_alpha 90.000000
_cell_angle_beta 149.537052
_cell_angle_gamma 90.000000
_cell_volume 3005.124220
_symmetry_space_group_name_H-M "C 2/M"
_symmetry_group_IT_number 12
_symmetry_cell_setting 'monoclinic'
loop_
_space_group_symop_operation_xyz
x,y,z
-x,y,-z
-x,-y,-z
x,-y,z
1/2+x,1/2+y,z
1/2-x,1/2+y,-z
1/2-x,1/2-y,-z
1/2+x,1/2-y,z
loop_
_atom_site_type_symbol
_atom_site_label
_atom_site_fract_x
_atom_site_fract_y
_atom_site_fract_z
Si Si1 0.643958 0.660761 0.954779
Si Si2 0.496685 0.655546 0.226908
Si Si3 0.125437 0.341500 0.779988
Si Si4 0.125502 0.155485 0.609503
Si Si5 0.988874 0.339526 0.390898
Si Si6 0.602942 0.338510 0.033116
Si Si7 0.231014 0.659841 0.602526
O O1 0.687941 0.500000 0.988222
O O2 0.525480 0.671605 0.843471
O O3 0.750000 0.750000 0.000000
O O4 0.605873 0.720585 0.981341
O O5 0.465174 0.500000 0.222590
O O6 0.405741 0.754859 0.194654
O O7 0.636302 0.689730 0.331883
O O8 0.111090 0.500000 0.785927
O O9 0.031663 0.304874 0.676999
O O10 0.265263 0.311459 0.856666
O O11 0.105320 0.241095 0.643723
O O12 0.220647 0.239420 0.640249
O O13 0.000000 0.146534 0.500000
O O14 0.174574 0.000000 0.652617
O O15 0.956242 0.500000 0.380693
O O16 0.128961 0.306928 0.496289
O O17 0.571297 0.500000 0.008267
O O18 0.500000 0.268826 0.000000
O O19 0.218738 0.500000 0.611505
#
# Coordination Sequence:
#
# PCOD8091595 Si02
#       7
#     8   8   8   8   8   8   8
#     4  10  19  34  57  80 103 137 175 216 269 321
#     4  10  21  34  52  77 104 138 177 217 265 320
#     4  10  20  34  53  76 101 137 180 219 263 317
#     4   9  17  30  49  73 100 133 174 218 264 310
#     4   9  18  32  51  73 102 141 177 213 261 315
#     4   9  18  33  54  80 106 132 172 224 268 313
#     4   9  18  33  50  73 105 138 175 216 258 312
#
# _framework density 18.634837000000001
#
# number of rings (size 3 to 8) (size 9 to 14) (size 15 to 20)
#    0.000    2.571    1.429    0.429    0.000    4.571 
#    0.000    4.286    0.000    1.714    0.000    0.000 
#    0.000    0.000    0.000    0.000    0.000    0.000 
#
# Total GULP energy -347056.468228 kJ/mol
# GULP energy per Si atom -12394.873865 kJ/mol
# Density = 1.859242 g / cm^3
# Si number density = 18.634837 Si / 1000 Ang^3
#
#
#
# Elastic Constant Matrix: (Units=GPa)
#
#
# Indices 1 2 3 4 5 6 
#
# 1 125.8969 46.0132 51.3269 -0.0001 2.7198 0.0000
# 2 46.0132 67.3966 28.3121 -0.0001 2.4493 0.0001
# 3 51.3269 28.3121 93.3352 -0.0003 -2.5986 -0.0001
# 4 -0.0001 -0.0001 -0.0003 16.3749 0.0000 0.0931
# 5 2.7198 2.4493 -2.5986 0.0000 25.5035 0.0000
# 6 0.0000 0.0001 -0.0001 0.0931 0.0000 23.2538
#
#
#
# Elastic Compliance Matrix: (Units=1/GPa)
#
#
# Indices 1 2 3 4 5 6 
#
# 1 0.012245 -0.006273 -0.004864 0.000000 -0.001199 0.000000
# 2 -0.006273 0.020338 -0.002763 0.000000 -0.001566 0.000000
# 3 -0.004864 -0.002763 0.014290 0.000000 0.002240 0.000000
# 4 0.000000 0.000000 0.000000 0.061070 0.000000 -0.000245
# 5 -0.001199 -0.001566 0.002240 0.000000 0.039717 0.000000
# 6 0.000000 0.000000 0.000000 -0.000245 0.000000 0.043005
#
#
# Mechanical properties :
#
#
# Convention : Reuss Voigt Hill
#
# Bulk Modulus (GPa) = 52.43421 59.77035 56.10228
# Shear Modulus (GPa) = 22.23988 23.75822 22.99905
#
# Velocity S-wave (km/s) = 3.45839 3.57450 3.51692
# Velocity P-wave (km/s) = 6.64426 7.01286 6.83104
#
# Compressibility (1/GPa) = 0.01907152
#
# Stress axis : x y z
#
# Youngs Moduli (GPa) = 81.66896 49.16949 69.98123
#
# Poissons Ratio (x) = 0.30843 0.34040
# Poissons Ratio (y) = 0.51229 0.19338
# Poissons Ratio (z) = 0.39725 0.13587
#
# Static dielectric constant tensor:
#      x y z
#    x 3.358300 0.000000 -0.081630 
#    y 0.000000 3.441550 0.000000 
#    z -0.081630 0.000000 3.442750 
# 
# 
# High freq. dielectric constant tensor:
#      x y z
#    x 1.710650 0.000000 -0.006040 
#    y 0.000000 1.705820 0.000000 
#    z -0.006040 0.000000 1.722460 
# 
# From -- ./inp_files/380800.got.cif
#   From: 2010.06.25/outbox.cif.g09.slc.cpg/sg12_191_cif.got.tgz:380800.got - 2010.06.28 00:19:55.
