data_PCOD8091416
_publ_section_title
;
Structure prediction by ZEFSAII (Michael W. Deem and Ramdas Pophale) SiO2 
 PCOD8091416
Probable space group: C 2/M
;
_chemical_formula_sum "Si O2"
_cell_formula_units_Z 64
_cell_length_a 20.231031
_cell_length_b 9.048259
_cell_length_c 19.662169
_cell_angle_alpha 90.000000
_cell_angle_beta 81.783163
_cell_angle_gamma 90.000000
_cell_volume 3562.321188
_symmetry_space_group_name_H-M "C 2/M"
_symmetry_group_IT_number 12
_symmetry_cell_setting 'monoclinic'
loop_
_space_group_symop_operation_xyz
x,y,z
-x,y,-z
-x,-y,-z
x,-y,z
1/2+x,1/2+y,z
1/2-x,1/2+y,-z
1/2-x,1/2-y,-z
1/2+x,1/2-y,z
loop_
_atom_site_type_symbol
_atom_site_label
_atom_site_fract_x
_atom_site_fract_y
_atom_site_fract_z
Si Si1 0.570871 0.171975 0.454982
Si Si2 0.048555 0.326694 0.185434
Si Si3 0.036868 0.826232 0.324538
Si Si4 0.397993 0.173758 0.186628
Si Si5 0.818419 0.826745 0.471977
Si Si6 0.172061 0.672545 0.075692
Si Si7 0.885326 0.830524 0.323379
Si Si8 0.304605 0.825609 0.080473
O O1 0.500000 0.198408 0.500000
O O2 0.573293 0.241335 0.379838
O O3 0.624181 0.256081 0.491934
O O4 0.589400 0.000000 0.447540
O O5 0.050152 0.500000 0.203149
O O6 0.067147 0.234341 0.249723
O O7 0.101871 0.284377 0.119966
O O8 0.975579 0.279159 0.168450
O O9 0.958565 0.787090 0.339716
O O10 0.050675 0.000000 0.328908
O O11 0.365545 0.236584 0.260326
O O12 0.357282 0.235961 0.127994
O O13 0.390870 0.000000 0.191194
O O14 0.750000 0.750000 0.500000
O O15 0.832555 0.797180 0.390381
O O16 0.815025 0.000000 0.488264
O O17 0.186625 0.500000 0.080044
O O18 0.232194 0.755436 0.105107
O O19 0.168254 0.722091 0.997580
O O20 0.884514 0.000000 0.301014
O O21 0.296964 0.000000 0.087414
#
# Coordination Sequence:
#
# PCOD8091416 Si02
#       8
#     8   8   8   8   8   8   8   8
#     4  11  22  36  59  86 109 140 182 226 270 323
#     4   9  18  33  52  77 106 136 173 219 268 312
#     4  10  19  34  56  81 108 140 178 221 269 319
#     4   9  18  32  53  78 103 133 174 219 259 309
#     4  11  23  40  58  80 111 145 183 227 275 324
#     4   9  18  33  53  75 104 140 172 212 263 312
#     4   9  19  35  55  77 106 141 175 215 266 320
#     4   9  18  33  52  76 104 137 177 214 256 313
#
# _framework density 17.965814999999999
#
# number of rings (size 3 to 8) (size 9 to 14) (size 15 to 20)
#    0.000    2.375    1.250    1.125    0.000    3.500 
#    2.250    2.500    0.000    0.000    0.000    7.000 
#    0.000    0.000    0.000    0.000    0.000    0.000 
#
# Total GULP energy -396864.072941 kJ/mol
# GULP energy per Si atom -12402.002279 kJ/mol
# Density = 1.792492 g / cm^3
# Si number density = 17.965815 Si / 1000 Ang^3
#
#
#
# Elastic Constant Matrix: (Units=GPa)
#
#
# Indices 1 2 3 4 5 6 
#
# 1 105.0247 54.2171 74.3392 0.0000 2.2379 0.0000
# 2 54.2171 68.3245 55.1294 0.0000 3.8177 0.0000
# 3 74.3392 55.1294 118.8557 0.0000 8.0251 0.0000
# 4 0.0000 0.0000 0.0000 29.7905 0.0000 0.9292
# 5 2.2379 3.8177 8.0251 0.0000 32.6524 0.0000
# 6 0.0000 0.0000 0.0000 0.9292 0.0000 30.3571
#
#
#
# Elastic Compliance Matrix: (Units=1/GPa)
#
#
# Indices 1 2 3 4 5 6 
#
# 1 0.020338 -0.009392 -0.008485 0.000000 0.001790 0.000000
# 2 -0.009392 0.027728 -0.006926 0.000000 -0.000896 0.000000
# 3 -0.008485 -0.006926 0.017123 0.000000 -0.002817 0.000000
# 4 0.000000 0.000000 0.000000 0.033600 0.000000 -0.001028
# 5 0.001790 -0.000896 -0.002817 0.000000 0.031300 0.000000
# 6 0.000000 0.000000 0.000000 -0.001028 0.000000 0.032973
#
#
# Mechanical properties :
#
#
# Convention : Reuss Voigt Hill
#
# Bulk Modulus (GPa) = 64.17545 73.28628 68.73087
# Shear Modulus (GPa) = 22.95034 25.79460 24.37247
#
# Velocity S-wave (km/s) = 3.57801 3.79325 3.68720
# Velocity P-wave (km/s) = 7.27104 7.75020 7.51444
#
# Compressibility (1/GPa) = 0.01558228
#
# Stress axis : x y z
#
# Youngs Moduli (GPa) = 49.16941 36.06514 58.40043
#
# Poissons Ratio (x) = 0.33874 0.49551
# Poissons Ratio (y) = 0.46182 0.40448
# Poissons Ratio (z) = 0.41719 0.24979
#
# Static dielectric constant tensor:
#      x y z
#    x 3.226650 0.000000 0.050300 
#    y 0.000000 3.318800 0.000000 
#    z 0.050300 0.000000 3.438040 
# 
# 
# High freq. dielectric constant tensor:
#      x y z
#    x 1.685900 0.000000 0.002700 
#    y 0.000000 1.696570 0.000000 
#    z 0.002700 0.000000 1.700650 
# 
# From -- ./inp_files/319113.got.cif
#   From: 2010.06.25/outbox.cif.g09.slc.cpg/sg12_160_cif.got.tgz:319113.got - 2010.06.28 00:19:55.
