data_PCOD8091775
_publ_section_title
;
Structure prediction by ZEFSAII (Michael W. Deem and Ramdas Pophale) SiO2 
 PCOD8091775
Probable space group: C 2/M
;
_chemical_formula_sum "Si O2"
_cell_formula_units_Z 64
_cell_length_a 30.471286
_cell_length_b 9.203721
_cell_length_c 11.747456
_cell_angle_alpha 90.000000
_cell_angle_beta 91.107929
_cell_angle_gamma 90.000000
_cell_volume 3293.948879
_symmetry_space_group_name_H-M "C 2/M"
_symmetry_group_IT_number 12
_symmetry_cell_setting 'monoclinic'
loop_
_space_group_symop_operation_xyz
x,y,z
-x,y,-z
-x,-y,-z
x,-y,z
1/2+x,1/2+y,z
1/2-x,1/2+y,-z
1/2-x,1/2-y,-z
1/2+x,1/2-y,z
loop_
_atom_site_type_symbol
_atom_site_label
_atom_site_fract_x
_atom_site_fract_y
_atom_site_fract_z
Si Si1 0.882745 0.829335 0.857143
Si Si2 0.962128 0.331900 0.742364
Si Si3 0.298726 0.668055 0.710610
Si Si4 0.369124 0.669663 0.116312
Si Si5 0.201130 0.331134 0.750757
Si Si6 0.451513 0.328361 0.272350
Si Si7 0.327100 0.168440 0.497652
Si Si8 0.572028 0.835072 0.506807
O O1 0.921920 0.739672 0.805141
O O2 0.837515 0.780152 0.795460
O O3 0.891737 0.000000 0.840956
O O4 0.879919 0.785976 0.988472
O O5 0.964964 0.500000 0.777751
O O6 0.957163 0.314662 0.606507
O O7 0.006479 0.249965 0.781203
O O8 0.303608 0.500000 0.680435
O O9 0.252730 0.698936 0.771329
O O10 0.298846 0.751033 0.591254
O O11 0.360266 0.500000 0.126993
O O12 0.324797 0.748861 0.151879
O O13 0.409512 0.719261 0.196999
O O14 0.189433 0.500000 0.759869
O O15 0.185964 0.271180 0.626900
O O16 0.459238 0.500000 0.270081
O O17 0.444897 0.277363 0.401077
O O18 0.378058 0.200012 0.523619
O O19 0.315273 0.000000 0.506082
O O20 0.567860 0.000000 0.554034
#
# Coordination Sequence:
#
# PCOD8091775 Si02
#       8
#     8   8   8   8   8   8   8   8
#     4  10  22  41  60  80 113 151 190 236 281 326
#     4  11  23  39  60  86 115 147 186 229 282 340
#     4  10  21  36  58  87 116 148 188 232 278 331
#     4  10  23  41  59  81 111 151 193 234 280 331
#     4  10  21  37  58  86 117 149 186 231 281 332
#     4  11  23  38  59  86 114 147 189 231 279 336
#     4  10  19  34  57  84 118 152 181 224 283 337
#     4  10  20  36  58  85 117 150 181 224 282 339
#
# _framework density 19.429566000000001
#
# number of rings (size 3 to 8) (size 9 to 14) (size 15 to 20)
#    0.000    1.750    2.500    1.500    0.000    6.000 
#    0.000    2.500    0.000    0.000    0.000    0.000 
#    0.000    0.000    0.000    0.000    0.000    0.000 
#
# Total GULP energy -396968.983027 kJ/mol
# GULP energy per Si atom -12405.280720 kJ/mol
# Density = 1.938534 g / cm^3
# Si number density = 19.429566 Si / 1000 Ang^3
#
#
#
# Elastic Constant Matrix: (Units=GPa)
#
#
# Indices 1 2 3 4 5 6 
#
# 1 112.3203 52.9192 44.9799 0.0000 -12.5761 0.0000
# 2 52.9192 71.4386 47.8050 0.0000 -15.1248 0.0000
# 3 44.9799 47.8050 94.7833 0.0000 -11.7673 0.0000
# 4 0.0000 0.0000 0.0000 26.9392 0.0000 -10.1014
# 5 -12.5761 -15.1248 -11.7673 0.0000 11.3311 0.0000
# 6 0.0000 0.0000 0.0000 -10.1014 0.0000 34.1262
#
#
#
# Elastic Compliance Matrix: (Units=1/GPa)
#
#
# Indices 1 2 3 4 5 6 
#
# 1 0.013985 -0.008557 -0.002080 0.000000 0.001939 0.000000
# 2 -0.008557 0.031028 -0.008755 0.000000 0.022828 0.000000
# 3 -0.002080 -0.008755 0.016320 0.000000 0.002954 0.000000
# 4 0.000000 0.000000 0.000000 0.041755 0.000000 0.012360
# 5 0.001939 0.022828 0.002954 0.000000 0.123943 0.000000
# 6 0.000000 0.000000 0.000000 0.012360 0.000000 0.032961
#
#
# Mechanical properties :
#
#
# Convention : Reuss Voigt Hill
#
# Bulk Modulus (GPa) = 44.34692 63.32782 53.83737
# Shear Modulus (GPa) = 16.32434 23.33518 19.82976
#
# Velocity S-wave (km/s) = 2.90173 3.46932 3.19814
# Velocity P-wave (km/s) = 5.83958 6.97944 6.43480
#
# Compressibility (1/GPa) = 0.02254948
#
# Stress axis : x y z
#
# Youngs Moduli (GPa) = 71.50630 32.22891 61.27603
#
# Poissons Ratio (x) = 0.27578 0.12745
# Poissons Ratio (y) = 0.61187 0.53644
# Poissons Ratio (z) = 0.14873 0.28215
#
# Static dielectric constant tensor:
#      x y z
#    x 3.692830 0.000000 0.116850 
#    y 0.000000 3.455370 0.000000 
#    z 0.116850 0.000000 3.459470 
# 
# 
# High freq. dielectric constant tensor:
#      x y z
#    x 1.772750 0.000000 0.000460 
#    y 0.000000 1.750880 0.000000 
#    z 0.000460 0.000000 1.748700 
# 
# From -- ./inp_files/187389.got.cif
#   From: 2010.06.25/outbox.cif.g09.slc.cpg/sg12_94_cif.got.tgz:187389.got - 2010.06.28 00:19:55.
