data_PCOD8091879
_publ_section_title
;
Structure prediction by ZEFSAII (Michael W. Deem and Ramdas Pophale) SiO2 
 PCOD8091879
Probable space group: C 2/M
;
_chemical_formula_sum "Si O2"
_cell_formula_units_Z 48
_cell_length_a 23.171323
_cell_length_b 8.721756
_cell_length_c 23.280110
_cell_angle_alpha 90.000000
_cell_angle_beta 30.492364
_cell_angle_gamma 90.000000
_cell_volume 2387.318651
_symmetry_space_group_name_H-M "C 2/M"
_symmetry_group_IT_number 12
_symmetry_cell_setting 'monoclinic'
loop_
_space_group_symop_operation_xyz
x,y,z
-x,y,-z
-x,-y,-z
x,-y,z
1/2+x,1/2+y,z
1/2-x,1/2+y,-z
1/2-x,1/2-y,-z
1/2+x,1/2-y,z
loop_
_atom_site_type_symbol
_atom_site_label
_atom_site_fract_x
_atom_site_fract_y
_atom_site_fract_z
Si Si1 0.206298 0.182673 0.174635
Si Si2 0.678685 0.325612 0.610445
Si Si3 0.883877 0.818245 0.627207
Si Si4 0.581061 0.672910 0.171803
Si Si5 0.428607 0.317358 0.947355
Si Si6 0.331999 0.819159 0.259051
O O1 0.129478 0.233366 0.294875
O O2 0.150366 0.252925 0.164310
O O3 0.215884 0.000000 0.164989
O O4 0.332414 0.253943 0.072644
O O5 0.717207 0.500000 0.589509
O O6 0.750000 0.250000 0.500000
O O7 0.550175 0.321099 0.698658
O O8 0.696128 0.225560 0.651968
O O9 0.772902 0.757537 0.688899
O O10 0.000000 0.748519 0.500000
O O11 0.889024 0.000000 0.617627
O O12 0.625256 0.500000 0.129889
O O13 0.598688 0.748765 0.093730
O O14 0.432648 0.500000 0.943396
O O15 0.551576 0.259037 0.862701
O O16 0.346939 0.000000 0.240797
#
# Coordination Sequence:
#
# PCOD8091879 Si02
#       6
#     8   8   8   8   8   8
#     4  10  19  34  58  83 107 142 188 233 276 329
#     4  10  20  34  54  83 113 148 187 227 277 332
#     4   9  20  36  57  83 109 142 189 238 280 325
#     4   8  17  32  53  80 109 141 179 228 277 326
#     4  10  20  36  55  81 116 146 179 227 285 343
#     4  10  20  36  58  82 109 145 187 234 280 328
#
# _framework density 20.10624
#
# number of rings (size 3 to 8) (size 9 to 14) (size 15 to 20)
#    0.000    2.500    0.000    3.000    2.333    0.667 
#    0.000    9.167    0.000    2.500    0.000    0.000 
#    0.000    0.000    0.000    0.000    0.000    0.000 
#
# Total GULP energy -297512.457131 kJ/mol
# GULP energy per Si atom -12396.352380 kJ/mol
# Density = 2.006048 g / cm^3
# Si number density = 20.106240 Si / 1000 Ang^3
#
#
#
# Elastic Constant Matrix: (Units=GPa)
#
#
# Indices 1 2 3 4 5 6 
#
# 1 104.7680 19.8870 51.1446 -0.0004 -19.1711 0.0002
# 2 19.8870 47.9472 30.7245 -0.0008 -2.9776 0.0003
# 3 51.1446 30.7245 150.6672 -0.0003 -1.4346 0.0005
# 4 -0.0004 -0.0008 -0.0003 27.6840 0.0007 -1.2927
# 5 -19.1711 -2.9776 -1.4346 0.0007 20.8905 -0.0003
# 6 0.0002 0.0003 0.0005 -1.2927 -0.0003 18.7641
#
#
#
# Elastic Compliance Matrix: (Units=1/GPa)
#
#
# Indices 1 2 3 4 5 6 
#
# 1 0.014392 -0.002456 -0.004265 0.000000 0.012565 0.000000
# 2 -0.002456 0.024611 -0.004176 0.000001 0.000967 0.000000
# 3 -0.004265 -0.004176 0.008899 0.000000 -0.003898 0.000000
# 4 0.000000 0.000001 0.000000 0.036239 -0.000001 0.002497
# 5 0.012565 0.000967 -0.003898 -0.000001 0.059269 0.000001
# 6 0.000000 0.000000 0.000000 0.002497 0.000001 0.053465
#
#
# Mechanical properties :
#
#
# Convention : Reuss Voigt Hill
#
# Bulk Modulus (GPa) = 38.30147 56.32162 47.31154
# Shear Modulus (GPa) = 21.99032 26.90946 24.44989
#
# Velocity S-wave (km/s) = 3.31071 3.66233 3.49095
# Velocity P-wave (km/s) = 5.80563 6.77912 6.31117
#
# Compressibility (1/GPa) = 0.02610866
#
# Stress axis : x y z
#
# Youngs Moduli (GPa) = 69.48124 40.63242 112.36785
#
# Poissons Ratio (x) = 0.09980 0.47925
# Poissons Ratio (y) = 0.17066 0.46922
# Poissons Ratio (z) = 0.29634 0.16967
#
# Static dielectric constant tensor:
#      x y z
#    x 3.852130 0.000000 -0.029380 
#    y 0.000000 3.321840 0.000000 
#    z -0.029380 0.000000 3.769660 
# 
# 
# High freq. dielectric constant tensor:
#      x y z
#    x 1.783960 0.000000 -0.002190 
#    y 0.000000 1.752060 0.000000 
#    z -0.002190 0.000000 1.795480 
# 
# From -- ./inp_files/348753.got.cif
#   From: 2010.06.25/outbox.cif.g09.slc.cpg/sg12_175_cif.got.tgz:348753.got - 2010.06.28 00:19:55.
