data_PCOD8091066
_publ_section_title
;
Structure prediction by ZEFSAII (Michael W. Deem and Ramdas Pophale) SiO2 
 PCOD8091066
Probable space group: C 2/M
;
_chemical_formula_sum "Si O2"
_cell_formula_units_Z 36
_cell_length_a 11.213538
_cell_length_b 27.982012
_cell_length_c 5.900546
_cell_angle_alpha 90.000000
_cell_angle_beta 88.173757
_cell_angle_gamma 90.000000
_cell_volume 1850.517303
_symmetry_space_group_name_H-M "C 2/M"
_symmetry_group_IT_number 12
_symmetry_cell_setting 'monoclinic'
loop_
_space_group_symop_operation_xyz
x,y,z
-x,y,-z
-x,-y,-z
x,-y,z
1/2+x,1/2+y,z
1/2-x,1/2+y,-z
1/2-x,1/2-y,-z
1/2+x,1/2-y,z
loop_
_atom_site_type_symbol
_atom_site_label
_atom_site_fract_x
_atom_site_fract_y
_atom_site_fract_z
Si Si1 0.124588 0.947570 0.616795
Si Si2 0.806400 0.217045 0.310424
Si Si3 0.177405 0.140399 0.351682
Si Si4 0.870177 0.306381 0.061506
Si Si5 0.000000 0.105673 0.000000
O O1 0.204366 0.911636 0.460025
O O2 0.000000 0.952631 0.500000
O O3 0.186322 0.000000 0.631371
O O4 0.098455 0.927182 0.869001
O O5 0.750000 0.250000 0.500000
O O6 0.872840 0.174047 0.439511
O O7 0.889243 0.251775 0.152545
O O8 0.703810 0.193539 0.164633
O O9 0.301969 0.160298 0.247232
O O10 0.074096 0.139300 0.167401
O O11 0.000000 0.328226 0.000000
#
# Coordination Sequence:
#
# PCOD8091066 Si02
#       5
#     8   8   8   8   4
#     4   9  18  33  53  81 113 145 179 225 278 329
#     4   9  20  39  51  78 107 141 189 227 273 315
#     4  10  20  36  54  82 113 147 182 225 278 327
#     4  10  21  40  56  78 107 147 189 229 272 325
#     4  10  19  34  54  86 112 146 182 222 273 342
#
# _framework density 19.454018000000001
#
# number of rings (size 3 to 8) (size 9 to 14) (size 15 to 20)
#    0.000    2.444    0.000    1.667    0.000    4.444 
#   60.000    0.000    0.000    0.667    0.000    6.222 
#    0.000    0.000    0.000    0.000    0.000    0.000 
#
# Total GULP energy -223052.081317 kJ/mol
# GULP energy per Si atom -12391.782295 kJ/mol
# Density = 1.940974 g / cm^3
# Si number density = 19.454018 Si / 1000 Ang^3
#
#
#
# Elastic Constant Matrix: (Units=GPa)
#
#
# Indices 1 2 3 4 5 6 
#
# 1 75.6387 48.5634 39.0521 0.0000 -15.7768 0.0000
# 2 48.5634 141.2311 61.0827 0.0000 0.4784 0.0000
# 3 39.0521 61.0827 122.4261 0.0000 6.0984 0.0000
# 4 0.0000 0.0000 0.0000 -8.4596 0.0000 -7.6195
# 5 -15.7768 0.4784 6.0984 0.0000 23.6931 0.0000
# 6 0.0000 0.0000 0.0000 -7.6195 0.0000 21.2505
#
#
#
# Elastic Compliance Matrix: (Units=1/GPa)
#
#
# Indices 1 2 3 4 5 6 
#
# 1 0.023208 -0.005701 -0.005404 0.000000 0.016960 0.000000
# 2 -0.005701 0.010452 -0.003238 0.000000 -0.003173 0.000000
# 3 -0.005404 -0.003238 0.011835 0.000000 -0.006579 0.000000
# 4 0.000000 0.000000 0.000000 -0.089353 0.000000 -0.032038
# 5 0.016960 -0.003173 -0.006579 0.000000 0.055257 0.000000
# 6 0.000000 0.000000 0.000000 -0.032038 0.000000 0.035570
#
#
# Mechanical properties :
#
#
# Convention : Reuss Voigt Hill
#
# Bulk Modulus (GPa) = 59.48749 70.74358 65.11553
# Shear Modulus (GPa) = 61.53111 20.00331 40.76721
#
# Velocity S-wave (km/s) = 5.63007 3.21009 4.58270
# Velocity P-wave (km/s) = 8.53864 7.08400 7.84511
#
# Compressibility (1/GPa) = 0.01681026
#
# Stress axis : x y z
#
# Youngs Moduli (GPa) = 43.08817 95.67352 84.49247
#
# Poissons Ratio (x) = 0.54541 0.45656
# Poissons Ratio (y) = 0.24563 0.27363
# Poissons Ratio (z) = 0.23283 0.30983
#
# Static dielectric constant tensor:
#      x y z
#    x 3.011130 0.000000 -0.065750 
#    y 0.000000 4.395940 0.000000 
#    z -0.065750 0.000000 3.800480 
# 
# 
# High freq. dielectric constant tensor:
#      x y z
#    x 1.696640 0.000000 -0.005900 
#    y 0.000000 1.753110 0.000000 
#    z -0.005900 0.000000 1.787740 
# 
# From -- ./inp_files/7005.got.cif
#   From: 2010.06.25/outbox.cif.g09.slc.cpg/sg12_4_cif.got.tgz:7005.got - 2010.06.28 00:19:55.
