data_PCOD8091481
_publ_section_title
;
Structure prediction by ZEFSAII (Michael W. Deem and Ramdas Pophale) SiO2 
 PCOD8091481
Probable space group: C 2/M
;
_chemical_formula_sum "Si O2"
_cell_formula_units_Z 64
_cell_length_a 24.639366
_cell_length_b 9.386024
_cell_length_c 14.209450
_cell_angle_alpha 90.000000
_cell_angle_beta 88.831921
_cell_angle_gamma 90.000000
_cell_volume 3285.475248
_symmetry_space_group_name_H-M "C 2/M"
_symmetry_group_IT_number 12
_symmetry_cell_setting 'monoclinic'
loop_
_space_group_symop_operation_xyz
x,y,z
-x,y,-z
-x,-y,-z
x,-y,z
1/2+x,1/2+y,z
1/2-x,1/2+y,-z
1/2-x,1/2-y,-z
1/2+x,1/2-y,z
loop_
_atom_site_type_symbol
_atom_site_label
_atom_site_fract_x
_atom_site_fract_y
_atom_site_fract_z
Si Si1 0.095777 0.662668 0.727956
Si Si2 0.100231 0.832635 0.348898
Si Si3 0.943150 0.660257 0.972506
Si Si4 0.695726 0.335448 0.803948
Si Si5 0.062353 0.335238 0.516239
Si Si6 0.977383 0.341548 0.767085
Si Si7 0.800519 0.167270 0.790797
Si Si8 0.158358 0.837983 0.008057
O O1 0.116456 0.500000 0.737960
O O2 0.141399 0.769171 0.762738
O O3 0.079735 0.698191 0.621651
O O4 0.040557 0.688516 0.790249
O O5 0.103541 0.756540 0.449924
O O6 0.045248 0.775994 0.302712
O O7 0.152047 0.792403 0.283508
O O8 0.095230 0.000000 0.363052
O O9 0.939184 0.500000 0.013440
O O10 0.939847 0.661786 0.860093
O O11 0.894371 0.748443 0.017605
O O12 0.000000 0.731218 0.000000
O O13 0.698298 0.500000 0.773339
O O14 0.747434 0.253184 0.760060
O O15 0.698149 0.321288 0.917664
O O16 0.070636 0.500000 0.490859
O O17 0.000000 0.289283 0.500000
O O18 0.974147 0.500000 0.719956
O O19 0.787424 0.000000 0.789096
O O20 0.815013 0.217723 0.896357
O O21 0.139685 0.000000 0.023736
#
# Coordination Sequence:
#
# PCOD8091481 Si02
#       8
#     8   8   8   8   8   8   8   8
#     4  10  21  39  62  85 117 157 191 234 292 349
#     4  11  22  36  59  89 118 149 187 238 292 340
#     4  10  20  32  51  81 115 153 196 238 280 336
#     4  11  24  39  59  87 116 151 197 247 293 339
#     4  10  20  38  63  89 117 153 194 234 285 349
#     4  10  19  34  56  82 115 153 193 234 281 344
#     4  10  22  41  61  82 115 157 199 239 288 347
#     4  10  21  38  57  82 116 152 194 242 291 343
#
# _framework density 19.479676999999999
#
# number of rings (size 3 to 8) (size 9 to 14) (size 15 to 20)
#    0.000    1.750    2.500    1.875    0.000    5.000 
#    0.000    0.625    0.000    0.000    0.000    0.000 
#    0.000    0.000    0.000    0.000    0.000    0.000 
#
# Total GULP energy -396825.462775 kJ/mol
# GULP energy per Si atom -12400.795712 kJ/mol
# Density = 1.943534 g / cm^3
# Si number density = 19.479677 Si / 1000 Ang^3
#
#
#
# Elastic Constant Matrix: (Units=GPa)
#
#
# Indices 1 2 3 4 5 6 
#
# 1 107.2221 57.5187 22.3540 0.0000 -7.2573 0.0000
# 2 57.5187 83.3369 29.7798 0.0000 -9.0470 0.0000
# 3 22.3540 29.7798 64.3053 0.0000 -8.0765 0.0000
# 4 0.0000 0.0000 0.0000 30.4378 0.0000 0.2687
# 5 -7.2573 -9.0470 -8.0765 0.0000 22.0647 0.0000
# 6 0.0000 0.0000 0.0000 0.2687 0.0000 34.6815
#
#
#
# Elastic Compliance Matrix: (Units=1/GPa)
#
#
# Indices 1 2 3 4 5 6 
#
# 1 0.014831 -0.010012 -0.000442 0.000000 0.000611 0.000000
# 2 -0.010012 0.021420 -0.006027 0.000000 0.003284 0.000000
# 3 -0.000442 -0.006027 0.019042 0.000000 0.004354 0.000000
# 4 0.000000 0.000000 0.000000 0.032856 0.000000 -0.000255
# 5 0.000611 0.003284 0.004354 0.000000 0.048462 0.000000
# 6 0.000000 0.000000 0.000000 -0.000255 0.000000 0.028836
#
#
# Mechanical properties :
#
#
# Convention : Reuss Voigt Hill
#
# Bulk Modulus (GPa) = 44.78046 52.68547 48.73297
# Shear Modulus (GPa) = 24.28932 27.11761 25.70347
#
# Velocity S-wave (km/s) = 3.53499 3.73513 3.63644
# Velocity P-wave (km/s) = 6.30077 6.76067 6.53477
#
# Compressibility (1/GPa) = 0.02233117
#
# Stress axis : x y z
#
# Youngs Moduli (GPa) = 67.42760 46.68636 52.51457
#
# Poissons Ratio (x) = 0.46741 0.02323
# Poissons Ratio (y) = 0.67506 0.31649
# Poissons Ratio (z) = 0.02983 0.28136
#
# Static dielectric constant tensor:
#      x y z
#    x 3.394630 0.000000 -0.124290 
#    y 0.000000 3.467120 0.000000 
#    z -0.124290 0.000000 3.589230 
# 
# 
# High freq. dielectric constant tensor:
#      x y z
#    x 1.748380 0.000000 -0.007940 
#    y 0.000000 1.752010 0.000000 
#    z -0.007940 0.000000 1.759910 
# 
# From -- ./inp_files/238609.got.cif
#   From: 2010.06.25/outbox.cif.g09.slc.cpg/sg12_120_cif.got.tgz:238609.got - 2010.06.28 00:19:55.
