data_PCOD8091743
_publ_section_title
;
Structure prediction by ZEFSAII (Michael W. Deem and Ramdas Pophale) SiO2 
 PCOD8091743
Probable space group: C 2/M
;
_chemical_formula_sum "Si O2"
_cell_formula_units_Z 64
_cell_length_a 23.889061
_cell_length_b 9.020971
_cell_length_c 19.616606
_cell_angle_alpha 90.000000
_cell_angle_beta 131.245969
_cell_angle_gamma 90.000000
_cell_volume 3178.544863
_symmetry_space_group_name_H-M "C 2/M"
_symmetry_group_IT_number 12
_symmetry_cell_setting 'monoclinic'
loop_
_space_group_symop_operation_xyz
x,y,z
-x,y,-z
-x,-y,-z
x,-y,z
1/2+x,1/2+y,z
1/2-x,1/2+y,-z
1/2-x,1/2-y,-z
1/2+x,1/2-y,z
loop_
_atom_site_type_symbol
_atom_site_label
_atom_site_fract_x
_atom_site_fract_y
_atom_site_fract_z
Si Si1 0.885085 0.327433 0.694396
Si Si2 0.429118 0.327074 0.988261
Si Si3 0.490698 0.175725 0.414963
Si Si4 0.277204 0.827343 0.825915
Si Si5 0.036272 0.171352 0.828343
Si Si6 0.372727 0.330053 0.228514
Si Si7 0.142759 0.326753 0.477573
Si Si8 0.234260 0.823944 0.320854
O O1 0.882580 0.500000 0.711309
O O2 0.841282 0.293923 0.588799
O O3 0.847822 0.232059 0.724294
O O4 0.969552 0.277511 0.752886
O O5 0.413913 0.500000 0.963663
O O6 0.356780 0.238327 0.908157
O O7 0.500000 0.275367 0.000000
O O8 0.440861 0.289293 0.076661
O O9 0.500000 0.229692 0.500000
O O10 0.416841 0.237673 0.320548
O O11 0.562570 0.239972 0.433036
O O12 0.484592 0.000000 0.406178
O O13 0.215943 0.798840 0.836015
O O14 0.243760 0.746120 0.733114
O O15 0.287555 0.000000 0.818754
O O16 0.103551 0.208266 0.830157
O O17 0.011586 0.000000 0.803281
O O18 0.390456 0.500000 0.259118
O O19 0.139687 0.500000 0.490270
O O20 0.207842 0.259921 0.576820
O O21 0.233647 0.000000 0.314800
#
# Coordination Sequence:
#
# PCOD8091743 Si02
#       8
#     8   8   8   8   8   8   8   8
#     4  11  21  36  58  87 122 155 196 248 298 350
#     4  10  22  41  65  91 118 151 196 245 296 360
#     4  10  19  34  57  83 115 158 206 251 291 342
#     4  11  24  41  60  87 121 153 194 247 301 352
#     4  10  21  39  62  88 120 160 201 243 295 357
#     4  10  22  39  58  85 122 158 196 245 297 351
#     4   9  19  34  53  83 118 153 198 246 291 347
#     4  11  22  38  59  83 116 159 202 244 298 358
#
# _framework density 20.134999000000001
#
# number of rings (size 3 to 8) (size 9 to 14) (size 15 to 20)
#    0.000    1.750    1.250    3.000    0.000    4.500 
#    0.000    3.125    0.000    0.000    0.000    0.000 
#    0.000    0.000    0.000    0.000    0.000    0.000 
#
# Total GULP energy -396833.657432 kJ/mol
# GULP energy per Si atom -12401.051795 kJ/mol
# Density = 2.008917 g / cm^3
# Si number density = 20.134999 Si / 1000 Ang^3
#
#
#
# Elastic Constant Matrix: (Units=GPa)
#
#
# Indices 1 2 3 4 5 6 
#
# 1 145.2672 43.5161 55.5763 0.0000 -0.6392 0.0000
# 2 43.5161 67.5610 47.9215 0.0000 -0.4589 0.0000
# 3 55.5763 47.9215 112.9695 0.0000 -2.7607 0.0000
# 4 0.0000 0.0000 0.0000 30.1359 0.0000 2.7665
# 5 -0.6392 -0.4589 -2.7607 0.0000 36.0918 0.0000
# 6 0.0000 0.0000 0.0000 2.7665 0.0000 25.7189
#
#
#
# Elastic Compliance Matrix: (Units=1/GPa)
#
#
# Indices 1 2 3 4 5 6 
#
# 1 0.009132 -0.003854 -0.002860 0.000000 -0.000106 0.000000
# 2 -0.003854 0.022804 -0.007787 0.000000 -0.000374 0.000000
# 3 -0.002860 -0.007787 0.013584 0.000000 0.000889 0.000000
# 4 0.000000 0.000000 0.000000 0.033514 0.000000 -0.003605
# 5 -0.000106 -0.000374 0.000889 0.000000 0.027768 0.000000
# 6 0.000000 0.000000 0.000000 -0.003605 0.000000 0.039270
#
#
# Mechanical properties :
#
#
# Convention : Reuss Voigt Hill
#
# Bulk Modulus (GPa) = 60.53835 68.86949 64.70392
# Shear Modulus (GPa) = 27.68838 30.30825 28.99831
#
# Velocity S-wave (km/s) = 3.71231 3.88397 3.79911
# Velocity P-wave (km/s) = 6.96466 7.37507 7.17280
#
# Compressibility (1/GPa) = 0.01651846
#
# Stress axis : x y z
#
# Youngs Moduli (GPa) = 109.50256 43.85116 73.61563
#
# Poissons Ratio (x) = 0.16900 0.21057
# Poissons Ratio (y) = 0.42200 0.57323
# Poissons Ratio (z) = 0.31323 0.34146
#
# Static dielectric constant tensor:
#      x y z
#    x 3.917720 0.000000 -0.105640 
#    y 0.000000 3.462310 0.000000 
#    z -0.105640 0.000000 3.645540 
# 
# 
# High freq. dielectric constant tensor:
#      x y z
#    x 1.803390 0.000000 -0.003960 
#    y 0.000000 1.771220 0.000000 
#    z -0.003960 0.000000 1.783160 
# 
# From -- ./inp_files/324244.got.cif
#   From: 2010.06.25/outbox.cif.g09.slc.cpg/sg12_163_cif.got.tgz:324244.got - 2010.06.28 00:19:55.
