data_PCOD8091285
_publ_section_title
;
Structure prediction by ZEFSAII (Michael W. Deem and Ramdas Pophale) SiO2 
 PCOD8091285
Probable space group: C 2/M
;
_chemical_formula_sum "Si O2"
_cell_formula_units_Z 64
_cell_length_a 18.467764
_cell_length_b 14.305229
_cell_length_c 13.240968
_cell_angle_alpha 90.000000
_cell_angle_beta 66.319832
_cell_angle_gamma 90.000000
_cell_volume 3203.541068
_symmetry_space_group_name_H-M "C 2/M"
_symmetry_group_IT_number 12
_symmetry_cell_setting 'monoclinic'
loop_
_space_group_symop_operation_xyz
x,y,z
-x,y,-z
-x,-y,-z
x,-y,z
1/2+x,1/2+y,z
1/2-x,1/2+y,-z
1/2-x,1/2-y,-z
1/2+x,1/2-y,z
loop_
_atom_site_type_symbol
_atom_site_label
_atom_site_fract_x
_atom_site_fract_y
_atom_site_fract_z
Si Si1 0.901694 0.606560 0.777973
Si Si2 0.925318 0.104139 0.470463
Si Si3 0.005247 0.768480 0.734413
Si Si4 0.644755 0.767874 0.802399
Si Si5 0.586372 0.101761 0.995941
Si Si6 0.783784 0.891082 0.695224
Si Si7 0.218528 0.892163 0.876472
Si Si8 0.358817 0.608649 0.867601
O O1 0.923346 0.500000 0.733902
O O2 0.810826 0.629467 0.805984
O O3 0.961885 0.683153 0.696382
O O4 0.917547 0.626519 0.885687
O O5 0.937898 0.175935 0.372951
O O6 0.851693 0.136324 0.578620
O O7 0.000000 0.103308 0.500000
O O8 0.911753 0.000000 0.433501
O O9 0.062515 0.730024 0.789547
O O10 0.940579 0.834638 0.823346
O O11 0.638431 0.821710 0.911877
O O12 0.710812 0.825275 0.703082
O O13 0.670700 0.663232 0.817243
O O14 0.627933 0.000000 0.959181
O O15 0.500000 0.098102 0.000000
O O16 0.810394 0.865455 0.794108
O O17 0.760754 0.000000 0.699160
O O18 0.199671 0.000000 0.867432
O O19 0.193538 0.865300 0.004894
O O20 0.382062 0.500000 0.853598
#
# Coordination Sequence:
#
# PCOD8091285 Si02
#       8
#     8   8   8   8   8   8   8   8
#     4  10  21  38  58  82 117 163 203 234 274 334
#     4  10  21  41  66  90 110 135 189 256 306 338
#     4  12  23  35  60  89 116 148 189 241 296 347
#     4  12  24  35  55  88 125 156 189 224 289 357
#     4  10  19  34  55  84 121 154 191 238 281 324
#     4  10  21  39  64  88 110 142 190 251 299 332
#     4  10  23  38  53  79 123 166 196 225 269 345
#     4  10  20  37  60  86 112 149 200 245 284 330
#
# _framework density 19.977893999999999
#
# number of rings (size 3 to 8) (size 9 to 14) (size 15 to 20)
#    0.000    1.500    2.500    3.000    0.000    5.500 
#    0.000    1.250    0.000    1.125    0.000    0.000 
#    0.000    0.000    0.000    0.000    0.000    0.000 
#
# Total GULP energy -396764.388221 kJ/mol
# GULP energy per Si atom -12398.887132 kJ/mol
# Density = 1.993242 g / cm^3
# Si number density = 19.977894 Si / 1000 Ang^3
#
#
#
# Elastic Constant Matrix: (Units=GPa)
#
#
# Indices 1 2 3 4 5 6 
#
# 1 82.2352 39.2893 13.7749 0.0000 -19.1459 0.0000
# 2 39.2893 103.2038 40.8940 0.0000 -16.6154 0.0000
# 3 13.7749 40.8940 65.0223 0.0000 -14.6471 0.0000
# 4 0.0000 0.0000 0.0000 17.4248 0.0000 -7.4012
# 5 -19.1459 -16.6154 -14.6471 0.0000 22.7682 0.0000
# 6 0.0000 0.0000 0.0000 -7.4012 0.0000 35.0885
#
#
#
# Elastic Compliance Matrix: (Units=1/GPa)
#
#
# Indices 1 2 3 4 5 6 
#
# 1 0.017229 -0.005659 0.002622 0.000000 0.012045 0.000000
# 2 -0.005659 0.015251 -0.008137 0.000000 0.001136 0.000000
# 3 0.002622 -0.008137 0.022337 0.000000 0.010637 0.000000
# 4 0.000000 0.000000 0.000000 0.063037 0.000000 0.013296
# 5 0.012045 0.001136 0.010637 0.000000 0.061722 0.000000
# 6 0.000000 0.000000 0.000000 0.013296 0.000000 0.031304
#
#
# Mechanical properties :
#
#
# Convention : Reuss Voigt Hill
#
# Bulk Modulus (GPa) = 30.79692 48.70864 39.75278
# Shear Modulus (GPa) = 20.48750 25.48984 22.98867
#
# Velocity S-wave (km/s) = 3.20583 3.57585 3.39588
# Velocity P-wave (km/s) = 5.39927 6.44074 5.94286
#
# Compressibility (1/GPa) = 0.03247078
#
# Stress axis : x y z
#
# Youngs Moduli (GPa) = 58.04163 65.56919 44.76792
#
# Poissons Ratio (x) = 0.37105 -0.11740
# Poissons Ratio (y) = 0.32845 0.36427
# Poissons Ratio (z) = -0.15221 0.53353
#
# Static dielectric constant tensor:
#      x y z
#    x 3.431220 0.000000 0.009830 
#    y 0.000000 3.962940 0.000000 
#    z 0.009830 0.000000 3.231410 
# 
# 
# High freq. dielectric constant tensor:
#      x y z
#    x 1.773240 0.000000 -0.021110 
#    y 0.000000 1.796350 0.000000 
#    z -0.021110 0.000000 1.752810 
# 
# From -- ./inp_files/225271.got.cif
#   From: 2010.06.25/outbox.cif.g09.slc.cpg/sg12_113_cif.got.tgz:225271.got - 2010.06.28 00:19:55.
