data_PCOD8091540
_publ_section_title
;
Structure prediction by ZEFSAII (Michael W. Deem and Ramdas Pophale) SiO2 
 PCOD8091540
Probable space group: C 2/M
;
_chemical_formula_sum "Si O2"
_cell_formula_units_Z 64
_cell_length_a 12.330771
_cell_length_b 13.675458
_cell_length_c 19.246040
_cell_angle_alpha 90.000000
_cell_angle_beta 92.019768
_cell_angle_gamma 90.000000
_cell_volume 3243.423037
_symmetry_space_group_name_H-M "C 2/M"
_symmetry_group_IT_number 12
_symmetry_cell_setting 'monoclinic'
loop_
_space_group_symop_operation_xyz
x,y,z
-x,y,-z
-x,-y,-z
x,-y,z
1/2+x,1/2+y,z
1/2-x,1/2+y,-z
1/2-x,1/2-y,-z
1/2+x,1/2-y,z
loop_
_atom_site_type_symbol
_atom_site_label
_atom_site_fract_x
_atom_site_fract_y
_atom_site_fract_z
Si Si1 0.735487 0.887187 0.056522
Si Si2 0.456321 0.389505 0.650124
Si Si3 0.595108 0.194903 0.305288
Si Si4 0.545689 0.888175 0.156861
Si Si5 0.451363 0.886791 0.423507
Si Si6 0.594342 0.773113 0.948922
Si Si7 0.777986 0.885440 0.536667
Si Si8 0.294860 0.613049 0.382944
O O1 0.659976 0.870332 0.121590
O O2 0.844572 0.825806 0.071301
O O3 0.767277 0.000000 0.047832
O O4 0.675185 0.851413 0.985557
O O5 0.430165 0.500000 0.674857
O O6 0.417220 0.312206 0.707988
O O7 0.389689 0.363106 0.578709
O O8 0.582109 0.376372 0.637621
O O9 0.557883 0.136087 0.237524
O O10 0.515769 0.173218 0.367626
O O11 0.718739 0.169243 0.326740
O O12 0.452708 0.820948 0.121781
O O13 0.509049 0.000000 0.147132
O O14 0.500000 0.866311 0.500000
O O15 0.326208 0.849855 0.421155
O O16 0.461255 0.000000 0.403503
O O17 0.500000 0.744125 0.000000
O O18 0.780083 0.838557 0.459305
O O19 0.764977 0.000000 0.523563
O O20 0.258610 0.500000 0.382013
#
# Coordination Sequence:
#
# PCOD8091540 Si02
#       8
#     8   8   8   8   8   8   8   8
#     4   9  18  35  62  92 124 160 194 231 276 328
#     4  10  24  41  56  77 109 147 190 244 303 358
#     4  12  24  36  59  83 113 151 202 240 294 353
#     4  10  21  38  59  86 118 154 195 237 282 338
#     4  10  19  34  56  85 115 142 185 253 312 351
#     4   9  18  35  61  93 125 154 191 234 277 330
#     4   9  18  36  58  77 105 141 184 240 307 365
#     4  10  20  38  60  81 106 140 186 244 301 363
#
# _framework density 19.732239
#
# number of rings (size 3 to 8) (size 9 to 14) (size 15 to 20)
#    0.000    2.125    1.250    1.875    1.750    5.750 
#    0.000    1.875    0.000    3.000    0.000    0.000 
#    0.000    0.000    0.000    0.000    0.000    0.000 
#
# Total GULP energy -396837.698771 kJ/mol
# GULP energy per Si atom -12401.178087 kJ/mol
# Density = 1.968733 g / cm^3
# Si number density = 19.732239 Si / 1000 Ang^3
#
#
#
# Elastic Constant Matrix: (Units=GPa)
#
#
# Indices 1 2 3 4 5 6 
#
# 1 122.5732 62.6718 40.0836 0.0000 16.3246 0.0000
# 2 62.6718 114.2576 37.7456 0.0000 0.5203 0.0000
# 3 40.0836 37.7456 71.1391 0.0000 10.8511 0.0000
# 4 0.0000 0.0000 0.0000 25.4614 0.0000 -1.7389
# 5 16.3246 0.5203 10.8511 0.0000 18.4061 0.0000
# 6 0.0000 0.0000 0.0000 -1.7389 0.0000 33.9432
#
#
#
# Elastic Compliance Matrix: (Units=1/GPa)
#
#
# Indices 1 2 3 4 5 6 
#
# 1 0.013834 -0.006663 -0.002656 0.000000 -0.010516 0.000000
# 2 -0.006663 0.014009 -0.004966 0.000000 0.008441 0.000000
# 3 -0.002656 -0.004966 0.019567 0.000000 -0.009040 0.000000
# 4 0.000000 0.000000 0.000000 0.039413 0.000000 0.002019
# 5 -0.010516 0.008441 -0.009040 0.000000 0.068747 0.000000
# 6 0.000000 0.000000 0.000000 0.002019 0.000000 0.029564
#
#
# Mechanical properties :
#
#
# Convention : Reuss Voigt Hill
#
# Bulk Modulus (GPa) = 53.07689 65.44133 59.25911
# Shear Modulus (GPa) = 22.72880 26.72675 24.72778
#
# Velocity S-wave (km/s) = 3.39759 3.68431 3.54385
# Velocity P-wave (km/s) = 6.50757 7.16488 6.84412
#
# Compressibility (1/GPa) = 0.01884059
#
# Stress axis : x y z
#
# Youngs Moduli (GPa) = 72.28498 71.38190 51.10580
#
# Poissons Ratio (x) = 0.47562 0.13571
# Poissons Ratio (y) = 0.48164 0.25381
# Poissons Ratio (z) = 0.19196 0.35451
#
# Static dielectric constant tensor:
#      x y z
#    x 3.682120 0.000000 0.046560 
#    y 0.000000 3.833980 0.000000 
#    z 0.046560 0.000000 3.277830 
# 
# 
# High freq. dielectric constant tensor:
#      x y z
#    x 1.776760 0.000000 0.007400 
#    y 0.000000 1.784440 0.000000 
#    z 0.007400 0.000000 1.733520 
# 
# From -- ./inp_files/263345.got.cif
#   From: 2010.06.25/outbox.cif.g09.slc.cpg/sg12_132_cif.got.tgz:263345.got - 2010.06.28 00:19:55.
