data_PCOD8091922
_publ_section_title
;
Structure prediction by ZEFSAII (Michael W. Deem and Ramdas Pophale) SiO2 
 PCOD8091922
Probable space group: C 2/M
;
_chemical_formula_sum "Si O2"
_cell_formula_units_Z 64
_cell_length_a 25.412794
_cell_length_b 8.772340
_cell_length_c 14.696859
_cell_angle_alpha 90.000000
_cell_angle_beta 81.315536
_cell_angle_gamma 90.000000
_cell_volume 3238.801941
_symmetry_space_group_name_H-M "C 2/M"
_symmetry_group_IT_number 12
_symmetry_cell_setting 'monoclinic'
loop_
_space_group_symop_operation_xyz
x,y,z
-x,y,-z
-x,-y,-z
x,-y,z
1/2+x,1/2+y,z
1/2-x,1/2+y,-z
1/2-x,1/2-y,-z
1/2+x,1/2-y,z
loop_
_atom_site_type_symbol
_atom_site_label
_atom_site_fract_x
_atom_site_fract_y
_atom_site_fract_z
Si Si1 0.957879 0.819599 0.785291
Si Si2 0.220339 0.181275 0.593186
Si Si3 0.935024 0.821482 0.153317
Si Si4 0.848164 0.677820 0.066881
Si Si5 0.747645 0.179048 0.774414
Si Si6 0.496669 0.172070 0.400802
Si Si7 0.613123 0.826826 0.664015
Si Si8 0.156825 0.819579 0.121470
O O1 0.968106 0.764137 0.680265
O O2 0.901145 0.756373 0.833442
O O3 0.004692 0.762322 0.842111
O O4 0.958603 0.000000 0.782550
O O5 0.250000 0.250000 0.500000
O O6 0.248423 0.229615 0.679991
O O7 0.162441 0.255010 0.599479
O O8 0.217838 0.000000 0.587303
O O9 0.907641 0.739733 0.074288
O O10 0.898594 0.781956 0.248454
O O11 0.934791 0.000000 0.133818
O O12 0.851911 0.500000 0.049845
O O13 0.806126 0.719704 0.156710
O O14 0.827288 0.752573 0.979891
O O15 0.799080 0.233644 0.817628
O O16 0.750600 0.000000 0.752775
O O17 0.500000 0.247331 0.500000
O O18 0.434911 0.173720 0.393204
O O19 0.519103 0.000000 0.396727
O O20 0.625206 0.000000 0.695215
O O21 0.156060 0.000000 0.113290
#
# Coordination Sequence:
#
# PCOD8091922 Si02
#       8
#     8   8   8   8   8   8   8   8
#     4   9  20  37  56  82 115 151 194 241 291 344
#     4  12  25  40  61  87 117 154 195 241 295 349
#     4  10  19  34  58  84 112 150 193 237 287 345
#     4  11  22  36  59  88 117 153 199 248 295 350
#     4  10  22  41  62  85 118 155 197 247 295 348
#     4   9  19  35  57  84 114 150 189 233 289 349
#     4  10  19  35  57  82 114 147 187 238 287 342
#     4  10  22  40  60  84 119 159 196 243 296 350
#
# _framework density 19.760393000000001
#
# number of rings (size 3 to 8) (size 9 to 14) (size 15 to 20)
#    0.000    1.875    1.250    2.625    0.000    4.250 
#    0.000    5.000    0.000    0.000    0.000    0.000 
#    0.000    0.000    0.000    0.000    0.000    0.000 
#
# Total GULP energy -396813.226452 kJ/mol
# GULP energy per Si atom -12400.413327 kJ/mol
# Density = 1.971542 g / cm^3
# Si number density = 19.760393 Si / 1000 Ang^3
#
#
#
# Elastic Constant Matrix: (Units=GPa)
#
#
# Indices 1 2 3 4 5 6 
#
# 1 102.9778 22.8713 34.0447 0.0000 9.5077 0.0000
# 2 22.8713 34.8987 19.4705 0.0000 9.4212 0.0000
# 3 34.0447 19.4705 99.7162 0.0000 18.2084 0.0000
# 4 0.0000 0.0000 0.0000 35.3382 0.0000 1.5300
# 5 9.5077 9.4212 18.2084 0.0000 26.5239 0.0000
# 6 0.0000 0.0000 0.0000 1.5300 0.0000 24.9228
#
#
#
# Elastic Compliance Matrix: (Units=1/GPa)
#
#
# Indices 1 2 3 4 5 6 
#
# 1 0.012065 -0.006271 -0.002872 0.000000 -0.000126 0.000000
# 2 -0.006271 0.037027 -0.003542 0.000000 -0.008473 0.000000
# 3 -0.002872 -0.003542 0.012900 0.000000 -0.006568 0.000000
# 4 0.000000 0.000000 0.000000 0.028373 0.000000 -0.001742
# 5 -0.000126 -0.008473 -0.006568 0.000000 0.045265 0.000000
# 6 0.000000 0.000000 0.000000 -0.001742 0.000000 0.040231
#
#
# Mechanical properties :
#
#
# Convention : Reuss Voigt Hill
#
# Bulk Modulus (GPa) = 27.30490 43.37397 35.33943
# Shear Modulus (GPa) = 23.42609 28.10405 25.76507
#
# Velocity S-wave (km/s) = 3.44685 3.77535 3.61484
# Velocity P-wave (km/s) = 5.44877 6.40328 5.94521
#
# Compressibility (1/GPa) = 0.03662347
#
# Stress axis : x y z
#
# Youngs Moduli (GPa) = 82.88773 27.00716 77.52036
#
# Poissons Ratio (x) = 0.16935 0.22261
# Poissons Ratio (y) = 0.51975 0.27457
# Poissons Ratio (z) = 0.23802 0.09566
#
# Static dielectric constant tensor:
#      x y z
#    x 3.906320 0.000000 0.116800 
#    y 0.000000 3.537020 0.000000 
#    z 0.116800 0.000000 3.539820 
# 
# 
# High freq. dielectric constant tensor:
#      x y z
#    x 1.779490 0.000000 0.009590 
#    y 0.000000 1.765240 0.000000 
#    z 0.009590 0.000000 1.769290 
# 
# From -- ./inp_files/238812.got.cif
#   From: 2010.06.25/outbox.cif.g09.slc.cpg/sg12_120_cif.got.tgz:238812.got - 2010.06.28 00:19:55.
