data_PCOD8091107
_publ_section_title
;
Structure prediction by ZEFSAII (Michael W. Deem and Ramdas Pophale) SiO2 
 PCOD8091107
Probable space group: C 2/M
;
_chemical_formula_sum "Si O2"
_cell_formula_units_Z 64
_cell_length_a 20.810574
_cell_length_b 9.138776
_cell_length_c 18.311197
_cell_angle_alpha 90.000000
_cell_angle_beta 106.875013
_cell_angle_gamma 90.000000
_cell_volume 3332.526853
_symmetry_space_group_name_H-M "C 2/M"
_symmetry_group_IT_number 12
_symmetry_cell_setting 'monoclinic'
loop_
_space_group_symop_operation_xyz
x,y,z
-x,y,-z
-x,-y,-z
x,-y,z
1/2+x,1/2+y,z
1/2-x,1/2+y,-z
1/2-x,1/2-y,-z
1/2+x,1/2-y,z
loop_
_atom_site_type_symbol
_atom_site_label
_atom_site_fract_x
_atom_site_fract_y
_atom_site_fract_z
Si Si1 0.959388 0.174516 0.416801
Si Si2 0.186456 0.829891 0.138666
Si Si3 0.689563 0.661386 0.644783
Si Si4 0.818273 0.831105 0.694778
Si Si5 0.465449 0.672580 0.704391
Si Si6 0.685444 0.337407 0.814784
Si Si7 0.571853 0.666434 0.988905
Si Si8 0.436577 0.173720 0.162785
O O1 0.997543 0.229333 0.356595
O O2 0.000000 0.233219 0.500000
O O3 0.882874 0.235172 0.397384
O O4 0.956661 0.000000 0.413784
O O5 0.169652 0.788412 0.216692
O O6 0.249066 0.737213 0.128452
O O7 0.204744 0.000000 0.137894
O O8 0.123882 0.786273 0.068274
O O9 0.693112 0.500000 0.610277
O O10 0.753912 0.751363 0.637056
O O11 0.696402 0.649401 0.733084
O O12 0.886048 0.791442 0.672719
O O13 0.801180 0.000000 0.682060
O O14 0.476991 0.500000 0.720987
O O15 0.494351 0.757780 0.784111
O O16 0.674627 0.500000 0.845038
O O17 0.622144 0.234113 0.805587
O O18 0.584402 0.500000 0.966496
O O19 0.578638 0.776453 0.924201
O O20 0.500000 0.684150 0.000000
O O21 0.440065 0.000000 0.167862
#
# Coordination Sequence:
#
# PCOD8091107 Si02
#       8
#     8   8   8   8   8   8   8   8
#     4   9  17  32  57  85 110 141 183 227 269 321
#     4   9  18  33  52  77 105 136 179 225 272 319
#     4   9  17  32  54  80 109 142 181 224 268 319
#     4   9  18  32  55  81 107 143 181 223 268 320
#     4  10  19  36  58  81 109 142 188 228 267 329
#     4  10  19  34  55  77 102 140 183 223 270 323
#     4  10  21  38  57  75 103 144 184 223 272 328
#     4  12  24  35  53  80 109 140 178 228 280 322
#
# _framework density 19.204647000000001
#
# number of rings (size 3 to 8) (size 9 to 14) (size 15 to 20)
#    0.000    2.250    1.250    2.250    0.000    4.250 
#    0.000    3.125    0.000    1.500    0.000    0.000 
#    0.000    0.000    0.000    0.000    0.000    0.000 
#
# Total GULP energy -396735.722337 kJ/mol
# GULP energy per Si atom -12397.991323 kJ/mol
# Density = 1.916094 g / cm^3
# Si number density = 19.204647 Si / 1000 Ang^3
#
#
#
# Elastic Constant Matrix: (Units=GPa)
#
#
# Indices 1 2 3 4 5 6 
#
# 1 123.7786 46.4871 45.1470 0.0000 35.1959 0.0000
# 2 46.4871 76.6777 31.4120 0.0000 13.5272 0.0000
# 3 45.1470 31.4120 83.8584 0.0000 27.0213 0.0000
# 4 0.0000 0.0000 0.0000 17.0433 0.0000 7.2171
# 5 35.1959 13.5272 27.0213 0.0000 33.1344 0.0000
# 6 0.0000 0.0000 0.0000 7.2171 0.0000 29.6983
#
#
#
# Elastic Compliance Matrix: (Units=1/GPa)
#
#
# Indices 1 2 3 4 5 6 
#
# 1 0.014093 -0.005839 -0.001824 0.000000 -0.011099 0.000000
# 2 -0.005839 0.017938 -0.004360 0.000000 0.002435 0.000000
# 3 -0.001824 -0.004360 0.018098 0.000000 -0.011042 0.000000
# 4 0.000000 0.000000 0.000000 0.065405 0.000000 -0.015894
# 5 -0.011099 0.002435 -0.011042 0.000000 0.049980 0.000000
# 6 0.000000 0.000000 0.000000 -0.015894 0.000000 0.037535
#
#
# Mechanical properties :
#
#
# Convention : Reuss Voigt Hill
#
# Bulk Modulus (GPa) = 38.33940 58.93410 48.63675
# Shear Modulus (GPa) = 21.20544 26.72643 23.96594
#
# Velocity S-wave (km/s) = 3.32653 3.73455 3.53643
# Velocity P-wave (km/s) = 5.89588 7.02494 6.48503
#
# Compressibility (1/GPa) = 0.02608283
#
# Stress axis : x y z
#
# Youngs Moduli (GPa) = 70.95771 55.74658 55.25480
#
# Poissons Ratio (x) = 0.32550 0.10077
# Poissons Ratio (y) = 0.41432 0.24094
# Poissons Ratio (z) = 0.12941 0.24308
#
# Static dielectric constant tensor:
#      x y z
#    x 3.465390 0.000000 0.415430 
#    y 0.000000 3.478060 0.000000 
#    z 0.415430 0.000000 3.171670 
# 
# 
# High freq. dielectric constant tensor:
#      x y z
#    x 1.755770 0.000000 0.017700 
#    y 0.000000 1.723440 0.000000 
#    z 0.017700 0.000000 1.730590 
# 
# From -- ./inp_files/320084.got.cif
#   From: 2010.06.25/outbox.cif.g09.slc.cpg/sg12_161_cif.got.tgz:320084.got - 2010.06.28 00:19:55.
