data_PCOD8091275
_publ_section_title
;
Structure prediction by ZEFSAII (Michael W. Deem and Ramdas Pophale) SiO2 
 PCOD8091275
Probable space group: C 2/M
;
_chemical_formula_sum "Si O2"
_cell_formula_units_Z 48
_cell_length_a 9.471497
_cell_length_b 22.871410
_cell_length_c 12.578141
_cell_angle_alpha 90.000000
_cell_angle_beta 64.609185
_cell_angle_gamma 90.000000
_cell_volume 2461.557891
_symmetry_space_group_name_H-M "C 2/M"
_symmetry_group_IT_number 12
_symmetry_cell_setting 'monoclinic'
loop_
_space_group_symop_operation_xyz
x,y,z
-x,y,-z
-x,-y,-z
x,-y,z
1/2+x,1/2+y,z
1/2-x,1/2+y,-z
1/2-x,1/2-y,-z
1/2+x,1/2-y,z
loop_
_atom_site_type_symbol
_atom_site_label
_atom_site_fract_x
_atom_site_fract_y
_atom_site_fract_z
Si Si1 0.846770 0.565825 0.289909
Si Si2 0.196517 0.721090 0.346377
Si Si3 0.327518 0.934840 0.908556
Si Si4 0.132717 0.933580 0.171259
Si Si5 0.644110 0.180442 0.588318
Si Si6 0.898223 0.851897 0.134894
O O1 0.845387 0.500000 0.339229
O O2 0.689525 0.577175 0.273350
O O3 0.866206 0.612391 0.377797
O O4 0.987556 0.572930 0.160807
O O5 0.235863 0.787438 0.369597
O O6 0.210197 0.680703 0.447146
O O7 0.326277 0.704076 0.217072
O O8 0.022790 0.714458 0.353497
O O9 0.245125 0.891577 0.853860
O O10 0.275025 0.000000 0.892611
O O11 0.277929 0.922018 0.045255
O O12 0.997176 0.888295 0.188207
O O13 0.070875 0.000000 0.178096
O O14 0.000000 0.831661 0.000000
#
# Coordination Sequence:
#
# PCOD8091275 Si02
#       6
#     8   8   8   8   8   8
#     4  10  19  34  56  85 116 144 186 239 283 323
#     4  10  22  41  61  83 106 150 194 227 274 338
#     4   9  16  30  52  78 113 154 191 226 273 337
#     4   9  18  30  50  81 117 157 188 220 277 342
#     4  10  22  41  63  82 108 150 194 229 273 337
#     4  10  19  34  55  83 116 144 186 235 281 326
#
# _framework density 19.499846999999999
#
# number of rings (size 3 to 8) (size 9 to 14) (size 15 to 20)
#    0.000    2.333    1.667    1.000    2.333    4.000 
#    0.000    5.833    0.000    2.000    0.000    0.000 
#    0.000    0.000    0.000    0.000    0.000    0.000 
#
# Total GULP energy -297512.831389 kJ/mol
# GULP energy per Si atom -12396.367975 kJ/mol
# Density = 1.945546 g / cm^3
# Si number density = 19.499847 Si / 1000 Ang^3
#
#
#
# Elastic Constant Matrix: (Units=GPa)
#
#
# Indices 1 2 3 4 5 6 
#
# 1 79.5333 31.6335 19.8379 0.0000 6.5756 0.0000
# 2 31.6335 83.4781 33.8364 0.0000 6.4060 0.0000
# 3 19.8379 33.8364 65.9053 0.0000 -4.9187 0.0000
# 4 0.0000 0.0000 0.0000 29.7147 0.0000 1.6838
# 5 6.5756 6.4060 -4.9187 0.0000 21.7939 0.0000
# 6 0.0000 0.0000 0.0000 1.6838 0.0000 26.6067
#
#
#
# Elastic Compliance Matrix: (Units=1/GPa)
#
#
# Indices 1 2 3 4 5 6 
#
# 1 0.015317 -0.004442 -0.002622 0.000000 -0.003908 0.000000
# 2 -0.004442 0.017318 -0.007968 0.000000 -0.005549 0.000000
# 3 -0.002622 -0.007968 0.020635 0.000000 0.007790 0.000000
# 4 0.000000 0.000000 0.000000 0.033774 0.000000 -0.002137
# 5 -0.003908 -0.005549 0.007790 0.000000 0.050453 0.000000
# 6 0.000000 0.000000 0.000000 -0.002137 0.000000 0.037720
#
#
# Mechanical properties :
#
#
# Convention : Reuss Voigt Hill
#
# Bulk Modulus (GPa) = 43.09180 44.39247 43.74214
# Shear Modulus (GPa) = 23.47244 25.19697 24.33471
#
# Velocity S-wave (km/s) = 3.47324 3.59857 3.53646
# Velocity P-wave (km/s) = 6.18312 6.33097 6.25748
#
# Compressibility (1/GPa) = 0.02320627
#
# Stress axis : x y z
#
# Youngs Moduli (GPa) = 65.28689 57.74344 48.46165
#
# Poissons Ratio (x) = 0.25648 0.12705
# Poissons Ratio (y) = 0.28999 0.38616
# Poissons Ratio (z) = 0.17116 0.46012
#
# Static dielectric constant tensor:
#      x y z
#    x 3.622360 0.000000 -0.016560 
#    y 0.000000 3.363140 0.000000 
#    z -0.016560 0.000000 3.372680 
# 
# 
# High freq. dielectric constant tensor:
#      x y z
#    x 1.763620 0.000000 0.001390 
#    y 0.000000 1.742120 0.000000 
#    z 0.001390 0.000000 1.742430 
# 
# From -- ./inp_files/122006.got.cif
#   From: 2010.06.25/outbox.cif.g09.slc.cpg/sg12_62_cif.got.tgz:122006.got - 2010.06.28 00:19:55.
