data_PCOD8091561
_publ_section_title
;
Structure prediction by ZEFSAII (Michael W. Deem and Ramdas Pophale) SiO2 
 PCOD8091561
Probable space group: C 2/M
;
_chemical_formula_sum "Si O2"
_cell_formula_units_Z 52
_cell_length_a 27.586910
_cell_length_b 21.021521
_cell_length_c 4.929299
_cell_angle_alpha 90.000000
_cell_angle_beta 66.221866
_cell_angle_gamma 90.000000
_cell_volume 2615.937536
_symmetry_space_group_name_H-M "C 2/M"
_symmetry_group_IT_number 12
_symmetry_cell_setting 'monoclinic'
loop_
_space_group_symop_operation_xyz
x,y,z
-x,y,-z
-x,-y,-z
x,-y,z
1/2+x,1/2+y,z
1/2-x,1/2+y,-z
1/2-x,1/2-y,-z
1/2+x,1/2-y,z
loop_
_atom_site_type_symbol
_atom_site_label
_atom_site_fract_x
_atom_site_fract_y
_atom_site_fract_z
Si Si1 0.861527 0.073566 0.159095
Si Si2 0.886621 0.396900 0.259530
Si Si3 0.038540 0.500000 0.673783
Si Si4 0.035923 0.702864 0.173845
Si Si5 0.676867 0.072596 0.116183
Si Si6 0.293778 0.573095 0.793590
Si Si7 0.463940 0.655527 0.819685
O O1 0.835298 0.103904 0.488497
O O2 0.878399 0.000000 0.154019
O O3 0.816062 0.082581 0.040951
O O4 0.913382 0.111856 0.967193
O O5 0.926222 0.437475 0.363107
O O6 0.844188 0.380584 0.593145
O O7 0.914734 0.338750 0.041098
O O8 0.859047 0.433003 0.072618
O O9 0.000000 0.500000 0.500000
O O10 0.000000 0.500000 0.000000
O O11 0.055835 0.773047 0.217161
O O12 0.000000 0.672196 0.500000
O O13 0.000000 0.712957 0.000000
O O14 0.680996 0.000000 0.222605
O O15 0.734413 0.101525 0.910567
O O16 0.289248 0.500000 0.716283
O O17 0.500000 0.626795 0.500000
O O18 0.500000 0.654889 0.000000
#
# Coordination Sequence:
#
# PCOD8091561 Si02
#       7
#     8   8   4   8   8   8   8
#     4  10  19  34  56  88 116 143 179 220 284 331
#     4  12  22  36  56  77 107 144 189 237 275 332
#     4  12  24  36  50  78 114 144 178 234 298 330
#     4  10  22  40  56  76 104 149 196 224 273 337
#     4  11  20  36  55  80 109 141 190 232 282 328
#     4   9  19  33  55  81 113 148 177 225 272 342
#     4  10  21  37  59  82 112 149 185 225 267 336
#
# _framework density 19.878149000000001
#
# number of rings (size 3 to 8) (size 9 to 14) (size 15 to 20)
#    0.000    1.538    1.538    4.154    0.000    4.308 
#    0.000    0.000    0.000    5.538    0.000    0.000 
#    0.000    0.000    0.000    0.000    0.000    0.000 
#
# Total GULP energy -322105.875499 kJ/mol
# GULP energy per Si atom -12388.687519 kJ/mol
# Density = 1.983291 g / cm^3
# Si number density = 19.878149 Si / 1000 Ang^3
#
#
#
# Elastic Constant Matrix: (Units=GPa)
#
#
# Indices 1 2 3 4 5 6 
#
# 1 84.9530 35.6476 44.6385 0.0000 -13.6564 0.0000
# 2 35.6476 60.2519 40.9002 0.0000 -17.6345 0.0000
# 3 44.6385 40.9002 173.3929 0.0000 -15.4227 0.0000
# 4 0.0000 0.0000 0.0000 26.5357 0.0000 -0.9632
# 5 -13.6564 -17.6345 -15.4227 0.0000 42.9522 0.0000
# 6 0.0000 0.0000 0.0000 -0.9632 0.0000 15.5364
#
#
#
# Elastic Compliance Matrix: (Units=1/GPa)
#
#
# Indices 1 2 3 4 5 6 
#
# 1 0.016449 -0.007834 -0.002280 0.000000 0.001195 0.000000
# 2 -0.007834 0.025521 -0.003401 0.000000 0.006766 0.000000
# 3 -0.002280 -0.003401 0.007198 0.000000 0.000463 0.000000
# 4 0.000000 0.000000 0.000000 0.037770 0.000000 0.002342
# 5 0.001195 0.006766 0.000463 0.000000 0.026606 0.000000
# 6 0.000000 0.000000 0.000000 0.002342 0.000000 0.064510
#
#
# Mechanical properties :
#
#
# Convention : Reuss Voigt Hill
#
# Bulk Modulus (GPa) = 45.17547 62.33005 53.75276
# Shear Modulus (GPa) = 23.53337 30.16562 26.84949
#
# Velocity S-wave (km/s) = 3.44449 3.89977 3.67918
# Velocity P-wave (km/s) = 6.21248 7.19039 6.71925
#
# Compressibility (1/GPa) = 0.02213591
#
# Stress axis : x y z
#
# Youngs Moduli (GPa) = 60.79453 39.18317 138.93103
#
# Poissons Ratio (x) = 0.30697 0.31682
# Poissons Ratio (y) = 0.47628 0.47255
# Poissons Ratio (z) = 0.13864 0.13327
#
# Static dielectric constant tensor:
#      x y z
#    x 3.565740 0.000000 -0.029570 
#    y 0.000000 3.452850 0.000000 
#    z -0.029570 0.000000 4.073260 
# 
# 
# High freq. dielectric constant tensor:
#      x y z
#    x 1.778010 0.000000 0.003380 
#    y 0.000000 1.723140 0.000000 
#    z 0.003380 0.000000 1.807090 
# 
# From -- ./inp_files/25569.got.cif
#   From: 2010.06.25/outbox.cif.g09.slc.cpg/sg12_13_cif.got.tgz:25569.got - 2010.06.28 00:19:55.
