data_PCOD8091943
_publ_section_title
;
Structure prediction by ZEFSAII (Michael W. Deem and Ramdas Pophale) SiO2 
 PCOD8091943
Probable space group: C 2/M
;
_chemical_formula_sum "Si O2"
_cell_formula_units_Z 40
_cell_length_a 23.601314
_cell_length_b 9.152656
_cell_length_c 26.619135
_cell_angle_alpha 90.000000
_cell_angle_beta 158.229282
_cell_angle_gamma 90.000000
_cell_volume 2132.682536
_symmetry_space_group_name_H-M "C 2/M"
_symmetry_group_IT_number 12
_symmetry_cell_setting 'monoclinic'
loop_
_space_group_symop_operation_xyz
x,y,z
-x,y,-z
-x,-y,-z
x,-y,z
1/2+x,1/2+y,z
1/2-x,1/2+y,-z
1/2-x,1/2-y,-z
1/2+x,1/2-y,z
loop_
_atom_site_type_symbol
_atom_site_label
_atom_site_fract_x
_atom_site_fract_y
_atom_site_fract_z
Si Si1 0.838538 0.825347 0.221690
Si Si2 0.784310 0.836838 0.288242
Si Si3 0.360661 0.827555 0.552471
Si Si4 0.479735 0.836745 0.084529
Si Si5 0.730875 0.329820 0.337022
O O1 0.839029 0.771975 0.280132
O O2 0.972866 0.742888 0.303130
O O3 0.857034 0.000000 0.233871
O O4 0.682188 0.773182 0.066572
O O5 0.597940 0.839693 0.134691
O O6 0.837232 0.740157 0.380141
O O7 0.849595 0.000000 0.349417
O O8 0.250000 0.750000 0.500000
O O9 0.303501 0.789943 0.449794
O O10 0.366049 0.000000 0.567262
O O11 0.558006 0.736524 0.192327
O O12 0.457873 0.000000 0.088399
O O13 0.720495 0.500000 0.318909
#
# Coordination Sequence:
#
# PCOD8091943 Si02
#       5
#     8   8   8   8   8
#     4  10  19  34  58  85 112 143 179 218 262 314
#     4   8  16  31  55  84 115 144 174 211 259 319
#     4  11  25  42  57  75 103 141 186 231 272 316
#     4   8  16  32  55  84 114 143 175 211 260 320
#     4   9  19  35  54  78 111 143 174 220 270 315
#
# _framework density 18.755723
#
# number of rings (size 3 to 8) (size 9 to 14) (size 15 to 20)
#    1.200    1.600    0.000    1.200    0.000    8.000 
#    0.000    6.000    0.000    0.000    0.000    0.000 
#    0.000    0.000    0.000    0.000    0.000    0.000 
#
# Total GULP energy -247805.860414 kJ/mol
# GULP energy per Si atom -12390.293021 kJ/mol
# Density = 1.871303 g / cm^3
# Si number density = 18.755723 Si / 1000 Ang^3
#
#
#
# Elastic Constant Matrix: (Units=GPa)
#
#
# Indices 1 2 3 4 5 6 
#
# 1 42.8008 25.7846 24.2611 0.0044 17.1085 0.0015
# 2 25.7846 63.6985 19.7475 -0.0149 -0.8601 -0.0022
# 3 24.2611 19.7475 42.5884 -0.0382 8.3804 -0.0093
# 4 0.0044 -0.0149 -0.0382 30.3945 -0.0115 -1.0118
# 5 17.1085 -0.8601 8.3804 -0.0115 24.0713 -0.0018
# 6 0.0015 -0.0022 -0.0093 -1.0118 -0.0018 29.4596
#
#
#
# Elastic Compliance Matrix: (Units=1/GPa)
#
#
# Indices 1 2 3 4 5 6 
#
# 1 0.059867 -0.019173 -0.017935 -0.000055 -0.036991 -0.000014
# 2 -0.019173 0.024819 -0.003695 0.000016 0.015800 0.000003
# 3 -0.017935 -0.003695 0.035350 0.000046 0.000308 0.000013
# 4 -0.000055 0.000016 0.000046 0.032938 0.000040 0.001131
# 5 -0.036991 0.015800 0.000308 0.000040 0.068292 0.000009
# 6 -0.000014 0.000003 0.000013 0.001131 0.000009 0.033984
#
#
# Mechanical properties :
#
#
# Convention : Reuss Voigt Hill
#
# Bulk Modulus (GPa) = 26.02125 32.07490 29.04808
# Shear Modulus (GPa) = 14.29933 22.07138 18.18535
#
# Velocity S-wave (km/s) = 2.76415 3.43415 3.11720
# Velocity P-wave (km/s) = 4.90828 5.73263 5.33640
#
# Compressibility (1/GPa) = 0.03843013
#
# Stress axis : x y z
#
# Youngs Moduli (GPa) = 16.70364 40.29186 28.28834
#
# Poissons Ratio (x) = 0.77252 0.50735
# Poissons Ratio (y) = 0.32026 0.10452
# Poissons Ratio (z) = 0.29958 0.14888
#
# Static dielectric constant tensor:
#      x y z
#    x 3.207190 0.000000 -0.009910 
#    y 0.000000 3.301020 0.000000 
#    z -0.009910 0.000000 3.371340 
# 
# 
# High freq. dielectric constant tensor:
#      x y z
#    x 1.700420 0.000000 0.000660 
#    y 0.000000 1.721630 0.000000 
#    z 0.000660 0.000000 1.728800 
# 
# From -- ./inp_files/346381.got.cif
#   From: 2010.06.25/outbox.cif.g09.slc.cpg/sg12_174_cif.got.tgz:346381.got - 2010.06.28 00:19:55.
