data_PCOD8091951
_publ_section_title
;
Structure prediction by ZEFSAII (Michael W. Deem and Ramdas Pophale) SiO2 
 PCOD8091951
Probable space group: C 2/M
;
_chemical_formula_sum "Si O2"
_cell_formula_units_Z 48
_cell_length_a 18.826265
_cell_length_b 13.618630
_cell_length_c 12.837787
_cell_angle_alpha 90.000000
_cell_angle_beta 132.421426
_cell_angle_gamma 90.000000
_cell_volume 2429.761447
_symmetry_space_group_name_H-M "C 2/M"
_symmetry_group_IT_number 12
_symmetry_cell_setting 'monoclinic'
loop_
_space_group_symop_operation_xyz
x,y,z
-x,y,-z
-x,-y,-z
x,-y,z
1/2+x,1/2+y,z
1/2-x,1/2+y,-z
1/2-x,1/2-y,-z
1/2+x,1/2-y,z
loop_
_atom_site_type_symbol
_atom_site_label
_atom_site_fract_x
_atom_site_fract_y
_atom_site_fract_z
Si Si1 0.675572 0.389772 0.416678
Si Si2 0.132533 0.687705 0.297182
Si Si3 0.824131 0.765370 0.165607
Si Si4 0.323145 0.111549 0.872417
Si Si5 0.556383 0.110407 0.797843
Si Si6 0.505253 0.611465 0.620642
O O1 0.670252 0.500000 0.361965
O O2 0.779133 0.372922 0.568733
O O3 0.653848 0.304852 0.310329
O O4 0.598977 0.378211 0.432627
O O5 0.112908 0.646413 0.162143
O O6 0.042977 0.668411 0.284751
O O7 0.766669 0.811361 0.206981
O O8 0.879000 0.660022 0.230687
O O9 0.912057 0.839017 0.225934
O O10 0.750000 0.750000 0.000000
O O11 0.284937 0.000000 0.817424
O O12 0.388078 0.114974 0.038262
O O13 0.535144 0.000000 0.741493
O O14 0.500000 0.660240 0.500000
O O15 0.538413 0.500000 0.642917
#
# Coordination Sequence:
#
# PCOD8091951 Si02
#       6
#     8   8   8   8   8   8
#     4  10  21  34  53  82 112 147 183 223 281 339
#     4  11  20  35  57  82 114 144 182 233 279 334
#     4  10  20  35  54  83 116 149 185 233 287 339
#     4  10  20  34  57  85 109 140 187 238 280 324
#     4  10  20  35  56  82 111 146 185 229 284 338
#     4  10  19  34  58  85 113 144 187 239 286 334
#
# _framework density 19.755026000000001
#
# number of rings (size 3 to 8) (size 9 to 14) (size 15 to 20)
#    0.000    1.833    1.667    3.500    0.000    3.333 
#    0.000    0.833    0.000    4.500    0.000    0.000 
#    0.000    0.000    0.000    0.000    0.000    0.000 
#
# Total GULP energy -297361.782914 kJ/mol
# GULP energy per Si atom -12390.074288 kJ/mol
# Density = 1.971006 g / cm^3
# Si number density = 19.755026 Si / 1000 Ang^3
#
#
#
# Elastic Constant Matrix: (Units=GPa)
#
#
# Indices 1 2 3 4 5 6 
#
# 1 73.0641 39.6128 23.7847 0.0000 18.6474 0.0000
# 2 39.6128 147.1773 37.8604 0.0000 5.8020 0.0000
# 3 23.7847 37.8604 57.7888 0.0000 15.8006 0.0000
# 4 0.0000 0.0000 0.0000 25.3964 0.0000 3.2421
# 5 18.6474 5.8020 15.8006 0.0000 30.8992 0.0000
# 6 0.0000 0.0000 0.0000 3.2421 0.0000 35.2564
#
#
#
# Elastic Compliance Matrix: (Units=1/GPa)
#
#
# Indices 1 2 3 4 5 6 
#
# 1 0.019187 -0.004120 -0.002608 0.000000 -0.009472 0.000000
# 2 -0.004120 0.009109 -0.005213 0.000000 0.003442 0.000000
# 3 -0.002608 -0.005213 0.024524 0.000000 -0.009988 0.000000
# 4 0.000000 0.000000 0.000000 0.039843 0.000000 -0.003664
# 5 -0.009472 0.003442 -0.009988 0.000000 0.042540 0.000000
# 6 0.000000 0.000000 0.000000 -0.003664 0.000000 0.028701
#
#
# Mechanical properties :
#
#
# Convention : Reuss Voigt Hill
#
# Bulk Modulus (GPa) = 34.55693 53.39401 43.97547
# Shear Modulus (GPa) = 25.32531 30.09522 27.71027
#
# Velocity S-wave (km/s) = 3.58434 3.90734 3.74932
# Velocity P-wave (km/s) = 5.88734 6.88790 6.40718
#
# Compressibility (1/GPa) = 0.02893776
#
# Stress axis : x y z
#
# Youngs Moduli (GPa) = 52.11977 109.78529 40.77653
#
# Poissons Ratio (x) = 0.45229 0.10634
# Poissons Ratio (y) = 0.21472 0.21257
# Poissons Ratio (z) = 0.13593 0.57230
#
# Static dielectric constant tensor:
#      x y z
#    x 3.588550 0.000000 0.267990 
#    y 0.000000 4.036940 0.000000 
#    z 0.267990 0.000000 3.411930 
# 
# 
# High freq. dielectric constant tensor:
#      x y z
#    x 1.759760 0.000000 0.035790 
#    y 0.000000 1.780490 0.000000 
#    z 0.035790 0.000000 1.753400 
# 
# From -- ./inp_files/232811.got.cif
#   From: 2010.06.25/outbox.cif.g09.slc.cpg/sg12_117_cif.got.tgz:232811.got - 2010.06.28 00:19:55.
