data_PCOD8091628
_publ_section_title
;
Structure prediction by ZEFSAII (Michael W. Deem and Ramdas Pophale) SiO2 
 PCOD8091628
Probable space group: C 2/M
;
_chemical_formula_sum "Si O2"
_cell_formula_units_Z 56
_cell_length_a 20.699338
_cell_length_b 9.457175
_cell_length_c 16.594489
_cell_angle_alpha 90.000000
_cell_angle_beta 59.657488
_cell_angle_gamma 90.000000
_cell_volume 2803.516471
_symmetry_space_group_name_H-M "C 2/M"
_symmetry_group_IT_number 12
_symmetry_cell_setting 'monoclinic'
loop_
_space_group_symop_operation_xyz
x,y,z
-x,y,-z
-x,-y,-z
x,-y,z
1/2+x,1/2+y,z
1/2-x,1/2+y,-z
1/2-x,1/2-y,-z
1/2+x,1/2-y,z
loop_
_atom_site_type_symbol
_atom_site_label
_atom_site_fract_x
_atom_site_fract_y
_atom_site_fract_z
Si Si1 0.136537 0.660385 0.768608
Si Si2 0.523519 0.847860 0.075174
Si Si3 0.325796 0.832182 0.433963
Si Si4 0.020554 0.668144 0.576571
Si Si5 0.146322 0.163705 0.051735
Si Si6 0.616041 0.161420 0.229919
Si Si7 0.778071 0.840113 0.154545
O O1 0.161784 0.500000 0.767352
O O2 0.047608 0.677119 0.823258
O O3 0.160186 0.713719 0.666342
O O4 0.173231 0.746376 0.817495
O O5 0.573567 0.708471 0.047163
O O6 0.561432 0.000000 0.076967
O O7 0.500000 0.866933 0.000000
O O8 0.250000 0.750000 0.500000
O O9 0.396674 0.783029 0.445330
O O10 0.313954 0.000000 0.451359
O O11 0.016824 0.500000 0.578380
O O12 0.000000 0.726199 0.500000
O O13 0.955399 0.725978 0.677839
O O14 0.138856 0.254119 0.136535
O O15 0.146945 0.000000 0.075252
O O16 0.213815 0.202950 0.946492
O O17 0.691298 0.170565 0.236813
O O18 0.598732 0.000000 0.216977
O O19 0.807951 0.000000 0.143744
#
# Coordination Sequence:
#
# PCOD8091628 Si02
#       7
#     8   8   8   8   8   8   8
#     4  10  21  37  57  84 117 153 195 241 291 345
#     4  10  19  34  57  81 107 149 197 236 279 339
#     4  10  22  39  62  91 120 150 190 243 300 353
#     4   9  19  38  65  91 113 147 200 253 291 338
#     4  11  22  35  53  83 121 153 188 238 296 346
#     4  10  21  38  60  83 112 152 200 242 285 347
#     4  10  22  36  55  86 117 153 196 241 288 344
#
# _framework density 19.974914999999999
#
# number of rings (size 3 to 8) (size 9 to 14) (size 15 to 20)
#    0.000    2.000    1.429    1.714    2.000    4.857 
#    0.000    2.143    0.000    0.857    0.000    0.000 
#    0.000    0.000    0.000    0.000    0.000    0.000 
#
# Total GULP energy -346872.864582 kJ/mol
# GULP energy per Si atom -12388.316592 kJ/mol
# Density = 1.992945 g / cm^3
# Si number density = 19.974915 Si / 1000 Ang^3
#
#
#
# Elastic Constant Matrix: (Units=GPa)
#
#
# Indices 1 2 3 4 5 6 
#
# 1 81.8221 23.1033 54.4442 0.0000 -5.1533 0.0000
# 2 23.1033 40.2837 41.6764 0.0000 -4.0645 0.0000
# 3 54.4442 41.6764 138.6362 0.0000 -7.2005 0.0000
# 4 0.0000 0.0000 0.0000 21.4931 0.0000 -7.4986
# 5 -5.1533 -4.0645 -7.2005 0.0000 35.0221 0.0000
# 6 0.0000 0.0000 0.0000 -7.4986 0.0000 22.1922
#
#
#
# Elastic Compliance Matrix: (Units=1/GPa)
#
#
# Indices 1 2 3 4 5 6 
#
# 1 0.017034 -0.004071 -0.005418 0.000000 0.000920 0.000000
# 2 -0.004071 0.037138 -0.009474 0.000000 0.001763 0.000000
# 3 -0.005418 -0.009474 0.012221 0.000000 0.000616 0.000000
# 4 0.000000 0.000000 0.000000 0.052744 0.000000 0.017822
# 5 0.000920 0.001763 0.000616 0.000000 0.029020 0.000000
# 6 0.000000 0.000000 0.000000 0.017822 0.000000 0.051083
#
#
# Mechanical properties :
#
#
# Convention : Reuss Voigt Hill
#
# Bulk Modulus (GPa) = 35.12844 55.46554 45.29699
# Shear Modulus (GPa) = 20.27116 25.17602 22.72359
#
# Velocity S-wave (km/s) = 3.18910 3.55404 3.37650
# Velocity P-wave (km/s) = 5.58434 6.68352 6.15850
#
# Compressibility (1/GPa) = 0.02846696
#
# Stress axis : x y z
#
# Youngs Moduli (GPa) = 58.70546 26.92639 81.82774
#
# Poissons Ratio (x) = 0.10963 0.44333
# Poissons Ratio (y) = 0.23901 0.77523
# Poissons Ratio (z) = 0.31806 0.25510
#
# Static dielectric constant tensor:
#      x y z
#    x 1.433930 0.000000 1.436460 
#    y 0.000000 3.774320 0.000000 
#    z 1.436460 0.000000 2.870450 
# 
# 
# High freq. dielectric constant tensor:
#      x y z
#    x 1.783900 0.000000 -0.003810 
#    y 0.000000 1.750780 0.000000 
#    z -0.003810 0.000000 1.791730 
# 
# From -- ./inp_files/280963.got.cif
#   From: 2010.06.25/outbox.cif.g09.slc.cpg/sg12_141_cif.got.tgz:280963.got - 2010.06.28 00:19:55.
