data_PCOD8091085
_publ_section_title
;
Structure prediction by ZEFSAII (Michael W. Deem and Ramdas Pophale) SiO2 
 PCOD8091085
Probable space group: C 2/M
;
_chemical_formula_sum "Si O2"
_cell_formula_units_Z 56
_cell_length_a 19.174927
_cell_length_b 8.748582
_cell_length_c 18.792030
_cell_angle_alpha 90.000000
_cell_angle_beta 115.959515
_cell_angle_gamma 90.000000
_cell_volume 2834.358672
_symmetry_space_group_name_H-M "C 2/M"
_symmetry_group_IT_number 12
_symmetry_cell_setting 'monoclinic'
loop_
_space_group_symop_operation_xyz
x,y,z
-x,y,-z
-x,-y,-z
x,-y,z
1/2+x,1/2+y,z
1/2-x,1/2+y,-z
1/2-x,1/2-y,-z
1/2+x,1/2-y,z
loop_
_atom_site_type_symbol
_atom_site_label
_atom_site_fract_x
_atom_site_fract_y
_atom_site_fract_z
Si Si1 0.176953 0.676933 0.223497
Si Si2 0.829001 0.178754 0.509707
Si Si3 0.403442 0.824094 0.670573
Si Si4 0.454812 0.676594 0.190951
Si Si5 0.845494 0.822694 0.265031
Si Si6 0.579977 0.180804 0.570692
Si Si7 0.982898 0.681206 0.912026
O O1 0.179924 0.500000 0.205456
O O2 0.165578 0.703205 0.302993
O O3 0.259093 0.750431 0.235535
O O4 0.102866 0.744616 0.147534
O O5 0.750000 0.250000 0.500000
O O6 0.893618 0.217621 0.597552
O O7 0.849505 0.252788 0.443618
O O8 0.819988 0.000000 0.495221
O O9 0.483983 0.783420 0.742262
O O10 0.404866 0.000000 0.646044
O O11 0.480818 0.500000 0.204567
O O12 0.372753 0.698225 0.195136
O O13 0.451897 0.736691 0.108293
O O14 0.908304 0.739804 0.343757
O O15 0.844419 0.000000 0.286559
O O16 0.500000 0.241547 0.500000
O O17 0.582085 0.000000 0.571489
O O18 0.989092 0.500000 0.903136
O O19 0.000000 0.729560 0.000000
#
# Coordination Sequence:
#
# PCOD8091085 Si02
#       7
#     8   8   8   8   8   8   8
#     4   8  16  32  54  77 101 134 175 216 259 312
#     4  12  24  37  54  77 107 142 184 233 283 332
#     4  10  19  34  55  76 101 137 182 227 269 317
#     4  10  20  33  53  80 108 139 172 212 266 325
#     4  10  20  35  54  76 105 141 179 220 270 328
#     4  11  24  39  55  77 107 145 188 235 284 331
#     4   9  18  35  59  82 105 138 178 218 262 318
#
# _framework density 19.757555
#
# number of rings (size 3 to 8) (size 9 to 14) (size 15 to 20)
#    0.000    2.000    0.000    5.143    0.000    6.000 
#    0.000    3.571    0.000    0.000    0.000    0.000 
#    0.000    0.000    0.000    0.000    0.000    0.000 
#
# Total GULP energy -347176.727426 kJ/mol
# GULP energy per Si atom -12399.168837 kJ/mol
# Density = 1.971259 g / cm^3
# Si number density = 19.757555 Si / 1000 Ang^3
#
#
#
# Elastic Constant Matrix: (Units=GPa)
#
#
# Indices 1 2 3 4 5 6 
#
# 1 106.7652 32.0581 28.0466 0.0000 -18.6429 0.0000
# 2 32.0581 53.7466 25.9544 0.0000 -7.4595 0.0000
# 3 28.0466 25.9544 91.5689 0.0000 -17.9388 0.0000
# 4 0.0000 0.0000 0.0000 26.5727 0.0000 -5.2834
# 5 -18.6429 -7.4595 -17.9388 0.0000 28.2813 0.0000
# 6 0.0000 0.0000 0.0000 -5.2834 0.0000 25.5004
#
#
#
# Elastic Compliance Matrix: (Units=1/GPa)
#
#
# Indices 1 2 3 4 5 6 
#
# 1 0.012518 -0.006196 -0.000892 0.000000 0.006051 0.000000
# 2 -0.006196 0.024729 -0.005291 0.000000 -0.000918 0.000000
# 3 -0.000892 -0.005291 0.014051 0.000000 0.006929 0.000000
# 4 0.000000 0.000000 0.000000 0.039250 0.000000 0.008132
# 5 0.006051 -0.000918 0.006929 0.000000 0.043501 0.000000
# 6 0.000000 0.000000 0.000000 0.008132 0.000000 0.040900
#
#
# Mechanical properties :
#
#
# Convention : Reuss Voigt Hill
#
# Bulk Modulus (GPa) = 37.68011 47.13320 42.40665
# Shear Modulus (GPa) = 23.97460 27.13898 25.55679
#
# Velocity S-wave (km/s) = 3.48723 3.71023 3.60046
# Velocity P-wave (km/s) = 5.94365 6.50092 6.22852
#
# Compressibility (1/GPa) = 0.02653920
#
# Stress axis : x y z
#
# Youngs Moduli (GPa) = 79.88612 40.43808 71.16797
#
# Poissons Ratio (x) = 0.25054 0.06352
# Poissons Ratio (y) = 0.49494 0.37658
# Poissons Ratio (z) = 0.07130 0.21397
#
# Static dielectric constant tensor:
#      x y z
#    x 3.889320 0.000000 -0.179550 
#    y 0.000000 3.581340 0.000000 
#    z -0.179550 0.000000 3.731020 
# 
# 
# High freq. dielectric constant tensor:
#      x y z
#    x 1.776890 0.000000 -0.014170 
#    y 0.000000 1.755950 0.000000 
#    z -0.014170 0.000000 1.754330 
# 
# From -- ./inp_files/275519.got.cif
#   From: 2010.06.25/outbox.cif.g09.slc.cpg/sg12_138_cif.got.tgz:275519.got - 2010.06.28 00:19:55.
