data_PCOD8091205
_publ_section_title
;
Structure prediction by ZEFSAII (Michael W. Deem and Ramdas Pophale) SiO2 
 PCOD8091205
Probable space group: C 2/M
;
_chemical_formula_sum "Si O2"
_cell_formula_units_Z 64
_cell_length_a 14.735156
_cell_length_b 8.567837
_cell_length_c 25.871493
_cell_angle_alpha 90.000000
_cell_angle_beta 90.767000
_cell_angle_gamma 90.000000
_cell_volume 3265.942324
_symmetry_space_group_name_H-M "C 2/M"
_symmetry_group_IT_number 12
_symmetry_cell_setting 'monoclinic'
loop_
_space_group_symop_operation_xyz
x,y,z
-x,y,-z
-x,-y,-z
x,-y,z
1/2+x,1/2+y,z
1/2-x,1/2+y,-z
1/2-x,1/2-y,-z
1/2+x,1/2-y,z
loop_
_atom_site_type_symbol
_atom_site_label
_atom_site_fract_x
_atom_site_fract_y
_atom_site_fract_z
Si Si1 0.479494 0.684206 0.305487
Si Si2 0.502222 0.314346 0.579407
Si Si3 0.057857 0.184137 0.112990
Si Si4 0.369147 0.818979 0.124137
Si Si5 0.376220 0.314278 0.775058
Si Si6 0.282024 0.817306 0.946247
Si Si7 0.648770 0.684452 0.499589
Si Si8 0.826367 0.317883 0.239717
O O1 0.489011 0.500000 0.307674
O O2 0.494905 0.755523 0.362698
O O3 0.554807 0.754533 0.267091
O O4 0.379877 0.728246 0.284843
O O5 0.503815 0.500000 0.580210
O O6 0.408869 0.258874 0.551035
O O7 0.591950 0.256549 0.549211
O O8 0.096732 0.245926 0.167954
O O9 0.125672 0.229006 0.067797
O O10 0.964724 0.273069 0.100086
O O11 0.040369 0.000000 0.113552
O O12 0.292117 0.714116 0.098088
O O13 0.372171 0.781511 0.184988
O O14 0.346038 0.000000 0.113710
O O15 0.377350 0.500000 0.775530
O O16 0.276090 0.252981 0.760694
O O17 0.300950 0.000000 0.951146
O O18 0.250000 0.750000 0.000000
O O19 0.656669 0.500000 0.499950
O O20 0.750000 0.750000 0.500000
O O21 0.828764 0.500000 0.252384
#
# Coordination Sequence:
#
# PCOD8091205 Si02
#       8
#     8   8   8   8   8   8   8   8
#     4  10  19  34  55  80 109 148 192 230 273 339
#     4   8  17  33  52  75 110 148 184 228 283 342
#     4  11  21  39  63  89 118 152 192 238 286 342
#     4  11  22  39  62  89 120 154 192 237 286 342
#     4   9  18  33  54  79 109 146 185 224 275 335
#     4  12  26  44  65  91 119 153 193 241 294 346
#     4   9  17  33  55  78 104 143 189 234 283 336
#     4  10  20  35  54  81 115 149 182 229 283 330
#
# _framework density 19.596181000000001
#
# number of rings (size 3 to 8) (size 9 to 14) (size 15 to 20)
#    0.000    2.000    2.500    2.625    0.000    2.000 
#    0.000    6.875    0.000    0.000    0.000    0.000 
#    0.000    0.000    0.000    0.000    0.000    0.000 
#
# Total GULP energy -396823.762784 kJ/mol
# GULP energy per Si atom -12400.742587 kJ/mol
# Density = 1.955158 g / cm^3
# Si number density = 19.596181 Si / 1000 Ang^3
#
#
#
# Elastic Constant Matrix: (Units=GPa)
#
#
# Indices 1 2 3 4 5 6 
#
# 1 110.3949 15.4212 5.0888 0.0000 -7.0221 0.0000
# 2 15.4212 30.2900 26.9585 0.0000 1.2751 0.0000
# 3 5.0888 26.9585 70.4756 0.0000 -8.4694 0.0000
# 4 0.0000 0.0000 0.0000 19.8989 0.0000 3.3332
# 5 -7.0221 1.2751 -8.4694 0.0000 27.3309 0.0000
# 6 0.0000 0.0000 0.0000 3.3332 0.0000 33.7215
#
#
#
# Elastic Compliance Matrix: (Units=1/GPa)
#
#
# Indices 1 2 3 4 5 6 
#
# 1 0.010267 -0.007792 0.002701 0.000000 0.003838 0.000000
# 2 -0.007792 0.057989 -0.023043 0.000000 -0.011848 0.000000
# 3 0.002701 -0.023043 0.023912 0.000000 0.009179 0.000000
# 4 0.000000 0.000000 0.000000 0.051100 0.000000 -0.005051
# 5 0.003838 -0.011848 0.009179 0.000000 0.040972 0.000000
# 6 0.000000 0.000000 0.000000 -0.005051 0.000000 0.030154
#
#
# Mechanical properties :
#
#
# Convention : Reuss Voigt Hill
#
# Bulk Modulus (GPa) = 27.85675 34.01085 30.93380
# Shear Modulus (GPa) = 17.69106 27.10305 22.39706
#
# Velocity S-wave (km/s) = 3.00789 3.72301 3.38439
# Velocity P-wave (km/s) = 5.12928 5.98954 5.57602
#
# Compressibility (1/GPa) = 0.03589794
#
# Stress axis : x y z
#
# Youngs Moduli (GPa) = 97.40405 17.24468 41.82011
#
# Poissons Ratio (x) = 0.13437 -0.11294
# Poissons Ratio (y) = 0.75897 0.96367
# Poissons Ratio (z) = -0.26304 0.39737
#
# Static dielectric constant tensor:
#      x y z
#    x 3.732410 0.000000 -0.084340 
#    y 0.000000 3.249030 0.000000 
#    z -0.084340 0.000000 3.804820 
# 
# 
# High freq. dielectric constant tensor:
#      x y z
#    x 1.775920 0.000000 -0.001680 
#    y 0.000000 1.734960 0.000000 
#    z -0.001680 0.000000 1.763210 
# 
# From -- ./inp_files/338923.got.cif
#   From: 2010.06.25/outbox.cif.g09.slc.cpg/sg12_170_cif.got.tgz:338923.got - 2010.06.28 00:19:55.
