data_PCOD8091220
_publ_section_title
;
Structure prediction by ZEFSAII (Michael W. Deem and Ramdas Pophale) SiO2 
 PCOD8091220
Probable space group: C 2/M
;
_chemical_formula_sum "Si O2"
_cell_formula_units_Z 56
_cell_length_a 23.858690
_cell_length_b 15.120235
_cell_length_c 15.486494
_cell_angle_alpha 90.000000
_cell_angle_beta 28.410948
_cell_angle_gamma 90.000000
_cell_volume 2658.126452
_symmetry_space_group_name_H-M "C 2/M"
_symmetry_group_IT_number 12
_symmetry_cell_setting 'monoclinic'
loop_
_space_group_symop_operation_xyz
x,y,z
-x,y,-z
-x,-y,-z
x,-y,z
1/2+x,1/2+y,z
1/2-x,1/2+y,-z
1/2-x,1/2-y,-z
1/2+x,1/2-y,z
loop_
_atom_site_type_symbol
_atom_site_label
_atom_site_fract_x
_atom_site_fract_y
_atom_site_fract_z
Si Si1 0.011972 0.720082 0.079140
Si Si2 0.390167 0.599001 0.265156
Si Si3 0.432439 0.598483 0.406347
Si Si4 0.876706 0.402600 0.396844
Si Si5 0.283521 0.709647 0.736578
Si Si6 0.365937 0.291957 0.803030
Si Si7 0.948638 0.641592 0.484392
O O1 0.977521 0.823644 0.116190
O O2 0.934402 0.670548 0.256600
O O3 0.144223 0.709537 0.930229
O O4 0.000000 0.676772 0.000000
O O5 0.429795 0.500000 0.179346
O O6 0.385937 0.598846 0.373264
O O7 0.260177 0.622096 0.405998
O O8 0.435493 0.500000 0.440678
O O9 0.334736 0.655313 0.587725
O O10 0.566408 0.636777 0.228980
O O11 0.890226 0.500000 0.335814
O O12 0.934337 0.411637 0.414605
O O13 0.330892 0.663143 0.759697
O O14 0.324167 0.812174 0.676419
O O15 0.458417 0.216914 0.659259
O O16 0.250000 0.250000 0.000000
O O17 0.000000 0.587990 0.500000
#
# Coordination Sequence:
#
# PCOD8091220 Si02
#       7
#     8   8   8   8   8   8   8
#     4  12  23  37  62  89 118 157 197 238 293 354
#     4  10  22  40  61  85 115 151 195 246 293 344
#     4  10  20  36  58  84 116 153 193 239 295 354
#     4  11  23  39  59  85 119 155 194 243 293 348
#     4  10  20  34  56  84 114 150 192 243 292 344
#     4  10  19  34  55  80 114 152 194 242 289 342
#     4   9  19  37  59  81 110 152 196 237 289 345
#
# _framework density 21.06747
#
# number of rings (size 3 to 8) (size 9 to 14) (size 15 to 20)
#    0.000    1.714    0.000    6.857    0.000    2.571 
#    0.000    2.857    0.000    1.714    0.000    0.000 
#    0.000    0.000    0.000    0.000    0.000    0.000 
#
# Total GULP energy -346959.877926 kJ/mol
# GULP energy per Si atom -12391.424212 kJ/mol
# Density = 2.101952 g / cm^3
# Si number density = 21.067470 Si / 1000 Ang^3
#
#
#
# Elastic Constant Matrix: (Units=GPa)
#
#
# Indices 1 2 3 4 5 6 
#
# 1 131.4778 26.9882 29.5643 0.0000 -3.6051 0.0000
# 2 26.9882 86.4145 27.0982 0.0000 -9.6294 0.0000
# 3 29.5643 27.0982 70.0122 0.0000 -13.8735 0.0000
# 4 0.0000 0.0000 0.0000 6.9830 0.0000 25.1551
# 5 -3.6051 -9.6294 -13.8735 0.0000 41.1115 0.0000
# 6 0.0000 0.0000 0.0000 25.1551 0.0000 -112.7872
#
#
#
# Elastic Compliance Matrix: (Units=1/GPa)
#
#
# Indices 1 2 3 4 5 6 
#
# 1 0.008654 -0.001812 -0.003094 0.000000 -0.000709 0.000000
# 2 -0.001812 0.013633 -0.004190 0.000000 0.001620 0.000000
# 3 -0.003094 -0.004190 0.018179 0.000000 0.004882 0.000000
# 4 0.000000 0.000000 0.000000 0.079407 0.000000 0.017710
# 5 -0.000709 0.001620 0.004882 0.000000 0.026289 0.000000
# 6 0.000000 0.000000 0.000000 0.017710 0.000000 -0.004916
#
#
# Mechanical properties :
#
#
# Convention : Reuss Voigt Hill
#
# Bulk Modulus (GPa) = 44.89579 50.57843 47.73711
# Shear Modulus (GPa) = 29.96509 0.67839 15.32174
#
# Velocity S-wave (km/s) = 3.77548 0.56807 2.69972
# Velocity P-wave (km/s) = 6.35314 4.94876 5.69441
#
# Compressibility (1/GPa) = 0.02227380
#
# Stress axis : x y z
#
# Youngs Moduli (GPa) = 115.55458 73.35409 55.00880
#
# Poissons Ratio (x) = 0.13289 0.17018
# Poissons Ratio (y) = 0.20934 0.23051
# Poissons Ratio (z) = 0.35749 0.30738
#
# Static dielectric constant tensor:
#      x y z
#    x 4.382820 0.000000 -0.060940 
#    y 0.000000 3.663220 0.000000 
#    z -0.060940 0.000000 3.525350 
# 
# 
# High freq. dielectric constant tensor:
#      x y z
#    x 1.853960 0.000000 -0.002880 
#    y 0.000000 1.804880 0.000000 
#    z -0.002880 0.000000 1.817680 
# 
# From -- ./inp_files/240905.got.cif
#   From: 2010.06.25/outbox.cif.g09.slc.cpg/sg12_121_cif.got.tgz:240905.got - 2010.06.28 00:19:55.
