data_PCOD8091755
_publ_section_title
;
Structure prediction by ZEFSAII (Michael W. Deem and Ramdas Pophale) SiO2 
 PCOD8091755
Probable space group: C 2/M
;
_chemical_formula_sum "Si O2"
_cell_formula_units_Z 56
_cell_length_a 20.586301
_cell_length_b 8.589366
_cell_length_c 22.302827
_cell_angle_alpha 90.000000
_cell_angle_beta 48.695219
_cell_angle_gamma 90.000000
_cell_volume 2962.512276
_symmetry_space_group_name_H-M "C 2/M"
_symmetry_group_IT_number 12
_symmetry_cell_setting 'monoclinic'
loop_
_space_group_symop_operation_xyz
x,y,z
-x,y,-z
-x,-y,-z
x,-y,z
1/2+x,1/2+y,z
1/2-x,1/2+y,-z
1/2-x,1/2-y,-z
1/2+x,1/2-y,z
loop_
_atom_site_type_symbol
_atom_site_label
_atom_site_fract_x
_atom_site_fract_y
_atom_site_fract_z
Si Si1 0.805140 0.316498 0.261475
Si Si2 0.933810 0.180237 0.988829
Si Si3 0.998923 0.184589 0.594510
Si Si4 0.260058 0.320134 0.162336
Si Si5 0.864762 0.814735 0.578103
Si Si6 0.004413 0.317323 0.828554
Si Si7 0.581149 0.316746 0.235512
O O1 0.811155 0.500000 0.261654
O O2 0.776434 0.275659 0.212258
O O3 0.733173 0.252258 0.352765
O O4 0.898891 0.248223 0.220864
O O5 0.948820 0.285706 0.921651
O O6 0.949706 0.000000 0.962788
O O7 0.836579 0.212129 0.068937
O O8 0.000000 0.233969 0.000000
O O9 0.922481 0.247472 0.598331
O O10 0.981549 0.244020 0.672485
O O11 0.091791 0.243551 0.511113
O O12 0.998714 0.000000 0.593336
O O13 0.255972 0.500000 0.182629
O O14 0.172671 0.268569 0.183216
O O15 0.863981 0.000000 0.580309
O O16 0.003735 0.500000 0.814488
O O17 0.963765 0.223242 0.799010
O O18 0.597377 0.500000 0.230705
#
# Coordination Sequence:
#
# PCOD8091755 Si02
#       7
#     8   8   8   8   8   8   8
#     4  10  19  34  57  84 112 145 186 227 271 328
#     4  10  21  39  60  83 110 144 184 227 276 329
#     4   8  14  26  51  82 108 140 182 228 267 318
#     4  11  22  36  59  85 112 142 181 231 278 327
#     4   8  13  26  51  83 110 135 182 231 267 315
#     4  11  24  38  56  83 115 149 184 228 281 329
#     4  11  22  38  58  81 113 151 189 226 275 332
#
# _framework density 18.902875000000002
#
# number of rings (size 3 to 8) (size 9 to 14) (size 15 to 20)
#    0.000    2.143    2.857    2.143    0.000    2.571 
#    0.000    0.714    0.000    2.571    0.000    0.000 
#    0.000    0.000    0.000    0.000    0.000    0.000 
#
# Total GULP energy -347105.426851 kJ/mol
# GULP energy per Si atom -12396.622388 kJ/mol
# Density = 1.885985 g / cm^3
# Si number density = 18.902875 Si / 1000 Ang^3
#
#
#
# Elastic Constant Matrix: (Units=GPa)
#
#
# Indices 1 2 3 4 5 6 
#
# 1 101.0062 -0.9938 63.4259 0.0001 -7.8621 -0.0001
# 2 -0.9938 11.3672 17.4906 0.0003 -6.0553 0.0002
# 3 63.4259 17.4906 145.7527 0.0000 -11.3602 -0.0003
# 4 0.0001 0.0003 0.0000 13.2787 0.0000 -2.1345
# 5 -7.8621 -6.0553 -11.3602 0.0000 31.7091 0.0002
# 6 -0.0001 0.0002 -0.0003 -2.1345 0.0002 21.3109
#
#
#
# Elastic Compliance Matrix: (Units=1/GPa)
#
#
# Indices 1 2 3 4 5 6 
#
# 1 0.015734 0.016645 -0.008531 0.000000 0.004024 0.000000
# 2 0.016645 0.134513 -0.021666 -0.000003 0.022052 -0.000002
# 3 -0.008531 -0.021666 0.013050 0.000001 -0.001577 0.000000
# 4 0.000000 -0.000003 0.000001 0.076541 -0.000001 0.007666
# 5 0.004024 0.022052 -0.001577 -0.000001 0.036180 -0.000001
# 6 0.000000 -0.000002 0.000000 0.007666 -0.000001 0.047692
#
#
# Mechanical properties :
#
#
# Convention : Reuss Voigt Hill
#
# Bulk Modulus (GPa) = 7.34251 46.44128 26.89189
# Shear Modulus (GPa) = 12.61950 25.13996 18.87973
#
# Velocity S-wave (km/s) = 2.58659 3.65081 3.16377
# Velocity P-wave (km/s) = 3.57958 6.51098 5.25387
#
# Compressibility (1/GPa) = 0.13619318
#
# Stress axis : x y z
#
# Youngs Moduli (GPa) = 63.55620 7.43424 76.62700
#
# Poissons Ratio (x) = -0.12374 0.65368
# Poissons Ratio (y) = -1.05789 1.66022
# Poissons Ratio (z) = 0.54218 0.16107
#
# Static dielectric constant tensor:
#      x y z
#    x 3.417950 0.000000 -0.292890 
#    y 0.000000 3.154840 0.000000 
#    z -0.292890 0.000000 4.013230 
# 
# 
# High freq. dielectric constant tensor:
#      x y z
#    x 1.717630 0.000000 -0.012800 
#    y 0.000000 1.706510 0.000000 
#    z -0.012800 0.000000 1.754460 
# 
# From -- ./inp_files/275214.got.cif
#   From: 2010.06.25/outbox.cif.g09.slc.cpg/sg12_138_cif.got.tgz:275214.got - 2010.06.28 00:19:55.
