data_PCOD8091802
_publ_section_title
;
Structure prediction by ZEFSAII (Michael W. Deem and Ramdas Pophale) SiO2 
 PCOD8091802
Probable space group: C 2/M
;
_chemical_formula_sum "Si O2"
_cell_formula_units_Z 64
_cell_length_a 19.845470
_cell_length_b 13.409370
_cell_length_c 15.725767
_cell_angle_alpha 90.000000
_cell_angle_beta 126.423323
_cell_angle_gamma 90.000000
_cell_volume 3367.361851
_symmetry_space_group_name_H-M "C 2/M"
_symmetry_group_IT_number 12
_symmetry_cell_setting 'monoclinic'
loop_
_space_group_symop_operation_xyz
x,y,z
-x,y,-z
-x,-y,-z
x,-y,z
1/2+x,1/2+y,z
1/2-x,1/2+y,-z
1/2-x,1/2-y,-z
1/2+x,1/2-y,z
loop_
_atom_site_type_symbol
_atom_site_label
_atom_site_fract_x
_atom_site_fract_y
_atom_site_fract_z
Si Si1 0.809740 0.886193 0.522308
Si Si2 0.008555 0.384106 0.713410
Si Si3 0.890761 0.749351 0.721894
Si Si4 0.009115 0.890425 0.907797
Si Si5 0.150695 0.610606 0.509760
Si Si6 0.214964 0.217252 0.661649
Si Si7 0.688167 0.381903 0.986445
Si Si8 0.822093 0.740551 0.177353
O O1 0.866507 0.808535 0.617145
O O2 0.711579 0.865981 0.473742
O O3 0.823945 0.865064 0.432342
O O4 0.835973 0.000000 0.561349
O O5 0.034851 0.500000 0.749917
O O6 0.952953 0.343137 0.750135
O O7 0.947038 0.377280 0.585925
O O8 0.086596 0.310560 0.757950
O O9 0.935881 0.825726 0.816325
O O10 0.813905 0.711999 0.720894
O O11 0.099577 0.845406 0.955479
O O12 0.001935 0.000000 0.861087
O O13 0.000000 0.896900 0.000000
O O14 0.169283 0.500000 0.555655
O O15 0.176279 0.676109 0.608732
O O16 0.192155 0.204150 0.742983
O O17 0.697140 0.500000 0.981874
O O18 0.695858 0.330064 0.900937
O O19 0.756770 0.346878 0.106747
#
# Coordination Sequence:
#
# PCOD8091802 Si02
#       8
#     8   8   8   8   8   8   8   8
#     4  10  19  34  57  85 118 153 193 237 286 347
#     4  11  21  37  60  84 115 155 196 234 286 349
#     4  11  19  37  60  86 115 156 194 242 290 339
#     4  10  20  35  60  89 112 142 192 249 293 337
#     4   9  18  34  56  83 116 155 193 236 285 334
#     4  11  21  35  57  87 121 150 194 237 286 348
#     4  10  22  42  60  79 112 152 193 235 293 355
#     4  11  24  39  59  85 116 156 187 242 298 349
#
# _framework density 19.005976
#
# number of rings (size 3 to 8) (size 9 to 14) (size 15 to 20)
#    0.000    1.625    3.750    2.250    0.000    2.500 
#    0.000    1.250    0.000    1.125    0.000    0.000 
#    0.000    0.000    0.000    0.000    0.000    0.000 
#
# Total GULP energy -396635.804660 kJ/mol
# GULP energy per Si atom -12394.868896 kJ/mol
# Density = 1.896272 g / cm^3
# Si number density = 19.005976 Si / 1000 Ang^3
#
#
#
# Elastic Constant Matrix: (Units=GPa)
#
#
# Indices 1 2 3 4 5 6 
#
# 1 60.4412 10.1781 16.2714 0.0000 -1.2759 0.0000
# 2 10.1781 63.0884 8.1127 0.0000 -2.5715 0.0000
# 3 16.2714 8.1127 54.8707 0.0000 -8.0649 0.0000
# 4 0.0000 0.0000 0.0000 37.5275 0.0000 7.5541
# 5 -1.2759 -2.5715 -8.0649 0.0000 28.4018 0.0000
# 6 0.0000 0.0000 0.0000 7.5541 0.0000 26.1818
#
#
#
# Elastic Compliance Matrix: (Units=1/GPa)
#
#
# Indices 1 2 3 4 5 6 
#
# 1 0.018322 -0.002320 -0.005218 0.000000 -0.000869 0.000000
# 2 -0.002320 0.016470 -0.001610 0.000000 0.000930 0.000000
# 3 -0.005218 -0.001610 0.020823 0.000000 0.005533 0.000000
# 4 0.000000 0.000000 0.000000 0.028290 0.000000 -0.008162
# 5 -0.000869 0.000930 0.005533 0.000000 0.036825 0.000000
# 6 0.000000 0.000000 0.000000 -0.008162 0.000000 0.040550
#
#
# Mechanical properties :
#
#
# Convention : Reuss Voigt Hill
#
# Bulk Modulus (GPa) = 26.79652 27.50273 27.14963
# Shear Modulus (GPa) = 26.03936 28.01143 27.02539
#
# Velocity S-wave (km/s) = 3.70545 3.84320 3.77496
# Velocity P-wave (km/s) = 5.69533 5.84770 5.77202
#
# Compressibility (1/GPa) = 0.03731828
#
# Stress axis : x y z
#
# Youngs Moduli (GPa) = 54.57893 60.71614 48.02321
#
# Poissons Ratio (x) = 0.14088 0.25058
# Poissons Ratio (y) = 0.12664 0.07734
# Poissons Ratio (z) = 0.28478 0.09778
#
# Static dielectric constant tensor:
#      x y z
#    x 3.485660 0.000000 0.242670 
#    y 0.000000 3.620860 0.000000 
#    z 0.242670 0.000000 3.507090 
# 
# 
# High freq. dielectric constant tensor:
#      x y z
#    x 1.728230 0.000000 0.013580 
#    y 0.000000 1.744050 0.000000 
#    z 0.013580 0.000000 1.734850 
# 
# From -- ./inp_files/225349.got.cif
#   From: 2010.06.25/outbox.cif.g09.slc.cpg/sg12_113_cif.got.tgz:225349.got - 2010.06.28 00:19:55.
