data_PCOD8091836
_publ_section_title
;
Structure prediction by ZEFSAII (Michael W. Deem and Ramdas Pophale) SiO2 
 PCOD8091836
Probable space group: C 2/M
;
_chemical_formula_sum "Si O2"
_cell_formula_units_Z 64
_cell_length_a 32.312495
_cell_length_b 8.773157
_cell_length_c 20.363045
_cell_angle_alpha 90.000000
_cell_angle_beta 143.739911
_cell_angle_gamma 90.000000
_cell_volume 3414.195284
_symmetry_space_group_name_H-M "C 2/M"
_symmetry_group_IT_number 12
_symmetry_cell_setting 'monoclinic'
loop_
_space_group_symop_operation_xyz
x,y,z
-x,y,-z
-x,-y,-z
x,-y,z
1/2+x,1/2+y,z
1/2-x,1/2+y,-z
1/2-x,1/2-y,-z
1/2+x,1/2-y,z
loop_
_atom_site_type_symbol
_atom_site_label
_atom_site_fract_x
_atom_site_fract_y
_atom_site_fract_z
Si Si1 0.796811 0.678475 0.616279
Si Si2 0.934132 0.821682 0.747941
Si Si3 0.720269 0.675995 0.653341
Si Si4 0.720579 0.321673 0.144286
Si Si5 0.571992 0.823870 0.763512
Si Si6 0.420480 0.178129 0.073695
Si Si7 0.069802 0.824929 0.408297
Si Si8 0.705959 0.679382 0.884991
O O1 0.802074 0.500000 0.609586
O O2 0.750000 0.750000 0.500000
O O3 0.873728 0.751422 0.715744
O O4 0.762488 0.715069 0.641934
O O5 0.914728 0.785906 0.647711
O O6 0.006632 0.741963 0.860484
O O7 0.940471 0.000000 0.769864
O O8 0.731360 0.500000 0.687788
O O9 0.746755 0.787699 0.743355
O O10 0.638508 0.711066 0.537963
O O11 0.722901 0.500000 0.132326
O O12 0.765642 0.234219 0.148037
O O13 0.640943 0.264533 0.042623
O O14 0.586878 0.787139 0.858563
O O15 0.493005 0.777596 0.643928
O O16 0.625028 0.726547 0.787344
O O17 0.583326 0.000000 0.761819
O O18 0.415770 0.000000 0.052482
O O19 0.046803 0.000000 0.385201
O O20 0.714087 0.500000 0.899466
O O21 0.750000 0.750000 0.000000
#
# Coordination Sequence:
#
# PCOD8091836 Si02
#       8
#     8   8   8   8   8   8   8   8
#     4  11  21  36  59  88 119 154 198 246 294 346
#     4  10  19  34  57  88 120 151 192 245 293 345
#     4  10  22  41  60  83 119 160 197 237 291 354
#     4  12  25  40  60  87 119 156 195 242 294 349
#     4  10  20  34  57  89 119 149 190 242 292 341
#     4  10  20  36  58  85 118 156 193 237 291 349
#     4   9  18  35  57  83 117 156 193 235 291 347
#     4  12  23  38  61  88 118 153 195 243 289 344
#
# _framework density 18.745266999999998
#
# number of rings (size 3 to 8) (size 9 to 14) (size 15 to 20)
#    0.000    1.500    2.500    3.750    0.000    3.000 
#    0.000    1.250    0.000    7.500    0.000    0.000 
#    0.000    0.000    0.000    0.000    0.000    0.000 
#
# Total GULP energy -396982.906421 kJ/mol
# GULP energy per Si atom -12405.715826 kJ/mol
# Density = 1.870260 g / cm^3
# Si number density = 18.745267 Si / 1000 Ang^3
#
#
#
# Elastic Constant Matrix: (Units=GPa)
#
#
# Indices 1 2 3 4 5 6 
#
# 1 100.2069 55.8825 51.0602 0.0000 20.8323 0.0000
# 2 55.8825 124.1493 49.8016 0.0000 9.8454 0.0000
# 3 51.0602 49.8016 104.6111 0.0000 13.8243 0.0000
# 4 0.0000 0.0000 0.0000 34.2568 0.0000 5.6692
# 5 20.8323 9.8454 13.8243 0.0000 27.6698 0.0000
# 6 0.0000 0.0000 0.0000 5.6692 0.0000 33.9450
#
#
#
# Elastic Compliance Matrix: (Units=1/GPa)
#
#
# Indices 1 2 3 4 5 6 
#
# 1 0.017026 -0.005072 -0.004754 0.000000 -0.008639 0.000000
# 2 -0.005072 0.011508 -0.003176 0.000000 0.001311 0.000000
# 3 -0.004754 -0.003176 0.013672 0.000000 -0.002121 0.000000
# 4 0.000000 0.000000 0.000000 0.030021 0.000000 -0.005014
# 5 -0.008639 0.001311 -0.002121 0.000000 0.043238 0.000000
# 6 0.000000 0.000000 0.000000 -0.005014 0.000000 0.030297
#
#
# Mechanical properties :
#
#
# Convention : Reuss Voigt Hill
#
# Bulk Modulus (GPa) = 61.72144 71.38398 66.55271
# Shear Modulus (GPa) = 28.22194 30.65586 29.43890
#
# Velocity S-wave (km/s) = 3.88435 4.04839 3.96722
# Velocity P-wave (km/s) = 7.28804 7.74702 7.52103
#
# Compressibility (1/GPa) = 0.01620183
#
# Stress axis : x y z
#
# Youngs Moduli (GPa) = 58.73313 86.89712 73.14103
#
# Poissons Ratio (x) = 0.44071 0.34774
# Poissons Ratio (y) = 0.29787 0.23231
# Poissons Ratio (z) = 0.27924 0.27601
#
# Static dielectric constant tensor:
#      x y z
#    x 3.737730 0.000000 0.164730 
#    y 0.000000 3.538230 0.000000 
#    z 0.164730 0.000000 3.375150 
# 
# 
# High freq. dielectric constant tensor:
#      x y z
#    x 1.724600 0.000000 0.024530 
#    y 0.000000 1.740050 0.000000 
#    z 0.024530 0.000000 1.719060 
# 
# From -- ./inp_files/295711.got.cif
#   From: 2010.06.25/outbox.cif.g09.slc.cpg/sg12_148_cif.got.tgz:295711.got - 2010.06.28 00:19:55.
