data_PCOD8091090
_publ_section_title
;
Structure prediction by ZEFSAII (Michael W. Deem and Ramdas Pophale) SiO2 
 PCOD8091090
Probable space group: C 2/M
;
_chemical_formula_sum "Si O2"
_cell_formula_units_Z 64
_cell_length_a 14.617027
_cell_length_b 9.207909
_cell_length_c 29.752915
_cell_angle_alpha 90.000000
_cell_angle_beta 60.562807
_cell_angle_gamma 90.000000
_cell_volume 3487.509246
_symmetry_space_group_name_H-M "C 2/M"
_symmetry_group_IT_number 12
_symmetry_cell_setting 'monoclinic'
loop_
_space_group_symop_operation_xyz
x,y,z
-x,y,-z
-x,-y,-z
x,-y,z
1/2+x,1/2+y,z
1/2-x,1/2+y,-z
1/2-x,1/2-y,-z
1/2+x,1/2-y,z
loop_
_atom_site_type_symbol
_atom_site_label
_atom_site_fract_x
_atom_site_fract_y
_atom_site_fract_z
Si Si1 0.606838 0.666598 0.771870
Si Si2 0.034733 0.170531 0.691858
Si Si3 0.332647 0.330633 0.424799
Si Si4 0.461590 0.328561 0.058568
Si Si5 0.965142 0.671857 0.875192
Si Si6 0.831519 0.333863 0.751845
Si Si7 0.769666 0.671048 0.863842
Si Si8 0.099365 0.329415 0.505375
O O1 0.571859 0.500000 0.788588
O O2 0.571758 0.724890 0.731822
O O3 0.558636 0.765469 0.822353
O O4 0.732268 0.679530 0.743096
O O5 0.121931 0.216047 0.634431
O O6 0.925115 0.245813 0.706083
O O7 0.016926 0.000000 0.695932
O O8 0.348252 0.500000 0.430640
O O9 0.208974 0.290224 0.454053
O O10 0.399126 0.247101 0.446620
O O11 0.470855 0.500000 0.065079
O O12 0.535043 0.244366 0.075882
O O13 0.343186 0.269177 0.093524
O O14 0.500000 0.286192 0.000000
O O15 0.979179 0.500000 0.875625
O O16 0.854100 0.716423 0.880569
O O17 0.867746 0.500000 0.748644
O O18 0.803719 0.264723 0.807332
O O19 0.760682 0.500000 0.860620
O O20 0.088127 0.500000 0.516481
O O21 0.000000 0.272926 0.500000
#
# Coordination Sequence:
#
# PCOD8091090 Si02
#       8
#     8   8   8   8   8   8   8   8
#     4  10  20  35  55  77 104 141 182 216 257 316
#     4  10  21  35  52  79 113 142 177 223 265 313
#     4   9  19  35  52  77 114 145 172 221 276 312
#     4  10  21  39  60  79 104 140 179 217 262 322
#     4  11  21  34  55  79 108 138 170 218 269 314
#     4  10  19  34  55  76 104 141 178 218 262 313
#     4   9  18  34  54  78 106 136 171 214 264 312
#     4   9  18  34  58  82 104 139 187 225 259 315
#
# _framework density 18.351206000000001
#
# number of rings (size 3 to 8) (size 9 to 14) (size 15 to 20)
#    0.000    2.250    2.500    0.375    0.000    3.000 
#    0.000    3.750    0.000    0.000    0.000    0.000 
#    0.000    0.000    0.000    0.000    0.000    0.000 
#
# Total GULP energy -396849.315585 kJ/mol
# GULP energy per Si atom -12401.541112 kJ/mol
# Density = 1.830944 g / cm^3
# Si number density = 18.351206 Si / 1000 Ang^3
#
#
#
# Elastic Constant Matrix: (Units=GPa)
#
#
# Indices 1 2 3 4 5 6 
#
# 1 103.0618 25.9640 30.3636 0.0000 1.0023 0.0000
# 2 25.9640 35.2082 27.4576 0.0000 2.5288 0.0000
# 3 30.3636 27.4576 95.6517 0.0000 -2.1999 0.0000
# 4 0.0000 0.0000 0.0000 26.4277 0.0000 2.6761
# 5 1.0023 2.5288 -2.1999 0.0000 26.9439 0.0000
# 6 0.0000 0.0000 0.0000 2.6761 0.0000 28.9312
#
#
#
# Elastic Compliance Matrix: (Units=1/GPa)
#
#
# Indices 1 2 3 4 5 6 
#
# 1 0.012116 -0.007663 -0.001643 0.000000 0.000134 0.000000
# 2 -0.007663 0.041946 -0.009710 0.000000 -0.004444 0.000000
# 3 -0.001643 -0.009710 0.013812 0.000000 0.002100 0.000000
# 4 0.000000 0.000000 0.000000 0.038197 0.000000 -0.003533
# 5 0.000134 -0.004444 0.002100 0.000000 0.037698 0.000000
# 6 0.000000 0.000000 0.000000 -0.003533 0.000000 0.034892
#
#
# Mechanical properties :
#
#
# Convention : Reuss Voigt Hill
#
# Bulk Modulus (GPa) = 33.51196 44.61024 39.06110
# Shear Modulus (GPa) = 22.06135 26.46967 24.26551
#
# Velocity S-wave (km/s) = 3.47100 3.80201 3.64027
# Velocity P-wave (km/s) = 5.86216 6.60573 6.24502
#
# Compressibility (1/GPa) = 0.02984010
#
# Stress axis : x y z
#
# Youngs Moduli (GPa) = 82.53339 23.84038 72.40074
#
# Poissons Ratio (x) = 0.18269 0.11898
# Poissons Ratio (y) = 0.63247 0.70304
# Poissons Ratio (z) = 0.13563 0.23150
#
# Static dielectric constant tensor:
#      x y z
#    x 3.501290 0.000000 -0.001540 
#    y 0.000000 3.201290 0.000000 
#    z -0.001540 0.000000 3.412780 
# 
# 
# High freq. dielectric constant tensor:
#      x y z
#    x 1.720250 0.000000 0.000130 
#    y 0.000000 1.692570 0.000000 
#    z 0.000130 0.000000 1.708670 
# 
# From -- ./inp_files/375005.got.cif
#   From: 2010.06.25/outbox.cif.g09.slc.cpg/sg12_188_cif.got.tgz:375005.got - 2010.06.28 00:19:55.
