data_PCOD8091080
_publ_section_title
;
Structure prediction by ZEFSAII (Michael W. Deem and Ramdas Pophale) SiO2 
 PCOD8091080
Probable space group: C 2/M
;
_chemical_formula_sum "Si O2"
_cell_formula_units_Z 48
_cell_length_a 22.839534
_cell_length_b 8.747047
_cell_length_c 19.753067
_cell_angle_alpha 90.000000
_cell_angle_beta 43.592553
_cell_angle_gamma 90.000000
_cell_volume 2721.031148
_symmetry_space_group_name_H-M "C 2/M"
_symmetry_group_IT_number 12
_symmetry_cell_setting 'monoclinic'
loop_
_space_group_symop_operation_xyz
x,y,z
-x,y,-z
-x,-y,-z
x,-y,z
1/2+x,1/2+y,z
1/2-x,1/2+y,-z
1/2-x,1/2-y,-z
1/2+x,1/2-y,z
loop_
_atom_site_type_symbol
_atom_site_label
_atom_site_fract_x
_atom_site_fract_y
_atom_site_fract_z
Si Si1 0.555399 0.318526 0.546398
Si Si2 0.611405 0.818977 0.361420
Si Si3 0.157262 0.319974 0.582488
Si Si4 0.698648 0.680241 0.816089
Si Si5 0.596147 0.823465 0.783213
Si Si6 0.051497 0.169068 0.026105
O O1 0.561744 0.500000 0.533099
O O2 0.457268 0.266094 0.627791
O O3 0.605396 0.238575 0.443346
O O4 0.596226 0.265124 0.581666
O O5 0.703608 0.773625 0.255288
O O6 0.595440 0.000000 0.372923
O O7 0.160441 0.500000 0.564460
O O8 0.250000 0.250000 0.500000
O O9 0.119084 0.283500 0.687555
O O10 0.687136 0.500000 0.820371
O O11 0.664392 0.743570 0.774046
O O12 0.643972 0.738299 0.927256
O O13 0.498666 0.772632 0.878195
O O14 0.603050 0.000000 0.793219
O O15 0.060927 0.000000 0.050084
O O16 0.000000 0.160547 0.000000
#
# Coordination Sequence:
#
# PCOD8091080 Si02
#       6
#     8   8   8   8   8   8
#     4  11  22  35  51  74 102 131 166 204 245 293
#     4  10  19  34  55  75  99 131 165 204 248 290
#     4  11  23  37  52  73 101 132 167 203 244 294
#     4   9  18  31  50  75 100 129 164 199 240 292
#     4  10  20  31  47  73 102 130 161 202 246 288
#     4   8  15  29  47  69  98 129 161 197 240 291
#
# _framework density 17.640370999999998
#
# number of rings (size 3 to 8) (size 9 to 14) (size 15 to 20)
#    0.000    2.167    0.000    6.000    0.000    9.667 
#    0.000    0.000    0.000    1.000    0.000    0.000 
#    0.000    0.000    0.000    0.000    0.000    0.000 
#
# Total GULP energy -297539.473738 kJ/mol
# GULP energy per Si atom -12397.478072 kJ/mol
# Density = 1.760022 g / cm^3
# Si number density = 17.640371 Si / 1000 Ang^3
#
#
#
# Elastic Constant Matrix: (Units=GPa)
#
#
# Indices 1 2 3 4 5 6 
#
# 1 86.3713 28.0805 56.4365 0.0000 -11.8537 0.0001
# 2 28.0805 48.3660 35.8173 0.0005 -3.6694 -0.0001
# 3 56.4365 35.8173 133.5732 0.0000 -29.0482 0.0000
# 4 0.0000 0.0005 0.0000 26.6742 0.0002 0.4471
# 5 -11.8537 -3.6694 -29.0482 0.0002 25.6321 -0.0001
# 6 0.0001 -0.0001 0.0000 0.4471 -0.0001 25.9638
#
#
#
# Elastic Compliance Matrix: (Units=1/GPa)
#
#
# Indices 1 2 3 4 5 6 
#
# 1 0.017196 -0.005836 -0.005511 0.000000 0.000871 0.000000
# 2 -0.005836 0.028378 -0.006432 0.000000 -0.005926 0.000000
# 3 -0.005511 -0.006432 0.014313 0.000000 0.012751 0.000000
# 4 0.000000 0.000000 0.000000 0.037500 0.000000 -0.000646
# 5 0.000871 -0.005926 0.012751 0.000000 0.053018 0.000000
# 6 0.000000 0.000000 0.000000 -0.000646 0.000000 0.038526
#
#
# Mechanical properties :
#
#
# Convention : Reuss Voigt Hill
#
# Bulk Modulus (GPa) = 41.10612 56.55325 48.82968
# Shear Modulus (GPa) = 21.49611 25.51910 23.50761
#
# Velocity S-wave (km/s) = 3.49460 3.80759 3.65444
# Velocity P-wave (km/s) = 6.29570 7.17348 6.74888
#
# Compressibility (1/GPa) = 0.02432728
#
# Stress axis : x y z
#
# Youngs Moduli (GPa) = 58.15297 35.23849 69.86790
#
# Poissons Ratio (x) = 0.20567 0.38504
# Poissons Ratio (y) = 0.33941 0.44941
# Poissons Ratio (z) = 0.32048 0.22666
#
# Static dielectric constant tensor:
#      x y z
#    x 3.132800 0.000000 -0.326520 
#    y 0.000000 3.372320 0.000000 
#    z -0.326520 0.000000 3.914600 
# 
# 
# High freq. dielectric constant tensor:
#      x y z
#    x 1.654710 0.000000 -0.018610 
#    y 0.000000 1.691060 0.000000 
#    z -0.018610 0.000000 1.691560 
# 
# From -- ./inp_files/326526.got.cif
#   From: 2010.06.25/outbox.cif.g09.slc.cpg/sg12_164_cif.got.tgz:326526.got - 2010.06.28 00:19:55.
