data_PCOD8091806
_publ_section_title
;
Structure prediction by ZEFSAII (Michael W. Deem and Ramdas Pophale) SiO2 
 PCOD8091806
Probable space group: C 2/M
;
_chemical_formula_sum "Si O2"
_cell_formula_units_Z 56
_cell_length_a 14.631750
_cell_length_b 14.341895
_cell_length_c 13.352765
_cell_angle_alpha 90.000000
_cell_angle_beta 94.918535
_cell_angle_gamma 90.000000
_cell_volume 2791.719782
_symmetry_space_group_name_H-M "C 2/M"
_symmetry_group_IT_number 12
_symmetry_cell_setting 'monoclinic'
loop_
_space_group_symop_operation_xyz
x,y,z
-x,y,-z
-x,-y,-z
x,-y,z
1/2+x,1/2+y,z
1/2-x,1/2+y,-z
1/2-x,1/2-y,-z
1/2+x,1/2-y,z
loop_
_atom_site_type_symbol
_atom_site_label
_atom_site_fract_x
_atom_site_fract_y
_atom_site_fract_z
Si Si1 0.688391 0.395443 0.993494
Si Si2 0.600780 0.231179 0.462485
Si Si3 0.742954 0.607492 0.426939
Si Si4 0.254937 0.662315 0.791112
Si Si5 0.918650 0.739763 0.119317
Si Si6 0.909331 0.701765 0.760596
Si Si7 0.386482 0.105225 0.950528
O O1 0.667919 0.500000 0.956570
O O2 0.608257 0.332525 0.942456
O O3 0.782612 0.357255 0.954307
O O4 0.694923 0.392141 0.114366
O O5 0.500000 0.249804 0.500000
O O6 0.654403 0.330697 0.454163
O O7 0.663268 0.158891 0.530265
O O8 0.581387 0.178904 0.355233
O O9 0.736017 0.500000 0.467841
O O10 0.748434 0.597769 0.307337
O O11 0.154661 0.696991 0.811483
O O12 0.311292 0.753250 0.767898
O O13 0.006767 0.767367 0.194560
O O14 0.945532 0.663796 0.036855
O O15 0.913926 0.612814 0.835823
O O16 0.395827 0.000000 0.987861
#
# Coordination Sequence:
#
# PCOD8091806 Si02
#       7
#     8   8   8   8   8   8   8
#     4  10  19  34  57  85 120 159 194 234 283 340
#     4  10  23  43  63  90 121 157 199 258 314 363
#     4  10  22  41  67  92 119 157 204 253 308 367
#     4  10  19  37  57  85 118 153 195 239 287 345
#     4  11  20  35  56  84 122 159 191 235 287 344
#     4  11  21  35  60  80 115 154 195 237 294 347
#     4  10  20  35  55  82 116 153 194 239 288 344
#
# _framework density 20.05932
#
# number of rings (size 3 to 8) (size 9 to 14) (size 15 to 20)
#    0.000    1.714    2.857    2.571    0.000    2.857 
#    0.000    5.714    0.000    0.000    0.000    0.000 
#    0.000    0.000    0.000    0.000    0.000    0.000 
#
# Total GULP energy -346970.875387 kJ/mol
# GULP energy per Si atom -12391.816978 kJ/mol
# Density = 2.001366 g / cm^3
# Si number density = 20.059320 Si / 1000 Ang^3
#
#
#
# Elastic Constant Matrix: (Units=GPa)
#
#
# Indices 1 2 3 4 5 6 
#
# 1 103.8220 22.6952 42.3318 0.0000 -7.1121 0.0000
# 2 22.6952 74.4073 28.1611 0.0000 -1.8897 0.0000
# 3 42.3318 28.1611 108.6897 0.0000 -0.7616 0.0000
# 4 0.0000 0.0000 0.0000 15.6594 0.0000 -12.4179
# 5 -7.1121 -1.8897 -0.7616 0.0000 37.1565 0.0000
# 6 0.0000 0.0000 0.0000 -12.4179 0.0000 -2.5995
#
#
#
# Elastic Compliance Matrix: (Units=1/GPa)
#
#
# Indices 1 2 3 4 5 6 
#
# 1 0.011885 -0.002024 -0.004090 0.000000 0.002088 0.000000
# 2 -0.002024 0.015263 -0.003164 0.000000 0.000324 0.000000
# 3 -0.004090 -0.003164 0.011608 0.000000 -0.000706 0.000000
# 4 0.000000 0.000000 0.000000 0.013337 0.000000 -0.063711
# 5 0.002088 0.000324 -0.000706 0.000000 0.027315 0.000000
# 6 0.000000 0.000000 0.000000 -0.063711 0.000000 -0.080342
#
#
# Mechanical properties :
#
#
# Convention : Reuss Voigt Hill
#
# Bulk Modulus (GPa) = 49.50472 52.58835 51.04654
# Shear Modulus (GPa) = 205.29943 22.95867 114.12905
#
# Velocity S-wave (km/s) = 10.12760 3.38677 7.55111
# Velocity P-wave (km/s) = 12.70789 6.44725 10.07615
#
# Compressibility (1/GPa) = 0.02020009
#
# Stress axis : x y z
#
# Youngs Moduli (GPa) = 84.14016 65.51965 86.14625
#
# Poissons Ratio (x) = 0.13262 0.35232
# Poissons Ratio (y) = 0.17031 0.27255
# Poissons Ratio (z) = 0.34412 0.20729
#
# Static dielectric constant tensor:
#      x y z
#    x 3.822380 0.000000 -0.046350 
#    y 0.000000 3.347310 0.000000 
#    z -0.046350 0.000000 3.883440 
# 
# 
# High freq. dielectric constant tensor:
#      x y z
#    x 1.799880 0.000000 -0.002650 
#    y 0.000000 1.758520 0.000000 
#    z -0.002650 0.000000 1.786000 
# 
# From -- ./inp_files/143734.got.cif
#   From: 2010.06.25/outbox.cif.g09.slc.cpg/sg12_72_cif.got.tgz:143734.got - 2010.06.28 00:19:55.
