data_PCOD8091001
_publ_section_title
;
Structure prediction by ZEFSAII (Michael W. Deem and Ramdas Pophale) SiO2 
 PCOD8091001
Probable space group: C 2/M
;
_chemical_formula_sum "Si O2"
_cell_formula_units_Z 64
_cell_length_a 23.295258
_cell_length_b 14.857622
_cell_length_c 9.280660
_cell_angle_alpha 90.000000
_cell_angle_beta 90.822714
_cell_angle_gamma 90.000000
_cell_volume 3211.817933
_symmetry_space_group_name_H-M "C 2/M"
_symmetry_group_IT_number 12
_symmetry_cell_setting 'monoclinic'
loop_
_space_group_symop_operation_xyz
x,y,z
-x,y,-z
-x,-y,-z
x,-y,z
1/2+x,1/2+y,z
1/2-x,1/2+y,-z
1/2-x,1/2-y,-z
1/2+x,1/2-y,z
loop_
_atom_site_type_symbol
_atom_site_label
_atom_site_fract_x
_atom_site_fract_y
_atom_site_fract_z
Si Si1 0.073666 0.338364 0.364493
Si Si2 0.014245 0.850893 0.345424
Si Si3 0.684029 0.737978 0.326306
Si Si4 0.615204 0.896152 0.662991
Si Si5 0.014705 0.601351 0.851609
Si Si6 0.617557 0.400150 0.152043
Si Si7 0.599238 0.392746 0.823426
Si Si8 0.811789 0.224301 0.344843
O O1 0.036111 0.248687 0.381873
O O2 0.137076 0.316545 0.306774
O O3 0.079361 0.391131 0.513838
O O4 0.041353 0.400975 0.250452
O O5 0.063516 0.901974 0.258758
O O6 0.000000 0.897472 0.500000
O O7 0.957463 0.849388 0.246777
O O8 0.669553 0.660337 0.211670
O O9 0.745778 0.780260 0.293127
O O10 0.681539 0.696312 0.487634
O O11 0.571372 0.857263 0.781116
O O12 0.668905 0.828779 0.669506
O O13 0.635012 0.000000 0.687525
O O14 0.031982 0.500000 0.889141
O O15 0.000000 0.653823 0.000000
O O16 0.642804 0.500000 0.142311
O O17 0.598390 0.368150 0.992461
O O18 0.601008 0.500000 0.796791
O O19 0.653996 0.346572 0.750426
#
# Coordination Sequence:
#
# PCOD8091001 Si02
#       8
#     8   8   8   8   8   8   8   8
#     4  10  19  34  54  78 107 142 179 221 274 331
#     4  11  21  34  56  85 114 147 186 231 281 335
#     4   9  21  38  58  80 108 143 187 236 280 328
#     4  10  20  35  57  82 109 143 180 224 280 334
#     4  10  20  32  48  75 107 136 172 218 267 325
#     4  10  22  38  56  83 116 150 189 231 283 344
#     4  11  23  38  57  83 117 154 189 231 284 341
#     4  10  21  40  59  83 112 144 192 240 279 332
#
# _framework density 19.926409
#
# number of rings (size 3 to 8) (size 9 to 14) (size 15 to 20)
#    0.000    1.875    0.000    5.250    0.000    9.500 
#    0.000    5.625    0.000    3.000    0.000    0.000 
#    0.000    0.000    0.000    0.000    0.000    0.000 
#
# Total GULP energy -396715.615277 kJ/mol
# GULP energy per Si atom -12397.362977 kJ/mol
# Density = 1.988106 g / cm^3
# Si number density = 19.926409 Si / 1000 Ang^3
#
#
#
# Elastic Constant Matrix: (Units=GPa)
#
#
# Indices 1 2 3 4 5 6 
#
# 1 119.1735 25.0918 34.2086 0.0000 0.5856 0.0000
# 2 25.0918 62.0506 14.9000 0.0000 -0.6846 0.0000
# 3 34.2086 14.9000 97.6276 0.0000 -1.3529 0.0000
# 4 0.0000 0.0000 0.0000 26.8266 0.0000 3.4316
# 5 0.5856 -0.6846 -1.3529 0.0000 22.5763 0.0000
# 6 0.0000 0.0000 0.0000 3.4316 0.0000 14.2406
#
#
#
# Elastic Compliance Matrix: (Units=1/GPa)
#
#
# Indices 1 2 3 4 5 6 
#
# 1 0.009949 -0.003311 -0.002988 0.000000 -0.000538 0.000000
# 2 -0.003311 0.017834 -0.001554 0.000000 0.000534 0.000000
# 3 -0.002988 -0.001554 0.011537 0.000000 0.000722 0.000000
# 4 0.000000 0.000000 0.000000 0.038462 0.000000 -0.009268
# 5 -0.000538 0.000534 0.000722 0.000000 0.044368 0.000000
# 6 0.000000 0.000000 0.000000 -0.009268 0.000000 0.072455
#
#
# Mechanical properties :
#
#
# Convention : Reuss Voigt Hill
#
# Bulk Modulus (GPa) = 42.35013 47.47250 44.91131
# Shear Modulus (GPa) = 22.91656 26.37212 24.64434
#
# Velocity S-wave (km/s) = 3.39493 3.64191 3.52059
# Velocity P-wave (km/s) = 6.05531 6.44673 6.25408
#
# Compressibility (1/GPa) = 0.02361268
#
# Stress axis : x y z
#
# Youngs Moduli (GPa) = 100.51552 56.07258 86.67604
#
# Poissons Ratio (x) = 0.18568 0.25899
# Poissons Ratio (y) = 0.33285 0.13471
# Poissons Ratio (z) = 0.30035 0.08714
#
# Static dielectric constant tensor:
#      x y z
#    x 3.595000 0.000000 -0.074030 
#    y 0.000000 3.444120 0.000000 
#    z -0.074030 0.000000 3.900870 
# 
# 
# High freq. dielectric constant tensor:
#      x y z
#    x 1.770770 0.000000 -0.003310 
#    y 0.000000 1.767280 0.000000 
#    z -0.003310 0.000000 1.784490 
# 
# From -- ./inp_files/96879.got.cif
#   From: 2010.06.25/outbox.cif.g09.slc.cpg/sg12_49_cif.got.tgz:96879.got - 2010.06.28 00:19:55.
