data_PCOD8091047
_publ_section_title
;
Structure prediction by ZEFSAII (Michael W. Deem and Ramdas Pophale) SiO2 
 PCOD8091047
Probable space group: C 2/M
;
_chemical_formula_sum "Si O2"
_cell_formula_units_Z 40
_cell_length_a 15.468848
_cell_length_b 9.702636
_cell_length_c 17.493694
_cell_angle_alpha 90.000000
_cell_angle_beta 128.075904
_cell_angle_gamma 90.000000
_cell_volume 2066.860949
_symmetry_space_group_name_H-M "C 2/M"
_symmetry_group_IT_number 12
_symmetry_cell_setting 'monoclinic'
loop_
_space_group_symop_operation_xyz
x,y,z
-x,y,-z
-x,-y,-z
x,-y,z
1/2+x,1/2+y,z
1/2-x,1/2+y,-z
1/2-x,1/2-y,-z
1/2+x,1/2-y,z
loop_
_atom_site_type_symbol
_atom_site_label
_atom_site_fract_x
_atom_site_fract_y
_atom_site_fract_z
Si Si1 0.597561 0.785618 0.664104
Si Si2 0.675377 0.500000 0.389223
Si Si3 0.166044 0.785621 0.261580
Si Si4 0.063311 0.500000 0.244443
Si Si5 0.386846 0.500000 0.894557
Si Si6 0.924618 0.500000 0.566452
Si Si7 0.001900 0.000000 0.592166
Si Si8 0.342070 0.000000 0.179253
O O1 0.701456 0.785847 0.664224
O O2 0.565100 0.629100 0.661794
O O3 0.492059 0.866755 0.572551
O O4 0.631825 0.860466 0.760544
O O5 0.632209 0.365260 0.320397
O O6 0.805969 0.500000 0.464984
O O7 0.623253 0.500000 0.445237
O O8 0.116715 0.632894 0.233992
O O9 0.121682 0.864332 0.162561
O O10 0.085883 0.500000 0.347274
O O11 0.929345 0.500000 0.156303
O O12 0.289315 0.500000 0.906532
O O13 0.500000 0.500000 0.000000
O O14 0.000000 0.000000 0.500000
#
# Coordination Sequence:
#
# PCOD8091047 Si02
#       8
#     8   4   8   4   4   4   4   4
#     4   9  20  37  50  74 105 144 187 223 280 315
#     4  11  23  36  52  75 107 149 204 221 276 313
#     4  10  21  36  61  81 105 147 183 232 271 332
#     4  10  19  34  54  82 113 141 185 222 274 309
#     4   9  19  40  63  86 108 139 180 220 278 349
#     4  10  22  36  54  70 108 160 187 235 256 330
#     4  12  26  34  46  78 112 146 189 243 274 300
#     4   8  17  38  60  75 105 150 174 216 281 337
#
# _framework density 19.353019
#
# number of rings (size 3 to 8) (size 9 to 14) (size 15 to 20)
#    0.000    2.400    0.000    4.800    5.600    2.400 
#    0.000    1.500    0.000    0.000    0.000    0.000 
#    0.000    0.000    0.000    0.000    0.000    0.000 
#
# Total GULP energy -247839.518173 kJ/mol
# GULP energy per Si atom -12391.975909 kJ/mol
# Density = 1.930897 g / cm^3
# Si number density = 19.353019 Si / 1000 Ang^3
#
#
#
# Elastic Constant Matrix: (Units=GPa)
#
#
# Indices 1 2 3 4 5 6 
#
# 1 132.4705 56.2437 45.3141 0.0000 22.2556 0.0000
# 2 56.2437 174.4074 38.9230 0.0000 14.6829 0.0000
# 3 45.3141 38.9230 90.7228 0.0000 27.2436 0.0000
# 4 0.0000 0.0000 0.0000 7.4570 0.0000 6.0727
# 5 22.2556 14.6829 27.2436 0.0000 24.1159 0.0000
# 6 0.0000 0.0000 0.0000 6.0727 0.0000 26.8917
#
#
#
# Elastic Compliance Matrix: (Units=1/GPa)
#
#
# Indices 1 2 3 4 5 6 
#
# 1 0.010281 -0.002301 -0.002602 0.000000 -0.005147 0.000000
# 2 -0.002301 0.006879 -0.001789 0.000000 -0.000044 0.000000
# 3 -0.002602 -0.001789 0.018224 0.000000 -0.017097 0.000000
# 4 0.000000 0.000000 0.000000 0.164322 0.000000 -0.037107
# 5 -0.005147 -0.000044 -0.017097 0.000000 0.065557 0.000000
# 6 0.000000 0.000000 0.000000 -0.037107 0.000000 0.045566
#
#
# Mechanical properties :
#
#
# Convention : Reuss Voigt Hill
#
# Bulk Modulus (GPa) = 45.45616 75.39580 60.42598
# Shear Modulus (GPa) = 15.08089 28.83425 21.95757
#
# Velocity S-wave (km/s) = 2.79454 3.86412 3.37201
# Velocity P-wave (km/s) = 5.82679 7.67798 6.81553
#
# Compressibility (1/GPa) = 0.02199922
#
# Stress axis : x y z
#
# Youngs Moduli (GPa) = 97.26918 145.37634 54.87352
#
# Poissons Ratio (x) = 0.33456 0.14278
# Poissons Ratio (y) = 0.22385 0.09815
# Poissons Ratio (z) = 0.25310 0.26002
#
# Static dielectric constant tensor:
#      x y z
#    x 3.809740 0.000000 0.363410 
#    y 0.000000 3.678770 0.000000 
#    z 0.363410 0.000000 3.023010 
# 
# 
# High freq. dielectric constant tensor:
#      x y z
#    x 1.768750 0.000000 0.028350 
#    y 0.000000 1.764070 0.000000 
#    z 0.028350 0.000000 1.697350 
# 
# From -- ./inp_files/314573.got.cif
#   From: 2010.06.25/outbox.cif.g09.slc.cpg/sg12_158_cif.got.tgz:314573.got - 2010.06.28 00:19:55.
