data_PCOD8091946
_publ_section_title
;
Structure prediction by ZEFSAII (Michael W. Deem and Ramdas Pophale) SiO2 
 PCOD8091946
Probable space group: C 2/M
;
_chemical_formula_sum "Si O2"
_cell_formula_units_Z 56
_cell_length_a 22.760470
_cell_length_b 9.388566
_cell_length_c 16.246089
_cell_angle_alpha 90.000000
_cell_angle_beta 126.781153
_cell_angle_gamma 90.000000
_cell_volume 2780.500617
_symmetry_space_group_name_H-M "C 2/M"
_symmetry_group_IT_number 12
_symmetry_cell_setting 'monoclinic'
loop_
_space_group_symop_operation_xyz
x,y,z
-x,y,-z
-x,-y,-z
x,-y,z
1/2+x,1/2+y,z
1/2-x,1/2+y,-z
1/2-x,1/2-y,-z
1/2+x,1/2-y,z
loop_
_atom_site_type_symbol
_atom_site_label
_atom_site_fract_x
_atom_site_fract_y
_atom_site_fract_z
Si Si1 0.675930 0.163215 0.461050
Si Si2 0.429758 0.160464 0.215694
Si Si3 0.838211 0.162273 0.858047
Si Si4 0.038195 0.330753 0.447266
Si Si5 0.963216 0.163905 0.091236
Si Si6 0.892497 0.661913 0.770454
Si Si7 0.266328 0.159066 0.092563
O O1 0.750000 0.250000 0.500000
O O2 0.623513 0.216137 0.494739
O O3 0.621652 0.173854 0.337919
O O4 0.700475 0.000000 0.496306
O O5 0.486638 0.222191 0.329721
O O6 0.419975 0.266723 0.131123
O O7 0.350478 0.154267 0.190867
O O8 0.453645 0.000000 0.206762
O O9 0.829149 0.260893 0.769959
O O10 0.776751 0.224128 0.866919
O O11 0.822588 0.000000 0.818470
O O12 0.916999 0.175202 0.968822
O O13 0.037531 0.500000 0.451855
O O14 0.000000 0.270064 0.500000
O O15 0.036374 0.252792 0.142682
O O16 0.982019 0.000000 0.126813
O O17 0.899628 0.500000 0.805297
O O18 0.235964 0.000000 0.049445
O O19 0.250000 0.250000 0.000000
#
# Coordination Sequence:
#
# PCOD8091946 Si02
#       7
#     8   8   8   8   8   8   8
#     4  10  22  40  62  89 118 151 194 245 299 358
#     4  10  19  34  58  85 112 147 193 237 280 340
#     4  10  22  37  53  84 122 155 195 237 282 342
#     4   9  18  36  62  89 114 145 192 247 295 348
#     4  11  21  35  57  83 115 153 190 235 286 338
#     4  11  23  39  58  84 115 150 195 242 287 343
#     4  10  20  34  54  80 114 153 192 235 282 336
#
# _framework density 20.140256999999998
#
# number of rings (size 3 to 8) (size 9 to 14) (size 15 to 20)
#    0.000    1.857    2.857    1.286    0.000    5.714 
#    0.000    2.857    0.000    1.714    0.000    0.000 
#    0.000    0.000    0.000    0.000    0.000    0.000 
#
# Total GULP energy -346929.824787 kJ/mol
# GULP energy per Si atom -12390.350885 kJ/mol
# Density = 2.009442 g / cm^3
# Si number density = 20.140257 Si / 1000 Ang^3
#
#
#
# Elastic Constant Matrix: (Units=GPa)
#
#
# Indices 1 2 3 4 5 6 
#
# 1 152.8651 45.4285 20.8167 0.0000 -4.9593 0.0000
# 2 45.4285 84.8125 17.6726 0.0000 -7.5190 0.0000
# 3 20.8167 17.6726 35.5749 0.0000 -1.2132 0.0000
# 4 0.0000 0.0000 0.0000 22.0127 0.0000 -1.0388
# 5 -4.9593 -7.5190 -1.2132 0.0000 31.3383 0.0000
# 6 0.0000 0.0000 0.0000 -1.0388 0.0000 32.0714
#
#
#
# Elastic Compliance Matrix: (Units=1/GPa)
#
#
# Indices 1 2 3 4 5 6 
#
# 1 0.008035 -0.003683 -0.002863 0.000000 0.000277 0.000000
# 2 -0.003683 0.015110 -0.005254 0.000000 0.002839 0.000000
# 3 -0.002863 -0.005254 0.032379 0.000000 -0.000460 0.000000
# 4 0.000000 0.000000 0.000000 0.045498 0.000000 0.001474
# 5 0.000277 0.002839 -0.000460 0.000000 0.032617 0.000000
# 6 0.000000 0.000000 0.000000 0.001474 0.000000 0.031228
#
#
# Mechanical properties :
#
#
# Convention : Reuss Voigt Hill
#
# Bulk Modulus (GPa) = 31.32386 49.00977 40.16682
# Shear Modulus (GPa) = 25.11192 29.70679 27.40936
#
# Velocity S-wave (km/s) = 3.53491 3.84473 3.69307
# Velocity P-wave (km/s) = 5.67868 6.64051 6.17834
#
# Compressibility (1/GPa) = 0.03192454
#
# Stress axis : x y z
#
# Youngs Moduli (GPa) = 124.45589 66.18187 30.88381
#
# Poissons Ratio (x) = 0.24373 0.08841
# Poissons Ratio (y) = 0.45834 0.16228
# Poissons Ratio (z) = 0.35629 0.34775
#
# Static dielectric constant tensor:
#      x y z
#    x 4.299570 0.000000 -0.075650 
#    y 0.000000 3.416900 0.000000 
#    z -0.075650 0.000000 3.459070 
# 
# 
# High freq. dielectric constant tensor:
#      x y z
#    x 1.813360 0.000000 0.001730 
#    y 0.000000 1.761830 0.000000 
#    z 0.001730 0.000000 1.766030 
# 
# From -- ./inp_files/288395.got.cif
#   From: 2010.06.25/outbox.cif.g09.slc.cpg/sg12_145_cif.got.tgz:288395.got - 2010.06.28 00:19:55.
