data_PCOD8091974
_publ_section_title
;
Structure prediction by ZEFSAII (Michael W. Deem and Ramdas Pophale) SiO2 
 PCOD8091974
Probable space group: C 2/M
;
_chemical_formula_sum "Si O2"
_cell_formula_units_Z 56
_cell_length_a 9.294376
_cell_length_b 18.308032
_cell_length_c 27.729127
_cell_angle_alpha 90.000000
_cell_angle_beta 141.901964
_cell_angle_gamma 90.000000
_cell_volume 2911.317198
_symmetry_space_group_name_H-M "C 2/M"
_symmetry_group_IT_number 12
_symmetry_cell_setting 'monoclinic'
loop_
_space_group_symop_operation_xyz
x,y,z
-x,y,-z
-x,-y,-z
x,-y,z
1/2+x,1/2+y,z
1/2-x,1/2+y,-z
1/2-x,1/2-y,-z
1/2+x,1/2-y,z
loop_
_atom_site_type_symbol
_atom_site_label
_atom_site_fract_x
_atom_site_fract_y
_atom_site_fract_z
Si Si1 0.679513 0.820366 0.201365
Si Si2 0.868585 0.580986 0.362249
Si Si3 0.772372 0.083583 0.063377
Si Si4 0.215072 0.177637 0.021963
Si Si5 0.983351 0.918083 0.342566
Si Si6 0.048210 0.827528 0.215568
Si Si7 0.309324 0.826195 0.491266
O O1 0.439675 0.842822 0.112724
O O2 0.749744 0.884289 0.257287
O O3 0.880404 0.808033 0.215334
O O4 0.656536 0.746035 0.224238
O O5 0.942330 0.500000 0.365087
O O6 0.680213 0.575953 0.354455
O O7 0.763755 0.622638 0.288672
O O8 0.095627 0.621870 0.441556
O O9 0.905688 0.131567 0.137104
O O10 0.848981 0.000000 0.089428
O O11 0.500000 0.094513 0.000000
O O12 0.838964 0.109969 0.027388
O O13 0.250000 0.250000 0.000000
O O14 0.000000 0.192016 0.000000
O O15 0.076232 0.864964 0.409329
O O16 0.927679 0.000000 0.347407
O O17 0.500000 0.813330 0.500000
O O18 0.250000 0.750000 0.500000
#
# Coordination Sequence:
#
# PCOD8091974 Si02
#       7
#     8   8   8   8   8   8   8
#     4  11  22  35  59  83 111 149 189 235 282 337
#     4   9  18  33  56  83 112 145 186 231 274 325
#     4  11  23  39  59  83 112 148 191 237 288 344
#     4  12  23  39  61  85 114 150 193 237 288 341
#     4   9  19  35  56  84 113 146 188 233 277 329
#     4  11  21  36  57  85 112 147 190 234 283 334
#     4  10  19  34  58  86 113 145 185 227 276 329
#
# _framework density 19.235278999999998
#
# number of rings (size 3 to 8) (size 9 to 14) (size 15 to 20)
#    0.000    1.571    2.857    3.000    0.000    3.143 
#    0.000    0.000    0.000    3.429    0.000    0.000 
#    0.000    0.000    0.000    0.000    0.000    0.000 
#
# Total GULP energy -347265.318624 kJ/mol
# GULP energy per Si atom -12402.332808 kJ/mol
# Density = 1.919150 g / cm^3
# Si number density = 19.235279 Si / 1000 Ang^3
#
#
#
# Elastic Constant Matrix: (Units=GPa)
#
#
# Indices 1 2 3 4 5 6 
#
# 1 77.5770 46.4336 30.2823 -0.0002 -4.0974 -0.0001
# 2 46.4336 160.3826 72.6764 0.0001 -9.2276 0.0000
# 3 30.2823 72.6764 149.4440 0.0000 -7.8575 0.0007
# 4 -0.0002 0.0001 0.0000 28.6375 -0.0004 5.3619
# 5 -4.0974 -9.2276 -7.8575 -0.0004 19.1279 0.0000
# 6 -0.0001 0.0000 0.0007 5.3619 0.0000 15.3103
#
#
#
# Elastic Compliance Matrix: (Units=1/GPa)
#
#
# Indices 1 2 3 4 5 6 
#
# 1 0.015790 -0.003962 -0.001222 0.000000 0.000969 0.000000
# 2 -0.003962 0.009093 -0.003509 0.000000 0.002096 0.000000
# 3 -0.001222 -0.003509 0.008731 0.000000 0.001632 0.000000
# 4 0.000000 0.000000 0.000000 0.037370 0.000001 -0.013088
# 5 0.000969 0.002096 0.001632 0.000001 0.054169 -0.000001
# 6 0.000000 0.000000 0.000000 -0.013088 -0.000001 0.069899
#
#
# Mechanical properties :
#
#
# Convention : Reuss Voigt Hill
#
# Bulk Modulus (GPa) = 61.61963 76.24313 68.93138
# Shear Modulus (GPa) = 22.95186 28.48255 25.71720
#
# Velocity S-wave (km/s) = 3.45804 3.85222 3.66044
# Velocity P-wave (km/s) = 6.93169 7.71423 7.33340
#
# Compressibility (1/GPa) = 0.01622859
#
# Stress axis : x y z
#
# Youngs Moduli (GPa) = 63.33106 109.97680 114.53075
#
# Poissons Ratio (x) = 0.43574 0.13994
# Poissons Ratio (y) = 0.25092 0.40187
# Poissons Ratio (z) = 0.07738 0.38590
#
# Static dielectric constant tensor:
#      x y z
#    x 3.290350 0.000000 -0.151290 
#    y 0.000000 3.884000 -0.000010 
#    z -0.151290 -0.000010 3.745820 
# 
# 
# High freq. dielectric constant tensor:
#      x y z
#    x 1.716040 0.000000 -0.011220 
#    y 0.000000 1.760720 0.000000 
#    z -0.011220 0.000000 1.767870 
# 
# From -- ./inp_files/356712.got.cif
#   From: 2010.06.25/outbox.cif.g09.slc.cpg/sg12_179_cif.got.tgz:356712.got - 2010.06.28 00:19:55.
