data_PCOD8091487
_publ_section_title
;
Structure prediction by ZEFSAII (Michael W. Deem and Ramdas Pophale) SiO2 
 PCOD8091487
Probable space group: C 2/M
;
_chemical_formula_sum "Si O2"
_cell_formula_units_Z 64
_cell_length_a 29.917851
_cell_length_b 8.762794
_cell_length_c 18.412335
_cell_angle_alpha 90.000000
_cell_angle_beta 140.248795
_cell_angle_gamma 90.000000
_cell_volume 3086.682567
_symmetry_space_group_name_H-M "C 2/M"
_symmetry_group_IT_number 12
_symmetry_cell_setting 'monoclinic'
loop_
_space_group_symop_operation_xyz
x,y,z
-x,y,-z
-x,-y,-z
x,-y,z
1/2+x,1/2+y,z
1/2-x,1/2+y,-z
1/2-x,1/2-y,-z
1/2+x,1/2-y,z
loop_
_atom_site_type_symbol
_atom_site_label
_atom_site_fract_x
_atom_site_fract_y
_atom_site_fract_z
Si Si1 0.351868 0.179821 0.483639
Si Si2 0.436321 0.821025 0.868381
Si Si3 0.286440 0.822918 0.745236
Si Si4 0.062824 0.818680 0.288055
Si Si5 0.928914 0.825027 0.446548
Si Si6 0.917961 0.823526 0.163194
Si Si7 0.793029 0.175125 0.905128
Si Si8 0.832661 0.175657 0.190190
O O1 0.272276 0.229198 0.370661
O O2 0.372171 0.246912 0.587697
O O3 0.406125 0.236250 0.490110
O O4 0.355443 0.000000 0.491131
O O5 0.363180 0.777027 0.814135
O O6 0.439048 0.729540 0.797494
O O7 0.441674 0.000000 0.858663
O O8 0.500000 0.768573 0.000000
O O9 0.282362 0.786776 0.824799
O O10 0.270133 0.000000 0.713205
O O11 0.993003 0.751273 0.239300
O O12 0.067080 0.000000 0.297079
O O13 0.867115 0.810405 0.311917
O O14 0.000000 0.757127 0.500000
O O15 0.942450 0.000000 0.486447
O O16 0.883859 0.752039 0.193175
O O17 0.929143 0.000000 0.193777
O O18 0.869658 0.798449 0.032778
O O19 0.737302 0.222902 0.897185
O O20 0.781319 0.000000 0.867044
O O21 0.814341 0.000000 0.148324
#
# Coordination Sequence:
#
# PCOD8091487 Si02
#       8
#     8   8   8   8   8   8   8   8
#     4  12  25  41  62  90 126 162 206 262 312 360
#     4  10  23  44  69  98 129 159 199 254 313 371
#     4  11  23  41  65  90 122 166 208 248 310 381
#     4  11  23  42  67  92 122 161 207 253 307 372
#     4  10  20  36  60  86 119 166 214 256 305 368
#     4   9  20  37  58  87 121 162 205 248 302 368
#     4  11  21  35  57  88 125 158 201 257 306 356
#     4  10  19  34  56  82 118 162 207 247 298 365
#
# _framework density 20.734235999999999
#
# number of rings (size 3 to 8) (size 9 to 14) (size 15 to 20)
#    0.000    1.500    1.250    4.125    0.000    4.000 
#    0.000    5.000    0.000    0.000    0.000    0.000 
#    0.000    0.000    0.000    0.000    0.000    0.000 
#
# Total GULP energy -396896.602654 kJ/mol
# GULP energy per Si atom -12403.018833 kJ/mol
# Density = 2.068704 g / cm^3
# Si number density = 20.734236 Si / 1000 Ang^3
#
#
#
# Elastic Constant Matrix: (Units=GPa)
#
#
# Indices 1 2 3 4 5 6 
#
# 1 117.0452 44.0055 59.8948 0.0000 4.8637 0.0000
# 2 44.0055 81.2485 45.4718 0.0000 -1.0496 0.0000
# 3 59.8948 45.4718 107.0953 0.0000 -2.2171 0.0000
# 4 0.0000 0.0000 0.0000 26.7340 0.0000 -7.8332
# 5 4.8637 -1.0496 -2.2171 0.0000 37.5407 0.0000
# 6 0.0000 0.0000 0.0000 -7.8332 0.0000 28.7121
#
#
#
# Elastic Compliance Matrix: (Units=1/GPa)
#
#
# Indices 1 2 3 4 5 6 
#
# 1 0.012991 -0.003900 -0.005654 0.000000 -0.002126 0.000000
# 2 -0.003900 0.017315 -0.005157 0.000000 0.000685 0.000000
# 3 -0.005654 -0.005157 0.014719 0.000000 0.001458 0.000000
# 4 0.000000 0.000000 0.000000 0.040655 0.000000 0.011092
# 5 -0.002126 0.000685 0.001458 0.000000 0.027018 0.000000
# 6 0.000000 0.000000 0.000000 0.011092 0.000000 0.037855
#
#
# Mechanical properties :
#
#
# Convention : Reuss Voigt Hill
#
# Bulk Modulus (GPa) = 64.08160 67.12590 65.60375
# Shear Modulus (GPa) = 27.00134 28.99847 27.99991
#
# Velocity S-wave (km/s) = 3.61260 3.74382 3.67879
# Velocity P-wave (km/s) = 6.95517 7.15073 7.05363
#
# Compressibility (1/GPa) = 0.01560510
#
# Stress axis : x y z
#
# Youngs Moduli (GPa) = 76.97380 57.75404 67.93838
#
# Poissons Ratio (x) = 0.22521 0.38412
# Poissons Ratio (y) = 0.30016 0.35034
# Poissons Ratio (z) = 0.43521 0.29782
#
# Static dielectric constant tensor:
#      x y z
#    x 3.966730 0.000000 0.187660 
#    y 0.000000 3.529000 0.000000 
#    z 0.187660 0.000000 3.862210 
# 
# 
# High freq. dielectric constant tensor:
#      x y z
#    x 1.818670 0.000000 0.003910 
#    y 0.000000 1.792160 0.000000 
#    z 0.003910 0.000000 1.825130 
# 
# From -- ./inp_files/295713.got.cif
#   From: 2010.06.25/outbox.cif.g09.slc.cpg/sg12_148_cif.got.tgz:295713.got - 2010.06.28 00:19:55.
