data_PCOD8091120
_publ_section_title
;
Structure prediction by ZEFSAII (Michael W. Deem and Ramdas Pophale) SiO2 
 PCOD8091120
Probable space group: C 2/M
;
_chemical_formula_sum "Si O2"
_cell_formula_units_Z 48
_cell_length_a 20.366144
_cell_length_b 9.446800
_cell_length_c 14.033238
_cell_angle_alpha 90.000000
_cell_angle_beta 90.147534
_cell_angle_gamma 90.000000
_cell_volume 2699.914319
_symmetry_space_group_name_H-M "C 2/M"
_symmetry_group_IT_number 12
_symmetry_cell_setting 'monoclinic'
loop_
_space_group_symop_operation_xyz
x,y,z
-x,y,-z
-x,-y,-z
x,-y,z
1/2+x,1/2+y,z
1/2-x,1/2+y,-z
1/2-x,1/2-y,-z
1/2+x,1/2-y,z
loop_
_atom_site_type_symbol
_atom_site_label
_atom_site_fract_x
_atom_site_fract_y
_atom_site_fract_z
Si Si1 0.515391 0.836559 0.608506
Si Si2 0.428312 0.666748 0.102062
Si Si3 0.884252 0.665691 0.718234
Si Si4 0.759376 0.334980 0.596600
Si Si5 0.628326 0.334559 0.703426
Si Si6 0.422991 0.332374 0.892110
O O1 0.500000 0.802695 0.500000
O O2 0.452860 0.792484 0.670507
O O3 0.577992 0.745047 0.635549
O O4 0.533447 0.000000 0.623746
O O5 0.433123 0.500000 0.096130
O O6 0.380382 0.717632 0.186885
O O7 0.502091 0.720572 0.122938
O O8 0.401578 0.717216 0.998772
O O9 0.878855 0.500000 0.740836
O O10 0.826720 0.712803 0.646508
O O11 0.876979 0.751300 0.816746
O O12 0.760487 0.500000 0.570133
O O13 0.750000 0.250000 0.500000
O O14 0.701575 0.299096 0.670638
O O15 0.612355 0.500000 0.695474
O O16 0.414934 0.500000 0.876723
#
# Coordination Sequence:
#
# PCOD8091120 Si02
#       6
#     8   8   8   8   8   8
#     4  10  20  33  50  72 101 134 166 208 259 306
#     4   8  15  29  51  78 104 129 165 212 256 295
#     4  10  20  34  50  74 106 136 167 207 258 308
#     4  10  22  38  55  74 102 140 174 209 255 304
#     4  10  19  34  55  77  99 129 173 217 251 291
#     4   9  16  30  53  77 102 134 169 207 252 302
#
# _framework density 17.778343
#
# number of rings (size 3 to 8) (size 9 to 14) (size 15 to 20)
#    0.000    2.500    1.667    2.000    0.000    3.000 
#    0.000    3.333    0.000    0.000    0.000    0.000 
#    0.000    0.000    0.000    0.000    0.000    0.000 
#
# Total GULP energy -297559.450847 kJ/mol
# GULP energy per Si atom -12398.310452 kJ/mol
# Density = 1.773788 g / cm^3
# Si number density = 17.778343 Si / 1000 Ang^3
#
#
#
# Elastic Constant Matrix: (Units=GPa)
#
#
# Indices 1 2 3 4 5 6 
#
# 1 36.8458 24.9887 34.7186 0.0000 14.3242 0.0000
# 2 24.9887 39.5348 43.5328 0.0000 7.9207 0.0000
# 3 34.7186 43.5328 133.1594 0.0000 2.8899 0.0000
# 4 0.0000 0.0000 0.0000 31.2646 0.0000 5.2507
# 5 14.3242 7.9207 2.8899 0.0000 29.0999 0.0000
# 6 0.0000 0.0000 0.0000 5.2507 0.0000 22.9676
#
#
#
# Elastic Compliance Matrix: (Units=1/GPa)
#
#
# Indices 1 2 3 4 5 6 
#
# 1 0.059197 -0.026002 -0.006469 0.000000 -0.021420 0.000000
# 2 -0.026002 0.053746 -0.010775 0.000000 -0.000760 0.000000
# 3 -0.006469 -0.010775 0.012613 0.000000 0.004864 0.000000
# 4 0.000000 0.000000 0.000000 0.033262 0.000000 -0.007604
# 5 -0.021420 -0.000760 0.004864 0.000000 0.044632 0.000000
# 6 0.000000 0.000000 0.000000 -0.007604 0.000000 0.045278
#
#
# Mechanical properties :
#
#
# Convention : Reuss Voigt Hill
#
# Bulk Modulus (GPa) = 25.59851 46.22447 35.91149
# Shear Modulus (GPa) = 14.35783 23.75308 19.05545
#
# Velocity S-wave (km/s) = 2.84492 3.65919 3.27744
# Velocity P-wave (km/s) = 5.02209 6.62645 5.87925
#
# Compressibility (1/GPa) = 0.03906477
#
# Stress axis : x y z
#
# Youngs Moduli (GPa) = 16.89264 18.60605 79.28106
#
# Poissons Ratio (x) = 0.48380 0.51286
# Poissons Ratio (y) = 0.43925 0.85423
# Poissons Ratio (z) = 0.10928 0.20047
#
# Static dielectric constant tensor:
#      x y z
#    x 3.237030 0.000000 -0.128280 
#    y 0.000000 3.059420 0.000000 
#    z -0.128280 0.000000 3.621790 
# 
# 
# High freq. dielectric constant tensor:
#      x y z
#    x 1.672390 0.000000 -0.003560 
#    y 0.000000 1.665540 0.000000 
#    z -0.003560 0.000000 1.705010 
# 
# From -- ./inp_files/153738.got.cif
#   From: 2010.06.25/outbox.cif.g09.slc.cpg/sg12_77_cif.got.tgz:153738.got - 2010.06.28 00:19:55.
