data_PCOD8091323
_publ_section_title
;
Structure prediction by ZEFSAII (Michael W. Deem and Ramdas Pophale) SiO2 
 PCOD8091323
Probable space group: C 2/M
;
_chemical_formula_sum "Si O2"
_cell_formula_units_Z 56
_cell_length_a 19.116395
_cell_length_b 10.285730
_cell_length_c 19.163071
_cell_angle_alpha 90.000000
_cell_angle_beta 55.742081
_cell_angle_gamma 90.000000
_cell_volume 3114.263558
_symmetry_space_group_name_H-M "C 2/M"
_symmetry_group_IT_number 12
_symmetry_cell_setting 'monoclinic'
loop_
_space_group_symop_operation_xyz
x,y,z
-x,y,-z
-x,-y,-z
x,-y,z
1/2+x,1/2+y,z
1/2-x,1/2+y,-z
1/2-x,1/2-y,-z
1/2+x,1/2-y,z
loop_
_atom_site_type_symbol
_atom_site_label
_atom_site_fract_x
_atom_site_fract_y
_atom_site_fract_z
Si Si1 0.836934 0.361094 0.981534
Si Si2 0.817356 0.230098 0.855254
Si Si3 0.602727 0.347189 0.762259
Si Si4 0.459221 0.149313 0.596654
Si Si5 0.228832 0.650380 0.263208
Si Si6 0.536560 0.645402 0.055566
Si Si7 0.006870 0.850785 0.303604
O O1 0.881124 0.500000 0.972762
O O2 0.833398 0.349586 0.899311
O O3 0.883384 0.239384 0.990101
O O4 0.743756 0.367652 0.068606
O O5 0.772942 0.275653 0.809109
O O6 0.906532 0.160897 0.788862
O O7 0.604636 0.500000 0.772124
O O8 0.695984 0.292134 0.729760
O O9 0.533486 0.290494 0.854551
O O10 0.573700 0.313848 0.699891
O O11 0.500000 0.182704 0.500000
O O12 0.358704 0.170965 0.646285
O O13 0.497933 0.248979 0.630627
O O14 0.478962 0.000000 0.608231
O O15 0.244783 0.500000 0.237410
O O16 0.563699 0.500000 0.064928
O O17 0.500000 0.637300 0.000000
O O18 0.999444 0.000000 0.334762
#
# Coordination Sequence:
#
# PCOD8091323 Si02
#       7
#     8   8   8   8   8   8   8
#     4  11  22  32  48  73 104 138 179 228 273 312
#     4  10  20  33  49  72 104 139 179 220 266 311
#     4   9  17  31  50  75 101 134 179 220 257 299
#     4   9  19  36  58  84 110 134 164 208 262 319
#     4   9  17  32  55  77 100 134 178 214 250 311
#     4  10  20  34  51  70  99 140 184 228 268 310
#     4  10  19  34  56  78 104 137 174 218 262 307
#
# _framework density 17.981779
#
# number of rings (size 3 to 8) (size 9 to 14) (size 15 to 20)
#    0.000    2.286    1.429    1.714    0.000    5.143 
#    0.000    0.714    0.000    5.143    0.000    0.000 
#    0.000    0.000    0.000    0.000    0.000    0.000 
#
# Total GULP energy -347026.203392 kJ/mol
# GULP energy per Si atom -12393.792978 kJ/mol
# Density = 1.794085 g / cm^3
# Si number density = 17.981779 Si / 1000 Ang^3
#
#
#
# Elastic Constant Matrix: (Units=GPa)
#
#
# Indices 1 2 3 4 5 6 
#
# 1 128.1066 49.5938 37.5217 0.0000 7.7538 0.0000
# 2 49.5938 94.8032 37.1519 0.0000 7.5914 0.0000
# 3 37.5217 37.1519 95.6742 0.0000 13.8623 0.0000
# 4 0.0000 0.0000 0.0000 5.9798 0.0000 3.5780
# 5 7.7538 7.5914 13.8623 0.0000 17.1590 0.0000
# 6 0.0000 0.0000 0.0000 3.5780 0.0000 21.3813
#
#
#
# Elastic Compliance Matrix: (Units=1/GPa)
#
#
# Indices 1 2 3 4 5 6 
#
# 1 0.010203 -0.004421 -0.002152 0.000000 -0.000916 0.000000
# 2 -0.004421 0.014407 -0.003654 0.000000 -0.001424 0.000000
# 3 -0.002152 -0.003654 0.013976 0.000000 -0.008702 0.000000
# 4 0.000000 0.000000 0.000000 0.185837 0.000000 -0.031099
# 5 -0.000916 -0.001424 -0.008702 0.000000 0.066352 0.000000
# 6 0.000000 0.000000 0.000000 -0.031099 0.000000 0.051974
#
#
# Mechanical properties :
#
#
# Convention : Reuss Voigt Hill
#
# Bulk Modulus (GPa) = 55.15250 63.01322 59.08286
# Shear Modulus (GPa) = 13.54105 21.85846 17.69975
#
# Velocity S-wave (km/s) = 2.74714 3.49031 3.14078
# Velocity P-wave (km/s) = 6.38751 7.16672 6.78831
#
# Compressibility (1/GPa) = 0.01813154
#
# Stress axis : x y z
#
# Youngs Moduli (GPa) = 98.00833 69.41116 71.55127
#
# Poissons Ratio (x) = 0.30685 0.15399
# Poissons Ratio (y) = 0.43328 0.26148
# Poissons Ratio (z) = 0.21092 0.25365
#
# Static dielectric constant tensor:
#      x y z
#    x 3.503770 0.000000 -0.078100 
#    y 0.000000 3.150300 0.000000 
#    z -0.078100 0.000000 3.213160 
# 
# 
# High freq. dielectric constant tensor:
#      x y z
#    x 1.698780 0.000000 0.000220 
#    y 0.000000 1.677170 0.000000 
#    z 0.000220 0.000000 1.682370 
# 
# From -- ./inp_files/276940.got.cif
#   From: 2010.06.25/outbox.cif.g09.slc.cpg/sg12_139_cif.got.tgz:276940.got - 2010.06.28 00:19:55.
