data_PCOD8091360
_publ_section_title
;
Structure prediction by ZEFSAII (Michael W. Deem and Ramdas Pophale) SiO2 
 PCOD8091360
Probable space group: C 2/M
;
_chemical_formula_sum "Si O2"
_cell_formula_units_Z 48
_cell_length_a 16.018865
_cell_length_b 8.849226
_cell_length_c 17.084093
_cell_angle_alpha 90.000000
_cell_angle_beta 89.534431
_cell_angle_gamma 90.000000
_cell_volume 2421.668079
_symmetry_space_group_name_H-M "C 2/M"
_symmetry_group_IT_number 12
_symmetry_cell_setting 'monoclinic'
loop_
_space_group_symop_operation_xyz
x,y,z
-x,y,-z
-x,-y,-z
x,-y,z
1/2+x,1/2+y,z
1/2-x,1/2+y,-z
1/2-x,1/2-y,-z
1/2+x,1/2-y,z
loop_
_atom_site_type_symbol
_atom_site_label
_atom_site_fract_x
_atom_site_fract_y
_atom_site_fract_z
Si Si1 0.835825 0.679169 0.820097
Si Si2 0.593100 0.823083 0.338635
Si Si3 0.503242 0.179340 0.089061
Si Si4 0.660525 0.820729 0.499559
Si Si5 0.596076 0.823687 0.666826
Si Si6 0.849715 0.822370 0.181873
O O1 0.844661 0.500000 0.817412
O O2 0.849045 0.742630 0.731507
O O3 0.742747 0.723793 0.850310
O O4 0.909634 0.742937 0.875469
O O5 0.614218 0.752285 0.423306
O O6 0.499447 0.786830 0.313706
O O7 0.606806 0.000000 0.347426
O O8 0.421489 0.239512 0.133304
O O9 0.499968 0.000000 0.095476
O O10 0.500000 0.235581 0.000000
O O11 0.750000 0.750000 0.500000
O O12 0.612866 0.769686 0.578221
O O13 0.666091 0.000000 0.496136
O O14 0.650025 0.726696 0.727267
O O15 0.617049 0.000000 0.677891
O O16 0.864074 0.000000 0.175206
#
# Coordination Sequence:
#
# PCOD8091360 Si02
#       6
#     8   8   8   8   8   8
#     4   9  18  34  57  83 113 150 186 224 277 339
#     4   9  16  31  55  77 103 144 193 231 267 325
#     4  10  21  40  64  86 111 148 191 229 272 338
#     4  10  20  32  50  78 108 145 190 236 279 327
#     4  10  19  34  56  79 107 147 197 236 269 330
#     4  11  22  36  58  87 117 148 184 231 289 338
#
# _framework density 19.821048000000001
#
# number of rings (size 3 to 8) (size 9 to 14) (size 15 to 20)
#    0.000    2.167    1.667    2.000    0.000    5.000 
#    0.000    2.500    0.000    2.000    0.000    0.000 
#    0.000    0.000    0.000    0.000    0.000    0.000 
#
# Total GULP energy -297482.113081 kJ/mol
# GULP energy per Si atom -12395.088045 kJ/mol
# Density = 1.977593 g / cm^3
# Si number density = 19.821048 Si / 1000 Ang^3
#
#
#
# Elastic Constant Matrix: (Units=GPa)
#
#
# Indices 1 2 3 4 5 6 
#
# 1 113.5424 11.7328 68.0803 0.0000 5.7534 0.0000
# 2 11.7328 13.0632 18.2957 0.0000 0.9962 0.0000
# 3 68.0803 18.2957 140.3947 0.0000 11.3914 0.0000
# 4 0.0000 0.0000 0.0000 18.9080 0.0000 -2.5044
# 5 5.7534 0.9962 11.3914 0.0000 25.4377 0.0000
# 6 0.0000 0.0000 0.0000 -2.5044 0.0000 28.7091
#
#
#
# Elastic Compliance Matrix: (Units=1/GPa)
#
#
# Indices 1 2 3 4 5 6 
#
# 1 0.012538 -0.003367 -0.005626 0.000000 -0.000184 0.000000
# 2 -0.003367 0.094632 -0.010855 0.000000 0.001916 0.000000
# 3 -0.005626 -0.010855 0.011547 0.000000 -0.003474 0.000000
# 4 0.000000 0.000000 0.000000 0.053506 0.000000 0.004668
# 5 -0.000184 0.001916 -0.003474 0.000000 0.040834 0.000000
# 6 0.000000 0.000000 0.000000 0.004668 0.000000 0.035239
#
#
# Mechanical properties :
#
#
# Convention : Reuss Voigt Hill
#
# Bulk Modulus (GPa) = 12.65490 51.46866 32.06178
# Shear Modulus (GPa) = 15.90672 25.87040 20.88856
#
# Velocity S-wave (km/s) = 2.83595 3.61667 3.24984
# Velocity P-wave (km/s) = 4.13786 6.59268 5.50388
#
# Compressibility (1/GPa) = 0.07902075
#
# Stress axis : x y z
#
# Youngs Moduli (GPa) = 79.75720 10.56730 86.59947
#
# Poissons Ratio (x) = 0.03558 0.48723
# Poissons Ratio (y) = 0.26856 0.94001
# Poissons Ratio (z) = 0.44873 0.11470
#
# Static dielectric constant tensor:
#      x y z
#    x 3.853440 0.000000 -0.016800 
#    y 0.000000 3.008210 0.000000 
#    z -0.016800 0.000000 4.156730 
# 
# 
# High freq. dielectric constant tensor:
#      x y z
#    x 1.787140 0.000000 0.001440 
#    y 0.000000 1.724620 0.000000 
#    z 0.001440 0.000000 1.782500 
# 
# From -- ./inp_files/267699.got.cif
#   From: 2010.06.25/outbox.cif.g09.slc.cpg/sg12_134_cif.got.tgz:267699.got - 2010.06.28 00:19:55.
