data_PCOD8091923
_publ_section_title
;
Structure prediction by ZEFSAII (Michael W. Deem and Ramdas Pophale) SiO2 
 PCOD8091923
Probable space group: C 2/M
;
_chemical_formula_sum "Si O2"
_cell_formula_units_Z 64
_cell_length_a 18.891110
_cell_length_b 8.912807
_cell_length_c 30.062318
_cell_angle_alpha 90.000000
_cell_angle_beta 39.054137
_cell_angle_gamma 90.000000
_cell_volume 3189.132035
_symmetry_space_group_name_H-M "C 2/M"
_symmetry_group_IT_number 12
_symmetry_cell_setting 'monoclinic'
loop_
_space_group_symop_operation_xyz
x,y,z
-x,y,-z
-x,-y,-z
x,-y,z
1/2+x,1/2+y,z
1/2-x,1/2+y,-z
1/2-x,1/2-y,-z
1/2+x,1/2-y,z
loop_
_atom_site_type_symbol
_atom_site_label
_atom_site_fract_x
_atom_site_fract_y
_atom_site_fract_z
Si Si1 0.525430 0.675107 0.317150
Si Si2 0.669625 0.679584 0.076020
Si Si3 0.567297 0.332006 0.832528
Si Si4 0.787696 0.322727 0.435796
Si Si5 0.795745 0.171811 0.842232
Si Si6 0.688307 0.821129 0.309550
Si Si7 0.368926 0.673683 0.571098
Si Si8 0.583071 0.667080 0.924386
O O1 0.505301 0.500000 0.337738
O O2 0.409443 0.758831 0.365098
O O3 0.587595 0.698765 0.239850
O O4 0.594232 0.744191 0.324754
O O5 0.669873 0.500000 0.070209
O O6 0.541571 0.744088 0.136709
O O7 0.707983 0.733663 0.105809
O O8 0.750000 0.750000 0.000000
O O9 0.580303 0.500000 0.807532
O O10 0.688019 0.255294 0.764201
O O11 0.529162 0.332099 0.902379
O O12 0.794236 0.500000 0.438825
O O13 0.750000 0.250000 0.500000
O O14 0.699997 0.280021 0.439515
O O15 0.701320 0.253937 0.860358
O O16 0.763119 0.000000 0.858734
O O17 0.670318 0.778547 0.369509
O O18 0.679909 0.000000 0.306889
O O19 0.500000 0.704083 0.500000
O O20 0.346621 0.500000 0.594008
O O21 0.605893 0.500000 0.931182
O O22 0.500000 0.749792 0.000000
#
# Coordination Sequence:
#
# PCOD8091923 Si02
#       8
#     8   8   8   8   8   8   8   8
#     4  11  23  40  62  89 126 167 205 254 309 359
#     4  10  21  39  58  81 114 153 199 249 307 366
#     4   9  19  35  56  83 116 151 193 248 300 351
#     4  11  24  42  67  98 130 165 204 247 297 359
#     4  10  22  37  57  84 117 157 198 248 305 360
#     4  11  22  38  64  92 121 161 207 255 302 362
#     4  10  23  43  65  92 128 163 195 243 302 354
#     4  10  19  34  58  84 112 151 197 246 301 357
#
# _framework density 20.068155999999998
#
# number of rings (size 3 to 8) (size 9 to 14) (size 15 to 20)
#    0.000    1.750    1.250    2.625    1.750    4.500 
#    0.000    1.875    0.000    0.000    0.000    0.000 
#    0.000    0.000    0.000    0.000    0.000    0.000 
#
# Total GULP energy -396698.134046 kJ/mol
# GULP energy per Si atom -12396.816689 kJ/mol
# Density = 2.002248 g / cm^3
# Si number density = 20.068156 Si / 1000 Ang^3
#
#
#
# Elastic Constant Matrix: (Units=GPa)
#
#
# Indices 1 2 3 4 5 6 
#
# 1 120.2772 42.2359 45.6803 0.0023 -7.2545 0.0073
# 2 42.2359 64.3292 39.8342 0.0022 1.7248 0.0029
# 3 45.6803 39.8342 103.7113 0.0003 -2.9699 0.0007
# 4 0.0023 0.0022 0.0003 34.0142 0.0001 1.3297
# 5 -7.2545 1.7248 -2.9699 0.0001 43.5360 0.0014
# 6 0.0073 0.0029 0.0007 1.3297 0.0014 25.4945
#
#
#
# Elastic Compliance Matrix: (Units=1/GPa)
#
#
# Indices 1 2 3 4 5 6 
#
# 1 0.011566 -0.005940 -0.002756 0.000000 0.001975 -0.000003
# 2 -0.005940 0.023525 -0.006487 -0.000001 -0.002364 -0.000001
# 3 -0.002756 -0.006487 0.013368 0.000000 0.000710 0.000001
# 4 0.000000 -0.000001 0.000000 0.029460 0.000000 -0.001537
# 5 0.001975 -0.002364 0.000710 0.000000 0.023441 -0.000002
# 6 -0.000003 -0.000001 0.000001 -0.001537 -0.000002 0.039304
#
#
# Mechanical properties :
#
#
# Convention : Reuss Voigt Hill
#
# Bulk Modulus (GPa) = 55.27123 60.42427 57.84775
# Shear Modulus (GPa) = 28.23878 31.31342 29.77610
#
# Velocity S-wave (km/s) = 3.75526 3.95442 3.85612
# Velocity P-wave (km/s) = 6.81206 7.14316 6.97958
#
# Compressibility (1/GPa) = 0.01809260
#
# Stress axis : x y z
#
# Youngs Moduli (GPa) = 86.46161 42.50738 74.80455
#
# Poissons Ratio (x) = 0.25249 0.20618
# Poissons Ratio (y) = 0.51357 0.48528
# Poissons Ratio (z) = 0.23831 0.27576
#
# Static dielectric constant tensor:
#      x y z
#    x 3.770480 0.000000 -0.051030 
#    y 0.000000 3.519780 0.000010 
#    z -0.051030 0.000010 3.859500 
# 
# 
# High freq. dielectric constant tensor:
#      x y z
#    x 1.794810 0.000000 -0.001300 
#    y 0.000000 1.764300 0.000000 
#    z -0.001300 0.000000 1.799000 
# 
# From -- ./inp_files/378226.got.cif
#   From: 2010.06.25/outbox.cif.g09.slc.cpg/sg12_190_cif.got.tgz:378226.got - 2010.06.28 00:19:55.
