data_PCOD8091185
_publ_section_title
;
Structure prediction by ZEFSAII (Michael W. Deem and Ramdas Pophale) SiO2 
 PCOD8091185
Probable space group: C 2/M
;
_chemical_formula_sum "Si O2"
_cell_formula_units_Z 56
_cell_length_a 8.751443
_cell_length_b 21.017106
_cell_length_c 28.995457
_cell_angle_alpha 90.000000
_cell_angle_beta 147.223572
_cell_angle_gamma 90.000000
_cell_volume 2887.158244
_symmetry_space_group_name_H-M "C 2/M"
_symmetry_group_IT_number 12
_symmetry_cell_setting 'monoclinic'
loop_
_space_group_symop_operation_xyz
x,y,z
-x,y,-z
-x,-y,-z
x,-y,z
1/2+x,1/2+y,z
1/2-x,1/2+y,-z
1/2-x,1/2-y,-z
1/2+x,1/2-y,z
loop_
_atom_site_type_symbol
_atom_site_label
_atom_site_fract_x
_atom_site_fract_y
_atom_site_fract_z
Si Si1 0.506698 0.827837 0.277400
Si Si2 0.518489 0.825374 0.080204
Si Si3 0.936024 0.274044 0.357685
Si Si4 0.744895 0.425892 0.719621
Si Si5 0.215204 0.339927 0.590162
Si Si6 0.418456 0.701102 0.105409
Si Si7 0.677853 0.927515 0.910356
O O1 0.645915 0.764728 0.290654
O O2 0.445022 0.820671 0.315953
O O3 0.683205 0.892027 0.311214
O O4 0.213340 0.834330 0.176168
O O5 0.433954 0.775983 0.098664
O O6 0.809637 0.805270 0.130288
O O7 0.537115 0.893468 0.109091
O O8 0.280876 0.832944 0.981289
O O9 0.962276 0.318659 0.409510
O O10 0.182173 0.222262 0.412645
O O11 0.667477 0.500000 0.692722
O O12 0.470595 0.387678 0.669730
O O13 0.027699 0.418689 0.822547
O O14 0.000000 0.374914 0.500000
O O15 0.683787 0.000000 0.926906
O O16 0.000000 0.900241 0.000000
#
# Coordination Sequence:
#
# PCOD8091185 Si02
#       7
#     8   8   8   8   8   8   8
#     4  10  19  34  55  79 114 148 181 230 282 335
#     4  10  22  33  50  81 111 143 188 228 283 335
#     4   9  20  33  57  91 111 144 183 225 285 348
#     4  10  23  39  57  82 111 152 199 233 275 337
#     4  10  20  37  61  88 119 147 180 233 285 340
#     4  10  21  32  50  82 113 145 174 235 288 329
#     4  10  22  39  59  77 108 154 196 235 271 326
#
# _framework density 19.396235000000001
#
# number of rings (size 3 to 8) (size 9 to 14) (size 15 to 20)
#    0.000    2.143    0.000    2.143   14.000    0.286 
#    0.000    2.857    0.000    0.857    0.000    0.000 
#    0.000    0.000    0.000    0.000    0.000    0.000 
#
# Total GULP energy -346916.921964 kJ/mol
# GULP energy per Si atom -12389.890070 kJ/mol
# Density = 1.935209 g / cm^3
# Si number density = 19.396235 Si / 1000 Ang^3
#
#
#
# Elastic Constant Matrix: (Units=GPa)
#
#
# Indices 1 2 3 4 5 6 
#
# 1 132.9809 52.5048 16.9805 -0.0072 -9.2933 -0.0010
# 2 52.5048 86.4506 18.0009 -0.0093 -14.5029 -0.0057
# 3 16.9805 18.0009 69.8898 -0.0536 -0.7993 -0.0301
# 4 -0.0072 -0.0093 -0.0536 38.6877 -0.0035 11.1082
# 5 -9.2933 -14.5029 -0.7993 -0.0035 15.0318 0.0010
# 6 -0.0010 -0.0057 -0.0301 11.1082 0.0010 32.0510
#
#
#
# Elastic Compliance Matrix: (Units=1/GPa)
#
#
# Indices 1 2 3 4 5 6 
#
# 1 0.009950 -0.005758 -0.000928 0.000000 0.000547 -0.000002
# 2 -0.005758 0.017993 -0.003079 0.000000 0.013637 0.000000
# 3 -0.000928 -0.003079 0.015296 0.000018 -0.002732 0.000008
# 4 0.000000 0.000000 0.000018 0.028704 0.000008 -0.009948
# 5 0.000547 0.013637 -0.002732 0.000008 0.079875 -0.000006
# 6 -0.000002 0.000000 0.000008 -0.009948 -0.000006 0.034648
#
#
# Mechanical properties :
#
#
# Convention : Reuss Voigt Hill
#
# Bulk Modulus (GPa) = 42.18050 51.58819 46.88435
# Shear Modulus (GPa) = 23.37534 30.60977 26.99256
#
# Velocity S-wave (km/s) = 3.47529 3.97688 3.73451
# Velocity P-wave (km/s) = 6.15609 6.90957 6.54369
#
# Compressibility (1/GPa) = 0.02370764
#
# Stress axis : x y z
#
# Youngs Moduli (GPa) = 100.50193 55.57641 65.37796
#
# Poissons Ratio (x) = 0.32001 0.06068
# Poissons Ratio (y) = 0.57870 0.20133
# Poissons Ratio (z) = 0.09328 0.17114
#
# Static dielectric constant tensor:
#      x y z
#    x 3.679430 0.000000 0.100920 
#    y 0.000000 3.301570 -0.000010 
#    z 0.100920 -0.000010 3.546260 
# 
# 
# High freq. dielectric constant tensor:
#      x y z
#    x 1.756870 0.000000 0.005140 
#    y 0.000000 1.725060 0.000000 
#    z 0.005140 0.000000 1.753780 
# 
# From -- ./inp_files/373165.got.cif
#   From: 2010.06.25/outbox.cif.g09.slc.cpg/sg12_187_cif.got.tgz:373165.got - 2010.06.28 00:19:55.
