data_PCOD8091258
_publ_section_title
;
Structure prediction by ZEFSAII (Michael W. Deem and Ramdas Pophale) SiO2 
 PCOD8091258
Probable space group: C 2/M
;
_chemical_formula_sum "Si O2"
_cell_formula_units_Z 64
_cell_length_a 34.362694
_cell_length_b 8.469641
_cell_length_c 18.317083
_cell_angle_alpha 90.000000
_cell_angle_beta 37.786656
_cell_angle_gamma 90.000000
_cell_volume 3266.425161
_symmetry_space_group_name_H-M "C 2/M"
_symmetry_group_IT_number 12
_symmetry_cell_setting 'monoclinic'
loop_
_space_group_symop_operation_xyz
x,y,z
-x,y,-z
-x,-y,-z
x,-y,z
1/2+x,1/2+y,z
1/2-x,1/2+y,-z
1/2-x,1/2-y,-z
1/2+x,1/2-y,z
loop_
_atom_site_type_symbol
_atom_site_label
_atom_site_fract_x
_atom_site_fract_y
_atom_site_fract_z
Si Si1 0.908373 0.814937 0.289833
Si Si2 0.647101 0.317067 0.920807
Si Si3 0.601145 0.813226 0.362530
Si Si4 0.344871 0.815392 0.247595
Si Si5 0.279598 0.315270 0.744984
Si Si6 0.989144 0.313281 0.629733
Si Si7 0.703341 0.313762 0.442995
Si Si8 0.468722 0.814339 0.822774
O O1 0.890663 0.783550 0.232226
O O2 0.852500 0.742813 0.424094
O O3 0.972496 0.722139 0.211843
O O4 0.919075 0.000000 0.287045
O O5 0.645023 0.500000 0.903251
O O6 0.635531 0.216032 0.864839
O O7 0.714211 0.274832 0.858737
O O8 0.592945 0.276788 0.058772
O O9 0.668845 0.728443 0.270402
O O10 0.553540 0.750237 0.496371
O O11 0.572200 0.762888 0.327122
O O12 0.610755 0.000000 0.353637
O O13 0.272463 0.755924 0.368111
O O14 0.352529 0.000000 0.252799
O O15 0.264637 0.500000 0.767630
O O16 0.306405 0.259947 0.626251
O O17 0.993220 0.500000 0.624296
O O18 0.983625 0.246924 0.719716
O O19 0.701052 0.500000 0.452429
O O20 0.454955 0.000000 0.842128
#
# Coordination Sequence:
#
# PCOD8091258 Si02
#       8
#     8   8   8   8   8   8   8   8
#     4  11  21  34  53  81 111 142 177 218 263 318
#     4  11  23  40  58  77 101 138 182 227 270 315
#     4   9  16  32  57  86 114 143 176 214 258 315
#     4  10  20  37  57  80 108 141 177 220 268 316
#     4  10  19  34  55  82 111 143 179 219 264 316
#     4   8  17  33  56  83 114 145 176 214 263 315
#     4   8  17  32  52  78 112 143 172 212 262 313
#     4  11  22  38  56  77 105 142 181 222 268 316
#
# _framework density 19.593285000000002
#
# number of rings (size 3 to 8) (size 9 to 14) (size 15 to 20)
#    0.000    2.250    0.000    5.250    0.000    0.500 
#    0.000   12.500    0.000    0.000    0.000    0.000 
#    0.000    0.000    0.000    0.000    0.000    0.000 
#
# Total GULP energy -396845.079630 kJ/mol
# GULP energy per Si atom -12401.408738 kJ/mol
# Density = 1.954869 g / cm^3
# Si number density = 19.593285 Si / 1000 Ang^3
#
#
#
# Elastic Constant Matrix: (Units=GPa)
#
#
# Indices 1 2 3 4 5 6 
#
# 1 115.1626 11.9023 40.0231 -0.0006 -20.6469 0.0001
# 2 11.9023 51.0323 15.4595 -0.0124 -4.2694 0.0052
# 3 40.0231 15.4595 92.3841 -0.0041 -11.7984 0.0025
# 4 -0.0006 -0.0124 -0.0041 24.8345 0.0045 -3.8592
# 5 -20.6469 -4.2694 -11.7984 0.0045 21.4428 -0.0007
# 6 0.0001 0.0052 0.0025 -3.8592 -0.0007 26.5105
#
#
#
# Elastic Compliance Matrix: (Units=1/GPa)
#
#
# Indices 1 2 3 4 5 6 
#
# 1 0.011699 -0.000830 -0.003777 -0.000002 0.009021 0.000000
# 2 -0.000830 0.020814 -0.002900 0.000009 0.001750 -0.000002
# 3 -0.003777 -0.002900 0.013346 0.000000 0.003128 -0.000001
# 4 -0.000002 0.000009 0.000000 0.041199 -0.000009 0.005997
# 5 0.009021 0.001750 0.003128 -0.000009 0.057392 0.000000
# 6 0.000000 -0.000002 -0.000001 0.005997 0.000000 0.038594
#
#
# Mechanical properties :
#
#
# Convention : Reuss Voigt Hill
#
# Bulk Modulus (GPa) = 32.42071 43.70544 38.06307
# Shear Modulus (GPa) = 23.99931 27.30383 25.65157
#
# Velocity S-wave (km/s) = 3.50362 3.73705 3.62222
# Velocity P-wave (km/s) = 5.74020 6.40121 6.07969
#
# Compressibility (1/GPa) = 0.03084448
#
# Stress axis : x y z
#
# Youngs Moduli (GPa) = 85.47500 48.04497 74.93034
#
# Poissons Ratio (x) = 0.03986 0.28305
# Poissons Ratio (y) = 0.07091 0.21731
# Poissons Ratio (z) = 0.32288 0.13934
#
# Static dielectric constant tensor:
#      x y z
#    x 3.637620 0.000000 0.023540 
#    y 0.000000 3.288540 0.000010 
#    z 0.023540 0.000010 3.642190 
# 
# 
# High freq. dielectric constant tensor:
#      x y z
#    x 1.766540 0.000000 -0.008310 
#    y 0.000000 1.746520 0.000000 
#    z -0.008310 0.000000 1.753040 
# 
# From -- ./inp_files/295509.got.cif
#   From: 2010.06.25/outbox.cif.g09.slc.cpg/sg12_148_cif.got.tgz:295509.got - 2010.06.28 00:19:55.
