data_PCOD8091153
_publ_section_title
;
Structure prediction by ZEFSAII (Michael W. Deem and Ramdas Pophale) SiO2 
 PCOD8091153
Probable space group: C 2/M
;
_chemical_formula_sum "Si O2"
_cell_formula_units_Z 56
_cell_length_a 29.893047
_cell_length_b 9.073432
_cell_length_c 15.818014
_cell_angle_alpha 90.000000
_cell_angle_beta 45.075542
_cell_angle_gamma 90.000000
_cell_volume 3037.739831
_symmetry_space_group_name_H-M "C 2/M"
_symmetry_group_IT_number 12
_symmetry_cell_setting 'monoclinic'
loop_
_space_group_symop_operation_xyz
x,y,z
-x,y,-z
-x,-y,-z
x,-y,z
1/2+x,1/2+y,z
1/2-x,1/2+y,-z
1/2-x,1/2-y,-z
1/2+x,1/2-y,z
loop_
_atom_site_type_symbol
_atom_site_label
_atom_site_fract_x
_atom_site_fract_y
_atom_site_fract_z
Si Si1 0.404363 0.826855 0.611861
Si Si2 0.281996 0.172210 0.684064
Si Si3 0.638602 0.672024 0.893545
Si Si4 0.533409 0.174938 0.132482
Si Si5 0.802876 0.171457 0.483473
Si Si6 0.082294 0.169754 0.788368
Si Si7 0.486352 0.175132 0.652834
O O1 0.330997 0.787070 0.693927
O O2 0.448647 0.765989 0.476410
O O3 0.428051 0.767669 0.671496
O O4 0.414880 0.000000 0.598260
O O5 0.211964 0.215642 0.806573
O O6 0.304590 0.264699 0.574351
O O7 0.285069 0.000000 0.655540
O O8 0.627602 0.500000 0.925467
O O9 0.616920 0.716082 0.828436
O O10 0.601163 0.766183 0.012331
O O11 0.480109 0.233196 0.139600
O O12 0.520867 0.239565 0.243207
O O13 0.533582 0.000000 0.129770
O O14 0.750000 0.250000 0.500000
O O15 0.870819 0.201012 0.351513
O O16 0.786420 0.000000 0.507406
O O17 0.061323 0.000000 0.819979
O O18 0.485965 0.000000 0.660536
#
# Coordination Sequence:
#
# PCOD8091153 Si02
#       7
#     8   8   8   8   8   8   8
#     4   8  14  28  54  79 102 132 165 206 261 319
#     4  10  19  34  55  79 104 138 180 213 253 310
#     4  10  21  37  51  68 103 144 178 211 256 315
#     4  11  22  34  52  78 103 131 177 226 261 298
#     4  11  21  34  53  78 108 138 169 210 258 306
#     4  10  21  37  53  72 102 140 175 210 258 312
#     4   8  15  29  49  79 108 127 159 216 269 302
#
# _framework density 18.434757000000001
#
# number of rings (size 3 to 8) (size 9 to 14) (size 15 to 20)
#    0.000    2.286    1.429    3.000    0.000    5.143 
#    0.000    0.714    0.000    1.714    0.000    7.000 
#    0.000    0.000    0.000    0.000    0.000    0.000 
#
# Total GULP energy -347163.922084 kJ/mol
# GULP energy per Si atom -12398.711503 kJ/mol
# Density = 1.839280 g / cm^3
# Si number density = 18.434757 Si / 1000 Ang^3
#
#
#
# Elastic Constant Matrix: (Units=GPa)
#
#
# Indices 1 2 3 4 5 6 
#
# 1 135.6479 28.7843 56.4385 -0.0001 -17.4635 0.0000
# 2 28.7843 42.0629 33.1179 -0.0001 -5.0772 0.0003
# 3 56.4385 33.1179 97.6321 0.0001 -12.3641 0.0000
# 4 -0.0001 -0.0001 0.0001 29.6153 -0.0001 -2.5360
# 5 -17.4635 -5.0772 -12.3641 -0.0001 25.0782 0.0000
# 6 0.0000 0.0003 0.0000 -2.5360 0.0000 16.4058
#
#
#
# Elastic Compliance Matrix: (Units=1/GPa)
#
#
# Indices 1 2 3 4 5 6 
#
# 1 0.010448 -0.003139 -0.004409 0.000000 0.004466 0.000000
# 2 -0.003139 0.033415 -0.009536 0.000000 -0.000122 0.000000
# 3 -0.004409 -0.009536 0.016418 0.000000 0.003093 0.000000
# 4 0.000000 0.000000 0.000000 0.034219 0.000000 0.005290
# 5 0.004466 -0.000122 0.003093 0.000000 0.044486 0.000000
# 6 0.000000 0.000000 0.000000 0.005290 0.000000 0.061772
#
#
# Mechanical properties :
#
#
# Convention : Reuss Voigt Hill
#
# Bulk Modulus (GPa) = 38.29532 56.89159 47.59346
# Shear Modulus (GPa) = 20.52308 24.68669 22.60488
#
# Velocity S-wave (km/s) = 3.34021 3.66339 3.50553
# Velocity P-wave (km/s) = 5.97449 6.98727 6.50063
#
# Compressibility (1/GPa) = 0.02611285
#
# Stress axis : x y z
#
# Youngs Moduli (GPa) = 95.71637 29.92671 60.90990
#
# Poissons Ratio (x) = 0.09393 0.26856
# Poissons Ratio (y) = 0.30044 0.58082
# Poissons Ratio (z) = 0.42203 0.28537
#
# Static dielectric constant tensor:
#      x y z
#    x 3.840480 0.000000 0.176020 
#    y 0.000000 3.196000 0.000000 
#    z 0.176020 0.000000 3.569460 
# 
# 
# High freq. dielectric constant tensor:
#      x y z
#    x 1.722430 0.000000 -0.005700 
#    y 0.000000 1.683990 0.000000 
#    z -0.005700 0.000000 1.711520 
# 
# From -- ./inp_files/248910.got.cif
#   From: 2010.06.25/outbox.cif.g09.slc.cpg/sg12_125_cif.got.tgz:248910.got - 2010.06.28 00:19:55.
