data_PCOD8091535
_publ_section_title
;
Structure prediction by ZEFSAII (Michael W. Deem and Ramdas Pophale) SiO2 
 PCOD8091535
Probable space group: C 2/M
;
_chemical_formula_sum "Si O2"
_cell_formula_units_Z 56
_cell_length_a 24.161418
_cell_length_b 14.149629
_cell_length_c 22.511533
_cell_angle_alpha 90.000000
_cell_angle_beta 159.043990
_cell_angle_gamma 90.000000
_cell_volume 2752.530054
_symmetry_space_group_name_H-M "C 2/M"
_symmetry_group_IT_number 12
_symmetry_cell_setting 'monoclinic'
loop_
_space_group_symop_operation_xyz
x,y,z
-x,y,-z
-x,-y,-z
x,-y,z
1/2+x,1/2+y,z
1/2-x,1/2+y,-z
1/2-x,1/2-y,-z
1/2+x,1/2-y,z
loop_
_atom_site_type_symbol
_atom_site_label
_atom_site_fract_x
_atom_site_fract_y
_atom_site_fract_z
Si Si1 0.334960 0.891994 0.555917
Si Si2 0.186189 0.209824 0.299458
Si Si3 0.178122 0.790663 0.068184
Si Si4 0.308849 0.848944 0.082276
Si Si5 0.182684 0.607615 0.681137
Si Si6 0.321548 0.398094 0.164746
Si Si7 0.320930 0.606665 0.473362
O O1 0.230235 0.828830 0.408275
O O2 0.507623 0.852044 0.728516
O O3 0.266276 0.882789 0.552122
O O4 0.335181 0.000000 0.533862
O O5 0.263528 0.142762 0.328825
O O6 0.247225 0.317846 0.353805
O O7 0.004246 0.207691 0.109429
O O8 0.235770 0.863200 0.074565
O O9 0.246766 0.824370 0.198846
O O10 0.230814 0.682805 0.109196
O O11 0.250000 0.750000 0.000000
O O12 0.246549 0.919688 0.969665
O O13 0.239505 0.500000 0.747793
O O14 0.000000 0.614074 0.500000
O O15 0.305456 0.500000 0.181852
O O16 0.499799 0.368030 0.337893
O O17 0.299503 0.500000 0.426782
#
# Coordination Sequence:
#
# PCOD8091535 Si02
#       7
#     8   8   8   8   8   8   8
#     4  11  22  36  57  87 121 158 198 240 291 347
#     4  12  23  39  61  85 119 155 193 241 291 345
#     4  11  24  39  59  87 118 154 194 240 291 347
#     4  10  19  34  56  84 119 155 193 235 285 342
#     4  11  25  45  66  86 112 149 194 242 289 341
#     4  10  20  37  60  87 120 155 193 239 290 345
#     4  10  21  37  60  89 120 155 195 240 290 345
#
# _framework density 20.344919000000001
#
# number of rings (size 3 to 8) (size 9 to 14) (size 15 to 20)
#    0.000    1.286    0.000    7.714    0.000    5.714 
#    0.000    0.714    0.000    4.286    0.000    0.000 
#    0.000    0.000    0.000    0.000    0.000    0.000 
#
# Total GULP energy -347173.135720 kJ/mol
# GULP energy per Si atom -12399.040561 kJ/mol
# Density = 2.029861 g / cm^3
# Si number density = 20.344919 Si / 1000 Ang^3
#
#
#
# Elastic Constant Matrix: (Units=GPa)
#
#
# Indices 1 2 3 4 5 6 
#
# 1 58.0399 30.0215 31.8987 0.0036 10.6621 -0.0024
# 2 30.0215 128.8437 48.6854 0.0227 3.9895 0.0055
# 3 31.8987 48.6854 112.7253 0.0521 8.5135 0.0168
# 4 0.0036 0.0227 0.0521 30.0794 0.0114 10.5273
# 5 10.6621 3.9895 8.5135 0.0114 37.9526 0.0003
# 6 -0.0024 0.0055 0.0168 10.5273 0.0003 31.2055
#
#
#
# Elastic Compliance Matrix: (Units=1/GPa)
#
#
# Indices 1 2 3 4 5 6 
#
# 1 0.022341 -0.003352 -0.004503 0.000009 -0.004914 0.000002
# 2 -0.003352 0.009778 -0.003324 -0.000002 0.000660 0.000000
# 3 -0.004503 -0.003324 0.011657 -0.000017 -0.001000 0.000000
# 4 0.000009 -0.000002 -0.000017 0.037696 -0.000010 -0.012717
# 5 -0.004914 0.000660 -0.001000 -0.000010 0.027884 0.000003
# 6 0.000002 0.000000 0.000000 -0.012717 0.000003 0.036336
#
#
# Mechanical properties :
#
#
# Convention : Reuss Voigt Hill
#
# Bulk Modulus (GPa) = 46.69226 57.86891 52.28059
# Shear Modulus (GPa) = 28.54048 32.44772 30.49410
#
# Velocity S-wave (km/s) = 3.74950 3.99793 3.87571
# Velocity P-wave (km/s) = 6.46105 7.05811 6.76617
#
# Compressibility (1/GPa) = 0.02141683
#
# Stress axis : x y z
#
# Youngs Moduli (GPa) = 44.76095 102.26929 85.78701
#
# Poissons Ratio (x) = 0.34279 0.38632
# Poissons Ratio (y) = 0.15003 0.28519
# Poissons Ratio (z) = 0.20157 0.33999
#
# Static dielectric constant tensor:
#      x y z
#    x 3.783270 0.000060 0.076680 
#    y 0.000060 4.323690 -0.000670 
#    z 0.076680 -0.000670 3.279870 
# 
# 
# High freq. dielectric constant tensor:
#      x y z
#    x 1.774960 0.000000 0.009510 
#    y 0.000000 1.813380 0.000000 
#    z 0.009510 0.000000 1.810350 
# 
# From -- ./inp_files/349786.got.cif
#   From: 2010.06.25/outbox.cif.g09.slc.cpg/sg12_175_cif.got.tgz:349786.got - 2010.06.28 00:19:55.
