data_PCOD8091770
_publ_section_title
;
Structure prediction by ZEFSAII (Michael W. Deem and Ramdas Pophale) SiO2 
 PCOD8091770
Probable space group: C 2/M
;
_chemical_formula_sum "Si O2"
_cell_formula_units_Z 56
_cell_length_a 17.659166
_cell_length_b 14.373120
_cell_length_c 11.493210
_cell_angle_alpha 90.000000
_cell_angle_beta 125.724081
_cell_angle_gamma 90.000000
_cell_volume 2368.274635
_symmetry_space_group_name_H-M "C 2/M"
_symmetry_group_IT_number 12
_symmetry_cell_setting 'monoclinic'
loop_
_space_group_symop_operation_xyz
x,y,z
-x,y,-z
-x,-y,-z
x,-y,z
1/2+x,1/2+y,z
1/2-x,1/2+y,-z
1/2-x,1/2-y,-z
1/2+x,1/2-y,z
loop_
_atom_site_type_symbol
_atom_site_label
_atom_site_fract_x
_atom_site_fract_y
_atom_site_fract_z
Si Si1 0.827044 0.399726 0.389635
Si Si2 0.550741 0.775685 0.865975
Si Si3 0.118541 0.889935 0.802417
Si Si4 0.345430 0.303280 0.410902
Si Si5 0.640504 0.601758 0.339216
Si Si6 0.299931 0.104123 0.105747
Si Si7 0.130443 0.729832 0.186210
O O1 0.883480 0.500000 0.439975
O O2 0.885894 0.303489 0.454492
O O3 0.752995 0.404695 0.427626
O O4 0.771540 0.390313 0.216139
O O5 0.540689 0.670049 0.803308
O O6 0.605026 0.836996 0.820216
O O7 0.450967 0.822308 0.810852
O O8 0.617180 0.778964 0.038112
O O9 0.118125 0.858805 0.667984
O O10 0.098776 0.000000 0.795696
O O11 0.216163 0.859337 0.949453
O O12 0.384386 0.356265 0.557254
O O13 0.232569 0.303416 0.314327
O O14 0.594127 0.500000 0.289234
O O15 0.606926 0.664153 0.201532
O O16 0.323470 0.000000 0.086910
#
# Coordination Sequence:
#
# PCOD8091770 Si02
#       7
#     8   8   8   8   8   8   8
#     4   9  17  30  55  83 105 140 189 238 282 328
#     4  11  21  38  57  88 123 155 185 242 303 360
#     4  11  21  33  57  88 115 153 199 242 289 347
#     4  11  19  37  60  82 116 155 199 242 285 338
#     4  10  21  37  58  86 115 152 202 243 281 344
#     4  10  19  34  57  84 115 151 193 243 292 346
#     4  10  22  36  60  83 119 159 193 235 300 351
#
# _framework density 23.645907000000001
#
# number of rings (size 3 to 8) (size 9 to 14) (size 15 to 20)
#    0.000    1.714    2.857    4.286    0.000    2.286 
#    0.000    5.000    0.000    2.571    0.000    5.000 
#    0.000    0.000    0.000    0.000    0.000    0.000 
#
# Total GULP energy -346897.439631 kJ/mol
# GULP energy per Si atom -12389.194273 kJ/mol
# Density = 2.359209 g / cm^3
# Si number density = 23.645907 Si / 1000 Ang^3
#
#
#
# Elastic Constant Matrix: (Units=GPa)
#
#
# Indices 1 2 3 4 5 6 
#
# 1 92.4885 10.5919 9.4004 0.0000 -17.2471 0.0000
# 2 10.5919 68.1877 -5.5682 0.0000 -9.8268 0.0000
# 3 9.4004 -5.5682 20.3069 0.0000 -12.3360 0.0000
# 4 0.0000 0.0000 0.0000 29.6087 0.0000 -11.7179
# 5 -17.2471 -9.8268 -12.3360 0.0000 31.4838 0.0000
# 6 0.0000 0.0000 0.0000 -11.7179 0.0000 13.1288
#
#
#
# Elastic Compliance Matrix: (Units=1/GPa)
#
#
# Indices 1 2 3 4 5 6 
#
# 1 0.012224 -0.001403 -0.002942 0.000000 0.005106 0.000000
# 2 -0.001403 0.017000 0.010587 0.000000 0.008686 0.000000
# 3 -0.002942 0.010587 0.071574 0.000000 0.029737 0.000000
# 4 0.000000 0.000000 0.000000 0.052219 0.000000 0.046608
# 5 0.005106 0.008686 0.029737 0.000000 0.048922 0.000000
# 6 0.000000 0.000000 0.000000 0.046608 0.000000 0.117768
#
#
# Mechanical properties :
#
#
# Convention : Reuss Voigt Hill
#
# Bulk Modulus (GPa) = 8.82752 23.31459 16.07106
# Shear Modulus (GPa) = 14.49347 25.94818 20.22082
#
# Velocity S-wave (km/s) = 2.47844 3.31624 2.92747
# Velocity P-wave (km/s) = 3.45421 4.95425 4.27061
#
# Compressibility (1/GPa) = 0.11328206
#
# Stress axis : x y z
#
# Youngs Moduli (GPa) = 81.80650 58.82480 13.97154
#
# Poissons Ratio (x) = 0.08254 0.04110
# Poissons Ratio (y) = 0.11479 -0.14792
# Poissons Ratio (z) = 0.24066 -0.62279
#
# Static dielectric constant tensor:
#      x y z
#    x 4.277450 0.000000 -0.222240 
#    y 0.000000 4.479300 0.000000 
#    z -0.222240 0.000000 3.916340 
# 
# 
# High freq. dielectric constant tensor:
#      x y z
#    x 1.941140 0.000000 -0.023540 
#    y 0.000000 1.931700 0.000000 
#    z -0.023540 0.000000 1.917500 
# 
# From -- ./inp_files/156745.got.cif
#   From: 2010.06.25/outbox.cif.g09.slc.cpg/sg12_79_cif.got.tgz:156745.got - 2010.06.28 00:19:55.
