data_PCOD8091608
_publ_section_title
;
Structure prediction by ZEFSAII (Michael W. Deem and Ramdas Pophale) SiO2 
 PCOD8091608
Probable space group: C 2/M
;
_chemical_formula_sum "Si O2"
_cell_formula_units_Z 64
_cell_length_a 20.571777
_cell_length_b 8.944205
_cell_length_c 21.492485
_cell_angle_alpha 90.000000
_cell_angle_beta 118.851750
_cell_angle_gamma 90.000000
_cell_volume 3463.701284
_symmetry_space_group_name_H-M "C 2/M"
_symmetry_group_IT_number 12
_symmetry_cell_setting 'monoclinic'
loop_
_space_group_symop_operation_xyz
x,y,z
-x,y,-z
-x,-y,-z
x,-y,z
1/2+x,1/2+y,z
1/2-x,1/2+y,-z
1/2-x,1/2-y,-z
1/2+x,1/2-y,z
loop_
_atom_site_type_symbol
_atom_site_label
_atom_site_fract_x
_atom_site_fract_y
_atom_site_fract_z
Si Si1 0.586416 0.174016 0.290464
Si Si2 0.464796 0.325173 0.548189
Si Si3 0.336346 0.823057 0.159505
Si Si4 0.668321 0.677315 0.081397
Si Si5 0.086786 0.174129 0.166059
Si Si6 0.328385 0.826086 0.546168
Si Si7 0.086500 0.825790 0.920641
Si Si8 0.451016 0.325406 0.289702
O O1 0.617499 0.233409 0.239335
O O2 0.647195 0.205196 0.371690
O O3 0.512094 0.265838 0.269877
O O4 0.566123 0.000000 0.277479
O O5 0.500000 0.268767 0.500000
O O6 0.445767 0.500000 0.537289
O O7 0.388382 0.239492 0.525747
O O8 0.525373 0.288469 0.629034
O O9 0.252381 0.763637 0.117022
O O10 0.380878 0.768623 0.120423
O O11 0.373425 0.755816 0.239171
O O12 0.339244 0.000000 0.164862
O O13 0.664707 0.500000 0.080432
O O14 0.630321 0.738091 0.126537
O O15 0.624012 0.736125 0.000923
O O16 0.000523 0.203581 0.114115
O O17 0.103481 0.000000 0.185327
O O18 0.250000 0.750000 0.500000
O O19 0.320760 0.000000 0.528474
O O20 0.104357 0.000000 0.917845
O O21 0.441887 0.500000 0.273491
#
# Coordination Sequence:
#
# PCOD8091608 Si02
#       8
#     8   8   8   8   8   8   8   8
#     4  10  20  35  56  82 111 141 178 224 271 314
#     4   9  19  37  60  84 112 144 181 228 276 326
#     4  11  21  34  53  77 111 144 177 224 273 317
#     4   9  20  36  52  77 110 144 178 222 273 321
#     4  10  19  34  57  80 106 141 184 223 265 322
#     4  10  21  37  58  84 114 148 184 225 271 324
#     4  10  19  34  58  80 101 138 188 226 265 323
#     4  10  19  34  57  81 105 142 186 220 261 322
#
# _framework density 18.477343999999999
#
# number of rings (size 3 to 8) (size 9 to 14) (size 15 to 20)
#    0.000    2.125    1.250    2.250    0.000    3.750 
#    2.250    2.500    0.000    1.500    0.000    0.000 
#    0.000    0.000    0.000    0.000    0.000    0.000 
#
# Total GULP energy -396890.431609 kJ/mol
# GULP energy per Si atom -12402.825988 kJ/mol
# Density = 1.843529 g / cm^3
# Si number density = 18.477344 Si / 1000 Ang^3
#
#
#
# Elastic Constant Matrix: (Units=GPa)
#
#
# Indices 1 2 3 4 5 6 
#
# 1 105.1518 46.6926 65.3525 0.0000 0.5910 0.0000
# 2 46.6926 69.1286 47.1438 0.0000 4.3536 0.0000
# 3 65.3525 47.1438 123.9916 0.0000 -1.6578 0.0000
# 4 0.0000 0.0000 0.0000 28.1081 0.0000 4.1294
# 5 0.5910 4.3536 -1.6578 0.0000 31.2054 0.0000
# 6 0.0000 0.0000 0.0000 4.1294 0.0000 23.0882
#
#
#
# Elastic Compliance Matrix: (Units=1/GPa)
#
#
# Indices 1 2 3 4 5 6 
#
# 1 0.016294 -0.006985 -0.005927 0.000000 0.000351 0.000000
# 2 -0.006985 0.022833 -0.005044 0.000000 -0.003321 0.000000
# 3 -0.005927 -0.005044 0.013127 0.000000 0.001513 0.000000
# 4 0.000000 0.000000 0.000000 0.036537 0.000000 -0.006535
# 5 0.000351 -0.003321 0.001513 0.000000 0.032583 0.000000
# 6 0.000000 0.000000 0.000000 -0.006535 0.000000 0.044481
#
#
# Mechanical properties :
#
#
# Convention : Reuss Voigt Hill
#
# Bulk Modulus (GPa) = 61.19772 68.51664 64.85718
# Shear Modulus (GPa) = 24.12942 25.75254 24.94098
#
# Velocity S-wave (km/s) = 3.61763 3.73733 3.67797
# Velocity P-wave (km/s) = 7.11632 7.46896 7.29477
#
# Compressibility (1/GPa) = 0.01634048
#
# Stress axis : x y z
#
# Youngs Moduli (GPa) = 61.37288 43.79586 76.17698
#
# Poissons Ratio (x) = 0.30593 0.45153
# Poissons Ratio (y) = 0.42871 0.38425
# Poissons Ratio (z) = 0.36378 0.22091
#
# Static dielectric constant tensor:
#      x y z
#    x 3.398720 0.000000 0.017670 
#    y 0.000000 3.295270 0.000000 
#    z 0.017670 0.000000 3.672430 
# 
# 
# High freq. dielectric constant tensor:
#      x y z
#    x 1.707890 0.000000 0.000650 
#    y 0.000000 1.707880 0.000000 
#    z 0.000650 0.000000 1.730120 
# 
# From -- ./inp_files/319766.got.cif
#   From: 2010.06.25/outbox.cif.g09.slc.cpg/sg12_160_cif.got.tgz:319766.got - 2010.06.28 00:19:55.
