data_PCOD8091221
_publ_section_title
;
Structure prediction by ZEFSAII (Michael W. Deem and Ramdas Pophale) SiO2 
 PCOD8091221
Probable space group: C 2/M
;
_chemical_formula_sum "Si O2"
_cell_formula_units_Z 64
_cell_length_a 20.073840
_cell_length_b 8.633696
_cell_length_c 31.891363
_cell_angle_alpha 90.000000
_cell_angle_beta 143.124515
_cell_angle_gamma 90.000000
_cell_volume 3316.713855
_symmetry_space_group_name_H-M "C 2/M"
_symmetry_group_IT_number 12
_symmetry_cell_setting 'monoclinic'
loop_
_space_group_symop_operation_xyz
x,y,z
-x,y,-z
-x,-y,-z
x,-y,z
1/2+x,1/2+y,z
1/2-x,1/2+y,-z
1/2-x,1/2-y,-z
1/2+x,1/2-y,z
loop_
_atom_site_type_symbol
_atom_site_label
_atom_site_fract_x
_atom_site_fract_y
_atom_site_fract_z
Si Si1 0.577060 0.671105 0.498436
Si Si2 0.020838 0.819963 0.209303
Si Si3 0.439953 0.820529 0.859619
Si Si4 0.681905 0.819685 0.848087
Si Si5 0.262663 0.817581 0.651516
Si Si6 0.105745 0.678836 0.640953
Si Si7 0.803771 0.179324 0.233424
Si Si8 0.575823 0.318889 0.999378
O O1 0.500000 0.661107 0.500000
O O2 0.588650 0.500000 0.484183
O O3 0.696620 0.730620 0.575682
O O4 0.521942 0.784899 0.436597
O O5 0.054753 0.782763 0.179041
O O6 0.121994 0.774278 0.290908
O O7 0.912966 0.721029 0.166533
O O8 0.994152 0.000000 0.200857
O O9 0.325486 0.780360 0.825425
O O10 0.540839 0.776997 0.940906
O O11 0.447589 0.000000 0.850802
O O12 0.661055 0.722877 0.795627
O O13 0.680309 0.000000 0.835862
O O14 0.798154 0.773201 0.927539
O O15 0.192287 0.778713 0.657622
O O16 0.286207 0.000000 0.664338
O O17 0.130887 0.500000 0.645633
O O18 0.120671 0.721228 0.696991
O O19 0.828298 0.000000 0.253860
O O20 0.560796 0.500000 0.982334
O O21 0.500000 0.266775 0.000000
#
# Coordination Sequence:
#
# PCOD8091221 Si02
#       8
#     8   8   8   8   8   8   8   8
#     4   8  16  30  49  76 113 152 189 236 289 342
#     4  12  25  40  60  86 120 156 197 243 291 349
#     4  11  23  38  62  89 117 154 195 240 290 345
#     4  11  24  42  63  86 118 154 193 240 295 354
#     4  10  19  34  55  80 114 155 195 237 292 346
#     4  11  20  30  52  85 118 152 193 242 290 339
#     4  11  22  37  59  86 118 154 196 243 290 344
#     4  10  21  39  63  89 117 150 190 240 293 346
#
# _framework density 19.296209000000001
#
# number of rings (size 3 to 8) (size 9 to 14) (size 15 to 20)
#    0.000    1.500    2.500    4.500    0.000    5.500 
#    0.000    0.000    0.000    0.750    0.000    0.000 
#    0.000    0.000    0.000    0.000    0.000    0.000 
#
# Total GULP energy -396924.139221 kJ/mol
# GULP energy per Si atom -12403.879351 kJ/mol
# Density = 1.925229 g / cm^3
# Si number density = 19.296209 Si / 1000 Ang^3
#
#
#
# Elastic Constant Matrix: (Units=GPa)
#
#
# Indices 1 2 3 4 5 6 
#
# 1 45.8134 12.6837 21.6385 -0.0002 6.2236 0.0003
# 2 12.6837 67.4179 40.5114 -0.0003 -3.1288 0.0008
# 3 21.6385 40.5114 133.7622 -0.0001 0.4896 0.0002
# 4 -0.0002 -0.0003 -0.0001 33.7646 0.0000 -2.4358
# 5 6.2236 -3.1288 0.4896 0.0000 25.0900 -0.0001
# 6 0.0003 0.0008 0.0002 -2.4358 -0.0001 27.3948
#
#
#
# Elastic Compliance Matrix: (Units=1/GPa)
#
#
# Indices 1 2 3 4 5 6 
#
# 1 0.025044 -0.003173 -0.003066 0.000000 -0.006548 0.000000
# 2 -0.003173 0.018677 -0.005155 0.000000 0.003217 0.000000
# 3 -0.003066 -0.005155 0.009533 0.000000 -0.000068 0.000000
# 4 0.000000 0.000000 0.000000 0.029808 0.000000 0.002650
# 5 -0.006548 0.003217 -0.000068 0.000000 0.041883 0.000000
# 6 0.000000 0.000000 0.000000 0.002650 0.000000 0.036739
#
#
# Mechanical properties :
#
#
# Convention : Reuss Voigt Hill
#
# Bulk Modulus (GPa) = 32.82391 44.07341 38.44866
# Shear Modulus (GPa) = 25.69002 28.72720 27.20861
#
# Velocity S-wave (km/s) = 3.65273 3.86262 3.75914
# Velocity P-wave (km/s) = 5.90232 6.54088 6.22979
#
# Compressibility (1/GPa) = 0.03046560
#
# Stress axis : x y z
#
# Youngs Moduli (GPa) = 39.92977 53.54266 104.89340
#
# Poissons Ratio (x) = 0.16989 0.32165
# Poissons Ratio (y) = 0.12669 0.54072
# Poissons Ratio (z) = 0.12244 0.27601
#
# Static dielectric constant tensor:
#      x y z
#    x 3.119370 0.000000 0.038460 
#    y 0.000000 3.463350 0.000000 
#    z 0.038460 0.000000 3.911440 
# 
# 
# High freq. dielectric constant tensor:
#      x y z
#    x 1.710940 0.000000 -0.003170 
#    y 0.000000 1.755810 0.000000 
#    z -0.003170 0.000000 1.768970 
# 
# From -- ./inp_files/378522.got.cif
#   From: 2010.06.25/outbox.cif.g09.slc.cpg/sg12_190_cif.got.tgz:378522.got - 2010.06.28 00:19:55.
