data_PCOD8091266
_publ_section_title
;
Structure prediction by ZEFSAII (Michael W. Deem and Ramdas Pophale) SiO2 
 PCOD8091266
Probable space group: C 2/M
;
_chemical_formula_sum "Si O2"
_cell_formula_units_Z 64
_cell_length_a 31.064396
_cell_length_b 8.816828
_cell_length_c 15.018787
_cell_angle_alpha 90.000000
_cell_angle_beta 132.359137
_cell_angle_gamma 90.000000
_cell_volume 3039.603961
_symmetry_space_group_name_H-M "C 2/M"
_symmetry_group_IT_number 12
_symmetry_cell_setting 'monoclinic'
loop_
_space_group_symop_operation_xyz
x,y,z
-x,y,-z
-x,-y,-z
x,-y,z
1/2+x,1/2+y,z
1/2-x,1/2+y,-z
1/2-x,1/2-y,-z
1/2+x,1/2-y,z
loop_
_atom_site_type_symbol
_atom_site_label
_atom_site_fract_x
_atom_site_fract_y
_atom_site_fract_z
Si Si1 0.879381 0.170870 0.690675
Si Si2 0.555607 0.177323 0.635152
Si Si3 0.583517 0.177793 0.868865
Si Si4 0.668486 0.680864 0.712612
Si Si5 0.691356 0.172623 0.268861
Si Si6 0.991158 0.829063 0.085728
Si Si7 0.794226 0.670836 0.918937
Si Si8 0.311508 0.822024 0.444959
O O1 0.861457 0.230291 0.763637
O O2 0.855794 0.288467 0.585783
O O3 0.948458 0.172720 0.777633
O O4 0.855646 0.000000 0.642333
O O5 0.500000 0.233945 0.500000
O O6 0.546017 0.210663 0.727090
O O7 0.612984 0.270761 0.691496
O O8 0.566622 0.000000 0.632198
O O9 0.554490 0.242182 0.916747
O O10 0.589427 0.000000 0.893689
O O11 0.650353 0.244778 0.951642
O O12 0.671952 0.500000 0.708124
O O13 0.729587 0.744975 0.841718
O O14 0.660910 0.750693 0.604915
O O15 0.687707 0.181740 0.158496
O O16 0.750950 0.245365 0.387219
O O17 0.688267 0.000000 0.298584
O O18 0.967682 0.000000 0.039698
O O19 0.000000 0.753836 0.000000
O O20 0.787418 0.500000 0.942652
O O21 0.303316 0.000000 0.419917
#
# Coordination Sequence:
#
# PCOD8091266 Si02
#       8
#     8   8   8   8   8   8   8   8
#     4  11  22  35  53  79 114 155 199 246 297 354
#     4  10  23  41  60  88 125 161 199 249 299 354
#     4  10  21  39  63  88 118 160 205 248 298 356
#     4  10  21  39  62  88 117 152 196 247 301 356
#     4  10  19  34  55  82 116 152 195 246 299 354
#     4  10  23  41  59  85 121 156 196 249 301 353
#     4   8  17  35  59  86 116 149 194 248 297 353
#     4  11  22  36  56  82 115 153 195 243 299 358
#
# _framework density 21.055374
#
# number of rings (size 3 to 8) (size 9 to 14) (size 15 to 20)
#    0.000    2.000    0.000    4.125    1.750    2.500 
#    0.000    3.125    0.000    0.000    0.000    0.000 
#    0.000    0.000    0.000    0.000    0.000    0.000 
#
# Total GULP energy -396652.390718 kJ/mol
# GULP energy per Si atom -12395.387210 kJ/mol
# Density = 2.100745 g / cm^3
# Si number density = 21.055374 Si / 1000 Ang^3
#
#
#
# Elastic Constant Matrix: (Units=GPa)
#
#
# Indices 1 2 3 4 5 6 
#
# 1 102.7682 29.0362 37.8610 0.0000 12.1829 0.0000
# 2 29.0362 73.3734 23.2391 0.0000 4.7777 0.0000
# 3 37.8610 23.2391 118.0721 0.0000 10.8830 0.0000
# 4 0.0000 0.0000 0.0000 20.6848 0.0000 -0.4994
# 5 12.1829 4.7777 10.8830 0.0000 26.1880 0.0000
# 6 0.0000 0.0000 0.0000 -0.4994 0.0000 34.4507
#
#
#
# Elastic Compliance Matrix: (Units=1/GPa)
#
#
# Indices 1 2 3 4 5 6 
#
# 1 0.012287 -0.003707 -0.002855 0.000000 -0.003853 0.000000
# 2 -0.003707 0.015712 -0.001870 0.000000 -0.000365 0.000000
# 3 -0.002855 -0.001870 0.009981 0.000000 -0.002479 0.000000
# 4 0.000000 0.000000 0.000000 0.048362 0.000000 0.000701
# 5 -0.003853 -0.000365 -0.002479 0.000000 0.041075 0.000000
# 6 0.000000 0.000000 0.000000 0.000701 0.000000 0.029037
#
#
# Mechanical properties :
#
#
# Convention : Reuss Voigt Hill
#
# Bulk Modulus (GPa) = 47.35840 52.72070 50.03955
# Shear Modulus (GPa) = 27.72288 29.86985 28.79636
#
# Velocity S-wave (km/s) = 3.63252 3.77056 3.70219
# Velocity P-wave (km/s) = 6.33520 6.63699 6.48785
#
# Compressibility (1/GPa) = 0.02111558
#
# Stress axis : x y z
#
# Youngs Moduli (GPa) = 81.38923 63.64566 100.18585
#
# Poissons Ratio (x) = 0.23594 0.28604
# Poissons Ratio (y) = 0.30171 0.18736
# Poissons Ratio (z) = 0.23237 0.11903
#
# Static dielectric constant tensor:
#      x y z
#    x 3.754690 0.000000 0.118870 
#    y 0.000000 3.662430 0.000000 
#    z 0.118870 0.000000 3.947950 
# 
# 
# High freq. dielectric constant tensor:
#      x y z
#    x 1.821940 0.000000 0.006610 
#    y 0.000000 1.806970 0.000000 
#    z 0.006610 0.000000 1.834770 
# 
# From -- ./inp_files/250036.got.cif
#   From: 2010.06.25/outbox.cif.g09.slc.cpg/sg12_126_cif.got.tgz:250036.got - 2010.06.28 00:19:55.
