data_PCOD8091256
_publ_section_title
;
Structure prediction by ZEFSAII (Michael W. Deem and Ramdas Pophale) SiO2 
 PCOD8091256
Probable space group: C 2/M
;
_chemical_formula_sum "Si O2"
_cell_formula_units_Z 64
_cell_length_a 23.510012
_cell_length_b 17.204071
_cell_length_c 24.709629
_cell_angle_alpha 90.000000
_cell_angle_beta 159.134994
_cell_angle_gamma 90.000000
_cell_volume 3559.626375
_symmetry_space_group_name_H-M "C 2/M"
_symmetry_group_IT_number 12
_symmetry_cell_setting 'monoclinic'
loop_
_space_group_symop_operation_xyz
x,y,z
-x,y,-z
-x,-y,-z
x,-y,z
1/2+x,1/2+y,z
1/2-x,1/2+y,-z
1/2-x,1/2-y,-z
1/2+x,1/2-y,z
loop_
_atom_site_type_symbol
_atom_site_label
_atom_site_fract_x
_atom_site_fract_y
_atom_site_fract_z
Si Si1 0.659853 0.913543 0.533340
Si Si2 0.651144 0.305024 0.953327
Si Si3 0.914794 0.825762 0.567121
Si Si4 0.927229 0.913463 0.686349
Si Si5 0.358888 0.814965 0.238992
Si Si6 0.815644 0.274909 0.827529
Si Si7 0.172238 0.767481 0.283306
Si Si8 0.912995 0.088305 0.367059
O O1 0.481438 0.882947 0.363493
O O2 0.760539 0.855677 0.661078
O O3 0.758415 0.918286 0.565836
O O4 0.647859 0.000000 0.548923
O O5 0.569660 0.374592 0.847494
O O6 0.512996 0.259834 0.864244
O O7 0.750000 0.250000 0.000000
O O8 0.763031 0.340999 0.099943
O O9 0.761156 0.780286 0.409037
O O10 0.878833 0.862394 0.592470
O O11 0.057627 0.765527 0.701777
O O12 0.959789 0.895732 0.566983
O O13 0.987251 0.000000 0.724275
O O14 0.249240 0.797644 0.194458
O O15 0.784312 0.265645 0.736229
O O16 0.737178 0.355865 0.775467
O O17 0.000000 0.283260 0.000000
O O18 0.000000 0.107993 0.500000
O O19 0.852239 0.000000 0.310557
#
# Coordination Sequence:
#
# PCOD8091256 Si02
#       8
#     8   8   8   8   8   8   8   8
#     4   9  21  38  57  81 109 141 180 230 285 325
#     4  11  21  35  56  84 111 143 185 224 273 324
#     4  10  19  34  55  82 109 145 186 226 262 322
#     4  10  21  36  56  79 112 150 182 225 278 330
#     4  10  21  34  59  83 109 141 183 230 267 328
#     4  11  21  38  57  82 112 146 185 223 277 330
#     4  10  21  36  59  82 110 144 185 228 271 329
#     4  10  20  34  55  81 111 145 182 225 269 315
#
# _framework density 17.979416000000001
#
# number of rings (size 3 to 8) (size 9 to 14) (size 15 to 20)
#    0.000    1.875    3.750    0.375    1.750    2.250 
#    0.000    1.250    0.000    1.500    0.000    0.000 
#    0.000    0.000    0.000    0.000    0.000    0.000 
#
# Total GULP energy -396659.344937 kJ/mol
# GULP energy per Si atom -12395.604529 kJ/mol
# Density = 1.793849 g / cm^3
# Si number density = 17.979416 Si / 1000 Ang^3
#
#
#
# Elastic Constant Matrix: (Units=GPa)
#
#
# Indices 1 2 3 4 5 6 
#
# 1 58.1822 21.1616 16.5157 0.0018 -4.1245 -0.0027
# 2 21.1616 94.6561 31.7480 -0.0346 2.4014 -0.0213
# 3 16.5157 31.7480 93.6544 0.0061 6.0501 -0.0001
# 4 0.0018 -0.0346 0.0061 18.1978 0.0025 0.6958
# 5 -4.1245 2.4014 6.0501 0.0025 29.5315 0.0014
# 6 -0.0027 -0.0213 -0.0001 0.6958 0.0014 19.5200
#
#
#
# Elastic Compliance Matrix: (Units=1/GPa)
#
#
# Indices 1 2 3 4 5 6 
#
# 1 0.019442 -0.003621 -0.002428 -0.000008 0.003507 -0.000001
# 2 -0.003621 0.012595 -0.003579 0.000025 -0.000797 0.000012
# 3 -0.002428 -0.003579 0.012487 -0.000010 -0.002606 -0.000004
# 4 -0.000008 0.000025 -0.000010 0.055027 -0.000006 -0.001961
# 5 0.003507 -0.000797 -0.002606 -0.000006 0.034951 -0.000003
# 6 -0.000001 0.000012 -0.000004 -0.001961 -0.000003 0.051299
#
#
# Mechanical properties :
#
#
# Convention : Reuss Voigt Hill
#
# Bulk Modulus (GPa) = 39.57600 42.81593 41.19597
# Shear Modulus (GPa) = 23.42132 25.25437 24.33784
#
# Velocity S-wave (km/s) = 3.61317 3.75190 3.68319
# Velocity P-wave (km/s) = 6.28222 6.52952 6.40706
#
# Compressibility (1/GPa) = 0.02526784
#
# Stress axis : x y z
#
# Youngs Moduli (GPa) = 51.43444 79.39693 80.08055
#
# Poissons Ratio (x) = 0.28752 0.19440
# Poissons Ratio (y) = 0.18626 0.28665
# Poissons Ratio (z) = 0.12486 0.28420
#
# Static dielectric constant tensor:
#      x y z
#    x 3.706580 -0.000070 -0.053920 
#    y -0.000070 3.365530 -0.000020 
#    z -0.053920 -0.000020 3.320760 
# 
# 
# High freq. dielectric constant tensor:
#      x y z
#    x 1.703590 0.000000 0.001430 
#    y 0.000000 1.686510 -0.000010 
#    z 0.001430 -0.000010 1.696790 
# 
# From -- ./inp_files/97729.got.cif
#   From: 2010.06.25/outbox.cif.g09.slc.cpg/sg12_49_cif.got.tgz:97729.got - 2010.06.28 00:19:55.
