data_PCOD8091869
_publ_section_title
;
Structure prediction by ZEFSAII (Michael W. Deem and Ramdas Pophale) SiO2 
 PCOD8091869
Probable space group: C 2/M
;
_chemical_formula_sum "Si O2"
_cell_formula_units_Z 56
_cell_length_a 11.964607
_cell_length_b 18.556775
_cell_length_c 14.632809
_cell_angle_alpha 90.000000
_cell_angle_beta 114.886830
_cell_angle_gamma 90.000000
_cell_volume 2947.157391
_symmetry_space_group_name_H-M "C 2/M"
_symmetry_group_IT_number 12
_symmetry_cell_setting 'monoclinic'
loop_
_space_group_symop_operation_xyz
x,y,z
-x,y,-z
-x,-y,-z
x,-y,z
1/2+x,1/2+y,z
1/2-x,1/2+y,-z
1/2-x,1/2-y,-z
1/2+x,1/2-y,z
loop_
_atom_site_type_symbol
_atom_site_label
_atom_site_fract_x
_atom_site_fract_y
_atom_site_fract_z
Si Si1 0.333900 0.789037 0.167332
Si Si2 0.608008 0.287163 0.971131
Si Si3 0.774311 0.081354 0.771981
Si Si4 0.560539 0.415636 0.836261
Si Si5 0.419675 0.672288 0.332354
Si Si6 0.187752 0.176624 0.508617
Si Si7 0.364363 0.082563 0.463102
O O1 0.433640 0.773424 0.120199
O O2 0.297957 0.870741 0.178115
O O3 0.376460 0.747390 0.272204
O O4 0.215978 0.755089 0.072957
O O5 0.638606 0.364007 0.930598
O O6 0.500000 0.306484 0.000000
O O7 0.709482 0.094955 0.654263
O O8 0.916974 0.101136 0.808397
O O9 0.758648 0.000000 0.800898
O O10 0.591873 0.500000 0.861964
O O11 0.594307 0.394118 0.743221
O O12 0.561068 0.672827 0.410269
O O13 0.332752 0.665325 0.390607
O O14 0.250000 0.250000 0.500000
O O15 0.284719 0.114818 0.517444
O O16 0.500000 0.119230 0.500000
O O17 0.382967 0.000000 0.495481
#
# Coordination Sequence:
#
# PCOD8091869 Si02
#       7
#     8   8   8   8   8   8   8
#     4  10  21  36  54  80 115 144 188 231 288 350
#     4  10  20  36  56  81 111 148 182 232 294 348
#     4  10  19  34  58  82 110 148 190 238 286 340
#     4  10  20  36  59  87 116 145 188 243 296 350
#     4  10  23  37  55  86 119 159 194 240 290 341
#     4  11  23  36  57  86 118 157 202 240 282 335
#     4  10  22  39  58  83 117 156 195 236 284 342
#
# _framework density 19.001360999999999
#
# number of rings (size 3 to 8) (size 9 to 14) (size 15 to 20)
#    0.000    1.857    2.857    0.857    4.000    1.429 
#    0.000    1.429    0.000    0.429    0.000    0.000 
#    0.000    0.000    0.000    0.000    0.000    0.000 
#
# Total GULP energy -346867.585752 kJ/mol
# GULP energy per Si atom -12388.128063 kJ/mol
# Density = 1.895811 g / cm^3
# Si number density = 19.001361 Si / 1000 Ang^3
#
#
#
# Elastic Constant Matrix: (Units=GPa)
#
#
# Indices 1 2 3 4 5 6 
#
# 1 101.0492 46.8259 47.3920 0.0000 -22.3742 0.0000
# 2 46.8259 82.6549 26.8833 0.0000 -23.3961 0.0000
# 3 47.3920 26.8833 84.4450 0.0000 -13.4445 0.0000
# 4 0.0000 0.0000 0.0000 26.5029 0.0000 -1.7818
# 5 -22.3742 -23.3961 -13.4445 0.0000 36.0192 0.0000
# 6 0.0000 0.0000 0.0000 -1.7818 0.0000 34.3471
#
#
#
# Elastic Compliance Matrix: (Units=1/GPa)
#
#
# Indices 1 2 3 4 5 6 
#
# 1 0.016854 -0.006222 -0.006862 0.000000 0.003866 0.000000
# 2 -0.006222 0.018092 -0.001076 0.000000 0.007485 0.000000
# 3 -0.006862 -0.001076 0.016209 0.000000 0.001088 0.000000
# 4 0.000000 0.000000 0.000000 0.037864 0.000000 0.001964
# 5 0.003866 0.007485 0.001088 0.000000 0.035433 0.000000
# 6 0.000000 0.000000 0.000000 0.001964 0.000000 0.029216
#
#
# Mechanical properties :
#
#
# Convention : Reuss Voigt Hill
#
# Bulk Modulus (GPa) = 43.79347 56.70573 50.24960
# Shear Modulus (GPa) = 26.37126 29.17702 27.77414
#
# Velocity S-wave (km/s) = 3.72944 3.92283 3.82736
# Velocity P-wave (km/s) = 6.45311 7.10112 6.78485
#
# Compressibility (1/GPa) = 0.02283445
#
# Stress axis : x y z
#
# Youngs Moduli (GPa) = 59.33361 55.27315 61.69317
#
# Poissons Ratio (x) = 0.34389 0.42336
# Poissons Ratio (y) = 0.36916 0.06639
# Poissons Ratio (z) = 0.40717 0.05949
#
# Static dielectric constant tensor:
#      x y z
#    x 3.123310 0.000000 -0.408500 
#    y 0.000000 3.479670 0.000000 
#    z -0.408500 0.000000 3.545620 
# 
# 
# High freq. dielectric constant tensor:
#      x y z
#    x 1.731840 0.000000 -0.008910 
#    y 0.000000 1.728550 0.000000 
#    z -0.008910 0.000000 1.751760 
# 
# From -- ./inp_files/206113.got.cif
#   From: 2010.06.25/outbox.cif.g09.slc.cpg/sg12_104_cif.got.tgz:206113.got - 2010.06.28 00:19:55.
