data_PCOD8091771
_publ_section_title
;
Structure prediction by ZEFSAII (Michael W. Deem and Ramdas Pophale) SiO2 
 PCOD8091771
Probable space group: C 2/M
;
_chemical_formula_sum "Si O2"
_cell_formula_units_Z 48
_cell_length_a 22.271845
_cell_length_b 13.718409
_cell_length_c 25.132187
_cell_angle_alpha 90.000000
_cell_angle_beta 161.699394
_cell_angle_gamma 90.000000
_cell_volume 2411.144994
_symmetry_space_group_name_H-M "C 2/M"
_symmetry_group_IT_number 12
_symmetry_cell_setting 'monoclinic'
loop_
_space_group_symop_operation_xyz
x,y,z
-x,y,-z
-x,-y,-z
x,-y,z
1/2+x,1/2+y,z
1/2-x,1/2+y,-z
1/2-x,1/2-y,-z
1/2+x,1/2-y,z
loop_
_atom_site_type_symbol
_atom_site_label
_atom_site_fract_x
_atom_site_fract_y
_atom_site_fract_z
Si Si1 0.411273 0.813093 0.681861
Si Si2 0.651684 0.113783 0.786713
Si Si3 0.061657 0.888365 0.335304
Si Si4 0.837852 0.396152 0.322827
Si Si5 0.486176 0.261223 0.927042
Si Si6 0.612782 0.888951 0.954877
O O1 0.505286 0.836432 0.703875
O O2 0.200953 0.865919 0.503790
O O3 0.386877 0.694846 0.665353
O O4 0.554463 0.847801 0.848129
O O5 0.579683 0.133484 0.665784
O O6 0.669705 0.000000 0.816467
O O7 0.856657 0.165088 0.963801
O O8 0.099582 0.000000 0.346991
O O9 0.836201 0.875867 0.157872
O O10 0.724966 0.500000 0.219691
O O11 0.714020 0.314591 0.247306
O O12 0.000000 0.417547 0.500000
O O13 0.485495 0.163327 0.892203
O O14 0.500000 0.231978 0.000000
O O15 0.551244 0.000000 0.904166
#
# Coordination Sequence:
#
# PCOD8091771 Si02
#       6
#     8   8   8   8   8   8
#     4  11  22  40  61  89 126 156 193 243 300 355
#     4  10  19  34  57  84 116 152 190 237 296 354
#     4  10  22  38  59  88 124 160 195 238 290 354
#     4   9  19  36  57  85 118 151 192 242 294 351
#     4  10  21  38  57  81 112 152 199 242 294 341
#     4  11  23  41  62  87 120 157 201 245 296 354
#
# _framework density 19.907554000000001
#
# number of rings (size 3 to 8) (size 9 to 14) (size 15 to 20)
#    0.000    1.833    1.667    2.500    0.000    5.000 
#    0.000    2.500    0.000    0.500    0.000    0.000 
#    0.000    0.000    0.000    0.000    0.000    0.000 
#
# Total GULP energy -297318.134475 kJ/mol
# GULP energy per Si atom -12388.255603 kJ/mol
# Density = 1.986224 g / cm^3
# Si number density = 19.907554 Si / 1000 Ang^3
#
#
#
# Elastic Constant Matrix: (Units=GPa)
#
#
# Indices 1 2 3 4 5 6 
#
# 1 86.4908 50.9096 48.8730 0.0260 5.1068 0.0077
# 2 50.9096 156.3003 43.3501 0.0543 0.7074 0.0236
# 3 48.8730 43.3501 95.4435 0.0101 -6.6049 0.0275
# 4 0.0260 0.0543 0.0101 28.7928 0.0128 1.6176
# 5 5.1068 0.7074 -6.6049 0.0128 13.9975 0.0027
# 6 0.0077 0.0236 0.0275 1.6176 0.0027 29.2060
#
#
#
# Elastic Compliance Matrix: (Units=1/GPa)
#
#
# Indices 1 2 3 4 5 6 
#
# 1 0.019605 -0.003815 -0.009084 -0.000003 -0.011246 0.000008
# 2 -0.003815 0.008117 -0.001722 -0.000011 0.000169 -0.000003
# 3 -0.009084 -0.001722 0.016691 0.000001 0.011277 -0.000013
# 4 -0.000003 -0.000011 0.000001 0.034839 -0.000029 -0.001930
# 5 -0.011246 0.000169 0.011277 -0.000029 0.080857 -0.000014
# 6 0.000008 -0.000003 -0.000013 -0.001930 -0.000014 0.034346
#
#
# Mechanical properties :
#
#
# Convention : Reuss Voigt Hill
#
# Bulk Modulus (GPa) = 65.91273 69.38890 67.65081
# Shear Modulus (GPa) = 21.85736 27.40605 24.63171
#
# Velocity S-wave (km/s) = 3.31712 3.71437 3.52135
# Velocity P-wave (km/s) = 6.91754 7.30251 7.11263
#
# Compressibility (1/GPa) = 0.01517158
#
# Stress axis : x y z
#
# Youngs Moduli (GPa) = 51.00769 123.19350 59.91078
#
# Poissons Ratio (x) = 0.47001 0.54425
# Poissons Ratio (y) = 0.19460 0.10314
# Poissons Ratio (z) = 0.46337 0.21208
#
# Static dielectric constant tensor:
#      x y z
#    x 3.982710 0.000040 0.332600 
#    y 0.000040 3.924840 -0.000130 
#    z 0.332600 -0.000130 3.869370 
# 
# 
# High freq. dielectric constant tensor:
#      x y z
#    x 1.746460 0.000000 -0.004660 
#    y 0.000000 1.792720 -0.000010 
#    z -0.004660 -0.000010 1.779320 
# 
# From -- ./inp_files/367948.got.cif
#   From: 2010.06.25/outbox.cif.g09.slc.cpg/sg12_184_cif.got.tgz:367948.got - 2010.06.28 00:19:55.
