data_PCOD8091809
_publ_section_title
;
Structure prediction by ZEFSAII (Michael W. Deem and Ramdas Pophale) SiO2 
 PCOD8091809
Probable space group: C 2/M
;
_chemical_formula_sum "Si O2"
_cell_formula_units_Z 56
_cell_length_a 14.997198
_cell_length_b 17.449147
_cell_length_c 12.295222
_cell_angle_alpha 90.000000
_cell_angle_beta 65.682190
_cell_angle_gamma 90.000000
_cell_volume 2932.042816
_symmetry_space_group_name_H-M "C 2/M"
_symmetry_group_IT_number 12
_symmetry_cell_setting 'monoclinic'
loop_
_space_group_symop_operation_xyz
x,y,z
-x,y,-z
-x,-y,-z
x,-y,z
1/2+x,1/2+y,z
1/2-x,1/2+y,-z
1/2-x,1/2-y,-z
1/2+x,1/2-y,z
loop_
_atom_site_type_symbol
_atom_site_label
_atom_site_fract_x
_atom_site_fract_y
_atom_site_fract_z
Si Si1 0.252114 0.214775 0.736113
Si Si2 0.474469 0.587544 0.388964
Si Si3 0.154518 0.734302 0.983424
Si Si4 0.607473 0.083665 0.900727
Si Si5 0.949309 0.233821 0.756137
Si Si6 0.636700 0.168299 0.666527
Si Si7 0.754711 0.087869 0.427104
O O1 0.161323 0.216970 0.868233
O O2 0.355570 0.233452 0.739805
O O3 0.227204 0.277194 0.655878
O O4 0.253055 0.130812 0.684263
O O5 0.500000 0.607750 0.500000
O O6 0.505150 0.500000 0.345628
O O7 0.535467 0.644401 0.280213
O O8 0.359430 0.600002 0.430507
O O9 0.161363 0.644465 0.950325
O O10 0.250000 0.750000 0.000000
O O11 0.062704 0.756993 0.105895
O O12 0.605442 0.110638 0.777317
O O13 0.659396 0.000000 0.881146
O O14 0.500000 0.076247 0.000000
O O15 0.044514 0.281331 0.673345
O O16 0.670232 0.118485 0.547954
O O17 0.733973 0.000000 0.411230
#
# Coordination Sequence:
#
# PCOD8091809 Si02
#       7
#     8   8   8   8   8   8   8
#     4  10  22  38  60  86 118 154 199 239 295 349
#     4  10  22  39  61  88 118 152 195 252 300 342
#     4   9  20  39  57  86 115 154 197 244 287 354
#     4  10  19  34  57  86 114 148 194 246 292 338
#     4  11  21  37  62  87 117 152 202 239 291 359
#     4  11  21  36  60  86 116 156 199 238 298 348
#     4  11  23  40  56  86 124 155 194 243 295 351
#
# _framework density 19.099312000000001
#
# number of rings (size 3 to 8) (size 9 to 14) (size 15 to 20)
#    0.000    1.714    2.857    1.714    2.000    0.000 
#    0.000   13.571    0.000    1.714    0.000    0.000 
#    0.000    0.000    0.000    0.000    0.000    0.000 
#
# Total GULP energy -347126.193383 kJ/mol
# GULP energy per Si atom -12397.364049 kJ/mol
# Density = 1.905584 g / cm^3
# Si number density = 19.099312 Si / 1000 Ang^3
#
#
#
# Elastic Constant Matrix: (Units=GPa)
#
#
# Indices 1 2 3 4 5 6 
#
# 1 83.5772 48.9956 30.1999 0.0000 -3.2052 0.0000
# 2 48.9956 165.4504 90.0291 0.0000 7.0057 0.0000
# 3 30.1999 90.0291 112.3422 0.0000 3.3786 0.0000
# 4 0.0000 0.0000 0.0000 61.1306 0.0000 2.0792
# 5 -3.2052 7.0057 3.3786 0.0000 19.6807 0.0000
# 6 0.0000 0.0000 0.0000 2.0792 0.0000 30.1348
#
#
#
# Elastic Compliance Matrix: (Units=1/GPa)
#
#
# Indices 1 2 3 4 5 6 
#
# 1 0.014827 -0.004125 -0.000801 0.000000 0.004021 0.000000
# 2 -0.004125 0.011975 -0.008383 0.000000 -0.003496 0.000000
# 3 -0.000801 -0.008383 0.015830 0.000000 0.000136 0.000000
# 4 0.000000 0.000000 0.000000 0.016397 0.000000 -0.001131
# 5 0.004021 -0.003496 0.000136 0.000000 0.052687 0.000000
# 6 0.000000 0.000000 0.000000 -0.001131 0.000000 0.033262
#
#
# Mechanical properties :
#
#
# Convention : Reuss Voigt Hill
#
# Bulk Modulus (GPa) = 62.44150 77.75765 70.09957
# Shear Modulus (GPa) = 28.25914 34.99888 31.62901
#
# Velocity S-wave (km/s) = 3.85072 4.28538 4.07385
# Velocity P-wave (km/s) = 7.24808 8.08001 7.67533
#
# Compressibility (1/GPa) = 0.01601499
#
# Stress axis : x y z
#
# Youngs Moduli (GPa) = 67.44501 83.50679 63.17052
#
# Poissons Ratio (x) = 0.34449 0.05058
# Poissons Ratio (y) = 0.27823 0.52953
# Poissons Ratio (z) = 0.05401 0.70000
#
# Static dielectric constant tensor:
#      x y z
#    x 3.477460 0.000000 0.317570 
#    y 0.000000 4.703130 0.000000 
#    z 0.317570 0.000000 4.873600 
# 
# 
# High freq. dielectric constant tensor:
#      x y z
#    x 1.736330 0.000000 -0.002250 
#    y 0.000000 1.742740 0.000000 
#    z -0.002250 0.000000 1.750410 
# 
# From -- ./inp_files/145505.got.cif
#   From: 2010.06.25/outbox.cif.g09.slc.cpg/sg12_73_cif.got.tgz:145505.got - 2010.06.28 00:19:55.
