data_PCOD8091972
_publ_section_title
;
Structure prediction by ZEFSAII (Michael W. Deem and Ramdas Pophale) SiO2 
 PCOD8091972
Probable space group: C 2/M
;
_chemical_formula_sum "Si O2"
_cell_formula_units_Z 56
_cell_length_a 19.634332
_cell_length_b 8.877119
_cell_length_c 21.046271
_cell_angle_alpha 90.000000
_cell_angle_beta 54.000074
_cell_angle_gamma 90.000000
_cell_volume 2967.709469
_symmetry_space_group_name_H-M "C 2/M"
_symmetry_group_IT_number 12
_symmetry_cell_setting 'monoclinic'
loop_
_space_group_symop_operation_xyz
x,y,z
-x,y,-z
-x,-y,-z
x,-y,z
1/2+x,1/2+y,z
1/2-x,1/2+y,-z
1/2-x,1/2-y,-z
1/2+x,1/2-y,z
loop_
_atom_site_type_symbol
_atom_site_label
_atom_site_fract_x
_atom_site_fract_y
_atom_site_fract_z
Si Si1 0.388766 0.174892 0.802103
Si Si2 0.510574 0.176597 0.375108
Si Si3 0.906267 0.329503 0.033693
Si Si4 0.844386 0.824429 0.626491
Si Si5 0.749556 0.329662 0.196927
Si Si6 0.840444 0.175028 0.950470
Si Si7 0.820091 0.321890 0.506974
O O1 0.459780 0.221983 0.711998
O O2 0.297880 0.214868 0.823300
O O3 0.400855 0.263477 0.861199
O O4 0.392645 0.000000 0.815717
O O5 0.565638 0.262608 0.398073
O O6 0.413348 0.224127 0.432356
O O7 0.523839 0.000000 0.380639
O O8 0.897138 0.500000 0.012137
O O9 0.848554 0.309895 0.128392
O O10 0.883409 0.208951 0.993382
O O11 0.000000 0.290483 0.000000
O O12 0.771471 0.793725 0.718436
O O13 0.810588 0.738485 0.583447
O O14 0.855229 0.000000 0.604923
O O15 0.719392 0.500000 0.197668
O O16 0.827772 0.000000 0.947428
O O17 0.750000 0.250000 0.000000
O O18 0.807480 0.500000 0.513157
O O19 0.750000 0.250000 0.500000
#
# Coordination Sequence:
#
# PCOD8091972 Si02
#       7
#     8   8   8   8   8   8   8
#     4  10  19  34  58  86 111 143 186 236 285 331
#     4   9  20  38  60  85 113 146 188 233 278 332
#     4  10  21  38  58  81 112 152 193 232 278 333
#     4  10  20  35  59  88 114 145 186 232 280 335
#     4   9  18  34  56  82 113 147 186 231 276 330
#     4  12  23  36  57  84 115 150 189 235 281 332
#     4  11  23  40  59  82 115 152 188 231 279 335
#
# _framework density 18.869771
#
# number of rings (size 3 to 8) (size 9 to 14) (size 15 to 20)
#    0.000    1.857    1.429    3.000    0.000    4.286 
#    2.571    0.000    0.000    0.000    0.000    0.000 
#    0.000    0.000    0.000    0.000    0.000    0.000 
#
# Total GULP energy -347215.601562 kJ/mol
# GULP energy per Si atom -12400.557199 kJ/mol
# Density = 1.882682 g / cm^3
# Si number density = 18.869771 Si / 1000 Ang^3
#
#
#
# Elastic Constant Matrix: (Units=GPa)
#
#
# Indices 1 2 3 4 5 6 
#
# 1 120.7447 51.0762 76.7803 0.0000 -2.1788 -0.0004
# 2 51.0762 93.7588 50.4231 0.0003 7.4745 -0.0010
# 3 76.7803 50.4231 134.6853 0.0000 3.0589 -0.0001
# 4 0.0000 0.0003 0.0000 30.1148 0.0000 5.9523
# 5 -2.1788 7.4745 3.0589 0.0000 28.9077 0.0001
# 6 -0.0004 -0.0010 -0.0001 5.9523 0.0001 32.0490
#
#
#
# Elastic Compliance Matrix: (Units=1/GPa)
#
#
# Indices 1 2 3 4 5 6 
#
# 1 0.014467 -0.004565 -0.006606 0.000000 0.002970 0.000000
# 2 -0.004565 0.015048 -0.002942 0.000000 -0.003924 0.000000
# 3 -0.006606 -0.002942 0.012315 0.000000 -0.001040 0.000000
# 4 0.000000 0.000000 0.000000 0.034472 0.000000 -0.006402
# 5 0.002970 -0.003924 -0.001040 0.000000 0.035941 0.000000
# 6 0.000000 0.000000 0.000000 -0.006402 0.000000 0.032391
#
#
# Mechanical properties :
#
#
# Convention : Reuss Voigt Hill
#
# Bulk Modulus (GPa) = 73.50478 78.41644 75.96061
# Shear Modulus (GPa) = 28.18575 29.60826 28.89700
#
# Velocity S-wave (km/s) = 3.86903 3.96546 3.91754
# Velocity P-wave (km/s) = 7.68098 7.91286 7.79778
#
# Compressibility (1/GPa) = 0.01360456
#
# Stress axis : x y z
#
# Youngs Moduli (GPa) = 69.12199 66.45575 81.19981
#
# Poissons Ratio (x) = 0.30340 0.53637
# Poissons Ratio (y) = 0.31558 0.23887
# Poissons Ratio (z) = 0.45659 0.19549
#
# Static dielectric constant tensor:
#      x y z
#    x 2.857680 0.000000 -0.080740 
#    y 0.000000 3.526580 0.000000 
#    z -0.080740 0.000000 3.792540 
# 
# 
# High freq. dielectric constant tensor:
#      x y z
#    x 1.706120 0.000000 0.001450 
#    y 0.000000 1.738960 0.000000 
#    z 0.001450 0.000000 1.751820 
# 
# From -- ./inp_files/313695.got.cif
#   From: 2010.06.25/outbox.cif.g09.slc.cpg/sg12_157_cif.got.tgz:313695.got - 2010.06.28 00:19:55.
