data_PCOD8091166
_publ_section_title
;
Structure prediction by ZEFSAII (Michael W. Deem and Ramdas Pophale) SiO2 
 PCOD8091166
Probable space group: C 2/M
;
_chemical_formula_sum "Si O2"
_cell_formula_units_Z 48
_cell_length_a 20.648629
_cell_length_b 8.843037
_cell_length_c 29.056449
_cell_angle_alpha 90.000000
_cell_angle_beta 150.881786
_cell_angle_gamma 90.000000
_cell_volume 2581.778728
_symmetry_space_group_name_H-M "C 2/M"
_symmetry_group_IT_number 12
_symmetry_cell_setting 'monoclinic'
loop_
_space_group_symop_operation_xyz
x,y,z
-x,y,-z
-x,-y,-z
x,-y,z
1/2+x,1/2+y,z
1/2-x,1/2+y,-z
1/2-x,1/2-y,-z
1/2+x,1/2-y,z
loop_
_atom_site_type_symbol
_atom_site_label
_atom_site_fract_x
_atom_site_fract_y
_atom_site_fract_z
Si Si1 0.478257 0.180193 0.935238
Si Si2 0.231599 0.321615 0.037841
Si Si3 0.222065 0.321160 0.433335
Si Si4 0.684427 0.320177 0.740131
Si Si5 0.480058 0.320414 0.538629
Si Si6 0.553706 0.678544 0.753610
O O1 0.335628 0.238330 0.828118
O O2 0.483294 0.000000 0.939937
O O3 0.500000 0.244233 0.000000
O O4 0.594625 0.242213 0.974557
O O5 0.223425 0.500000 0.027521
O O6 0.354455 0.275292 0.146510
O O7 0.250000 0.250000 0.000000
O O8 0.218626 0.500000 0.437181
O O9 0.250000 0.250000 0.500000
O O10 0.337797 0.270178 0.470179
O O11 0.085733 0.262743 0.326713
O O12 0.682173 0.500000 0.738951
O O13 0.596533 0.254940 0.643733
O O14 0.624044 0.262715 0.750811
O O15 0.500000 0.252025 0.500000
O O16 0.490681 0.500000 0.543738
O O17 0.528387 0.500000 0.735652
#
# Coordination Sequence:
#
# PCOD8091166 Si02
#       6
#     8   8   8   8   8   8
#     4   9  15  27  51  79  99 128 181 229 261 302
#     4  10  21  35  54  81 113 142 175 224 276 324
#     4  11  21  34  56  83 110 141 180 223 267 321
#     4   9  15  27  50  76 102 132 174 224 265 304
#     4   9  18  31  48  76 108 134 168 221 272 304
#     4  10  19  34  55  79 107 144 183 220 267 319
#
# _framework density 18.591832
#
# number of rings (size 3 to 8) (size 9 to 14) (size 15 to 20)
#    0.000    2.333    3.333    0.500    0.000    2.000 
#    0.000    3.333    0.000    3.500    0.000    0.000 
#    0.000    0.000    0.000    0.000    0.000    0.000 
#
# Total GULP energy -297575.512554 kJ/mol
# GULP energy per Si atom -12398.979690 kJ/mol
# Density = 1.854952 g / cm^3
# Si number density = 18.591832 Si / 1000 Ang^3
#
#
#
# Elastic Constant Matrix: (Units=GPa)
#
#
# Indices 1 2 3 4 5 6 
#
# 1 187.0697 29.0489 114.2051 0.0001 0.4277 0.0001
# 2 29.0489 22.6529 31.9115 0.0001 2.9431 0.0002
# 3 114.2051 31.9115 193.0662 0.0010 9.3634 0.0003
# 4 0.0001 0.0001 0.0010 24.3761 0.0003 0.8015
# 5 0.4277 2.9431 9.3634 0.0003 43.0871 0.0000
# 6 0.0001 0.0002 0.0003 0.8015 0.0000 23.5957
#
#
#
# Elastic Compliance Matrix: (Units=1/GPa)
#
#
# Indices 1 2 3 4 5 6 
#
# 1 0.008871 -0.005292 -0.004433 0.000000 0.001237 0.000000
# 2 -0.005292 0.060851 -0.006800 0.000000 -0.002626 -0.000001
# 3 -0.004433 -0.006800 0.008996 0.000000 -0.001446 0.000000
# 4 0.000000 0.000000 0.000000 0.041070 0.000000 -0.001395
# 5 0.001237 -0.002626 -0.001446 0.000000 0.023690 0.000000
# 6 0.000000 -0.000001 0.000000 -0.001395 0.000000 0.042428
#
#
# Mechanical properties :
#
#
# Convention : Reuss Voigt Hill
#
# Bulk Modulus (GPa) = 21.89701 83.67999 52.78850
# Shear Modulus (GPa) = 21.35135 33.38667 27.36901
#
# Velocity S-wave (km/s) = 3.39252 4.24225 3.84096
# Velocity P-wave (km/s) = 5.21046 8.31278 6.93726
#
# Compressibility (1/GPa) = 0.04566833
#
# Stress axis : x y z
#
# Youngs Moduli (GPa) = 112.73307 16.43353 111.16350
#
# Poissons Ratio (x) = 0.08696 0.49274
# Poissons Ratio (y) = 0.59653 0.75597
# Poissons Ratio (z) = 0.49970 0.11176
#
# Static dielectric constant tensor:
#      x y z
#    x 3.718360 0.000000 0.100380 
#    y 0.000000 2.893210 0.000000 
#    z 0.100380 0.000000 3.776400 
# 
# 
# High freq. dielectric constant tensor:
#      x y z
#    x 1.727560 0.000000 0.007260 
#    y 0.000000 1.664530 0.000000 
#    z 0.007260 0.000000 1.739510 
# 
# From -- ./inp_files/329010.got.cif
#   From: 2010.06.25/outbox.cif.g09.slc.cpg/sg12_165_cif.got.tgz:329010.got - 2010.06.28 00:19:55.
