data_PCOD8091146
_publ_section_title
;
Structure prediction by ZEFSAII (Michael W. Deem and Ramdas Pophale) SiO2 
 PCOD8091146
Probable space group: C 2/M
;
_chemical_formula_sum "Si O2"
_cell_formula_units_Z 64
_cell_length_a 29.372499
_cell_length_b 9.582530
_cell_length_c 11.813163
_cell_angle_alpha 90.000000
_cell_angle_beta 86.325093
_cell_angle_gamma 90.000000
_cell_volume 3318.129712
_symmetry_space_group_name_H-M "C 2/M"
_symmetry_group_IT_number 12
_symmetry_cell_setting 'monoclinic'
loop_
_space_group_symop_operation_xyz
x,y,z
-x,y,-z
-x,-y,-z
x,-y,z
1/2+x,1/2+y,z
1/2-x,1/2+y,-z
1/2-x,1/2-y,-z
1/2+x,1/2-y,z
loop_
_atom_site_type_symbol
_atom_site_label
_atom_site_fract_x
_atom_site_fract_y
_atom_site_fract_z
Si Si1 0.761626 0.835037 0.310644
Si Si2 0.339223 0.838696 0.639669
Si Si3 0.001276 0.336686 0.630085
Si Si4 0.211989 0.835137 0.939929
Si Si5 0.575331 0.658553 0.748889
Si Si6 0.155006 0.158130 0.563499
Si Si7 0.416183 0.159217 0.798329
Si Si8 0.607781 0.663771 0.990801
O O1 0.711018 0.772945 0.334553
O O2 0.783323 0.785479 0.189819
O O3 0.794915 0.787124 0.406538
O O4 0.757779 0.000000 0.309651
O O5 0.363434 0.755474 0.533953
O O6 0.366810 0.816580 0.750568
O O7 0.338532 0.000000 0.604402
O O8 0.012869 0.500000 0.630836
O O9 0.039552 0.258279 0.694829
O O10 0.000000 0.283547 0.500000
O O11 0.953368 0.302443 0.697413
O O12 0.161082 0.794073 0.987559
O O13 0.220824 0.000000 0.953783
O O14 0.250000 0.750000 0.000000
O O15 0.556700 0.500000 0.749121
O O16 0.623074 0.668513 0.677175
O O17 0.584801 0.707238 0.875703
O O18 0.157149 0.000000 0.518072
O O19 0.422319 0.000000 0.837518
O O20 0.420259 0.256746 0.907205
O O21 0.602263 0.500000 0.011945
#
# Coordination Sequence:
#
# PCOD8091146 Si02
#       8
#     8   8   8   8   8   8   8   8
#     4   9  17  32  53  76 107 146 183 222 276 332
#     4  10  20  34  54  80 110 146 185 228 278 332
#     4  10  22  41  63  86 114 147 185 231 283 339
#     4  10  19  34  55  78 109 151 194 233 276 326
#     4  10  21  38  60  85 113 148 190 234 283 336
#     4  10  19  34  55  79 110 146 183 227 278 332
#     4  10  22  39  58  83 114 146 184 229 281 338
#     4  10  21  38  59  83 114 150 189 234 281 332
#
# _framework density 19.287973999999998
#
# number of rings (size 3 to 8) (size 9 to 14) (size 15 to 20)
#    0.000    2.125    1.250    1.875    0.000    5.250 
#    0.000    3.750    0.000    0.000    0.000    0.000 
#    0.000    0.000    0.000    0.000    0.000    0.000 
#
# Total GULP energy -396805.253130 kJ/mol
# GULP energy per Si atom -12400.164160 kJ/mol
# Density = 1.924407 g / cm^3
# Si number density = 19.287974 Si / 1000 Ang^3
#
#
#
# Elastic Constant Matrix: (Units=GPa)
#
#
# Indices 1 2 3 4 5 6 
#
# 1 96.3549 42.7455 43.9715 0.0000 9.2101 0.0000
# 2 42.7455 61.3005 59.9181 0.0000 5.4068 0.0000
# 3 43.9715 59.9181 137.1787 0.0000 -1.6721 0.0000
# 4 0.0000 0.0000 0.0000 34.1621 0.0000 1.4565
# 5 9.2101 5.4068 -1.6721 0.0000 29.8154 0.0000
# 6 0.0000 0.0000 0.0000 1.4565 0.0000 31.0666
#
#
#
# Elastic Compliance Matrix: (Units=1/GPa)
#
#
# Indices 1 2 3 4 5 6 
#
# 1 0.015295 -0.009725 -0.000692 0.000000 -0.003000 0.000000
# 2 -0.009725 0.035712 -0.012532 0.000000 -0.004175 0.000000
# 3 -0.000692 -0.012532 0.013025 0.000000 0.003217 0.000000
# 4 0.000000 0.000000 0.000000 0.029331 0.000000 -0.001375
# 5 -0.003000 -0.004175 0.003217 0.000000 0.035404 0.000000
# 6 0.000000 0.000000 0.000000 -0.001375 0.000000 0.032253
#
#
# Mechanical properties :
#
#
# Convention : Reuss Voigt Hill
#
# Bulk Modulus (GPa) = 55.14389 65.34492 60.24441
# Shear Modulus (GPa) = 23.47842 28.88877 26.18359
#
# Velocity S-wave (km/s) = 3.49271 3.87429 3.68844
# Velocity P-wave (km/s) = 6.70203 7.34613 7.03146
#
# Compressibility (1/GPa) = 0.01813438
#
# Stress axis : x y z
#
# Youngs Moduli (GPa) = 65.38203 28.00168 76.77739
#
# Poissons Ratio (x) = 0.27231 0.05310
# Poissons Ratio (y) = 0.63581 0.96221
# Poissons Ratio (z) = 0.04522 0.35093
#
# Static dielectric constant tensor:
#      x y z
#    x 3.638590 0.000000 -0.046890 
#    y 0.000000 3.330580 0.000000 
#    z -0.046890 0.000000 3.582460 
# 
# 
# High freq. dielectric constant tensor:
#      x y z
#    x 1.755600 0.000000 -0.000500 
#    y 0.000000 1.729480 0.000000 
#    z -0.000500 0.000000 1.758610 
# 
# From -- ./inp_files/187620.got.cif
#   From: 2010.06.25/outbox.cif.g09.slc.cpg/sg12_94_cif.got.tgz:187620.got - 2010.06.28 00:19:55.
