data_PCOD8091781
_publ_section_title
;
Structure prediction by ZEFSAII (Michael W. Deem and Ramdas Pophale) SiO2 
 PCOD8091781
Probable space group: C 2/M
;
_chemical_formula_sum "Si O2"
_cell_formula_units_Z 56
_cell_length_a 19.498463
_cell_length_b 13.383456
_cell_length_c 12.123745
_cell_angle_alpha 90.000000
_cell_angle_beta 65.989324
_cell_angle_gamma 90.000000
_cell_volume 2890.011506
_symmetry_space_group_name_H-M "C 2/M"
_symmetry_group_IT_number 12
_symmetry_cell_setting 'monoclinic'
loop_
_space_group_symop_operation_xyz
x,y,z
-x,y,-z
-x,-y,-z
x,-y,z
1/2+x,1/2+y,z
1/2-x,1/2+y,-z
1/2-x,1/2-y,-z
1/2+x,1/2-y,z
loop_
_atom_site_type_symbol
_atom_site_label
_atom_site_fract_x
_atom_site_fract_y
_atom_site_fract_z
Si Si1 0.222521 0.215738 0.845053
Si Si2 0.285352 0.388859 0.933958
Si Si3 0.541235 0.613230 0.194476
Si Si4 0.594919 0.885718 0.657098
Si Si5 0.537878 0.211378 0.364072
Si Si6 0.561788 0.250722 0.879750
Si Si7 0.176234 0.381375 0.383037
O O1 0.257908 0.325026 0.845861
O O2 0.132084 0.214963 0.906706
O O3 0.247406 0.171368 0.709110
O O4 0.252674 0.148182 0.927153
O O5 0.257495 0.500000 0.925759
O O6 0.373645 0.385715 0.901887
O O7 0.516498 0.500000 0.241351
O O8 0.540724 0.684608 0.299554
O O9 0.482283 0.654559 0.142804
O O10 0.511285 0.872976 0.664635
O O11 0.600255 0.820829 0.763842
O O12 0.654853 0.851053 0.523067
O O13 0.609351 0.000000 0.679239
O O14 0.500000 0.245413 0.500000
O O15 0.617220 0.159721 0.332276
O O16 0.500000 0.196043 0.000000
O O17 0.182374 0.500000 0.370389
#
# Coordination Sequence:
#
# PCOD8091781 Si02
#       7
#     8   8   8   8   8   8   8
#     4  11  22  37  59  84 117 149 191 239 290 336
#     4  10  21  37  58  85 113 148 191 237 283 335
#     4  10  20  36  57  81 114 149 190 233 274 335
#     4   9  20  36  57  83 113 147 186 235 287 344
#     4   9  17  33  56  84 114 144 183 233 284 336
#     4  11  23  39  57  82 116 152 192 232 286 348
#     4  10  19  34  57  85 112 146 192 236 287 341
#
# _framework density 19.377085999999998
#
# number of rings (size 3 to 8) (size 9 to 14) (size 15 to 20)
#    0.000    2.000    2.857    0.857    0.000    4.857 
#    0.000    1.429    0.000    0.000    0.000    0.000 
#    0.000    0.000    0.000    0.000    0.000    0.000 
#
# Total GULP energy -346989.864024 kJ/mol
# GULP energy per Si atom -12392.495144 kJ/mol
# Density = 1.933298 g / cm^3
# Si number density = 19.377086 Si / 1000 Ang^3
#
#
#
# Elastic Constant Matrix: (Units=GPa)
#
#
# Indices 1 2 3 4 5 6 
#
# 1 73.5181 31.1598 21.0530 0.0000 -5.8054 0.0000
# 2 31.1598 125.3623 51.3195 0.0000 -0.3423 0.0000
# 3 21.0530 51.3195 111.0422 0.0000 -5.9919 0.0000
# 4 0.0000 0.0000 0.0000 24.6721 0.0000 -3.9430
# 5 -5.8054 -0.3423 -5.9919 0.0000 26.8320 0.0000
# 6 0.0000 0.0000 0.0000 -3.9430 0.0000 17.6168
#
#
#
# Elastic Compliance Matrix: (Units=1/GPa)
#
#
# Indices 1 2 3 4 5 6 
#
# 1 0.015627 -0.003368 -0.001241 0.000000 0.003061 0.000000
# 2 -0.003368 0.010586 -0.004338 0.000000 -0.001562 0.000000
# 3 -0.001241 -0.004338 0.011365 0.000000 0.002214 0.000000
# 4 0.000000 0.000000 0.000000 0.042035 0.000000 0.009408
# 5 0.003061 -0.001562 0.002214 0.000000 0.038406 0.000000
# 6 0.000000 0.000000 0.000000 0.009408 0.000000 0.058870
#
#
# Mechanical properties :
#
#
# Convention : Reuss Voigt Hill
#
# Bulk Modulus (GPa) = 50.80359 57.44302 54.12331
# Shear Modulus (GPa) = 24.83325 27.58353 26.20839
#
# Velocity S-wave (km/s) = 3.58380 3.77704 3.68169
# Velocity P-wave (km/s) = 6.58788 6.98073 6.78714
#
# Compressibility (1/GPa) = 0.01968365
#
# Stress axis : x y z
#
# Youngs Moduli (GPa) = 63.99364 94.46856 87.98750
#
# Poissons Ratio (x) = 0.31814 0.10920
# Poissons Ratio (y) = 0.21551 0.38169
# Poissons Ratio (z) = 0.07943 0.40981
#
# Static dielectric constant tensor:
#      x y z
#    x 3.451610 0.000000 -0.021670 
#    y 0.000000 3.463130 0.000000 
#    z -0.021670 0.000000 3.657350 
# 
# 
# High freq. dielectric constant tensor:
#      x y z
#    x 1.742980 0.000000 -0.005340 
#    y 0.000000 1.746280 0.000000 
#    z -0.005340 0.000000 1.759790 
# 
# From -- ./inp_files/165611.got.cif
#   From: 2010.06.25/outbox.cif.g09.slc.cpg/sg12_83_cif.got.tgz:165611.got - 2010.06.28 00:19:55.
