data_PCOD8091647
_publ_section_title
;
Structure prediction by ZEFSAII (Michael W. Deem and Ramdas Pophale) SiO2 
 PCOD8091647
Probable space group: C 2/M
;
_chemical_formula_sum "Si O2"
_cell_formula_units_Z 64
_cell_length_a 25.219249
_cell_length_b 9.516517
_cell_length_c 31.997809
_cell_angle_alpha 90.000000
_cell_angle_beta 153.215530
_cell_angle_gamma 90.000000
_cell_volume 3460.635881
_symmetry_space_group_name_H-M "C 2/M"
_symmetry_group_IT_number 12
_symmetry_cell_setting 'monoclinic'
loop_
_space_group_symop_operation_xyz
x,y,z
-x,y,-z
-x,-y,-z
x,-y,z
1/2+x,1/2+y,z
1/2-x,1/2+y,-z
1/2-x,1/2-y,-z
1/2+x,1/2-y,z
loop_
_atom_site_type_symbol
_atom_site_label
_atom_site_fract_x
_atom_site_fract_y
_atom_site_fract_z
Si Si1 0.900972 0.162004 0.792997
Si Si2 0.537124 0.159734 0.665160
Si Si3 0.616826 0.838620 0.300036
Si Si4 0.361744 0.662090 0.996668
Si Si5 0.767791 0.841669 0.783133
Si Si6 0.809617 0.163105 0.505119
Si Si7 0.602170 0.163906 0.803476
Si Si8 0.874774 0.349545 0.927861
O O1 0.858681 0.254477 0.724842
O O2 0.817862 0.206232 0.773528
O O3 0.879467 0.000000 0.766895
O O4 0.041020 0.189560 0.899128
O O5 0.625911 0.161928 0.687967
O O6 0.434364 0.267902 0.582154
O O7 0.600138 0.209801 0.753141
O O8 0.488427 0.000000 0.636799
O O9 0.731425 0.824372 0.408948
O O10 0.505137 0.768733 0.245772
O O11 0.592368 0.000000 0.270817
O O12 0.365277 0.500000 0.984945
O O13 0.226776 0.704023 0.913310
O O14 0.399717 0.756302 0.985350
O O15 0.805897 0.735237 0.845006
O O16 0.814343 0.000000 0.825128
O O17 0.750000 0.250000 0.500000
O O18 0.824862 0.000000 0.529034
O O19 0.580265 0.000000 0.789784
O O20 0.810286 0.500000 0.892477
O O21 0.000000 0.391964 0.000000
#
# Coordination Sequence:
#
# PCOD8091647 Si02
#       8
#     8   8   8   8   8   8   8   8
#     4  10  22  37  56  83 111 150 202 236 266 325
#     4  10  19  35  60  89 116 144 180 235 297 339
#     4  10  22  40  58  78 112 153 186 222 286 349
#     4  10  19  34  57  81 111 151 193 235 278 329
#     4  10  20  36  58  81 112 153 192 232 283 336
#     4  11  22  38  62  90 115 145 185 233 288 344
#     4   9  17  33  57  84 112 145 184 226 280 342
#     4  11  21  30  47  80 116 147 188 237 282 328
#
# _framework density 18.493711000000001
#
# number of rings (size 3 to 8) (size 9 to 14) (size 15 to 20)
#    0.000    1.875    3.750    0.750    0.000    3.500 
#    0.000    1.250    0.000    3.750    0.000    0.000 
#    0.000    0.000    0.000    0.000    0.000    0.000 
#
# Total GULP energy -396561.274425 kJ/mol
# GULP energy per Si atom -12392.539826 kJ/mol
# Density = 1.845162 g / cm^3
# Si number density = 18.493711 Si / 1000 Ang^3
#
#
#
# Elastic Constant Matrix: (Units=GPa)
#
#
# Indices 1 2 3 4 5 6 
#
# 1 75.5318 28.1225 34.6338 0.0004 0.4973 0.0000
# 2 28.1225 84.0893 44.0277 0.0009 -8.5259 -0.0012
# 3 34.6338 44.0277 82.7729 -0.0014 5.5674 0.0000
# 4 0.0004 0.0009 -0.0014 28.5596 -0.0001 -2.0237
# 5 0.4973 -8.5259 5.5674 -0.0001 29.9028 0.0001
# 6 0.0000 -0.0012 0.0000 -2.0237 0.0001 28.4570
#
#
#
# Elastic Compliance Matrix: (Units=1/GPa)
#
#
# Indices 1 2 3 4 5 6 
#
# 1 0.016810 -0.002688 -0.005603 0.000000 -0.000003 0.000000
# 2 -0.002688 0.018223 -0.009034 -0.000001 0.006922 0.000001
# 3 -0.005603 -0.009034 0.019644 0.000001 -0.006140 0.000000
# 4 0.000000 -0.000001 0.000001 0.035192 0.000000 0.002503
# 5 -0.000003 0.006922 -0.006140 0.000000 0.036559 0.000000
# 6 0.000000 0.000001 0.000000 0.002503 0.000000 0.035319
#
#
# Mechanical properties :
#
#
# Convention : Reuss Voigt Hill
#
# Bulk Modulus (GPa) = 49.93560 50.66246 50.29903
# Shear Modulus (GPa) = 24.62182 26.42455 25.52318
#
# Velocity S-wave (km/s) = 3.65274 3.78410 3.71900
# Velocity P-wave (km/s) = 6.69702 6.82250 6.76005
#
# Compressibility (1/GPa) = 0.02002579
#
# Stress axis : x y z
#
# Youngs Moduli (GPa) = 59.48941 54.87587 50.90619
#
# Poissons Ratio (x) = 0.14752 0.28525
# Poissons Ratio (y) = 0.15992 0.45988
# Poissons Ratio (z) = 0.33335 0.49574
#
# Static dielectric constant tensor:
#      x y z
#    x 3.024620 -0.000010 0.135150 
#    y -0.000010 3.448520 0.000000 
#    z 0.135150 0.000000 3.364190 
# 
# 
# High freq. dielectric constant tensor:
#      x y z
#    x 1.707540 0.000000 0.016600 
#    y 0.000000 1.713690 0.000000 
#    z 0.016600 0.000000 1.708400 
# 
# From -- ./inp_files/382494.got.cif
#   From: 2010.06.25/outbox.cif.g09.slc.cpg/sg12_192_cif.got.tgz:382494.got - 2010.06.28 00:19:55.
