data_PCOD8091387
_publ_section_title
;
Structure prediction by ZEFSAII (Michael W. Deem and Ramdas Pophale) SiO2 
 PCOD8091387
Probable space group: C 2/M
;
_chemical_formula_sum "Si O2"
_cell_formula_units_Z 64
_cell_length_a 24.290466
_cell_length_b 9.277588
_cell_length_c 21.785341
_cell_angle_alpha 90.000000
_cell_angle_beta 44.391215
_cell_angle_gamma 90.000000
_cell_volume 3434.443700
_symmetry_space_group_name_H-M "C 2/M"
_symmetry_group_IT_number 12
_symmetry_cell_setting 'monoclinic'
loop_
_space_group_symop_operation_xyz
x,y,z
-x,y,-z
-x,-y,-z
x,-y,z
1/2+x,1/2+y,z
1/2-x,1/2+y,-z
1/2-x,1/2-y,-z
1/2+x,1/2-y,z
loop_
_atom_site_type_symbol
_atom_site_label
_atom_site_fract_x
_atom_site_fract_y
_atom_site_fract_z
Si Si1 0.810771 0.165605 0.376096
Si Si2 0.998558 0.828056 0.431486
Si Si3 0.579729 0.665561 0.037094
Si Si4 0.842734 0.169250 0.487881
Si Si5 0.399060 0.666266 0.184329
Si Si6 0.673469 0.333585 0.081767
Si Si7 0.181813 0.670778 0.857656
Si Si8 0.646534 0.329560 0.238829
O O1 0.848349 0.210097 0.411449
O O2 0.733637 0.257591 0.421470
O O3 0.876951 0.195040 0.272536
O O4 0.784296 0.000000 0.398387
O O5 0.074117 0.763683 0.335273
O O6 0.000000 0.769929 0.500000
O O7 0.920185 0.771162 0.460137
O O8 0.000620 0.000000 0.429060
O O9 0.593176 0.500000 0.006236
O O10 0.489228 0.709942 0.102388
O O11 0.603882 0.688327 0.088463
O O12 0.630084 0.768343 0.954129
O O13 0.834281 0.000000 0.505059
O O14 0.385151 0.500000 0.177527
O O15 0.345057 0.765909 0.185507
O O16 0.697974 0.500000 0.068725
O O17 0.643169 0.273208 0.171300
O O18 0.750000 0.250000 0.000000
O O19 0.172248 0.500000 0.864686
O O20 0.271823 0.719044 0.795403
O O21 0.638813 0.500000 0.245414
#
# Coordination Sequence:
#
# PCOD8091387 Si02
#       8
#     8   8   8   8   8   8   8   8
#     4   9  19  35  54  77 105 139 175 219 269 314
#     4   9  18  31  52  82 111 137 171 219 267 315
#     4  10  21  36  56  78 106 142 183 222 263 316
#     4   9  18  33  56  80 105 136 176 219 264 317
#     4  10  22  37  54  77 105 141 185 225 263 315
#     4  10  19  34  56  80 108 142 178 222 268 316
#     4  11  22  36  55  79 110 142 175 219 273 324
#     4   9  19  33  51  79 111 139 173 219 268 316
#
# _framework density 18.63475
#
# number of rings (size 3 to 8) (size 9 to 14) (size 15 to 20)
#    0.000    2.375    1.250    0.750    3.500    2.500 
#    0.000    0.000    0.000    2.625    0.000    0.000 
#    0.000    0.000    0.000    0.000    0.000    0.000 
#
# Total GULP energy -396839.093739 kJ/mol
# GULP energy per Si atom -12401.221679 kJ/mol
# Density = 1.859234 g / cm^3
# Si number density = 18.634750 Si / 1000 Ang^3
#
#
#
# Elastic Constant Matrix: (Units=GPa)
#
#
# Indices 1 2 3 4 5 6 
#
# 1 139.6980 34.6429 62.0752 0.0003 -4.2200 -0.0003
# 2 34.6429 40.5129 29.6782 0.0011 -3.0414 -0.0012
# 3 62.0752 29.6782 134.4544 0.0003 -3.1782 -0.0005
# 4 0.0003 0.0011 0.0003 24.8087 -0.0003 -1.1594
# 5 -4.2200 -3.0414 -3.1782 -0.0003 31.7035 0.0004
# 6 -0.0003 -0.0012 -0.0005 -1.1594 0.0004 25.3778
#
#
#
# Elastic Compliance Matrix: (Units=1/GPa)
#
#
# Indices 1 2 3 4 5 6 
#
# 1 0.010197 -0.006258 -0.003316 0.000000 0.000424 0.000000
# 2 -0.006258 0.033436 -0.004446 -0.000001 0.001929 0.000001
# 3 -0.003316 -0.004446 0.009953 0.000000 0.000130 0.000000
# 4 0.000000 -0.000001 0.000000 0.040395 0.000000 0.001846
# 5 0.000424 0.001929 0.000130 0.000000 0.031797 0.000000
# 6 0.000000 0.000001 0.000000 0.001846 0.000000 0.039489
#
#
# Mechanical properties :
#
#
# Convention : Reuss Voigt Hill
#
# Bulk Modulus (GPa) = 39.14499 63.05088 51.09794
# Shear Modulus (GPa) = 24.77444 28.92926 26.85185
#
# Velocity S-wave (km/s) = 3.65015 3.94437 3.80011
# Velocity P-wave (km/s) = 6.23032 7.39274 6.83628
#
# Compressibility (1/GPa) = 0.02554605
#
# Stress axis : x y z
#
# Youngs Moduli (GPa) = 98.07226 29.90770 100.47364
#
# Poissons Ratio (x) = 0.18716 0.33319
# Poissons Ratio (y) = 0.61373 0.44667
# Poissons Ratio (z) = 0.32523 0.13296
#
# Static dielectric constant tensor:
#      x y z
#    x 3.668830 0.000000 0.044010 
#    y 0.000000 3.158920 0.000000 
#    z 0.044010 0.000000 3.573870 
# 
# 
# High freq. dielectric constant tensor:
#      x y z
#    x 1.735730 0.000000 0.004460 
#    y 0.000000 1.689170 0.000000 
#    z 0.004460 0.000000 1.731460 
# 
# From -- ./inp_files/324171.got.cif
#   From: 2010.06.25/outbox.cif.g09.slc.cpg/sg12_163_cif.got.tgz:324171.got - 2010.06.28 00:19:55.
