data_PCOD8091062
_publ_section_title
;
Structure prediction by ZEFSAII (Michael W. Deem and Ramdas Pophale) SiO2 
 PCOD8091062
Probable space group: C 2/M
;
_chemical_formula_sum "Si O2"
_cell_formula_units_Z 64
_cell_length_a 18.920580
_cell_length_b 19.134731
_cell_length_c 9.298592
_cell_angle_alpha 90.000000
_cell_angle_beta 84.891642
_cell_angle_gamma 90.000000
_cell_volume 3353.092886
_symmetry_space_group_name_H-M "C 2/M"
_symmetry_group_IT_number 12
_symmetry_cell_setting 'monoclinic'
loop_
_space_group_symop_operation_xyz
x,y,z
-x,y,-z
-x,-y,-z
x,-y,z
1/2+x,1/2+y,z
1/2-x,1/2+y,-z
1/2-x,1/2-y,-z
1/2+x,1/2-y,z
loop_
_atom_site_type_symbol
_atom_site_label
_atom_site_fract_x
_atom_site_fract_y
_atom_site_fract_z
Si Si1 0.149421 0.211565 0.643118
Si Si2 0.842134 0.627322 0.362800
Si Si3 0.198531 0.655658 0.326873
Si Si4 0.311097 0.920548 0.957634
Si Si5 0.290428 0.577935 0.775323
Si Si6 0.383018 0.293860 0.676485
Si Si7 0.938366 0.371858 0.102098
Si Si8 0.019695 0.784231 0.843582
O O1 0.168642 0.291432 0.677419
O O2 0.222069 0.168348 0.629003
O O3 0.111046 0.205129 0.496482
O O4 0.093006 0.182455 0.770257
O O5 0.849247 0.623245 0.534668
O O6 0.773654 0.584499 0.326363
O O7 0.911567 0.597091 0.262757
O O8 0.202835 0.597706 0.204367
O O9 0.164716 0.726955 0.270358
O O10 0.338860 0.000000 0.965093
O O11 0.238140 0.910952 0.057616
O O12 0.369612 0.868511 0.012624
O O13 0.322679 0.500000 0.752063
O O14 0.350547 0.634239 0.738321
O O15 0.459802 0.290394 0.733655
O O16 0.970137 0.297008 0.129696
O O17 0.000000 0.413635 0.000000
O O18 0.000000 0.821037 0.000000
#
# Coordination Sequence:
#
# PCOD8091062 Si02
#       8
#     8   8   8   8   8   8   8   8
#     4  10  19  34  54  85 117 145 177 240 294 328
#     4   9  17  34  54  81 111 141 185 228 281 335
#     4  11  19  33  59  85 115 143 187 238 291 328
#     4  10  23  37  54  82 118 151 186 235 283 331
#     4  10  20  36  55  79 110 150 188 230 281 332
#     4  11  20  36  57  84 115 146 187 239 285 335
#     4   9  18  36  54  79 112 149 187 221 278 339
#     4  10  21  33  53  85 114 146 188 227 284 336
#
# _framework density 19.086856000000001
#
# number of rings (size 3 to 8) (size 9 to 14) (size 15 to 20)
#    0.000    2.000    2.500    2.625    1.750    1.250 
#    0.000    1.875    0.000    3.375    0.000    0.000 
#    0.000    0.000    0.000    0.000    0.000    0.000 
#
# Total GULP energy -396548.758129 kJ/mol
# GULP energy per Si atom -12392.148692 kJ/mol
# Density = 1.904341 g / cm^3
# Si number density = 19.086856 Si / 1000 Ang^3
#
#
#
# Elastic Constant Matrix: (Units=GPa)
#
#
# Indices 1 2 3 4 5 6 
#
# 1 78.6522 23.3559 32.3246 0.0000 -9.0910 0.0000
# 2 23.3559 58.8055 33.8956 0.0000 -6.7311 0.0000
# 3 32.3246 33.8956 117.6373 0.0000 -12.9689 0.0000
# 4 0.0000 0.0000 0.0000 19.3078 0.0000 -0.1486
# 5 -9.0910 -6.7311 -12.9689 0.0000 32.0562 0.0000
# 6 0.0000 0.0000 0.0000 -0.1486 0.0000 12.9003
#
#
#
# Elastic Compliance Matrix: (Units=1/GPa)
#
#
# Indices 1 2 3 4 5 6 
#
# 1 0.015377 -0.004259 -0.002738 0.000000 0.002359 0.000000
# 2 -0.004259 0.021694 -0.004931 0.000000 0.001352 0.000000
# 3 -0.002738 -0.004931 0.010963 0.000000 0.002623 0.000000
# 4 0.000000 0.000000 0.000000 0.051797 0.000000 0.000597
# 5 0.002359 0.001352 0.002623 0.000000 0.033209 0.000000
# 6 0.000000 0.000000 0.000000 0.000597 0.000000 0.077525
#
#
# Mechanical properties :
#
#
# Convention : Reuss Voigt Hill
#
# Bulk Modulus (GPa) = 41.36153 48.24967 44.80560
# Shear Modulus (GPa) = 20.62013 23.88745 22.25379
#
# Velocity S-wave (km/s) = 3.29041 3.54151 3.41826
# Velocity P-wave (km/s) = 6.01273 6.48513 6.25339
#
# Compressibility (1/GPa) = 0.02417706
#
# Stress axis : x y z
#
# Youngs Moduli (GPa) = 65.03274 46.09550 91.21415
#
# Poissons Ratio (x) = 0.19632 0.24975
# Poissons Ratio (y) = 0.27698 0.44982
# Poissons Ratio (z) = 0.17806 0.22732
#
# Static dielectric constant tensor:
#      x y z
#    x 3.515760 0.000000 -0.421280 
#    y 0.000000 3.164040 0.000000 
#    z -0.421280 0.000000 3.916920 
# 
# 
# High freq. dielectric constant tensor:
#      x y z
#    x 1.730190 0.000000 -0.017000 
#    y 0.000000 1.701440 0.000000 
#    z -0.017000 0.000000 1.758480 
# 
# From -- ./inp_files/77543.got.cif
#   From: 2010.06.25/outbox.cif.g09.slc.cpg/sg12_39_cif.got.tgz:77543.got - 2010.06.28 00:19:55.
