data_PCOD8091855
_publ_section_title
;
Structure prediction by ZEFSAII (Michael W. Deem and Ramdas Pophale) SiO2 
 PCOD8091855
Probable space group: C 2/M
;
_chemical_formula_sum "Si O2"
_cell_formula_units_Z 60
_cell_length_a 22.988454
_cell_length_b 21.759164
_cell_length_c 11.558671
_cell_angle_alpha 90.000000
_cell_angle_beta 152.388961
_cell_angle_gamma 90.000000
_cell_volume 2679.652471
_symmetry_space_group_name_H-M "C 2/M"
_symmetry_group_IT_number 12
_symmetry_cell_setting 'monoclinic'
loop_
_space_group_symop_operation_xyz
x,y,z
-x,y,-z
-x,-y,-z
x,-y,z
1/2+x,1/2+y,z
1/2-x,1/2+y,-z
1/2-x,1/2-y,-z
1/2+x,1/2-y,z
loop_
_atom_site_type_symbol
_atom_site_label
_atom_site_fract_x
_atom_site_fract_y
_atom_site_fract_z
Si Si1 0.663614 0.568095 0.062659
Si Si2 0.804654 0.656695 0.151757
Si Si3 0.872945 0.782460 0.339268
Si Si4 0.100631 0.430184 0.859583
Si Si5 0.631100 0.932518 0.402848
Si Si6 0.264105 0.149401 0.711498
Si Si7 0.000000 0.344603 0.000000
Si Si8 0.581075 0.569976 0.249832
O O1 0.705160 0.500000 0.091233
O O2 0.726820 0.578827 0.301787
O O3 0.699631 0.622386 0.040461
O O4 0.513715 0.570056 0.808134
O O5 0.743487 0.694881 0.940236
O O6 0.893978 0.606027 0.251827
O O7 0.878851 0.707745 0.358498
O O8 0.841357 0.806953 0.413858
O O9 0.000000 0.806728 0.500000
O O10 0.146639 0.500000 0.922976
O O11 0.187546 0.401549 0.113176
O O12 0.954401 0.426507 0.633327
O O13 0.590833 0.884394 0.238109
O O14 0.614817 0.000000 0.319027
O O15 0.389497 0.188147 0.883695
O O16 0.198540 0.113398 0.488733
O O17 0.628408 0.500000 0.308104
O O18 0.500000 0.596249 0.000000
#
# Coordination Sequence:
#
# PCOD8091855 Si02
#       8
#     8   8   8   8   8   8   4   8
#     4  10  20  33  53  84 116 147 184 230 288 350
#     4  10  21  36  57  83 109 149 191 241 290 340
#     4  10  22  39  59  82 109 153 202 241 283 340
#     4   9  18  32  53  86 120 148 183 231 289 348
#     4   9  18  30  49  82 118 151 184 223 277 343
#     4  10  20  36  58  85 118 154 196 237 282 338
#     4  10  19  34  58  80 114 152 191 240 280 332
#     4  10  20  34  56  84 117 154 189 229 284 349
#
# _framework density 22.390962999999999
#
# number of rings (size 3 to 8) (size 9 to 14) (size 15 to 20)
#    0.000    2.267    0.000    2.600    1.867    2.667 
#    0.000    2.000    1.467    8.000    0.000    0.000 
#    0.000    0.000    0.000    0.000    0.000    0.000 
#
# Total GULP energy -371653.622163 kJ/mol
# GULP energy per Si atom -12388.454072 kJ/mol
# Density = 2.234000 g / cm^3
# Si number density = 22.390963 Si / 1000 Ang^3
#
#
#
# Elastic Constant Matrix: (Units=GPa)
#
#
# Indices 1 2 3 4 5 6 
#
# 1 111.0049 33.9585 30.4194 0.0000 30.1054 0.0000
# 2 33.9585 78.9014 18.1704 0.0000 3.9849 0.0000
# 3 30.4194 18.1704 70.4245 0.0000 17.1374 0.0000
# 4 0.0000 0.0000 0.0000 17.4014 0.0000 -1.2857
# 5 30.1054 3.9849 17.1374 0.0000 41.3252 0.0000
# 6 0.0000 0.0000 0.0000 -1.2857 0.0000 16.0335
#
#
#
# Elastic Compliance Matrix: (Units=1/GPa)
#
#
# Indices 1 2 3 4 5 6 
#
# 1 0.013402 -0.004764 -0.002553 0.000000 -0.008245 0.000000
# 2 -0.004764 0.015169 -0.002608 0.000000 0.003089 0.000000
# 3 -0.002553 -0.002608 0.017197 0.000000 -0.005020 0.000000
# 4 0.000000 0.000000 0.000000 0.057809 0.000000 0.004636
# 5 -0.008245 0.003089 -0.005020 0.000000 0.031989 0.000000
# 6 0.000000 0.000000 0.000000 0.004636 0.000000 0.062741
#
#
# Mechanical properties :
#
#
# Convention : Reuss Voigt Hill
#
# Bulk Modulus (GPa) = 38.58336 47.26969 42.92653
# Shear Modulus (GPa) = 22.04633 26.80418 24.42526
#
# Velocity S-wave (km/s) = 3.14125 3.46366 3.30639
# Velocity P-wave (km/s) = 5.51595 6.09531 5.81285
#
# Compressibility (1/GPa) = 0.02591791
#
# Stress axis : x y z
#
# Youngs Moduli (GPa) = 74.61768 65.92485 58.14987
#
# Poissons Ratio (x) = 0.31403 0.14848
# Poissons Ratio (y) = 0.35544 0.15165
# Poissons Ratio (z) = 0.19053 0.17192
#
# Static dielectric constant tensor:
#      x y z
#    x 4.379010 0.000000 0.250280 
#    y 0.000000 3.898310 0.000000 
#    z 0.250280 0.000000 3.831300 
# 
# 
# High freq. dielectric constant tensor:
#      x y z
#    x 1.899980 0.000000 0.019580 
#    y 0.000000 1.846270 0.000000 
#    z 0.019580 0.000000 1.876390 
# 
# From -- ./inp_files/178033.got.cif
#   From: 2010.06.25/outbox.cif.g09.slc.cpg/sg12_90_cif.got.tgz:178033.got - 2010.06.28 00:19:55.
