data_PCOD8091464
_publ_section_title
;
Structure prediction by ZEFSAII (Michael W. Deem and Ramdas Pophale) SiO2 
 PCOD8091464
Probable space group: C 2/M
;
_chemical_formula_sum "Si O2"
_cell_formula_units_Z 64
_cell_length_a 24.871819
_cell_length_b 8.537782
_cell_length_c 16.493645
_cell_angle_alpha 90.000000
_cell_angle_beta 103.734039
_cell_angle_gamma 90.000000
_cell_volume 3402.287723
_symmetry_space_group_name_H-M "C 2/M"
_symmetry_group_IT_number 12
_symmetry_cell_setting 'monoclinic'
loop_
_space_group_symop_operation_xyz
x,y,z
-x,y,-z
-x,-y,-z
x,-y,z
1/2+x,1/2+y,z
1/2-x,1/2+y,-z
1/2-x,1/2-y,-z
1/2+x,1/2-y,z
loop_
_atom_site_type_symbol
_atom_site_label
_atom_site_fract_x
_atom_site_fract_y
_atom_site_fract_z
Si Si1 0.385293 0.183251 0.285062
Si Si2 0.065274 0.674393 0.014189
Si Si3 0.329909 0.683781 0.670993
Si Si4 0.938093 0.817080 0.458034
Si Si5 0.943180 0.817736 0.154607
Si Si6 0.663915 0.181433 0.501407
Si Si7 0.780140 0.184017 0.324402
Si Si8 0.930928 0.816405 0.817854
O O1 0.425395 0.275547 0.360629
O O2 0.405847 0.218212 0.202290
O O3 0.322423 0.241646 0.274625
O O4 0.388209 0.000000 0.304913
O O5 0.088207 0.500000 0.006638
O O6 0.080793 0.784088 0.943682
O O7 0.090813 0.739127 0.106727
O O8 0.000000 0.673881 0.000000
O O9 0.327589 0.500000 0.653528
O O10 0.321324 0.775317 0.584521
O O11 0.279772 0.737112 0.711475
O O12 0.388333 0.731833 0.732036
O O13 0.900397 0.718331 0.505973
O O14 0.000000 0.768132 0.500000
O O15 0.927287 0.000000 0.469177
O O16 0.007258 0.761209 0.184820
O O17 0.937379 0.000000 0.172861
O O18 0.700141 0.282660 0.576726
O O19 0.676756 0.000000 0.521397
O O20 0.776459 0.000000 0.308152
O O21 0.931393 0.000000 0.833714
#
# Coordination Sequence:
#
# PCOD8091464 Si02
#       8
#     8   8   8   8   8   8   8   8
#     4  11  22  36  55  80 107 139 180 225 269 316
#     4   9  17  31  52  79 111 143 175 217 265 313
#     4  11  22  37  56  80 109 142 181 227 272 319
#     4  10  21  36  53  73 105 145 180 218 268 322
#     4  10  19  34  56  82 111 145 182 216 258 322
#     4  11  22  36  54  78 105 139 183 227 272 318
#     4  11  22  39  58  77 103 141 185 228 273 320
#     4   9  20  35  54  80 111 145 177 214 266 322
#
# _framework density 18.810873999999998
#
# number of rings (size 3 to 8) (size 9 to 14) (size 15 to 20)
#    0.000    1.750    0.000    6.750    1.750    4.000 
#    0.000    0.000    0.000    0.750    0.000    0.000 
#    0.000    0.000    0.000    0.000    0.000    0.000 
#
# Total GULP energy -396883.106047 kJ/mol
# GULP energy per Si atom -12402.597064 kJ/mol
# Density = 1.876806 g / cm^3
# Si number density = 18.810874 Si / 1000 Ang^3
#
#
#
# Elastic Constant Matrix: (Units=GPa)
#
#
# Indices 1 2 3 4 5 6 
#
# 1 80.3885 25.7307 37.3712 0.0000 -11.7810 0.0000
# 2 25.7307 61.1844 10.7858 0.0000 -1.0994 0.0000
# 3 37.3712 10.7858 65.1824 0.0000 -17.4304 0.0000
# 4 0.0000 0.0000 0.0000 29.3856 0.0000 -5.8971
# 5 -11.7810 -1.0994 -17.4304 0.0000 20.3996 0.0000
# 6 0.0000 0.0000 0.0000 -5.8971 0.0000 28.2320
#
#
#
# Elastic Compliance Matrix: (Units=1/GPa)
#
#
# Indices 1 2 3 4 5 6 
#
# 1 0.019168 -0.006395 -0.009155 0.000000 0.002902 0.000000
# 2 -0.006395 0.019026 -0.000253 0.000000 -0.002884 0.000000
# 3 -0.009155 -0.000253 0.024906 0.000000 0.015980 0.000000
# 4 0.000000 0.000000 0.000000 0.035519 0.000000 0.007419
# 5 0.002902 -0.002884 0.015980 0.000000 0.064195 0.000000
# 6 0.000000 0.000000 0.000000 0.007419 0.000000 0.036971
#
#
# Mechanical properties :
#
#
# Convention : Reuss Voigt Hill
#
# Bulk Modulus (GPa) = 31.75299 39.39229 35.57264
# Shear Modulus (GPa) = 20.67064 24.46128 22.56596
#
# Velocity S-wave (km/s) = 3.31851 3.60999 3.46732
# Velocity P-wave (km/s) = 5.62140 6.19377 5.91451
#
# Compressibility (1/GPa) = 0.03149310
#
# Stress axis : x y z
#
# Youngs Moduli (GPa) = 52.17037 52.55927 40.15157
#
# Poissons Ratio (x) = 0.33611 0.36760
# Poissons Ratio (y) = 0.33362 0.01016
# Poissons Ratio (z) = 0.47764 0.01330
#
# Static dielectric constant tensor:
#      x y z
#    x 3.539510 0.000000 -0.057620 
#    y 0.000000 3.509480 0.000000 
#    z -0.057620 0.000000 3.358310 
# 
# 
# High freq. dielectric constant tensor:
#      x y z
#    x 1.719730 0.000000 -0.009870 
#    y 0.000000 1.743070 0.000000 
#    z -0.009870 0.000000 1.715370 
# 
# From -- ./inp_files/244121.got.cif
#   From: 2010.06.25/outbox.cif.g09.slc.cpg/sg12_123_cif.got.tgz:244121.got - 2010.06.28 00:19:55.
