data_PCOD8091887
_publ_section_title
;
Structure prediction by ZEFSAII (Michael W. Deem and Ramdas Pophale) SiO2 
 PCOD8091887
Probable space group: C 2/M
;
_chemical_formula_sum "Si O2"
_cell_formula_units_Z 56
_cell_length_a 35.095552
_cell_length_b 9.020426
_cell_length_c 12.095954
_cell_angle_alpha 90.000000
_cell_angle_beta 128.379566
_cell_angle_gamma 90.000000
_cell_volume 3001.844493
_symmetry_space_group_name_H-M "C 2/M"
_symmetry_group_IT_number 12
_symmetry_cell_setting 'monoclinic'
loop_
_space_group_symop_operation_xyz
x,y,z
-x,y,-z
-x,-y,-z
x,-y,z
1/2+x,1/2+y,z
1/2-x,1/2+y,-z
1/2-x,1/2-y,-z
1/2+x,1/2-y,z
loop_
_atom_site_type_symbol
_atom_site_label
_atom_site_fract_x
_atom_site_fract_y
_atom_site_fract_z
Si Si1 0.363166 0.674909 0.161874
Si Si2 0.985494 0.825316 0.850738
Si Si3 0.329840 0.172293 0.315810
Si Si4 0.885208 0.329466 0.641812
Si Si5 0.157273 0.670601 0.204680
Si Si6 0.928811 0.674432 0.112111
Si Si7 0.221321 0.826290 0.155909
O O1 0.371363 0.500000 0.176140
O O2 0.358807 0.733087 0.278156
O O3 0.409777 0.752699 0.191045
O O4 0.314561 0.720999 0.007697
O O5 0.930743 0.779031 0.726463
O O6 0.019213 0.743178 0.822808
O O7 0.991497 0.000000 0.846598
O O8 0.000000 0.774329 0.000000
O O9 0.355315 0.199996 0.477920
O O10 0.274824 0.233647 0.223835
O O11 0.330723 0.000000 0.283286
O O12 0.902971 0.500000 0.683352
O O13 0.849322 0.290962 0.678597
O O14 0.169055 0.500000 0.205519
O O15 0.202899 0.760028 0.238733
O O16 0.107777 0.715820 0.052873
O O17 0.934428 0.500000 0.139919
O O18 0.223128 0.000000 0.176643
#
# Coordination Sequence:
#
# PCOD8091887 Si02
#       7
#     8   8   8   8   8   8   8
#     4  10  20  35  56  81 111 143 182 229 273 317
#     4  11  22  35  56  85 113 140 175 221 271 323
#     4  10  21  37  55  77 109 148 187 225 267 319
#     4  10  21  37  55  78 111 147 183 222 267 324
#     4   9  18  32  52  80 109 140 179 222 267 320
#     4  10  19  34  58  83 109 141 180 224 268 319
#     4   9  19  34  54  80 109 143 182 227 272 315
#
# _framework density 18.655197000000001
#
# number of rings (size 3 to 8) (size 9 to 14) (size 15 to 20)
#    0.000    2.143    1.429    1.714    0.000    4.000 
#    0.000    0.714    0.000    4.286    0.000    0.000 
#    0.000    0.000    0.000    0.000    0.000    0.000 
#
# Total GULP energy -347324.965611 kJ/mol
# GULP energy per Si atom -12404.463058 kJ/mol
# Density = 1.861274 g / cm^3
# Si number density = 18.655197 Si / 1000 Ang^3
#
#
#
# Elastic Constant Matrix: (Units=GPa)
#
#
# Indices 1 2 3 4 5 6 
#
# 1 120.4070 43.7710 32.5287 0.0000 -24.4087 0.0000
# 2 43.7710 62.4777 23.4929 0.0000 -10.6283 0.0000
# 3 32.5287 23.4929 53.3402 0.0000 -20.3594 0.0000
# 4 0.0000 0.0000 0.0000 21.1255 0.0000 -2.6122
# 5 -24.4087 -10.6283 -20.3594 0.0000 28.0469 0.0000
# 6 0.0000 0.0000 0.0000 -2.6122 0.0000 39.7167
#
#
#
# Elastic Compliance Matrix: (Units=1/GPa)
#
#
# Indices 1 2 3 4 5 6 
#
# 1 0.012838 -0.007027 -0.002055 0.000000 0.007017 0.000000
# 2 -0.007027 0.023079 -0.006744 0.000000 -0.002265 0.000000
# 3 -0.002055 -0.006744 0.029482 0.000000 0.017057 0.000000
# 4 0.000000 0.000000 0.000000 0.047724 0.000000 0.003139
# 5 0.007017 -0.002265 0.017057 0.000000 0.053285 0.000000
# 6 0.000000 0.000000 0.000000 0.003139 0.000000 0.025385
#
#
# Mechanical properties :
#
#
# Convention : Reuss Voigt Hill
#
# Bulk Modulus (GPa) = 29.63387 48.42332 39.02860
# Shear Modulus (GPa) = 21.30430 26.87329 24.08880
#
# Velocity S-wave (km/s) = 3.38302 3.79954 3.59732
# Velocity P-wave (km/s) = 5.58384 6.72771 6.18229
#
# Compressibility (1/GPa) = 0.03374517
#
# Stress axis : x y z
#
# Youngs Moduli (GPa) = 77.89658 43.32858 33.91937
#
# Poissons Ratio (x) = 0.30448 0.06971
# Poissons Ratio (y) = 0.54740 0.22876
# Poissons Ratio (z) = 0.16010 0.29222
#
# Static dielectric constant tensor:
#      x y z
#    x 3.516620 0.000000 -0.057410 
#    y 0.000000 3.363210 0.000000 
#    z -0.057410 0.000000 3.239620 
# 
# 
# High freq. dielectric constant tensor:
#      x y z
#    x 1.736120 0.000000 -0.007320 
#    y 0.000000 1.724180 0.000000 
#    z -0.007320 0.000000 1.702330 
# 
# From -- ./inp_files/187726.got.cif
#   From: 2010.06.25/outbox.cif.g09.slc.cpg/sg12_94_cif.got.tgz:187726.got - 2010.06.28 00:19:55.
