data_PCOD8091795
_publ_section_title
;
Structure prediction by ZEFSAII (Michael W. Deem and Ramdas Pophale) SiO2 
 PCOD8091795
Probable space group: C 2/M
;
_chemical_formula_sum "Si O2"
_cell_formula_units_Z 56
_cell_length_a 22.163306
_cell_length_b 15.303504
_cell_length_c 8.778341
_cell_angle_alpha 90.000000
_cell_angle_beta 91.211334
_cell_angle_gamma 90.000000
_cell_volume 2976.739325
_symmetry_space_group_name_H-M "C 2/M"
_symmetry_group_IT_number 12
_symmetry_cell_setting 'monoclinic'
loop_
_space_group_symop_operation_xyz
x,y,z
-x,y,-z
-x,-y,-z
x,-y,z
1/2+x,1/2+y,z
1/2-x,1/2+y,-z
1/2-x,1/2-y,-z
1/2+x,1/2-y,z
loop_
_atom_site_type_symbol
_atom_site_label
_atom_site_fract_x
_atom_site_fract_y
_atom_site_fract_z
Si Si1 0.625119 0.190720 0.721611
Si Si2 0.282173 0.904856 0.104576
Si Si3 0.816781 0.245200 0.572304
Si Si4 0.142743 0.360169 0.167393
Si Si5 0.928667 0.784012 0.012138
Si Si6 0.348339 0.399828 0.809136
Si Si7 0.068094 0.500000 0.325761
Si Si8 0.074021 0.500000 0.669351
O O1 0.691621 0.175920 0.796576
O O2 0.633054 0.226755 0.550966
O O3 0.596326 0.092784 0.740566
O O4 0.588510 0.266838 0.810535
O O5 0.210957 0.888874 0.089583
O O6 0.294211 0.000000 0.184087
O O7 0.310479 0.910090 0.937971
O O8 0.750000 0.250000 0.500000
O O9 0.815495 0.315542 0.705517
O O10 0.838538 0.153281 0.649264
O O11 0.100638 0.296830 0.071987
O O12 0.092260 0.416952 0.242088
O O13 0.901958 0.869181 0.925078
O O14 0.000000 0.788105 0.000000
O O15 0.360980 0.500000 0.763100
O O16 0.094311 0.500000 0.496369
O O17 0.996961 0.500000 0.315495
#
# Coordination Sequence:
#
# PCOD8091795 Si02
#       8
#     8   8   8   8   8   8   4   4
#     4  11  21  36  59  89 120 157 197 233 296 353
#     4  10  19  34  57  85 117 150 186 239 286 349
#     4  11  22  37  59  86 122 154 191 247 300 359
#     4  10  21  35  57  85 122 156 199 233 292 349
#     4  10  23  40  60  84 113 158 203 253 292 347
#     4  10  23  42  62  85 114 153 200 250 310 348
#     4  11  20  35  51  87 127 167 193 230 277 354
#     4  11  22  33  55  85 129 167 193 230 278 359
#
# _framework density 18.812531
#
# number of rings (size 3 to 8) (size 9 to 14) (size 15 to 20)
#    0.000    1.571    4.286    0.857    2.000    2.000 
#    1.286    2.857    0.000    0.857    0.000    0.000 
#    0.000    0.000    0.000    0.000    0.000    0.000 
#
# Total GULP energy -346922.988214 kJ/mol
# GULP energy per Si atom -12390.106722 kJ/mol
# Density = 1.876971 g / cm^3
# Si number density = 18.812531 Si / 1000 Ang^3
#
#
#
# Elastic Constant Matrix: (Units=GPa)
#
#
# Indices 1 2 3 4 5 6 
#
# 1 90.7018 21.7452 38.3046 0.0000 -2.8378 0.0000
# 2 21.7452 79.6619 45.6510 0.0000 -13.7772 0.0000
# 3 38.3046 45.6510 95.7571 0.0000 -2.4638 0.0000
# 4 0.0000 0.0000 0.0000 -11.0541 0.0000 -9.7981
# 5 -2.8378 -13.7772 -2.4638 0.0000 19.9913 0.0000
# 6 0.0000 0.0000 0.0000 -9.7981 0.0000 18.3903
#
#
#
# Elastic Compliance Matrix: (Units=1/GPa)
#
#
# Indices 1 2 3 4 5 6 
#
# 1 0.013316 -0.000617 -0.005011 0.000000 0.000848 0.000000
# 2 -0.000617 0.020057 -0.008990 0.000000 0.012627 0.000000
# 3 -0.005011 -0.008990 0.016608 0.000000 -0.004860 0.000000
# 4 0.000000 0.000000 0.000000 -0.061446 0.000000 -0.032738
# 5 0.000848 0.012627 -0.004860 0.000000 0.058245 0.000000
# 6 0.000000 0.000000 0.000000 -0.032738 0.000000 0.036934
#
#
# Mechanical properties :
#
#
# Convention : Reuss Voigt Hill
#
# Bulk Modulus (GPa) = 48.20290 53.05803 50.63047
# Shear Modulus (GPa) = 41.71343 16.16016 28.93680
#
# Velocity S-wave (km/s) = 4.71395 2.93407 3.92620
# Velocity P-wave (km/s) = 7.43686 6.30421 6.89384
#
# Compressibility (1/GPa) = 0.02074564
#
# Stress axis : x y z
#
# Youngs Moduli (GPa) = 75.09997 49.85729 60.21025
#
# Poissons Ratio (x) = 0.03075 0.30169
# Poissons Ratio (y) = 0.04632 0.54132
# Poissons Ratio (z) = 0.37630 0.44824
#
# Static dielectric constant tensor:
#      x y z
#    x 3.322100 0.000000 -0.437680 
#    y 0.000000 3.545320 0.000000 
#    z -0.437680 0.000000 0.713370 
# 
# 
# High freq. dielectric constant tensor:
#      x y z
#    x 1.728230 0.000000 -0.003020 
#    y 0.000000 1.725820 0.000000 
#    z -0.003020 0.000000 1.733510 
# 
# From -- ./inp_files/86407.got.cif
#   From: 2010.06.25/outbox.cif.g09.slc.cpg/sg12_44_cif.got.tgz:86407.got - 2010.06.28 00:19:55.
