data_PCOD8091069
_publ_section_title
;
Structure prediction by ZEFSAII (Michael W. Deem and Ramdas Pophale) SiO2 
 PCOD8091069
Probable space group: C 2/M
;
_chemical_formula_sum "Si O2"
_cell_formula_units_Z 48
_cell_length_a 13.559701
_cell_length_b 18.824122
_cell_length_c 10.316767
_cell_angle_alpha 90.000000
_cell_angle_beta 105.361808
_cell_angle_gamma 90.000000
_cell_volume 2539.265500
_symmetry_space_group_name_H-M "C 2/M"
_symmetry_group_IT_number 12
_symmetry_cell_setting 'monoclinic'
loop_
_space_group_symop_operation_xyz
x,y,z
-x,y,-z
-x,-y,-z
x,-y,z
1/2+x,1/2+y,z
1/2-x,1/2+y,-z
1/2-x,1/2-y,-z
1/2+x,1/2-y,z
loop_
_atom_site_type_symbol
_atom_site_label
_atom_site_fract_x
_atom_site_fract_y
_atom_site_fract_z
Si Si1 0.770414 0.650617 0.702953
Si Si2 0.778403 0.649658 0.406934
Si Si3 0.926293 0.759599 0.355965
Si Si4 0.500000 0.621792 0.000000
Si Si5 0.302351 0.500000 0.622125
Si Si6 0.794773 0.000000 0.314813
Si Si7 0.973662 0.000000 0.181827
Si Si8 0.402305 0.726710 0.783272
O O1 0.806687 0.657041 0.566925
O O2 0.654932 0.677057 0.681476
O O3 0.772977 0.568522 0.747945
O O4 0.850735 0.698804 0.812662
O O5 0.870123 0.683685 0.355221
O O6 0.764258 0.568087 0.359716
O O7 0.673019 0.691990 0.348641
O O8 0.000000 0.777469 0.500000
O O9 0.988007 0.758112 0.242934
O O10 0.449149 0.570966 0.090558
O O11 0.586199 0.673204 0.091763
O O12 0.323681 0.500000 0.476265
O O13 0.408429 0.500000 0.735604
O O14 0.903073 0.000000 0.281899
#
# Coordination Sequence:
#
# PCOD8091069 Si02
#       8
#     8   8   8   4   4   4   4   8
#     4  10  20  33  56  87 117 137 181 242 287 329
#     4  10  19  34  54  88 113 146 177 237 290 329
#     4  11  18  32  58  81 111 144 185 227 286 331
#     4  11  24  36  60  79 112 162 188 223 278 334
#     4  10  20  35  60  81 122 139 177 239 287 338
#     4  10  22  35  57  92 105 144 189 226 297 341
#     4  11  21  40  56  81 117 150 181 234 286 333
#     4  11  20  37  55  80 116 148 190 229 274 328
#
# _framework density 18.903103999999999
#
# number of rings (size 3 to 8) (size 9 to 14) (size 15 to 20)
#    0.000    1.500    5.000    2.250    0.000    0.000 
#    0.000    8.750    0.000    0.500    0.000    0.000 
#    0.000    0.000    0.000    0.000    0.000    0.000 
#
# Total GULP energy -297591.233759 kJ/mol
# GULP energy per Si atom -12399.634740 kJ/mol
# Density = 1.886008 g / cm^3
# Si number density = 18.903104 Si / 1000 Ang^3
#
#
#
# Elastic Constant Matrix: (Units=GPa)
#
#
# Indices 1 2 3 4 5 6 
#
# 1 87.7363 56.8823 23.0830 0.0000 -4.0908 0.0000
# 2 56.8823 181.4098 36.7417 0.0000 5.6234 0.0000
# 3 23.0830 36.7417 50.4454 0.0000 2.7756 0.0000
# 4 0.0000 0.0000 0.0000 31.9446 0.0000 5.4958
# 5 -4.0908 5.6234 2.7756 0.0000 13.7199 0.0000
# 6 0.0000 0.0000 0.0000 5.4958 0.0000 19.9622
#
#
#
# Elastic Compliance Matrix: (Units=1/GPa)
#
#
# Indices 1 2 3 4 5 6 
#
# 1 0.015661 -0.004228 -0.004489 0.000000 0.007311 0.000000
# 2 -0.004228 0.007648 -0.003432 0.000000 -0.003701 0.000000
# 3 -0.004489 -0.003432 0.024648 0.000000 -0.004918 0.000000
# 4 0.000000 0.000000 0.000000 0.032861 0.000000 -0.009047
# 5 0.007311 -0.003701 -0.004918 0.000000 0.077578 0.000000
# 6 0.000000 0.000000 0.000000 -0.009047 0.000000 0.052585
#
#
# Mechanical properties :
#
#
# Convention : Reuss Voigt Hill
#
# Bulk Modulus (GPa) = 42.26792 61.44507 51.85649
# Shear Modulus (GPa) = 20.56216 26.65098 23.60657
#
# Velocity S-wave (km/s) = 3.30171 3.75890 3.53770
# Velocity P-wave (km/s) = 6.07815 7.17042 6.64676
#
# Compressibility (1/GPa) = 0.02365860
#
# Stress axis : x y z
#
# Youngs Moduli (GPa) = 63.85361 130.75424 40.57158
#
# Poissons Ratio (x) = 0.55283 0.18212
# Poissons Ratio (y) = 0.26997 0.13924
# Poissons Ratio (z) = 0.28663 0.44875
#
# Static dielectric constant tensor:
#      x y z
#    x 3.306760 0.000000 0.031700 
#    y 0.000000 3.874630 0.000000 
#    z 0.031700 0.000000 3.243920 
# 
# 
# High freq. dielectric constant tensor:
#      x y z
#    x 1.715200 0.000000 -0.002590 
#    y 0.000000 1.752280 0.000000 
#    z -0.002590 0.000000 1.703350 
# 
# From -- ./inp_files/132648.got.cif
#   From: 2010.06.25/outbox.cif.g09.slc.cpg/sg12_67_cif.got.tgz:132648.got - 2010.06.28 00:19:55.
