data_PCOD8091429
_publ_section_title
;
Structure prediction by ZEFSAII (Michael W. Deem and Ramdas Pophale) SiO2 
 PCOD8091429
Probable space group: C 2/M
;
_chemical_formula_sum "Si O2"
_cell_formula_units_Z 44
_cell_length_a 34.838690
_cell_length_b 10.637214
_cell_length_c 20.328820
_cell_angle_alpha 90.000000
_cell_angle_beta 18.911260
_cell_angle_gamma 90.000000
_cell_volume 2441.661136
_symmetry_space_group_name_H-M "C 2/M"
_symmetry_group_IT_number 12
_symmetry_cell_setting 'monoclinic'
loop_
_space_group_symop_operation_xyz
x,y,z
-x,y,-z
-x,-y,-z
x,-y,z
1/2+x,1/2+y,z
1/2-x,1/2+y,-z
1/2-x,1/2-y,-z
1/2+x,1/2-y,z
loop_
_atom_site_type_symbol
_atom_site_label
_atom_site_fract_x
_atom_site_fract_y
_atom_site_fract_z
Si Si1 0.884555 0.500000 0.390198
Si Si2 0.878835 0.000000 0.156615
Si Si3 0.463335 0.000000 0.984190
Si Si4 0.338318 0.247924 0.144417
Si Si5 0.599384 0.858202 0.383964
Si Si6 0.138168 0.850196 0.031394
Si Si7 0.426824 0.210627 0.426570
O O1 0.743709 0.500000 0.603847
O O2 0.930100 0.617405 0.359176
O O3 0.932656 0.500000 0.238143
O O4 0.877242 0.125962 0.117448
O O5 0.000000 0.000000 0.000000
O O6 0.390058 0.874063 0.094094
O O7 0.500000 0.000000 0.000000
O O8 0.388446 0.270150 0.990590
O O9 0.198600 0.219675 0.371732
O O10 0.500000 0.787123 0.500000
O O11 0.731456 0.804245 0.155856
O O12 0.563795 0.857973 0.518400
O O13 0.604627 0.000000 0.350612
O O14 0.136797 0.000000 0.020369
O O15 0.034569 0.810766 0.249543
#
# Coordination Sequence:
#
# PCOD8091429 Si02
#       7
#     4   4   4   8   8   8   8
#     4  10  20  38  59  80 104 146 190 215 274 348
#     4  10  20  40  58  77 105 146 186 231 276 332
#     4  12  24  40  54  85 119 142 176 240 296 332
#     4  10  21  37  57  80 111 145 187 231 276 337
#     4   9  18  33  55  84 114 145 186 231 275 326
#     4  10  19  34  56  81 109 147 192 229 270 334
#     4  10  19  35  59  81 108 148 187 225 271 330
#
# _framework density 18.020517999999999
#
# number of rings (size 3 to 8) (size 9 to 14) (size 15 to 20)
#    0.000    2.000    3.636    0.545    1.273    0.727 
#    3.273    2.727    0.000    0.545    0.000    0.000 
#    0.000    0.000    0.000    0.000    0.000    0.000 
#
# Total GULP energy -272547.364273 kJ/mol
# GULP energy per Si atom -12388.516558 kJ/mol
# Density = 1.797950 g / cm^3
# Si number density = 18.020518 Si / 1000 Ang^3
#
#
#
# Elastic Constant Matrix: (Units=GPa)
#
#
# Indices 1 2 3 4 5 6 
#
# 1 99.7887 25.6541 57.5585 0.0000 -18.3283 0.0000
# 2 25.6541 89.8707 40.2123 0.0000 -11.7663 0.0000
# 3 57.5585 40.2123 130.6108 0.0000 -11.4686 0.0000
# 4 0.0000 0.0000 0.0000 67.0600 0.0000 18.5535
# 5 -18.3283 -11.7663 -11.4686 0.0000 28.6761 0.0000
# 6 0.0000 0.0000 0.0000 18.5535 0.0000 29.8007
#
#
#
# Elastic Compliance Matrix: (Units=1/GPa)
#
#
# Indices 1 2 3 4 5 6 
#
# 1 0.014740 -0.000782 -0.005654 0.000000 0.006839 0.000000
# 2 -0.000782 0.013368 -0.003455 0.000000 0.003604 0.000000
# 3 -0.005654 -0.003455 0.011162 0.000000 -0.000567 0.000000
# 4 0.000000 0.000000 0.000000 0.018015 0.000000 -0.011216
# 5 0.006839 0.003604 -0.000567 0.000000 0.040495 0.000000
# 6 0.000000 0.000000 0.000000 -0.011216 0.000000 0.040539
#
#
# Mechanical properties :
#
#
# Convention : Reuss Voigt Hill
#
# Bulk Modulus (GPa) = 51.31529 63.01334 57.16432
# Shear Modulus (GPa) = 30.37728 38.23038 34.30383
#
# Velocity S-wave (km/s) = 4.11019 4.61096 4.36776
# Velocity P-wave (km/s) = 7.14582 7.96187 7.56486
#
# Compressibility (1/GPa) = 0.01948737
#
# Stress axis : x y z
#
# Youngs Moduli (GPa) = 67.84368 74.80603 89.59052
#
# Poissons Ratio (x) = 0.05851 0.50657
# Poissons Ratio (y) = 0.05307 0.30950
# Poissons Ratio (z) = 0.38361 0.25842
#
# Static dielectric constant tensor:
#      x y z
#    x 3.369810 0.000000 -0.144790 
#    y 0.000000 3.137560 0.000000 
#    z -0.144790 0.000000 3.499050 
# 
# 
# High freq. dielectric constant tensor:
#      x y z
#    x 1.689890 0.000000 -0.005670 
#    y 0.000000 1.683310 0.000000 
#    z -0.005670 0.000000 1.710580 
# 
# From -- ./inp_files/250653.got.cif
#   From: 2010.06.25/outbox.cif.g09.slc.cpg/sg12_126_cif.got.tgz:250653.got - 2010.06.28 00:19:55.
