data_PCOD8091452
_publ_section_title
;
Structure prediction by ZEFSAII (Michael W. Deem and Ramdas Pophale) SiO2 
 PCOD8091452
Probable space group: C 2/M
;
_chemical_formula_sum "Si O2"
_cell_formula_units_Z 48
_cell_length_a 30.011393
_cell_length_b 8.766261
_cell_length_c 18.991696
_cell_angle_alpha 90.000000
_cell_angle_beta 29.417082
_cell_angle_gamma 90.000000
_cell_volume 2454.089303
_symmetry_space_group_name_H-M "C 2/M"
_symmetry_group_IT_number 12
_symmetry_cell_setting 'monoclinic'
loop_
_space_group_symop_operation_xyz
x,y,z
-x,y,-z
-x,-y,-z
x,-y,z
1/2+x,1/2+y,z
1/2-x,1/2+y,-z
1/2-x,1/2-y,-z
1/2+x,1/2-y,z
loop_
_atom_site_type_symbol
_atom_site_label
_atom_site_fract_x
_atom_site_fract_y
_atom_site_fract_z
Si Si1 0.401676 0.681499 0.613165
Si Si2 0.393680 0.318773 0.467617
Si Si3 0.473463 0.174455 0.111714
Si Si4 0.738511 0.181846 0.938259
Si Si5 0.948998 0.180913 0.854462
Si Si6 0.236327 0.670836 0.590683
O O1 0.500000 0.742815 0.500000
O O2 0.399240 0.500000 0.616312
O O3 0.390035 0.749899 0.550932
O O4 0.322799 0.739971 0.774272
O O5 0.396457 0.500000 0.469043
O O6 0.480737 0.263479 0.302569
O O7 0.301501 0.254176 0.559492
O O8 0.512131 0.273263 0.122600
O O9 0.366931 0.181765 0.247985
O O10 0.507394 0.000000 0.075068
O O11 0.500000 0.244614 0.000000
O O12 0.737044 0.000000 0.945684
O O13 0.750000 0.250000 0.000000
O O14 0.646500 0.238521 0.028322
O O15 0.935527 0.000000 0.871054
O O16 0.271414 0.500000 0.533099
O O17 0.250000 0.750000 0.500000
#
# Coordination Sequence:
#
# PCOD8091452 Si02
#       6
#     8   8   8   8   8   8
#     4   9  18  34  59  87 110 141 187 233 277 335
#     4   9  18  33  56  83 111 147 193 237 279 333
#     4  10  22  37  57  84 116 154 199 244 286 337
#     4  11  23  39  63  89 118 150 187 233 285 343
#     4  11  22  38  60  85 117 153 191 236 291 346
#     4  10  19  34  56  81 112 150 194 239 281 334
#
# _framework density 19.559190000000001
#
# number of rings (size 3 to 8) (size 9 to 14) (size 15 to 20)
#    0.000    2.000    1.667    2.000    2.333    3.000 
#    0.000    0.000    0.000   11.000    0.000    0.000 
#    0.000    0.000    0.000    0.000    0.000    0.000 
#
# Total GULP energy -297464.392530 kJ/mol
# GULP energy per Si atom -12394.349689 kJ/mol
# Density = 1.951467 g / cm^3
# Si number density = 19.559190 Si / 1000 Ang^3
#
#
#
# Elastic Constant Matrix: (Units=GPa)
#
#
# Indices 1 2 3 4 5 6 
#
# 1 185.0220 31.5134 94.6043 -0.0012 7.4022 0.0017
# 2 31.5134 45.6418 38.4433 -0.0016 0.1096 0.0023
# 3 94.6043 38.4433 146.6240 -0.0045 16.6972 0.0028
# 4 -0.0012 -0.0016 -0.0045 23.3241 0.0032 0.3978
# 5 7.4022 0.1096 16.6972 0.0032 45.5278 -0.0016
# 6 0.0017 0.0023 0.0028 0.3978 -0.0016 31.2968
#
#
#
# Elastic Compliance Matrix: (Units=1/GPa)
#
#
# Indices 1 2 3 4 5 6 
#
# 1 0.008159 -0.001481 -0.004931 -0.000001 0.000486 0.000000
# 2 -0.001481 0.028723 -0.006882 0.000000 0.002696 -0.000001
# 3 -0.004931 -0.006882 0.012224 0.000002 -0.003665 -0.000001
# 4 -0.000001 0.000000 0.000002 0.042883 -0.000004 -0.000545
# 5 0.000486 0.002696 -0.003665 -0.000004 0.023223 0.000001
# 6 0.000000 -0.000001 -0.000001 -0.000545 0.000001 0.031959
#
#
# Mechanical properties :
#
#
# Convention : Reuss Voigt Hill
#
# Bulk Modulus (GPa) = 44.41229 78.48998 61.45113
# Shear Modulus (GPa) = 27.58387 34.21154 30.89770
#
# Velocity S-wave (km/s) = 3.75944 4.18680 3.97886
# Velocity P-wave (km/s) = 6.44984 7.97427 7.25222
#
# Compressibility (1/GPa) = 0.02251629
#
# Stress axis : x y z
#
# Youngs Moduli (GPa) = 122.56322 34.81584 81.80817
#
# Poissons Ratio (x) = 0.05156 0.40343
# Poissons Ratio (y) = 0.18152 0.56302
# Poissons Ratio (z) = 0.60440 0.23961
#
# Static dielectric constant tensor:
#      x y z
#    x 3.882940 0.000000 0.025950 
#    y 0.000000 3.349970 0.000000 
#    z 0.025950 0.000000 3.729190 
# 
# 
# High freq. dielectric constant tensor:
#      x y z
#    x 1.783450 0.000000 -0.001600 
#    y 0.000000 1.723720 0.000000 
#    z -0.001600 0.000000 1.777760 
# 
# From -- ./inp_files/244592.got.cif
#   From: 2010.06.25/outbox.cif.g09.slc.cpg/sg12_123_cif.got.tgz:244592.got - 2010.06.28 00:19:55.
