data_PCOD8091199
_publ_section_title
;
Structure prediction by ZEFSAII (Michael W. Deem and Ramdas Pophale) SiO2 
 PCOD8091199
Probable space group: C 2/M
;
_chemical_formula_sum "Si O2"
_cell_formula_units_Z 64
_cell_length_a 23.179911
_cell_length_b 14.208688
_cell_length_c 15.239874
_cell_angle_alpha 90.000000
_cell_angle_beta 141.533344
_cell_angle_gamma 90.000000
_cell_volume 3122.329656
_symmetry_space_group_name_H-M "C 2/M"
_symmetry_group_IT_number 12
_symmetry_cell_setting 'monoclinic'
loop_
_space_group_symop_operation_xyz
x,y,z
-x,y,-z
-x,-y,-z
x,-y,z
1/2+x,1/2+y,z
1/2-x,1/2+y,-z
1/2-x,1/2-y,-z
1/2+x,1/2-y,z
loop_
_atom_site_type_symbol
_atom_site_label
_atom_site_fract_x
_atom_site_fract_y
_atom_site_fract_z
Si Si1 0.883167 0.104233 0.442568
Si Si2 0.065533 0.389352 0.282089
Si Si3 0.676594 0.598412 0.009467
Si Si4 0.565108 0.196234 0.459900
Si Si5 0.673491 0.107873 0.237343
Si Si6 0.133092 0.341918 0.724176
Si Si7 0.377490 0.802466 0.994420
Si Si8 0.684511 0.642938 0.824744
O O1 0.950517 0.188905 0.557234
O O2 0.783086 0.126158 0.365358
O O3 0.876482 0.102250 0.328452
O O4 0.918699 0.000000 0.514539
O O5 0.048167 0.500000 0.273357
O O6 0.107811 0.343024 0.420790
O O7 0.138949 0.368022 0.293519
O O8 0.969987 0.335751 0.151411
O O9 0.632237 0.500000 0.993292
O O10 0.787531 0.584167 0.158255
O O11 0.634658 0.690044 0.006581
O O12 0.658383 0.593283 0.883646
O O13 0.470918 0.136720 0.366760
O O14 0.636792 0.175481 0.623688
O O15 0.649629 0.000000 0.184273
O O16 0.618679 0.175907 0.105041
O O17 0.164387 0.251630 0.816277
O O18 0.293999 0.865556 0.933786
#
# Coordination Sequence:
#
# PCOD8091199 Si02
#       8
#     8   8   8   8   8   8   8   8
#     4   9  18  34  54  76 106 140 174 217 265 309
#     4  11  22  35  55  81 104 132 175 223 267 312
#     4  11  21  33  54  81 109 142 177 212 256 314
#     4  10  20  34  52  76 108 143 177 212 255 311
#     4   9  19  36  59  83 101 126 173 228 275 312
#     4   9  19  35  50  71 108 145 174 208 251 303
#     4  10  19  34  55  80 109 136 166 216 274 316
#     4   9  17  32  53  77 103 135 176 217 256 301
#
# _framework density 20.497516000000001
#
# number of rings (size 3 to 8) (size 9 to 14) (size 15 to 20)
#    0.000    2.250    0.000    4.875    0.000    5.000 
#    0.000    8.750    0.000    3.750    0.000    0.000 
#    0.000    0.000    0.000    0.000    0.000    0.000 
#
# Total GULP energy -396551.988531 kJ/mol
# GULP energy per Si atom -12392.249642 kJ/mol
# Density = 2.045086 g / cm^3
# Si number density = 20.497516 Si / 1000 Ang^3
#
#
#
# Elastic Constant Matrix: (Units=GPa)
#
#
# Indices 1 2 3 4 5 6 
#
# 1 81.4391 42.0336 26.1575 0.0000 -29.4095 0.0000
# 2 42.0336 124.4579 29.1346 0.0000 -20.7957 0.0000
# 3 26.1575 29.1346 59.9737 0.0000 -18.1977 0.0000
# 4 0.0000 0.0000 0.0000 17.6193 0.0000 -3.9159
# 5 -29.4095 -20.7957 -18.1977 0.0000 28.6270 0.0000
# 6 0.0000 0.0000 0.0000 -3.9159 0.0000 25.5137
#
#
#
# Elastic Compliance Matrix: (Units=1/GPa)
#
#
# Indices 1 2 3 4 5 6 
#
# 1 0.021327 -0.003731 -0.002061 0.000000 0.017889 0.000000
# 2 -0.003731 0.010257 -0.002797 0.000000 0.001840 0.000000
# 3 -0.002061 -0.002797 0.021896 0.000000 0.009770 0.000000
# 4 0.000000 0.000000 0.000000 0.058760 0.000000 0.009019
# 5 0.017889 0.001840 0.009770 0.000000 0.060857 0.000000
# 6 0.000000 0.000000 0.000000 0.009019 0.000000 0.040579
#
#
# Mechanical properties :
#
#
# Convention : Reuss Voigt Hill
#
# Bulk Modulus (GPa) = 27.54709 51.16915 39.35812
# Shear Modulus (GPa) = 20.57980 25.58834 23.08407
#
# Velocity S-wave (km/s) = 3.17206 3.53705 3.35951
# Velocity P-wave (km/s) = 5.18501 6.45746 5.85590
#
# Compressibility (1/GPa) = 0.03630147
#
# Stress axis : x y z
#
# Youngs Moduli (GPa) = 46.88837 97.49197 45.67013
#
# Poissons Ratio (x) = 0.36377 0.09413
# Poissons Ratio (y) = 0.17495 0.12775
# Poissons Ratio (z) = 0.09664 0.27271
#
# Static dielectric constant tensor:
#      x y z
#    x 3.608810 0.000000 -0.075420 
#    y 0.000000 3.826930 0.000000 
#    z -0.075420 0.000000 3.655600 
# 
# 
# High freq. dielectric constant tensor:
#      x y z
#    x 1.776960 0.000000 -0.007960 
#    y 0.000000 1.798860 0.000000 
#    z -0.007960 0.000000 1.794260 
# 
# From -- ./inp_files/240718.got.cif
#   From: 2010.06.25/outbox.cif.g09.slc.cpg/sg12_121_cif.got.tgz:240718.got - 2010.06.28 00:19:55.
