data_PCOD8091840
_publ_section_title
;
Structure prediction by ZEFSAII (Michael W. Deem and Ramdas Pophale) SiO2 
 PCOD8091840
Probable space group: C 2/M
;
_chemical_formula_sum "Si O2"
_cell_formula_units_Z 56
_cell_length_a 17.322522
_cell_length_b 14.138014
_cell_length_c 16.125955
_cell_angle_alpha 90.000000
_cell_angle_beta 138.632224
_cell_angle_gamma 90.000000
_cell_volume 2610.081563
_symmetry_space_group_name_H-M "C 2/M"
_symmetry_group_IT_number 12
_symmetry_cell_setting 'monoclinic'
loop_
_space_group_symop_operation_xyz
x,y,z
-x,y,-z
-x,-y,-z
x,-y,z
1/2+x,1/2+y,z
1/2-x,1/2+y,-z
1/2-x,1/2-y,-z
1/2+x,1/2-y,z
loop_
_atom_site_type_symbol
_atom_site_label
_atom_site_fract_x
_atom_site_fract_y
_atom_site_fract_z
Si Si1 0.784733 0.887754 0.136540
Si Si2 0.990404 0.894326 0.185081
Si Si3 0.592524 0.894281 0.731701
Si Si4 0.615275 0.276457 0.632685
Si Si5 0.649418 0.397002 0.089573
Si Si6 0.349843 0.259983 0.759264
Si Si7 0.465591 0.110260 0.130977
O O1 0.885810 0.851629 0.155598
O O2 0.817945 0.847584 0.252610
O O3 0.784093 0.000000 0.138328
O O4 0.657449 0.850924 0.005069
O O5 0.104141 0.826387 0.279634
O O6 0.023473 0.000000 0.241147
O O7 0.955015 0.891491 0.060006
O O8 0.567199 0.818714 0.638904
O O9 0.730003 0.890495 0.864376
O O10 0.526906 0.870808 0.764368
O O11 0.557101 0.000000 0.672118
O O12 0.500000 0.324560 0.500000
O O13 0.710605 0.257529 0.636290
O O14 0.644217 0.500000 0.131048
O O15 0.639032 0.311011 0.143394
O O16 0.426513 0.164480 0.824439
O O17 0.480186 0.000000 0.121920
#
# Coordination Sequence:
#
# PCOD8091840 Si02
#       7
#     8   8   8   8   8   8   8
#     4  10  22  40  63  86 117 159 194 236 289 351
#     4  10  19  34  57  90 121 146 185 232 291 359
#     4   9  18  37  63  88 117 154 189 233 292 353
#     4  11  26  43  58  82 116 161 208 240 280 343
#     4   9  17  31  53  86 124 151 177 223 291 361
#     4  11  23  33  57  88 120 154 187 240 303 339
#     4  10  21  38  61  93 123 148 189 238 299 362
#
# _framework density 21.455266999999999
#
# number of rings (size 3 to 8) (size 9 to 14) (size 15 to 20)
#    0.000    2.000    1.429    1.714    6.000    4.000 
#    0.000    4.286    0.000    3.429    0.000    0.000 
#    0.000    0.000    0.000    0.000    0.000    0.000 
#
# Total GULP energy -347051.647348 kJ/mol
# GULP energy per Si atom -12394.701691 kJ/mol
# Density = 2.140643 g / cm^3
# Si number density = 21.455267 Si / 1000 Ang^3
#
#
#
# Elastic Constant Matrix: (Units=GPa)
#
#
# Indices 1 2 3 4 5 6 
#
# 1 110.2932 45.4300 39.1623 0.0000 30.4983 0.0000
# 2 45.4300 62.1614 18.0124 0.0000 9.1176 0.0000
# 3 39.1623 18.0124 69.4788 0.0000 22.0330 0.0000
# 4 0.0000 0.0000 0.0000 14.6741 0.0000 2.9892
# 5 30.4983 9.1176 22.0330 0.0000 27.1645 0.0000
# 6 0.0000 0.0000 0.0000 2.9892 0.0000 39.7617
#
#
#
# Elastic Compliance Matrix: (Units=1/GPa)
#
#
# Indices 1 2 3 4 5 6 
#
# 1 0.018596 -0.010529 -0.003032 0.000000 -0.014886 0.000000
# 2 -0.010529 0.023531 -0.001898 0.000000 0.005463 0.000000
# 3 -0.003032 -0.001898 0.020615 0.000000 -0.012680 0.000000
# 4 0.000000 0.000000 0.000000 0.069207 0.000000 -0.005203
# 5 -0.014886 0.005463 -0.012680 0.000000 0.061976 0.000000
# 6 0.000000 0.000000 0.000000 -0.005203 0.000000 0.025541
#
#
# Mechanical properties :
#
#
# Convention : Reuss Voigt Hill
#
# Bulk Modulus (GPa) = 31.42248 49.68255 40.55252
# Shear Modulus (GPa) = 19.15768 25.60864 22.38316
#
# Velocity S-wave (km/s) = 2.99141 3.45858 3.23344
# Velocity P-wave (km/s) = 5.15836 6.25744 5.73430
#
# Compressibility (1/GPa) = 0.03182435
#
# Stress axis : x y z
#
# Youngs Moduli (GPa) = 53.77383 42.49724 48.50891
#
# Poissons Ratio (x) = 0.44746 0.14707
# Poissons Ratio (y) = 0.56619 0.09207
# Poissons Ratio (z) = 0.16304 0.08066
#
# Static dielectric constant tensor:
#      x y z
#    x 4.155750 0.000000 0.358530 
#    y 0.000000 3.988700 0.000000 
#    z 0.358530 0.000000 3.353350 
# 
# 
# High freq. dielectric constant tensor:
#      x y z
#    x 1.856810 0.000000 0.021260 
#    y 0.000000 1.851890 0.000000 
#    z 0.021260 0.000000 1.780000 
# 
# From -- ./inp_files/277883.got.cif
#   From: 2010.06.25/outbox.cif.g09.slc.cpg/sg12_139_cif.got.tgz:277883.got - 2010.06.28 00:19:55.
