data_PCOD8091167
_publ_section_title
;
Structure prediction by ZEFSAII (Michael W. Deem and Ramdas Pophale) SiO2 
 PCOD8091167
Probable space group: C 2/M
;
_chemical_formula_sum "Si O2"
_cell_formula_units_Z 64
_cell_length_a 15.510553
_cell_length_b 8.835765
_cell_length_c 24.183510
_cell_angle_alpha 90.000000
_cell_angle_beta 99.482890
_cell_angle_gamma 90.000000
_cell_volume 3269.001723
_symmetry_space_group_name_H-M "C 2/M"
_symmetry_group_IT_number 12
_symmetry_cell_setting 'monoclinic'
loop_
_space_group_symop_operation_xyz
x,y,z
-x,y,-z
-x,-y,-z
x,-y,z
1/2+x,1/2+y,z
1/2-x,1/2+y,-z
1/2-x,1/2-y,-z
1/2+x,1/2-y,z
loop_
_atom_site_type_symbol
_atom_site_label
_atom_site_fract_x
_atom_site_fract_y
_atom_site_fract_z
Si Si1 0.257822 0.825381 0.441736
Si Si2 0.667751 0.820478 0.331096
Si Si3 0.542035 0.173910 0.561525
Si Si4 0.311403 0.320213 0.260647
Si Si5 0.708998 0.680041 0.865799
Si Si6 0.992928 0.821477 0.329577
Si Si7 0.616707 0.820754 0.058322
Si Si8 0.573707 0.820816 0.931960
O O1 0.250000 0.750000 0.500000
O O2 0.192279 0.741158 0.393903
O O3 0.354635 0.805407 0.428749
O O4 0.230766 0.000000 0.443332
O O5 0.734934 0.758069 0.292197
O O6 0.572237 0.757969 0.305352
O O7 0.666968 0.000000 0.332669
O O8 0.500000 0.231588 0.500000
O O9 0.503455 0.277006 0.605740
O O10 0.515084 0.000000 0.569589
O O11 0.311216 0.500000 0.261632
O O12 0.294965 0.259104 0.197222
O O13 0.404070 0.259397 0.292586
O O14 0.709030 0.500000 0.867694
O O15 0.797632 0.746808 0.902668
O O16 0.623584 0.738552 0.888016
O O17 0.001855 0.000000 0.324582
O O18 0.528169 0.769931 0.080571
O O19 0.619871 0.000000 0.059247
O O20 0.614937 0.765856 0.994574
O O21 0.582910 0.000000 0.925872
#
# Coordination Sequence:
#
# PCOD8091167 Si02
#       8
#     8   8   8   8   8   8   8   8
#     4  11  22  36  58  88 120 150 184 228 278 336
#     4  11  22  40  61  82 111 150 189 231 282 341
#     4  10  21  37  57  84 115 144 178 224 273 332
#     4   9  21  39  57  78 111 150 188 231 283 341
#     4  10  19  34  55  79 107 147 191 231 280 336
#     4  11  22  39  60  83 109 144 186 233 285 337
#     4   8  16  31  53  77 111 151 186 225 280 342
#     4   9  17  32  52  80 112 146 186 233 280 329
#
# _framework density 19.577843000000001
#
# number of rings (size 3 to 8) (size 9 to 14) (size 15 to 20)
#    0.000    2.125    1.250    3.000    0.000    2.750 
#    0.000    5.625    0.000    0.000    0.000    0.000 
#    0.000    0.000    0.000    0.000    0.000    0.000 
#
# Total GULP energy -396862.248915 kJ/mol
# GULP energy per Si atom -12401.945279 kJ/mol
# Density = 1.953328 g / cm^3
# Si number density = 19.577843 Si / 1000 Ang^3
#
#
#
# Elastic Constant Matrix: (Units=GPa)
#
#
# Indices 1 2 3 4 5 6 
#
# 1 140.1956 34.8465 66.2559 0.0000 -11.1021 0.0000
# 2 34.8465 54.4402 27.4302 0.0000 -5.4699 0.0000
# 3 66.2559 27.4302 129.8431 0.0000 -11.6668 0.0000
# 4 0.0000 0.0000 0.0000 21.0949 0.0000 -6.7306
# 5 -11.1021 -5.4699 -11.6668 0.0000 29.2517 0.0000
# 6 0.0000 0.0000 0.0000 -6.7306 0.0000 29.4826
#
#
#
# Elastic Compliance Matrix: (Units=1/GPa)
#
#
# Indices 1 2 3 4 5 6 
#
# 1 0.010318 -0.004334 -0.004222 0.000000 0.001422 0.000000
# 2 -0.004334 0.022514 -0.002400 0.000000 0.001608 0.000000
# 3 -0.004222 -0.002400 0.010557 0.000000 0.002159 0.000000
# 4 0.000000 0.000000 0.000000 0.051129 0.000000 0.011672
# 5 0.001422 0.001608 0.002159 0.000000 0.035888 0.000000
# 6 0.000000 0.000000 0.000000 0.011672 0.000000 0.036583
#
#
# Mechanical properties :
#
#
# Convention : Reuss Voigt Hill
#
# Bulk Modulus (GPa) = 46.56207 64.61602 55.58905
# Shear Modulus (GPa) = 25.50249 29.02892 27.26570
#
# Velocity S-wave (km/s) = 3.61310 3.85482 3.73591
# Velocity P-wave (km/s) = 6.42189 7.27249 6.86039
#
# Compressibility (1/GPa) = 0.02147671
#
# Stress axis : x y z
#
# Youngs Moduli (GPa) = 96.91854 44.41679 94.72544
#
# Poissons Ratio (x) = 0.19252 0.39989
# Poissons Ratio (y) = 0.42009 0.22734
# Poissons Ratio (z) = 0.40915 0.10660
#
# Static dielectric constant tensor:
#      x y z
#    x 3.942030 0.000000 0.094220 
#    y 0.000000 3.262860 0.000000 
#    z 0.094220 0.000000 3.642620 
# 
# 
# High freq. dielectric constant tensor:
#      x y z
#    x 1.780770 0.000000 -0.000970 
#    y 0.000000 1.735020 0.000000 
#    z -0.000970 0.000000 1.759390 
# 
# From -- ./inp_files/338791.got.cif
#   From: 2010.06.25/outbox.cif.g09.slc.cpg/sg12_170_cif.got.tgz:338791.got - 2010.06.28 00:19:55.
