data_PCOD8091174
_publ_section_title
;
Structure prediction by ZEFSAII (Michael W. Deem and Ramdas Pophale) SiO2 
 PCOD8091174
Probable space group: C 2/M
;
_chemical_formula_sum "Si O2"
_cell_formula_units_Z 64
_cell_length_a 26.440409
_cell_length_b 14.292444
_cell_length_c 9.945760
_cell_angle_alpha 90.000000
_cell_angle_beta 119.183034
_cell_angle_gamma 90.000000
_cell_volume 3281.406000
_symmetry_space_group_name_H-M "C 2/M"
_symmetry_group_IT_number 12
_symmetry_cell_setting 'monoclinic'
loop_
_space_group_symop_operation_xyz
x,y,z
-x,y,-z
-x,-y,-z
x,-y,z
1/2+x,1/2+y,z
1/2-x,1/2+y,-z
1/2-x,1/2-y,-z
1/2+x,1/2-y,z
loop_
_atom_site_type_symbol
_atom_site_label
_atom_site_fract_x
_atom_site_fract_y
_atom_site_fract_z
Si Si1 0.071001 0.803151 0.733639
Si Si2 0.731526 0.109854 0.425030
Si Si3 0.560069 0.281770 0.417176
Si Si4 0.231394 0.285287 0.150243
Si Si5 0.359136 0.393861 0.672880
Si Si6 0.652434 0.605412 0.039205
Si Si7 0.134693 0.396629 0.513632
Si Si8 0.329701 0.824085 0.177868
O O1 0.069114 0.831447 0.573528
O O2 0.107422 0.707370 0.794570
O O3 0.007304 0.783279 0.709120
O O4 0.101814 0.882981 0.862708
O O5 0.717358 0.167824 0.273026
O O6 0.793364 0.141899 0.563838
O O7 0.683342 0.137426 0.471637
O O8 0.730342 0.000000 0.390484
O O9 0.595223 0.335087 0.350363
O O10 0.580915 0.174035 0.446160
O O11 0.202188 0.183160 0.089734
O O12 0.299624 0.266441 0.214665
O O13 0.207860 0.354459 0.001174
O O14 0.363910 0.500000 0.629225
O O15 0.375801 0.383420 0.850244
O O16 0.678629 0.500000 0.058712
O O17 0.112079 0.500000 0.445898
O O18 0.163569 0.403465 0.700041
#
# Coordination Sequence:
#
# PCOD8091174 Si02
#       8
#     8   8   8   8   8   8   8   8
#     4   9  20  37  54  74 103 139 179 217 258 308
#     4  10  20  34  54  81 110 140 176 218 266 318
#     4  10  20  37  57  77 105 140 179 221 262 311
#     4  10  19  34  55  79 109 143 176 214 264 317
#     4  10  21  35  53  80 109 139 176 218 265 316
#     4  10  21  36  55  81 111 138 170 215 266 319
#     4  10  20  34  55  81 107 137 176 221 269 318
#     4   9  19  34  51  76 107 140 178 216 259 311
#
# _framework density 19.503834000000001
#
# number of rings (size 3 to 8) (size 9 to 14) (size 15 to 20)
#    0.000    2.250    0.000    3.000    0.000    5.000 
#    0.000   15.000    0.000    0.750    0.000    7.875 
#    0.000    0.000    0.000    0.000    0.000    0.000 
#
# Total GULP energy -396639.338342 kJ/mol
# GULP energy per Si atom -12394.979323 kJ/mol
# Density = 1.945944 g / cm^3
# Si number density = 19.503834 Si / 1000 Ang^3
#
#
#
# Elastic Constant Matrix: (Units=GPa)
#
#
# Indices 1 2 3 4 5 6 
#
# 1 93.8039 36.8370 35.5803 0.0000 3.3462 0.0000
# 2 36.8370 64.3862 41.1625 0.0000 -5.2721 0.0000
# 3 35.5803 41.1625 103.1261 0.0000 -9.1678 0.0000
# 4 0.0000 0.0000 0.0000 24.2470 0.0000 -0.4038
# 5 3.3462 -5.2721 -9.1678 0.0000 29.3362 0.0000
# 6 0.0000 0.0000 0.0000 -0.4038 0.0000 12.8532
#
#
#
# Elastic Compliance Matrix: (Units=1/GPa)
#
#
# Indices 1 2 3 4 5 6 
#
# 1 0.014495 -0.006966 -0.002550 0.000000 -0.003702 0.000000
# 2 -0.006966 0.024240 -0.007009 0.000000 0.002961 0.000000
# 3 -0.002550 -0.007009 0.013668 0.000000 0.003303 0.000000
# 4 0.000000 0.000000 0.000000 0.041264 0.000000 0.001296
# 5 -0.003702 0.002961 0.003303 0.000000 0.036074 0.000000
# 6 0.000000 0.000000 0.000000 0.001296 0.000000 0.077842
#
#
# Mechanical properties :
#
#
# Convention : Reuss Voigt Hill
#
# Bulk Modulus (GPa) = 51.66961 54.27508 52.97234
# Shear Modulus (GPa) = 20.23607 23.13637 21.68622
#
# Velocity S-wave (km/s) = 3.22459 3.44793 3.33813
# Velocity P-wave (km/s) = 6.35716 6.61357 6.48663
#
# Compressibility (1/GPa) = 0.01935374
#
# Stress axis : x y z
#
# Youngs Moduli (GPa) = 68.98743 41.25420 73.16555
#
# Poissons Ratio (x) = 0.28739 0.18655
# Poissons Ratio (y) = 0.48059 0.51279
# Poissons Ratio (z) = 0.17590 0.28914
#
# Static dielectric constant tensor:
#      x y z
#    x 3.516270 0.000000 -0.058480 
#    y 0.000000 3.342430 0.000000 
#    z -0.058480 0.000000 3.711140 
# 
# 
# High freq. dielectric constant tensor:
#      x y z
#    x 1.755500 0.000000 -0.011830 
#    y 0.000000 1.738160 0.000000 
#    z -0.011830 0.000000 1.766910 
# 
# From -- ./inp_files/104675.got.cif
#   From: 2010.06.25/outbox.cif.g09.slc.cpg/sg12_53_cif.got.tgz:104675.got - 2010.06.28 00:19:55.
