data_PCOD8091461
_publ_section_title
;
Structure prediction by ZEFSAII (Michael W. Deem and Ramdas Pophale) SiO2 
 PCOD8091461
Probable space group: C 2/M
;
_chemical_formula_sum "Si O2"
_cell_formula_units_Z 56
_cell_length_a 23.858267
_cell_length_b 9.147577
_cell_length_c 14.145586
_cell_angle_alpha 90.000000
_cell_angle_beta 97.217645
_cell_angle_gamma 90.000000
_cell_volume 3062.745284
_symmetry_space_group_name_H-M "C 2/M"
_symmetry_group_IT_number 12
_symmetry_cell_setting 'monoclinic'
loop_
_space_group_symop_operation_xyz
x,y,z
-x,y,-z
-x,-y,-z
x,-y,z
1/2+x,1/2+y,z
1/2-x,1/2+y,-z
1/2-x,1/2-y,-z
1/2+x,1/2-y,z
loop_
_atom_site_type_symbol
_atom_site_label
_atom_site_fract_x
_atom_site_fract_y
_atom_site_fract_z
Si Si1 0.612518 0.669260 0.155336
Si Si2 0.781941 0.166432 0.698431
Si Si3 0.332669 0.672474 0.336091
Si Si4 0.423419 0.167247 0.234306
Si Si5 0.950498 0.669694 0.694015
Si Si6 0.562283 0.170470 0.980210
Si Si7 0.866270 0.171635 0.551621
O O1 0.595012 0.500000 0.151263
O O2 0.676765 0.688284 0.203680
O O3 0.569821 0.753336 0.214894
O O4 0.607732 0.737330 0.049947
O O5 0.729019 0.270112 0.702731
O O6 0.814410 0.211297 0.609466
O O7 0.760700 0.000000 0.687005
O O8 0.331082 0.500000 0.330858
O O9 0.376983 0.729398 0.269697
O O10 0.350342 0.726039 0.444105
O O11 0.482416 0.190049 0.301202
O O12 0.403332 0.000000 0.238812
O O13 0.430062 0.212526 0.126915
O O14 0.933818 0.500000 0.696781
O O15 0.922088 0.741895 0.595957
O O16 0.572866 0.000000 0.000938
O O17 0.500000 0.216529 0.000000
O O18 0.879979 0.000000 0.559624
#
# Coordination Sequence:
#
# PCOD8091461 Si02
#       7
#     8   8   8   8   8   8   8
#     4  10  20  34  56  87 115 140 176 228 280 324
#     4   9  19  37  58  79 109 144 182 225 272 325
#     4  11  23  37  55  80 111 146 186 229 274 325
#     4  10  22  38  55  78 113 149 182 223 272 325
#     4  10  19  34  56  82 110 145 186 225 268 326
#     4  10  19  36  59  83 111 143 183 226 268 322
#     4   9  20  37  56  82 112 142 180 231 280 320
#
# _framework density 18.284248000000002
#
# number of rings (size 3 to 8) (size 9 to 14) (size 15 to 20)
#    0.000    2.143    1.429    2.571    0.000    6.571 
#    0.000    3.571    0.000    0.000    0.000    0.000 
#    0.000    0.000    0.000    0.000    0.000    0.000 
#
# Total GULP energy -347304.844362 kJ/mol
# GULP energy per Si atom -12403.744441 kJ/mol
# Density = 1.824263 g / cm^3
# Si number density = 18.284248 Si / 1000 Ang^3
#
#
#
# Elastic Constant Matrix: (Units=GPa)
#
#
# Indices 1 2 3 4 5 6 
#
# 1 97.3986 54.9703 72.3184 0.0000 -1.9741 0.0000
# 2 54.9703 82.8797 52.4454 0.0000 4.4399 0.0000
# 3 72.3184 52.4454 96.3748 0.0000 10.9301 0.0000
# 4 0.0000 0.0000 0.0000 33.6765 0.0000 3.1261
# 5 -1.9741 4.4399 10.9301 0.0000 20.8404 0.0000
# 6 0.0000 0.0000 0.0000 3.1261 0.0000 34.0254
#
#
#
# Elastic Compliance Matrix: (Units=1/GPa)
#
#
# Indices 1 2 3 4 5 6 
#
# 1 0.029593 -0.008095 -0.019473 0.000000 0.014741 0.000000
# 2 -0.008095 0.020657 -0.004870 0.000000 -0.002613 0.000000
# 3 -0.019473 -0.004870 0.029484 0.000000 -0.016270 0.000000
# 4 0.000000 0.000000 0.000000 0.029950 0.000000 -0.002752
# 5 0.014741 -0.002613 -0.016270 0.000000 0.058470 0.000000
# 6 0.000000 0.000000 0.000000 -0.002752 0.000000 0.029643
#
#
# Mechanical properties :
#
#
# Convention : Reuss Voigt Hill
#
# Bulk Modulus (GPa) = 67.30664 70.68013 68.99338
# Shear Modulus (GPa) = 18.68285 24.16972 21.42628
#
# Velocity S-wave (km/s) = 3.20003 3.63972 3.42693
# Velocity P-wave (km/s) = 7.10948 7.51024 7.31261
#
# Compressibility (1/GPa) = 0.01485738
#
# Stress axis : x y z
#
# Youngs Moduli (GPa) = 33.79131 48.41081 33.91692
#
# Poissons Ratio (x) = 0.39190 0.66046
# Poissons Ratio (y) = 0.27355 0.16517
# Poissons Ratio (z) = 0.65802 0.23576
#
# Static dielectric constant tensor:
#      x y z
#    x 3.217440 0.000000 0.166280 
#    y 0.000000 3.366410 0.000000 
#    z 0.166280 0.000000 3.433860 
# 
# 
# High freq. dielectric constant tensor:
#      x y z
#    x 1.699070 0.000000 0.014300 
#    y 0.000000 1.713440 0.000000 
#    z 0.014300 0.000000 1.708690 
# 
# From -- ./inp_files/230888.got.cif
#   From: 2010.06.25/outbox.cif.g09.slc.cpg/sg12_116_cif.got.tgz:230888.got - 2010.06.28 00:19:55.
