data_PCOD8091622
_publ_section_title
;
Structure prediction by ZEFSAII (Michael W. Deem and Ramdas Pophale) SiO2 
 PCOD8091622
Probable space group: C 2/M
;
_chemical_formula_sum "Si O2"
_cell_formula_units_Z 48
_cell_length_a 20.472205
_cell_length_b 11.249113
_cell_length_c 26.279224
_cell_angle_alpha 90.000000
_cell_angle_beta 157.640034
_cell_angle_gamma 90.000000
_cell_volume 2302.309286
_symmetry_space_group_name_H-M "C 2/M"
_symmetry_group_IT_number 12
_symmetry_cell_setting 'monoclinic'
loop_
_space_group_symop_operation_xyz
x,y,z
-x,y,-z
-x,-y,-z
x,-y,z
1/2+x,1/2+y,z
1/2-x,1/2+y,-z
1/2-x,1/2-y,-z
1/2+x,1/2-y,z
loop_
_atom_site_type_symbol
_atom_site_label
_atom_site_fract_x
_atom_site_fract_y
_atom_site_fract_z
Si Si1 0.345887 0.630214 0.628412
Si Si2 0.641565 0.365978 0.640386
Si Si3 0.543436 0.712744 0.396473
Si Si4 0.371878 0.366244 0.088397
Si Si5 0.940747 0.804607 0.875179
Si Si6 0.262364 0.366961 0.844541
O O1 0.275581 0.500000 0.592292
O O2 0.385484 0.629873 0.596773
O O3 0.202598 0.726309 0.540331
O O4 0.519434 0.657905 0.783037
O O5 0.500000 0.307021 0.500000
O O6 0.673445 0.500000 0.645631
O O7 0.567032 0.363695 0.643770
O O8 0.830668 0.307660 0.776041
O O9 0.428763 0.817039 0.288754
O O10 0.283809 0.500000 0.028334
O O11 0.498268 0.373620 0.130936
O O12 0.250000 0.250000 0.000000
O O13 0.816878 0.877462 0.824208
O O14 0.112726 0.779056 0.032851
O O15 0.269119 0.500000 0.872836
#
# Coordination Sequence:
#
# PCOD8091622 Si02
#       6
#     8   8   8   8   8   8
#     4  10  21  36  55  80 112 147 185 231 278 330
#     4  10  21  37  57  80 108 142 182 229 278 329
#     4  10  20  36  56  80 108 142 184 224 276 333
#     4  11  23  39  58  83 116 151 189 232 279 333
#     4  10  20  35  55  81 108 140 180 225 274 325
#     4  10  19  34  57  81 107 139 177 223 273 327
#
# _framework density 20.848631999999998
#
# number of rings (size 3 to 8) (size 9 to 14) (size 15 to 20)
#    0.000    1.833    0.000    5.000    0.000    0.667 
#    0.000   11.667    0.000   10.500    0.000    0.000 
#    0.000    0.000    0.000    0.000    0.000    0.000 
#
# Total GULP energy -297351.909280 kJ/mol
# GULP energy per Si atom -12389.662887 kJ/mol
# Density = 2.080118 g / cm^3
# Si number density = 20.848632 Si / 1000 Ang^3
#
#
#
# Elastic Constant Matrix: (Units=GPa)
#
#
# Indices 1 2 3 4 5 6 
#
# 1 54.4803 11.0383 9.0476 -0.0005 -5.7045 -0.0048
# 2 11.0383 113.3328 67.1324 -0.0466 -4.7032 0.0086
# 3 9.0476 67.1324 109.0955 -0.0260 -10.8664 0.0031
# 4 -0.0005 -0.0466 -0.0260 24.9466 0.0112 -3.1520
# 5 -5.7045 -4.7032 -10.8664 0.0112 30.2557 0.0001
# 6 -0.0048 0.0086 0.0031 -3.1520 0.0001 17.2617
#
#
#
# Elastic Compliance Matrix: (Units=1/GPa)
#
#
# Indices 1 2 3 4 5 6 
#
# 1 0.019058 -0.001537 -0.000312 -0.000004 0.003242 0.000005
# 2 -0.001537 0.014035 -0.008629 0.000017 -0.001207 -0.000003
# 3 -0.000312 -0.008629 0.014895 -0.000002 0.003950 0.000001
# 4 -0.000004 0.000017 -0.000002 0.041032 -0.000014 0.007492
# 5 0.003242 -0.001207 0.003950 -0.000014 0.034894 -0.000002
# 6 0.000005 -0.000003 0.000001 0.007492 -0.000002 0.059300
#
#
# Mechanical properties :
#
#
# Convention : Reuss Voigt Hill
#
# Bulk Modulus (GPa) = 36.99263 50.14946 43.57105
# Shear Modulus (GPa) = 23.45431 27.13880 25.29656
#
# Velocity S-wave (km/s) = 3.35771 3.61183 3.48709
# Velocity P-wave (km/s) = 5.72837 6.44205 6.09567
#
# Compressibility (1/GPa) = 0.02703241
#
# Stress axis : x y z
#
# Youngs Moduli (GPa) = 52.47158 71.25270 67.13459
#
# Poissons Ratio (x) = 0.10951 0.02093
# Poissons Ratio (y) = 0.08064 0.57931
# Poissons Ratio (z) = 0.01636 0.61484
#
# Static dielectric constant tensor:
#      x y z
#    x 3.733620 0.000000 -0.154950 
#    y 0.000000 3.602360 0.000000 
#    z -0.154950 0.000000 3.862690 
# 
# 
# High freq. dielectric constant tensor:
#      x y z
#    x 1.815520 0.000000 -0.010360 
#    y 0.000000 1.798960 0.000000 
#    z -0.010360 0.000000 1.819360 
# 
# From -- ./inp_files/366198.got.cif
#   From: 2010.06.25/outbox.cif.g09.slc.cpg/sg12_184_cif.got.tgz:366198.got - 2010.06.28 00:19:55.
