data_PCOD8091277
_publ_section_title
;
Structure prediction by ZEFSAII (Michael W. Deem and Ramdas Pophale) SiO2 
 PCOD8091277
Probable space group: C 2/M
;
_chemical_formula_sum "Si O2"
_cell_formula_units_Z 64
_cell_length_a 31.341476
_cell_length_b 22.572126
_cell_length_c 8.856234
_cell_angle_alpha 90.000000
_cell_angle_beta 32.125661
_cell_angle_gamma 90.000000
_cell_volume 3331.741512
_symmetry_space_group_name_H-M "C 2/M"
_symmetry_group_IT_number 12
_symmetry_cell_setting 'monoclinic'
loop_
_space_group_symop_operation_xyz
x,y,z
-x,y,-z
-x,-y,-z
x,-y,z
1/2+x,1/2+y,z
1/2-x,1/2+y,-z
1/2-x,1/2-y,-z
1/2+x,1/2-y,z
loop_
_atom_site_type_symbol
_atom_site_label
_atom_site_fract_x
_atom_site_fract_y
_atom_site_fract_z
Si Si1 0.177808 0.355941 0.225213
Si Si2 0.701391 0.331166 0.882118
Si Si3 0.178168 0.637419 0.721236
Si Si4 0.244177 0.933580 0.258261
Si Si5 0.570252 0.567321 0.695071
Si Si6 0.413533 0.569239 0.687639
Si Si7 0.905807 0.433540 0.285338
Si Si8 0.095745 0.717207 0.217511
O O1 0.236286 0.322028 0.166396
O O2 0.121032 0.402478 0.479887
O O3 0.122742 0.310326 0.296804
O O4 0.233423 0.391425 0.945104
O O5 0.752148 0.326342 0.574814
O O6 0.657571 0.395180 0.015975
O O7 0.632914 0.282106 0.092553
O O8 0.217498 0.585560 0.700395
O O9 0.120372 0.605662 0.777099
O O10 0.126209 0.679891 0.983261
O O11 0.148672 0.929660 0.563360
O O12 0.272342 0.000000 0.135707
O O13 0.542803 0.500000 0.744850
O O14 0.583400 0.595830 0.491375
O O15 0.500000 0.600301 0.000000
O O16 0.500000 0.580842 0.500000
O O17 0.389390 0.500000 0.766279
O O18 0.869108 0.500000 0.387763
O O19 0.000000 0.437437 0.000000
O O20 0.000000 0.721556 0.500000
#
# Coordination Sequence:
#
# PCOD8091277 Si02
#       8
#     8   8   8   8   8   8   8   8
#     4  10  21  37  60  84 113 150 190 238 286 340
#     4  11  22  39  61  85 115 151 196 240 287 344
#     4  10  23  37  58  87 115 149 192 241 288 337
#     4  10  19  34  55  83 117 153 189 224 279 344
#     4   9  18  32  50  74 113 157 187 222 273 334
#     4  10  21  35  55  86 121 155 190 233 288 345
#     4  10  20  36  59  89 121 151 187 234 290 346
#     4  11  23  42  62  81 110 150 196 242 292 343
#
# _framework density 19.209174000000001
#
# number of rings (size 3 to 8) (size 9 to 14) (size 15 to 20)
#    0.000    1.875    1.250    2.625    1.750    2.500 
#    0.000    0.000    0.000    6.750    0.000    0.000 
#    0.000    0.000    0.000    0.000    0.000    0.000 
#
# Total GULP energy -396795.513708 kJ/mol
# GULP energy per Si atom -12399.859803 kJ/mol
# Density = 1.916545 g / cm^3
# Si number density = 19.209174 Si / 1000 Ang^3
#
#
#
# Elastic Constant Matrix: (Units=GPa)
#
#
# Indices 1 2 3 4 5 6 
#
# 1 79.2970 30.1928 41.7728 0.0000 -3.5567 0.0000
# 2 30.1928 86.0617 41.4505 0.0000 -8.3445 0.0000
# 3 41.7728 41.4505 114.1854 0.0000 -6.8836 0.0000
# 4 0.0000 0.0000 0.0000 36.8270 0.0000 -4.8346
# 5 -3.5567 -8.3445 -6.8836 0.0000 31.0486 0.0000
# 6 0.0000 0.0000 0.0000 -4.8346 0.0000 20.8100
#
#
#
# Elastic Compliance Matrix: (Units=1/GPa)
#
#
# Indices 1 2 3 4 5 6 
#
# 1 0.016438 -0.003488 -0.004754 0.000000 -0.000108 0.000000
# 2 -0.003488 0.015046 -0.004020 0.000000 0.002753 0.000000
# 3 -0.004754 -0.004020 0.012019 0.000000 0.001040 0.000000
# 4 0.000000 0.000000 0.000000 0.028008 0.000000 0.006507
# 5 -0.000108 0.002753 0.001040 0.000000 0.033166 0.000000
# 6 0.000000 0.000000 0.000000 0.006507 0.000000 0.049565
#
#
# Mechanical properties :
#
#
# Convention : Reuss Voigt Hill
#
# Bulk Modulus (GPa) = 52.68800 56.26404 54.47602
# Shear Modulus (GPa) = 27.01341 28.81232 27.91287
#
# Velocity S-wave (km/s) = 3.75410 3.87709 3.81609
# Velocity P-wave (km/s) = 6.80288 7.02824 6.91648
#
# Compressibility (1/GPa) = 0.01897965
#
# Stress axis : x y z
#
# Youngs Moduli (GPa) = 60.83328 66.46137 83.20218
#
# Poissons Ratio (x) = 0.23180 0.39555
# Poissons Ratio (y) = 0.21217 0.33448
# Poissons Ratio (z) = 0.28921 0.26718
#
# Static dielectric constant tensor:
#      x y z
#    x 3.689810 0.000000 0.120220 
#    y 0.000000 3.401050 0.000000 
#    z 0.120220 0.000000 3.591460 
# 
# 
# High freq. dielectric constant tensor:
#      x y z
#    x 1.758070 0.000000 -0.000020 
#    y 0.000000 1.732280 0.000000 
#    z -0.000020 0.000000 1.756450 
# 
# From -- ./inp_files/113598.got.cif
#   From: 2010.06.25/outbox.cif.g09.slc.cpg/sg12_57_cif.got.tgz:113598.got - 2010.06.28 00:19:55.
