data_PCOD8091637
_publ_section_title
;
Structure prediction by ZEFSAII (Michael W. Deem and Ramdas Pophale) SiO2 
 PCOD8091637
Probable space group: C 2/M
;
_chemical_formula_sum "Si O2"
_cell_formula_units_Z 56
_cell_length_a 15.867268
_cell_length_b 8.868208
_cell_length_c 23.335962
_cell_angle_alpha 90.000000
_cell_angle_beta 58.432490
_cell_angle_gamma 90.000000
_cell_volume 2797.792669
_symmetry_space_group_name_H-M "C 2/M"
_symmetry_group_IT_number 12
_symmetry_cell_setting 'monoclinic'
loop_
_space_group_symop_operation_xyz
x,y,z
-x,y,-z
-x,-y,-z
x,-y,z
1/2+x,1/2+y,z
1/2-x,1/2+y,-z
1/2-x,1/2-y,-z
1/2+x,1/2-y,z
loop_
_atom_site_type_symbol
_atom_site_label
_atom_site_fract_x
_atom_site_fract_y
_atom_site_fract_z
Si Si1 0.257501 0.823212 0.435859
Si Si2 0.452973 0.823282 0.848162
Si Si3 0.725698 0.176895 0.163830
Si Si4 0.414082 0.178159 0.571632
Si Si5 0.178117 0.178525 0.296176
Si Si6 0.127478 0.675242 0.709483
Si Si7 0.951928 0.821463 0.075855
O O1 0.250000 0.750000 0.500000
O O2 0.184710 0.731145 0.422640
O O3 0.361056 0.798240 0.363911
O O4 0.231494 0.000000 0.449367
O O5 0.339415 0.788528 0.870165
O O6 0.524693 0.761173 0.771411
O O7 0.481515 0.741373 0.896504
O O8 0.468021 0.000000 0.852908
O O9 0.671308 0.264648 0.233987
O O10 0.838130 0.236002 0.117073
O O11 0.723508 0.000000 0.178466
O O12 0.500000 0.240423 0.500000
O O13 0.414641 0.252404 0.634748
O O14 0.420947 0.000000 0.575775
O O15 0.280514 0.242580 0.286928
O O16 0.169609 0.000000 0.301789
O O17 0.130658 0.500000 0.720889
O O18 0.954842 0.000000 0.078548
O O19 0.000000 0.762664 0.000000
#
# Coordination Sequence:
#
# PCOD8091637 Si02
#       7
#     8   8   8   8   8   8   8
#     4  10  20  34  52  77 110 149 191 239 293 350
#     4  10  20  37  60  86 113 148 198 242 285 347
#     4  10  21  36  58  87 117 153 195 241 290 349
#     4  10  21  36  54  77 109 151 194 238 290 346
#     4  10  19  34  57  81 109 147 190 239 294 350
#     4   8  16  32  53  75 103 141 183 234 287 338
#     4  10  22  40  59  84 122 159 190 238 299 349
#
# _framework density 20.015778000000001
#
# number of rings (size 3 to 8) (size 9 to 14) (size 15 to 20)
#    0.000    2.286    1.429    2.143    0.000    3.714 
#    0.000    3.571    0.000    0.000    0.000    0.000 
#    0.000    0.000    0.000    0.000    0.000    0.000 
#
# Total GULP energy -346937.682519 kJ/mol
# GULP energy per Si atom -12390.631519 kJ/mol
# Density = 1.997022 g / cm^3
# Si number density = 20.015778 Si / 1000 Ang^3
#
#
#
# Elastic Constant Matrix: (Units=GPa)
#
#
# Indices 1 2 3 4 5 6 
#
# 1 92.7447 24.9855 55.1425 0.0000 8.3122 0.0001
# 2 24.9855 29.6611 36.2928 0.0000 -1.1978 0.0002
# 3 55.1425 36.2928 162.8430 0.0000 11.5732 0.0000
# 4 0.0000 0.0000 0.0000 24.7366 0.0000 7.7449
# 5 8.3122 -1.1978 11.5732 0.0000 27.3111 0.0000
# 6 0.0001 0.0002 0.0000 7.7449 0.0000 26.8256
#
#
#
# Elastic Compliance Matrix: (Units=1/GPa)
#
#
# Indices 1 2 3 4 5 6 
#
# 1 0.015407 -0.009758 -0.002762 0.000000 -0.003947 0.000000
# 2 -0.009758 0.053723 -0.009328 0.000000 0.009279 0.000000
# 3 -0.002762 -0.009328 0.009408 0.000000 -0.003555 0.000000
# 4 0.000000 0.000000 0.000000 0.044443 0.000000 -0.012831
# 5 -0.003947 0.009279 -0.003555 0.000000 0.039730 0.000000
# 6 0.000000 0.000000 0.000000 -0.012831 0.000000 0.040982
#
#
# Mechanical properties :
#
#
# Convention : Reuss Voigt Hill
#
# Bulk Modulus (GPa) = 28.70208 57.56560 43.13384
# Shear Modulus (GPa) = 19.30474 27.02985 23.16729
#
# Velocity S-wave (km/s) = 3.10897 3.67880 3.40582
# Velocity P-wave (km/s) = 5.22096 6.84597 6.08793
#
# Compressibility (1/GPa) = 0.03484068
#
# Stress axis : x y z
#
# Youngs Moduli (GPa) = 64.90552 18.61406 106.29533
#
# Poissons Ratio (x) = 0.18164 0.29357
# Poissons Ratio (y) = 0.63337 0.99155
# Poissons Ratio (z) = 0.17926 0.17364
#
# Static dielectric constant tensor:
#      x y z
#    x 3.578510 0.000000 -0.146280 
#    y 0.000000 3.348430 0.000000 
#    z -0.146280 0.000000 4.248760 
# 
# 
# High freq. dielectric constant tensor:
#      x y z
#    x 1.766370 0.000000 0.000740 
#    y 0.000000 1.762940 0.000000 
#    z 0.000740 0.000000 1.794720 
# 
# From -- ./inp_files/338576.got.cif
#   From: 2010.06.25/outbox.cif.g09.slc.cpg/sg12_170_cif.got.tgz:338576.got - 2010.06.28 00:19:55.
