data_PCOD8091843
_publ_section_title
;
Structure prediction by ZEFSAII (Michael W. Deem and Ramdas Pophale) SiO2 
 PCOD8091843
Probable space group: C 2/M
;
_chemical_formula_sum "Si O2"
_cell_formula_units_Z 56
_cell_length_a 11.294758
_cell_length_b 18.472793
_cell_length_c 19.581652
_cell_angle_alpha 90.000000
_cell_angle_beta 136.958428
_cell_angle_gamma 90.000000
_cell_volume 2788.558894
_symmetry_space_group_name_H-M "C 2/M"
_symmetry_group_IT_number 12
_symmetry_cell_setting 'monoclinic'
loop_
_space_group_symop_operation_xyz
x,y,z
-x,y,-z
-x,-y,-z
x,-y,z
1/2+x,1/2+y,z
1/2-x,1/2+y,-z
1/2-x,1/2-y,-z
1/2+x,1/2-y,z
loop_
_atom_site_type_symbol
_atom_site_label
_atom_site_fract_x
_atom_site_fract_y
_atom_site_fract_z
Si Si1 0.894862 0.000000 0.350141
Si Si2 0.231822 0.793849 0.405920
Si Si3 0.910878 0.653808 0.605665
Si Si4 0.230527 0.210384 0.249881
Si Si5 0.316467 0.835351 0.949648
Si Si6 0.864021 0.145554 0.262772
Si Si7 0.592177 0.325369 0.974660
Si Si8 0.758136 0.500000 0.564704
O O1 0.826400 0.068325 0.279483
O O2 0.812807 0.000000 0.389465
O O3 0.103414 0.000000 0.444252
O O4 0.224970 0.706287 0.411911
O O5 0.392191 0.826426 0.516905
O O6 0.246401 0.814929 0.334043
O O7 0.057895 0.830047 0.362654
O O8 0.876440 0.570065 0.604143
O O9 0.103136 0.672198 0.715400
O O10 0.233282 0.297027 0.242115
O O11 0.051541 0.184624 0.143524
O O12 0.170428 0.856389 0.833028
O O13 0.250486 0.863198 0.997743
O O14 0.500000 0.868857 0.000000
O O15 0.333379 0.748244 0.960641
O O16 0.500000 0.368535 0.000000
#
# Coordination Sequence:
#
# PCOD8091843 Si02
#       8
#     4   8   8   8   8   8   8   4
#     4  11  24  38  62  80 119 172 206 241 312 361
#     4  10  20  36  56  90 120 152 196 258 305 359
#     4  10  22  36  59  86 122 156 203 248 299 369
#     4  11  20  35  61  89 121 153 197 257 311 359
#     4  10  19  34  58  88 120 153 200 255 303 366
#     4  11  20  37  58  87 119 158 206 249 305 365
#     4  10  19  34  57  91 123 155 193 257 315 368
#     4  11  22  44  56  83 122 168 205 246 295 384
#
# _framework density 20.082058
#
# number of rings (size 3 to 8) (size 9 to 14) (size 15 to 20)
#    0.000    1.571    5.714    1.286    0.000    0.000 
#    2.571    2.500    0.000    0.000    0.000    1.000 
#    0.000    0.000    0.000    0.000    0.000    0.000 
#
# Total GULP energy -346974.108287 kJ/mol
# GULP energy per Si atom -12391.932439 kJ/mol
# Density = 2.003635 g / cm^3
# Si number density = 20.082058 Si / 1000 Ang^3
#
#
#
# Elastic Constant Matrix: (Units=GPa)
#
#
# Indices 1 2 3 4 5 6 
#
# 1 108.8590 23.6811 23.8168 0.0001 -12.2852 0.0000
# 2 23.6811 103.2558 23.3190 0.0001 5.4522 0.0000
# 3 23.8168 23.3190 88.1122 0.0001 -5.3612 0.0001
# 4 0.0001 0.0001 0.0001 -28.6844 0.0000 3.2553
# 5 -12.2852 5.4522 -5.3612 0.0000 32.2154 0.0000
# 6 0.0000 0.0000 0.0001 3.2553 0.0000 8.0083
#
#
#
# Elastic Compliance Matrix: (Units=1/GPa)
#
#
# Indices 1 2 3 4 5 6 
#
# 1 0.010563 -0.002178 -0.002032 0.000000 0.004058 0.000000
# 2 -0.002178 0.010909 -0.002486 0.000000 -0.003091 0.000000
# 3 -0.002032 -0.002486 0.012663 0.000000 0.001753 0.000000
# 4 0.000000 0.000000 0.000000 -0.033325 0.000000 0.013546
# 5 0.004058 -0.003091 0.001753 0.000000 0.033404 0.000000
# 6 0.000000 0.000000 0.000000 0.013546 0.000000 0.119364
#
#
# Mechanical properties :
#
#
# Convention : Reuss Voigt Hill
#
# Bulk Modulus (GPa) = 48.21053 49.09566 48.65309
# Shear Modulus (GPa) = 28.75483 17.60185 23.17834
#
# Velocity S-wave (km/s) = 3.78811 2.96378 3.40101
# Velocity P-wave (km/s) = 6.57205 6.01769 6.30097
#
# Compressibility (1/GPa) = 0.02074236
#
# Stress axis : x y z
#
# Youngs Moduli (GPa) = 94.67454 91.66834 78.96986
#
# Poissons Ratio (x) = 0.19965 0.16045
# Poissons Ratio (y) = 0.20619 0.19635
# Poissons Ratio (z) = 0.19235 0.22793
#
# Static dielectric constant tensor:
#      x y z
#    x 3.913120 0.000000 -0.022140 
#    y 0.000000 3.176000 0.000000 
#    z -0.022140 0.000000 3.702780 
# 
# 
# High freq. dielectric constant tensor:
#      x y z
#    x 1.791340 0.000000 -0.001730 
#    y 0.000000 1.723000 0.000000 
#    z -0.001730 0.000000 1.795180 
# 
# From -- ./inp_files/264341.got.cif
#   From: 2010.06.25/outbox.cif.g09.slc.cpg/sg12_133_cif.got.tgz:264341.got - 2010.06.28 00:19:55.
