data_PCOD8091034
_publ_section_title
;
Structure prediction by ZEFSAII (Michael W. Deem and Ramdas Pophale) SiO2 
 PCOD8091034
Probable space group: C 2/M
;
_chemical_formula_sum "Si O2"
_cell_formula_units_Z 64
_cell_length_a 16.926415
_cell_length_b 26.397773
_cell_length_c 13.267496
_cell_angle_alpha 90.000000
_cell_angle_beta 145.607936
_cell_angle_gamma 90.000000
_cell_volume 3348.547457
_symmetry_space_group_name_H-M "C 2/M"
_symmetry_group_IT_number 12
_symmetry_cell_setting 'monoclinic'
loop_
_space_group_symop_operation_xyz
x,y,z
-x,y,-z
-x,-y,-z
x,-y,z
1/2+x,1/2+y,z
1/2-x,1/2+y,-z
1/2-x,1/2-y,-z
1/2+x,1/2-y,z
loop_
_atom_site_type_symbol
_atom_site_label
_atom_site_fract_x
_atom_site_fract_y
_atom_site_fract_z
Si Si1 0.628906 0.441808 0.350556
Si Si2 0.328708 0.942550 0.738990
Si Si3 0.237948 0.651574 0.603474
Si Si4 0.272375 0.845549 0.179481
Si Si5 0.500640 0.719433 0.887449
Si Si6 0.464407 0.815498 0.211395
Si Si7 0.875087 0.591140 0.000949
Si Si8 0.802856 0.943302 0.009808
O O1 0.658654 0.500000 0.349276
O O2 0.697755 0.429573 0.530913
O O3 0.696966 0.404629 0.339844
O O4 0.465977 0.430458 0.190259
O O5 0.473030 0.934903 0.830256
O O6 0.321844 0.000000 0.770723
O O7 0.322311 0.906624 0.830080
O O8 0.176452 0.655627 0.651415
O O9 0.353665 0.694121 0.706175
O O10 0.116936 0.661659 0.395030
O O11 0.377693 0.811547 0.224102
O O12 0.117000 0.823971 0.004713
O O13 0.273888 0.903899 0.144691
O O14 0.527729 0.760953 0.831080
O O15 0.500000 0.743062 0.000000
O O16 0.382854 0.851393 0.047808
O O17 0.764624 0.559742 0.950535
O O18 0.781466 0.000000 0.944083
#
# Coordination Sequence:
#
# PCOD8091034 Si02
#       8
#     8   8   8   8   8   8   8   8
#     4  10  21  35  57  83 113 148 188 231 276 334
#     4  10  19  34  54  80 113 150 182 227 282 331
#     4  11  21  40  57  84 115 146 189 227 280 328
#     4  10  22  39  59  83 115 147 184 233 275 334
#     4  10  22  38  62  84 108 145 187 232 279 333
#     4  11  22  37  60  83 113 148 186 230 281 328
#     4  10  20  33  55  81 112 146 185 231 272 337
#     4  10  20  36  57  83 111 149 189 229 280 330
#
# _framework density 19.112765
#
# number of rings (size 3 to 8) (size 9 to 14) (size 15 to 20)
#    0.000    1.750    2.500    2.625    1.750    1.000 
#    0.000    3.125    0.000    3.750    0.000    0.000 
#    0.000    0.000    0.000    0.000    0.000    0.000 
#
# Total GULP energy -396872.695471 kJ/mol
# GULP energy per Si atom -12402.271733 kJ/mol
# Density = 1.906926 g / cm^3
# Si number density = 19.112765 Si / 1000 Ang^3
#
#
#
# Elastic Constant Matrix: (Units=GPa)
#
#
# Indices 1 2 3 4 5 6 
#
# 1 101.8829 44.9395 20.8028 0.0000 -7.3545 0.0000
# 2 44.9395 90.3719 24.9765 0.0000 -16.4665 0.0000
# 3 20.8028 24.9765 53.3024 0.0000 -6.0554 0.0000
# 4 0.0000 0.0000 0.0000 22.8058 0.0000 0.1058
# 5 -7.3545 -16.4665 -6.0554 0.0000 24.4892 0.0000
# 6 0.0000 0.0000 0.0000 0.1058 0.0000 29.7710
#
#
#
# Elastic Compliance Matrix: (Units=1/GPa)
#
#
# Indices 1 2 3 4 5 6 
#
# 1 0.012826 -0.005852 -0.002339 0.000000 -0.000661 0.000000
# 2 -0.005852 0.016782 -0.004627 0.000000 0.008382 0.000000
# 3 -0.002339 -0.004627 0.022027 0.000000 0.001633 0.000000
# 4 0.000000 0.000000 0.000000 0.043849 0.000000 -0.000156
# 5 -0.000661 0.008382 0.001633 0.000000 0.046676 0.000000
# 6 0.000000 0.000000 0.000000 -0.000156 0.000000 0.033590
#
#
# Mechanical properties :
#
#
# Convention : Reuss Voigt Hill
#
# Bulk Modulus (GPa) = 38.46329 47.44388 42.95359
# Shear Modulus (GPa) = 23.80343 25.73576 24.76959
#
# Velocity S-wave (km/s) = 3.53288 3.67348 3.60387
# Velocity P-wave (km/s) = 6.06710 6.54749 6.31187
#
# Compressibility (1/GPa) = 0.02599881
#
# Stress axis : x y z
#
# Youngs Moduli (GPa) = 77.96428 59.58836 45.39794
#
# Poissons Ratio (x) = 0.34873 0.10617
# Poissons Ratio (y) = 0.45628 0.21007
# Poissons Ratio (z) = 0.18234 0.27573
#
# Static dielectric constant tensor:
#      x y z
#    x 3.562980 0.000000 0.060410 
#    y 0.000000 3.386420 0.000000 
#    z 0.060410 0.000000 3.413370 
# 
# 
# High freq. dielectric constant tensor:
#      x y z
#    x 1.747300 0.000000 0.005060 
#    y 0.000000 1.738710 0.000000 
#    z 0.005060 0.000000 1.740340 
# 
# From -- ./inp_files/149757.got.cif
#   From: 2010.06.25/outbox.cif.g09.slc.cpg/sg12_75_cif.got.tgz:149757.got - 2010.06.28 00:19:55.
