data_PCOD8091799
_publ_section_title
;
Structure prediction by ZEFSAII (Michael W. Deem and Ramdas Pophale) SiO2 
 PCOD8091799
Probable space group: C 2/M
;
_chemical_formula_sum "Si O2"
_cell_formula_units_Z 64
_cell_length_a 23.411005
_cell_length_b 8.607693
_cell_length_c 23.772524
_cell_angle_alpha 90.000000
_cell_angle_beta 136.305864
_cell_angle_gamma 90.000000
_cell_volume 3309.327440
_symmetry_space_group_name_H-M "C 2/M"
_symmetry_group_IT_number 12
_symmetry_cell_setting 'monoclinic'
loop_
_space_group_symop_operation_xyz
x,y,z
-x,y,-z
-x,-y,-z
x,-y,z
1/2+x,1/2+y,z
1/2-x,1/2+y,-z
1/2-x,1/2-y,-z
1/2+x,1/2-y,z
loop_
_atom_site_type_symbol
_atom_site_label
_atom_site_fract_x
_atom_site_fract_y
_atom_site_fract_z
Si Si1 0.447795 0.180787 0.215292
Si Si2 0.986722 0.817855 0.848609
Si Si3 0.143684 0.318312 0.166294
Si Si4 0.830508 0.181440 0.321311
Si Si5 0.228384 0.182440 0.924504
Si Si6 0.625353 0.682554 0.036404
Si Si7 0.483881 0.681460 0.355114
Si Si8 0.420316 0.173892 0.482212
O O1 0.505175 0.224044 0.203468
O O2 0.366343 0.286365 0.156754
O O3 0.496201 0.221101 0.306886
O O4 0.424505 0.000000 0.196255
O O5 0.899302 0.773986 0.813642
O O6 0.991268 0.000000 0.839163
O O7 0.060301 0.765416 0.942704
O O8 0.129770 0.500000 0.165500
O O9 0.240291 0.273210 0.234490
O O10 0.102529 0.266267 0.078390
O O11 0.898030 0.235815 0.323402
O O12 0.843810 0.261790 0.391379
O O13 0.840366 0.000000 0.338692
O O14 0.283527 0.265520 0.916938
O O15 0.246059 0.000000 0.935909
O O16 0.250000 0.250000 0.000000
O O17 0.622216 0.500000 0.044604
O O18 0.483160 0.500000 0.340661
O O19 0.561986 0.720440 0.450605
O O20 0.500000 0.178982 0.500000
O O21 0.399817 0.000000 0.487683
#
# Coordination Sequence:
#
# PCOD8091799 Si02
#       8
#     8   8   8   8   8   8   8   8
#     4  12  24  38  58  83 113 149 190 234 281 336
#     4  11  24  41  58  77 108 149 194 238 284 336
#     4  11  23  38  58  83 112 146 191 240 283 332
#     4   9  19  35  55  82 114 149 183 223 276 333
#     4  12  23  37  57  82 112 146 184 228 281 336
#     4  11  23  39  59  82 110 146 190 238 285 336
#     4  10  19  34  57  85 118 151 184 224 274 335
#     4   9  17  30  52  83 116 147 180 223 273 329
#
# _framework density 19.339276000000002
#
# number of rings (size 3 to 8) (size 9 to 14) (size 15 to 20)
#    0.000    1.375    1.250    5.250    0.000    7.000 
#    0.000    0.000    0.000    0.750    0.000    0.000 
#    0.000    0.000    0.000    0.000    0.000    0.000 
#
# Total GULP energy -396974.281820 kJ/mol
# GULP energy per Si atom -12405.446307 kJ/mol
# Density = 1.929526 g / cm^3
# Si number density = 19.339276 Si / 1000 Ang^3
#
#
#
# Elastic Constant Matrix: (Units=GPa)
#
#
# Indices 1 2 3 4 5 6 
#
# 1 78.7152 18.1504 29.5583 0.0000 -17.6345 0.0000
# 2 18.1504 64.4827 38.9175 0.0000 -2.5450 0.0000
# 3 29.5583 38.9175 103.5004 0.0000 -22.3527 0.0000
# 4 0.0000 0.0000 0.0000 34.8828 0.0000 -4.5800
# 5 -17.6345 -2.5450 -22.3527 0.0000 21.7262 0.0000
# 6 0.0000 0.0000 0.0000 -4.5800 0.0000 30.0775
#
#
#
# Elastic Compliance Matrix: (Units=1/GPa)
#
#
# Indices 1 2 3 4 5 6 
#
# 1 0.016589 -0.003794 -0.000641 0.000000 0.012360 0.000000
# 2 -0.003794 0.021781 -0.009283 0.000000 -0.010079 0.000000
# 3 -0.000641 -0.009283 0.016699 0.000000 0.015572 0.000000
# 4 0.000000 0.000000 0.000000 0.029252 0.000000 0.004454
# 5 0.012360 -0.010079 0.015572 0.000000 0.070900 0.000000
# 6 0.000000 0.000000 0.000000 0.004454 0.000000 0.033926
#
#
# Mechanical properties :
#
#
# Convention : Reuss Voigt Hill
#
# Bulk Modulus (GPa) = 36.19169 46.66119 41.42644
# Shear Modulus (GPa) = 22.14405 28.00877 25.07641
#
# Velocity S-wave (km/s) = 3.38750 3.80976 3.60482
# Velocity P-wave (km/s) = 5.83566 6.59791 6.22846
#
# Compressibility (1/GPa) = 0.02763065
#
# Stress axis : x y z
#
# Youngs Moduli (GPa) = 60.28133 45.91183 59.88554
#
# Poissons Ratio (x) = 0.17421 0.03841
# Poissons Ratio (y) = 0.22874 0.55592
# Poissons Ratio (z) = 0.03866 0.42620
#
# Static dielectric constant tensor:
#      x y z
#    x 3.413030 0.000000 -0.113600 
#    y 0.000000 3.567550 0.000000 
#    z -0.113600 0.000000 3.745770 
# 
# 
# High freq. dielectric constant tensor:
#      x y z
#    x 1.728520 0.000000 -0.013170 
#    y 0.000000 1.763650 0.000000 
#    z -0.013170 0.000000 1.753120 
# 
# From -- ./inp_files/324319.got.cif
#   From: 2010.06.25/outbox.cif.g09.slc.cpg/sg12_163_cif.got.tgz:324319.got - 2010.06.28 00:19:55.
