data_PCOD8091697
_publ_section_title
;
Structure prediction by ZEFSAII (Michael W. Deem and Ramdas Pophale) SiO2 
 PCOD8091697
Probable space group: C 2/M
;
_chemical_formula_sum "Si O2"
_cell_formula_units_Z 56
_cell_length_a 15.251714
_cell_length_b 9.207311
_cell_length_c 22.899463
_cell_angle_alpha 90.000000
_cell_angle_beta 121.134433
_cell_angle_gamma 90.000000
_cell_volume 2752.507194
_symmetry_space_group_name_H-M "C 2/M"
_symmetry_group_IT_number 12
_symmetry_cell_setting 'monoclinic'
loop_
_space_group_symop_operation_xyz
x,y,z
-x,y,-z
-x,-y,-z
x,-y,z
1/2+x,1/2+y,z
1/2-x,1/2+y,-z
1/2-x,1/2-y,-z
1/2+x,1/2-y,z
loop_
_atom_site_type_symbol
_atom_site_label
_atom_site_fract_x
_atom_site_fract_y
_atom_site_fract_z
Si Si1 0.524459 0.333947 0.669784
Si Si2 0.030427 0.161074 0.072305
Si Si3 0.374732 0.834810 0.799450
Si Si4 0.789572 0.828015 0.570852
Si Si5 0.678849 0.662450 0.932127
Si Si6 0.583665 0.167363 0.801920
Si Si7 0.794421 0.832685 0.348835
O O1 0.528600 0.500000 0.693687
O O2 0.408206 0.285120 0.619221
O O3 0.577911 0.232275 0.735525
O O4 0.587775 0.317529 0.631220
O O5 0.118239 0.248497 0.136933
O O6 0.932845 0.153342 0.079552
O O7 0.073857 0.000000 0.074194
O O8 0.000000 0.236369 0.000000
O O9 0.473999 0.812450 0.794007
O O10 0.278069 0.779092 0.729074
O O11 0.359457 0.000000 0.812744
O O12 0.750000 0.750000 0.500000
O O13 0.723200 0.769804 0.602023
O O14 0.774493 0.000000 0.560037
O O15 0.722864 0.500000 0.937186
O O16 0.671279 0.747393 0.868167
O O17 0.750000 0.750000 0.000000
O O18 0.616177 0.000000 0.809634
O O19 0.768424 0.000000 0.356382
#
# Coordination Sequence:
#
# PCOD8091697 Si02
#       7
#     8   8   8   8   8   8   8
#     4  10  22  39  62  91 122 157 200 245 298 357
#     4   9  19  34  51  73 105 145 188 237 291 344
#     4   9  18  33  55  80 107 146 190 237 292 348
#     4  11  24  42  65  92 124 163 200 244 301 358
#     4  10  20  34  52  75 108 149 193 243 298 356
#     4  10  19  34  57  82 111 150 196 245 298 356
#     4  10  21  40  63  90 122 156 198 247 297 356
#
# _framework density 20.345089000000002
#
# number of rings (size 3 to 8) (size 9 to 14) (size 15 to 20)
#    0.000    2.143    1.429    1.286    0.000    4.857 
#    0.000    5.714    0.000    0.000    0.000    0.000 
#    0.000    0.000    0.000    0.000    0.000    0.000 
#
# Total GULP energy -347233.106929 kJ/mol
# GULP energy per Si atom -12401.182390 kJ/mol
# Density = 2.029878 g / cm^3
# Si number density = 20.345089 Si / 1000 Ang^3
#
#
#
# Elastic Constant Matrix: (Units=GPa)
#
#
# Indices 1 2 3 4 5 6 
#
# 1 53.5899 38.0509 39.9473 0.0000 -9.8407 0.0000
# 2 38.0509 118.9280 72.5020 0.0000 -6.9394 0.0000
# 3 39.9473 72.5020 140.8856 0.0000 -15.6588 0.0000
# 4 0.0000 0.0000 0.0000 43.1329 0.0000 -5.1533
# 5 -9.8407 -6.9394 -15.6588 0.0000 24.7061 0.0000
# 6 0.0000 0.0000 0.0000 -5.1533 0.0000 24.0746
#
#
#
# Elastic Compliance Matrix: (Units=1/GPa)
#
#
# Indices 1 2 3 4 5 6 
#
# 1 0.026934 -0.005864 -0.003884 0.000000 0.006620 0.000000
# 2 -0.005864 0.013537 -0.005530 0.000000 -0.002038 0.000000
# 3 -0.003884 -0.005530 0.011512 0.000000 0.004196 0.000000
# 4 0.000000 0.000000 0.000000 0.023793 0.000000 0.005093
# 5 0.006620 -0.002038 0.004196 0.000000 0.045199 0.000000
# 6 0.000000 0.000000 0.000000 0.005093 0.000000 0.042628
#
#
# Mechanical properties :
#
#
# Convention : Reuss Voigt Hill
#
# Bulk Modulus (GPa) = 46.66948 68.26711 57.46829
# Shear Modulus (GPa) = 24.83849 29.24295 27.04072
#
# Velocity S-wave (km/s) = 3.49787 3.79535 3.64964
# Velocity P-wave (km/s) = 6.26915 7.26868 6.78734
#
# Compressibility (1/GPa) = 0.02142728
#
# Stress axis : x y z
#
# Youngs Moduli (GPa) = 37.12739 73.87143 86.86964
#
# Poissons Ratio (x) = 0.43316 0.33738
# Poissons Ratio (y) = 0.21770 0.48042
# Poissons Ratio (z) = 0.14419 0.40853
#
# Static dielectric constant tensor:
#      x y z
#    x 3.590600 0.000000 0.076400 
#    y 0.000000 3.916290 0.000000 
#    z 0.076400 0.000000 3.705330 
# 
# 
# High freq. dielectric constant tensor:
#      x y z
#    x 1.785360 0.000000 -0.001010 
#    y 0.000000 1.794370 0.000000 
#    z -0.001010 0.000000 1.796600 
# 
# From -- ./inp_files/339078.got.cif
#   From: 2010.06.25/outbox.cif.g09.slc.cpg/sg12_170_cif.got.tgz:339078.got - 2010.06.28 00:19:55.
