data_PCOD8091219
_publ_section_title
;
Structure prediction by ZEFSAII (Michael W. Deem and Ramdas Pophale) SiO2 
 PCOD8091219
Probable space group: C 2/M
;
_chemical_formula_sum "Si O2"
_cell_formula_units_Z 64
_cell_length_a 25.113668
_cell_length_b 8.953279
_cell_length_c 14.427942
_cell_angle_alpha 90.000000
_cell_angle_beta 89.034249
_cell_angle_gamma 90.000000
_cell_volume 3243.657258
_symmetry_space_group_name_H-M "C 2/M"
_symmetry_group_IT_number 12
_symmetry_cell_setting 'monoclinic'
loop_
_space_group_symop_operation_xyz
x,y,z
-x,y,-z
-x,-y,-z
x,-y,z
1/2+x,1/2+y,z
1/2-x,1/2+y,-z
1/2-x,1/2-y,-z
1/2+x,1/2-y,z
loop_
_atom_site_type_symbol
_atom_site_label
_atom_site_fract_x
_atom_site_fract_y
_atom_site_fract_z
Si Si1 0.307559 0.177473 0.019901
Si Si2 0.157473 0.172798 0.793609
Si Si3 0.441006 0.671156 0.700288
Si Si4 0.199716 0.334750 0.467703
Si Si5 0.915945 0.322362 0.508945
Si Si6 0.058842 0.828909 0.675610
Si Si7 0.353919 0.674579 0.850076
Si Si8 0.227692 0.664704 0.261016
O O1 0.331432 0.228586 0.116837
O O2 0.301235 0.000000 0.017935
O O3 0.250000 0.250000 0.000000
O O4 0.352258 0.231912 0.945013
O O5 0.105961 0.235283 0.739663
O O6 0.209275 0.191708 0.726057
O O7 0.148336 0.000000 0.822294
O O8 0.425540 0.500000 0.679394
O O9 0.435923 0.763077 0.606338
O O10 0.502566 0.684970 0.731360
O O11 0.402989 0.730854 0.784176
O O12 0.205998 0.500000 0.506789
O O13 0.250000 0.250000 0.500000
O O14 0.144640 0.266339 0.506009
O O15 0.196542 0.330988 0.357552
O O16 0.920745 0.500000 0.511546
O O17 0.948465 0.259693 0.420833
O O18 0.071904 0.000000 0.650163
O O19 0.358502 0.500000 0.872403
O O20 0.297444 0.707361 0.802053
O O21 0.219466 0.500000 0.214942
#
# Coordination Sequence:
#
# PCOD8091219 Si02
#       8
#     8   8   8   8   8   8   8   8
#     4  12  24  39  62  91 122 154 190 236 291 355
#     4  10  21  38  62  88 117 155 197 243 294 347
#     4  10  22  40  62  87 116 156 206 248 288 343
#     4  10  21  34  50  78 116 156 195 237 290 349
#     4  11  22  36  57  87 120 157 201 247 294 347
#     4  10  22  41  62  85 117 158 201 247 294 343
#     4  11  22  37  60  89 116 149 193 242 290 342
#     4  10  19  34  55  80 114 152 188 235 292 348
#
# _framework density 19.730815
#
# number of rings (size 3 to 8) (size 9 to 14) (size 15 to 20)
#    0.000    1.500    2.500    3.000    0.000    5.500 
#    0.000    0.625    0.000    3.750    0.000    0.000 
#    0.000    0.000    0.000    0.000    0.000    0.000 
#
# Total GULP energy -396721.905060 kJ/mol
# GULP energy per Si atom -12397.559533 kJ/mol
# Density = 1.968591 g / cm^3
# Si number density = 19.730815 Si / 1000 Ang^3
#
#
#
# Elastic Constant Matrix: (Units=GPa)
#
#
# Indices 1 2 3 4 5 6 
#
# 1 106.3550 34.3646 38.3641 0.0000 -13.0487 0.0000
# 2 34.3646 80.1996 38.7172 0.0000 -3.1584 0.0000
# 3 38.3641 38.7172 88.3708 0.0000 -13.8494 0.0000
# 4 0.0000 0.0000 0.0000 31.9823 0.0000 1.5757
# 5 -13.0487 -3.1584 -13.8494 0.0000 25.1194 0.0000
# 6 0.0000 0.0000 0.0000 1.5757 0.0000 25.0460
#
#
#
# Elastic Compliance Matrix: (Units=1/GPa)
#
#
# Indices 1 2 3 4 5 6 
#
# 1 0.012176 -0.003573 -0.003064 0.000000 0.004186 0.000000
# 2 -0.003573 0.016955 -0.006386 0.000000 -0.003245 0.000000
# 3 -0.003064 -0.006386 0.016494 0.000000 0.006699 0.000000
# 4 0.000000 0.000000 0.000000 0.031364 0.000000 -0.001973
# 5 0.004186 -0.003245 0.006699 0.000000 0.045270 0.000000
# 6 0.000000 0.000000 0.000000 -0.001973 0.000000 0.040051
#
#
# Mechanical properties :
#
#
# Convention : Reuss Voigt Hill
#
# Bulk Modulus (GPa) = 51.07670 55.31303 53.19486
# Shear Modulus (GPa) = 25.65654 27.32818 26.49236
#
# Velocity S-wave (km/s) = 3.60992 3.72566 3.66825
# Velocity P-wave (km/s) = 6.58167 6.82657 6.70524
#
# Compressibility (1/GPa) = 0.01957840
#
# Stress axis : x y z
#
# Youngs Moduli (GPa) = 82.12909 58.98015 60.62854
#
# Poissons Ratio (x) = 0.21074 0.18579
# Poissons Ratio (y) = 0.29345 0.38716
# Poissons Ratio (z) = 0.25168 0.37663
#
# Static dielectric constant tensor:
#      x y z
#    x 3.678150 0.000000 -0.135300 
#    y 0.000000 3.606610 0.000000 
#    z -0.135300 0.000000 3.640970 
# 
# 
# High freq. dielectric constant tensor:
#      x y z
#    x 1.774030 0.000000 -0.012900 
#    y 0.000000 1.763600 0.000000 
#    z -0.012900 0.000000 1.760160 
# 
# From -- ./inp_files/238760.got.cif
#   From: 2010.06.25/outbox.cif.g09.slc.cpg/sg12_120_cif.got.tgz:238760.got - 2010.06.28 00:19:55.
