data_PCOD8091981
_publ_section_title
;
Structure prediction by ZEFSAII (Michael W. Deem and Ramdas Pophale) SiO2 
 PCOD8091981
Probable space group: C 2/M
;
_chemical_formula_sum "Si O2"
_cell_formula_units_Z 56
_cell_length_a 23.982287
_cell_length_b 8.824354
_cell_length_c 14.141630
_cell_angle_alpha 90.000000
_cell_angle_beta 98.267789
_cell_angle_gamma 90.000000
_cell_volume 2961.663096
_symmetry_space_group_name_H-M "C 2/M"
_symmetry_group_IT_number 12
_symmetry_cell_setting 'monoclinic'
loop_
_space_group_symop_operation_xyz
x,y,z
-x,y,-z
-x,-y,-z
x,-y,z
1/2+x,1/2+y,z
1/2-x,1/2+y,-z
1/2-x,1/2-y,-z
1/2+x,1/2-y,z
loop_
_atom_site_type_symbol
_atom_site_label
_atom_site_fract_x
_atom_site_fract_y
_atom_site_fract_z
Si Si1 0.323503 0.821811 0.267685
Si Si2 0.911831 0.822504 0.161530
Si Si3 0.288749 0.175922 0.795174
Si Si4 0.886440 0.324763 0.961812
Si Si5 0.958970 0.823806 0.824076
Si Si6 0.863021 0.823459 0.658709
Si Si7 0.192112 0.677918 0.520107
O O1 0.382549 0.767009 0.239534
O O2 0.273703 0.736688 0.198553
O O3 0.322053 0.773696 0.376773
O O4 0.316540 0.000000 0.251568
O O5 0.977329 0.777823 0.181662
O O6 0.902579 0.000000 0.173535
O O7 0.885188 0.773803 0.055701
O O8 0.326880 0.204380 0.896394
O O9 0.311924 0.270454 0.712498
O O10 0.287991 0.000000 0.767042
O O11 0.895152 0.500000 0.989623
O O12 0.937693 0.273287 0.907455
O O13 0.922678 0.784971 0.721903
O O14 0.952852 0.000000 0.849971
O O15 0.859151 0.737181 0.557919
O O16 0.855416 0.000000 0.637996
O O17 0.197554 0.500000 0.511292
O O18 0.250000 0.750000 0.500000
#
# Coordination Sequence:
#
# PCOD8091981 Si02
#       7
#     8   8   8   8   8   8   8
#     4  11  24  39  56  81 114 149 186 231 282 334
#     4  11  23  39  58  80 111 153 192 231 278 332
#     4  10  20  35  56  83 114 147 185 228 278 336
#     4  10  21  36  58  87 114 145 187 234 281 330
#     4   9  20  38  59  84 113 147 191 233 274 327
#     4  10  19  34  58  86 114 144 182 233 280 325
#     4  11  22  36  58  86 114 145 184 229 281 337
#
# _framework density 18.908294000000001
#
# number of rings (size 3 to 8) (size 9 to 14) (size 15 to 20)
#    0.000    1.714    1.429    3.000    0.000    7.429 
#    0.000    0.714    0.000    4.286    0.000    0.000 
#    0.000    0.000    0.000    0.000    0.000    0.000 
#
# Total GULP energy -347349.836047 kJ/mol
# GULP energy per Si atom -12405.351287 kJ/mol
# Density = 1.886526 g / cm^3
# Si number density = 18.908294 Si / 1000 Ang^3
#
#
#
# Elastic Constant Matrix: (Units=GPa)
#
#
# Indices 1 2 3 4 5 6 
#
# 1 79.1564 29.7086 53.2914 0.0000 -7.6130 0.0000
# 2 29.7086 65.4509 46.4405 0.0000 -0.9956 0.0000
# 3 53.2914 46.4405 117.2535 0.0000 -1.6209 0.0000
# 4 0.0000 0.0000 0.0000 35.1641 0.0000 -0.3541
# 5 -7.6130 -0.9956 -1.6209 0.0000 22.4867 0.0000
# 6 0.0000 0.0000 0.0000 -0.3541 0.0000 31.5123
#
#
#
# Elastic Compliance Matrix: (Units=1/GPa)
#
#
# Indices 1 2 3 4 5 6 
#
# 1 0.019494 -0.003519 -0.007385 0.000000 0.005912 0.000000
# 2 -0.003519 0.021888 -0.007080 0.000000 -0.000733 0.000000
# 3 -0.007385 -0.007080 0.014665 0.000000 -0.001757 0.000000
# 4 0.000000 0.000000 0.000000 0.028441 0.000000 0.000320
# 5 0.005912 -0.000733 -0.001757 0.000000 0.046313 0.000000
# 6 0.000000 0.000000 0.000000 0.000320 0.000000 0.031737
#
#
# Mechanical properties :
#
#
# Convention : Reuss Voigt Hill
#
# Bulk Modulus (GPa) = 49.80057 57.86018 53.83038
# Shear Modulus (GPa) = 24.36653 26.66063 25.51358
#
# Velocity S-wave (km/s) = 3.59370 3.75907 3.67731
# Velocity P-wave (km/s) = 6.60414 7.03617 6.82357
#
# Compressibility (1/GPa) = 0.02008009
#
# Stress axis : x y z
#
# Youngs Moduli (GPa) = 51.29764 45.68625 68.19075
#
# Poissons Ratio (x) = 0.16076 0.50356
# Poissons Ratio (y) = 0.18051 0.48280
# Poissons Ratio (z) = 0.37881 0.32347
#
# Static dielectric constant tensor:
#      x y z
#    x 3.467940 0.000000 0.206580 
#    y 0.000000 3.543750 0.000000 
#    z 0.206580 0.000000 3.582380 
# 
# 
# High freq. dielectric constant tensor:
#      x y z
#    x 1.727600 0.000000 0.014190 
#    y 0.000000 1.747990 0.000000 
#    z 0.014190 0.000000 1.733020 
# 
# From -- ./inp_files/230870.got.cif
#   From: 2010.06.25/outbox.cif.g09.slc.cpg/sg12_116_cif.got.tgz:230870.got - 2010.06.28 00:19:55.
