data_PCOD8091947
_publ_section_title
;
Structure prediction by ZEFSAII (Michael W. Deem and Ramdas Pophale) SiO2 
 PCOD8091947
Probable space group: C 2/M
;
_chemical_formula_sum "Si O2"
_cell_formula_units_Z 64
_cell_length_a 14.718232
_cell_length_b 8.689982
_cell_length_c 27.140526
_cell_angle_alpha 90.000000
_cell_angle_beta 74.389220
_cell_angle_gamma 90.000000
_cell_volume 3343.255398
_symmetry_space_group_name_H-M "C 2/M"
_symmetry_group_IT_number 12
_symmetry_cell_setting 'monoclinic'
loop_
_space_group_symop_operation_xyz
x,y,z
-x,y,-z
-x,-y,-z
x,-y,z
1/2+x,1/2+y,z
1/2-x,1/2+y,-z
1/2-x,1/2-y,-z
1/2+x,1/2-y,z
loop_
_atom_site_type_symbol
_atom_site_label
_atom_site_fract_x
_atom_site_fract_y
_atom_site_fract_z
Si Si1 0.209713 0.318170 0.393317
Si Si2 0.460600 0.817042 0.866879
Si Si3 0.896013 0.681848 0.393443
Si Si4 0.414471 0.680794 0.672537
Si Si5 0.859683 0.180751 0.791146
Si Si6 0.332092 0.819035 0.134120
Si Si7 0.107123 0.827171 0.499943
Si Si8 0.718770 0.317804 0.055991
O O1 0.209380 0.500000 0.392827
O O2 0.313154 0.250048 0.372758
O O3 0.159054 0.255050 0.353174
O O4 0.164771 0.262776 0.450710
O O5 0.434531 0.766899 0.815203
O O6 0.565161 0.750467 0.866029
O O7 0.383850 0.748280 0.915521
O O8 0.458422 0.000000 0.871237
O O9 0.896646 0.500000 0.392957
O O10 0.883923 0.737369 0.450820
O O11 0.986647 0.744571 0.353295
O O12 0.419555 0.500000 0.662194
O O13 0.384617 0.722891 0.731935
O O14 0.751755 0.235824 0.816762
O O15 0.868801 0.000000 0.801075
O O16 0.298684 0.769058 0.084216
O O17 0.342262 0.000000 0.135915
O O18 0.000000 0.834795 0.500000
O O19 0.148032 0.000000 0.499905
O O20 0.709888 0.500000 0.054266
O O21 0.750000 0.250000 0.000000
#
# Coordination Sequence:
#
# PCOD8091947 Si02
#       8
#     8   8   8   8   8   8   8   8
#     4  12  25  41  62  88 119 152 192 237 289 349
#     4  10  19  34  58  85 112 148 196 237 277 337
#     4  12  25  41  62  87 118 154 194 237 289 349
#     4  11  23  41  62  87 119 153 193 241 295 349
#     4   9  20  39  60  82 113 150 186 234 289 338
#     4   8  17  35  57  80 110 151 190 227 279 340
#     4  11  22  39  64  88 117 152 189 233 288 349
#     4  10  20  36  55  80 117 155 193 236 288 338
#
# _framework density 19.143018000000001
#
# number of rings (size 3 to 8) (size 9 to 14) (size 15 to 20)
#    0.000    1.625    1.250    4.875    0.000    3.000 
#    0.000   10.000    0.000    0.000    0.000    0.000 
#    0.000    0.000    0.000    0.000    0.000    0.000 
#
# Total GULP energy -396795.207955 kJ/mol
# GULP energy per Si atom -12399.850249 kJ/mol
# Density = 1.909945 g / cm^3
# Si number density = 19.143018 Si / 1000 Ang^3
#
#
#
# Elastic Constant Matrix: (Units=GPa)
#
#
# Indices 1 2 3 4 5 6 
#
# 1 189.1651 65.1378 88.8379 0.0000 -2.7077 0.0000
# 2 65.1378 128.1156 76.6601 0.0000 0.3054 0.0000
# 3 88.8379 76.6601 161.9550 0.0000 -1.5975 0.0000
# 4 0.0000 0.0000 0.0000 36.1467 0.0000 0.3044
# 5 -2.7077 0.3054 -1.5975 0.0000 27.8639 0.0000
# 6 0.0000 0.0000 0.0000 0.3044 0.0000 32.6526
#
#
#
# Elastic Compliance Matrix: (Units=1/GPa)
#
#
# Indices 1 2 3 4 5 6 
#
# 1 0.007437 -0.001876 -0.003186 0.000000 0.000561 0.000000
# 2 -0.001876 0.011368 -0.004357 0.000000 -0.000557 0.000000
# 3 -0.003186 -0.004357 0.009988 0.000000 0.000311 0.000000
# 4 0.000000 0.000000 0.000000 0.027667 0.000000 -0.000258
# 5 0.000561 -0.000557 0.000311 0.000000 0.035967 0.000000
# 6 0.000000 0.000000 0.000000 -0.000258 0.000000 0.030628
#
#
# Mechanical properties :
#
#
# Convention : Reuss Voigt Hill
#
# Bulk Modulus (GPa) = 100.46293 104.50080 102.48187
# Shear Modulus (GPa) = 34.43285 35.90595 35.16940
#
# Velocity S-wave (km/s) = 4.24573 4.33560 4.29090
# Velocity P-wave (km/s) = 8.75380 8.93147 8.84308
#
# Compressibility (1/GPa) = 0.00995392
#
# Stress axis : x y z
#
# Youngs Moduli (GPa) = 134.47184 87.96695 100.12499
#
# Poissons Ratio (x) = 0.16504 0.31896
# Poissons Ratio (y) = 0.25228 0.43627
# Poissons Ratio (z) = 0.42837 0.38330
#
# Static dielectric constant tensor:
#      x y z
#    x 3.876600 0.000000 -0.016690 
#    y 0.000000 3.574090 0.000000 
#    z -0.016690 0.000000 3.529810 
# 
# 
# High freq. dielectric constant tensor:
#      x y z
#    x 1.759950 0.000000 -0.001510 
#    y 0.000000 1.747600 0.000000 
#    z -0.001510 0.000000 1.745990 
# 
# From -- ./inp_files/359713.got.cif
#   From: 2010.06.25/outbox.cif.g09.slc.cpg/sg12_180_cif.got.tgz:359713.got - 2010.06.28 00:19:55.
