data_PCOD8091376
_publ_section_title
;
Structure prediction by ZEFSAII (Michael W. Deem and Ramdas Pophale) SiO2 
 PCOD8091376
Probable space group: C 2/M
;
_chemical_formula_sum "Si O2"
_cell_formula_units_Z 64
_cell_length_a 14.273009
_cell_length_b 8.932890
_cell_length_c 30.029388
_cell_angle_alpha 90.000000
_cell_angle_beta 118.484537
_cell_angle_gamma 90.000000
_cell_volume 3365.240680
_symmetry_space_group_name_H-M "C 2/M"
_symmetry_group_IT_number 12
_symmetry_cell_setting 'monoclinic'
loop_
_space_group_symop_operation_xyz
x,y,z
-x,y,-z
-x,-y,-z
x,-y,z
1/2+x,1/2+y,z
1/2-x,1/2+y,-z
1/2-x,1/2-y,-z
1/2+x,1/2-y,z
loop_
_atom_site_type_symbol
_atom_site_label
_atom_site_fract_x
_atom_site_fract_y
_atom_site_fract_z
Si Si1 0.545665 0.322675 0.290262
Si Si2 0.256323 0.320949 0.366683
Si Si3 0.036935 0.824994 0.907658
Si Si4 0.199344 0.822623 0.445460
Si Si5 0.533607 0.675002 0.633669
Si Si6 0.397948 0.324394 0.175605
Si Si7 0.809084 0.824202 0.892328
Si Si8 0.881630 0.669371 0.992274
O O1 0.568890 0.500000 0.297635
O O2 0.657288 0.235386 0.314710
O O3 0.477518 0.269510 0.317796
O O4 0.481943 0.275001 0.231929
O O5 0.254342 0.500000 0.370288
O O6 0.255018 0.249009 0.415163
O O7 0.362808 0.256602 0.366867
O O8 0.056143 0.774263 0.861613
O O9 0.916903 0.775909 0.891977
O O10 0.053026 0.000000 0.918207
O O11 0.121266 0.745147 0.959710
O O12 0.250000 0.750000 0.500000
O O13 0.073719 0.782835 0.417393
O O14 0.218206 0.000000 0.449076
O O15 0.550697 0.500000 0.638099
O O16 0.375532 0.500000 0.172921
O O17 0.287391 0.238904 0.159232
O O18 0.802773 0.752767 0.940295
O O19 0.799241 0.000000 0.895191
O O20 0.841746 0.500000 0.987612
O O21 0.000000 0.681404 0.000000
#
# Coordination Sequence:
#
# PCOD8091376 Si02
#       8
#     8   8   8   8   8   8   8   8
#     4   9  19  37  55  74 103 138 173 215 263 308
#     4  10  19  34  56  80 104 138 181 219 257 305
#     4   9  19  35  52  73 102 134 165 205 259 311
#     4  10  20  36  55  80 115 149 179 216 259 304
#     4   8  17  34  55  76 104 142 178 211 258 311
#     4  10  21  36  54  75 102 135 171 209 256 313
#     4  10  20  34  52  74 102 132 165 208 258 309
#     4   9  17  31  52  75  98 128 167 207 249 306
#
# _framework density 19.017956999999999
#
# number of rings (size 3 to 8) (size 9 to 14) (size 15 to 20)
#    0.000    2.625    0.000    2.250    0.000    5.000 
#    0.000    8.750    0.000    0.000    0.000    0.000 
#    0.000    0.000    0.000    0.000    0.000    0.000 
#
# Total GULP energy -396811.150391 kJ/mol
# GULP energy per Si atom -12400.348450 kJ/mol
# Density = 1.897467 g / cm^3
# Si number density = 19.017957 Si / 1000 Ang^3
#
#
#
# Elastic Constant Matrix: (Units=GPa)
#
#
# Indices 1 2 3 4 5 6 
#
# 1 109.8442 30.2995 51.0258 0.0000 4.7896 0.0000
# 2 30.2995 57.7215 41.1990 0.0000 2.3853 0.0000
# 3 51.0258 41.1990 145.6067 0.0000 5.7384 0.0000
# 4 0.0000 0.0000 0.0000 34.0306 0.0000 4.5340
# 5 4.7896 2.3853 5.7384 0.0000 18.7350 0.0000
# 6 0.0000 0.0000 0.0000 4.5340 0.0000 24.9459
#
#
#
# Elastic Compliance Matrix: (Units=1/GPa)
#
#
# Indices 1 2 3 4 5 6 
#
# 1 0.011606 -0.003970 -0.002882 0.000000 -0.001579 0.000000
# 2 -0.003970 0.023082 -0.005126 0.000000 -0.000354 0.000000
# 3 -0.002882 -0.005126 0.009386 0.000000 -0.001486 0.000000
# 4 0.000000 0.000000 0.000000 0.030115 0.000000 -0.005473
# 5 -0.001579 -0.000354 -0.001486 0.000000 0.054280 0.000000
# 6 0.000000 0.000000 0.000000 -0.005473 0.000000 0.041082
#
#
# Mechanical properties :
#
#
# Convention : Reuss Voigt Hill
#
# Bulk Modulus (GPa) = 49.70353 62.02457 55.86405
# Shear Modulus (GPa) = 24.97343 28.25217 26.61280
#
# Velocity S-wave (km/s) = 3.62767 3.85847 3.74485
# Velocity P-wave (km/s) = 6.61351 7.24809 6.93806
#
# Compressibility (1/GPa) = 0.02011930
#
# Stress axis : x y z
#
# Youngs Moduli (GPa) = 86.15871 43.32412 106.53614
#
# Poissons Ratio (x) = 0.17202 0.30700
# Poissons Ratio (y) = 0.34209 0.54606
# Poissons Ratio (z) = 0.24828 0.22206
#
# Static dielectric constant tensor:
#      x y z
#    x 3.658530 0.000000 -0.015460 
#    y 0.000000 3.351050 0.000000 
#    z -0.015460 0.000000 3.543050 
# 
# 
# High freq. dielectric constant tensor:
#      x y z
#    x 1.742300 0.000000 0.002570 
#    y 0.000000 1.729420 0.000000 
#    z 0.002570 0.000000 1.740040 
# 
# From -- ./inp_files/375102.got.cif
#   From: 2010.06.25/outbox.cif.g09.slc.cpg/sg12_188_cif.got.tgz:375102.got - 2010.06.28 00:19:55.
