data_PCOD8091516
_publ_section_title
;
Structure prediction by ZEFSAII (Michael W. Deem and Ramdas Pophale) SiO2 
 PCOD8091516
Probable space group: C 2/M
;
_chemical_formula_sum "Si O2"
_cell_formula_units_Z 56
_cell_length_a 16.987547
_cell_length_b 16.500800
_cell_length_c 11.432445
_cell_angle_alpha 90.000000
_cell_angle_beta 64.584395
_cell_angle_gamma 90.000000
_cell_volume 2894.460223
_symmetry_space_group_name_H-M "C 2/M"
_symmetry_group_IT_number 12
_symmetry_cell_setting 'monoclinic'
loop_
_space_group_symop_operation_xyz
x,y,z
-x,y,-z
-x,-y,-z
x,-y,z
1/2+x,1/2+y,z
1/2-x,1/2+y,-z
1/2-x,1/2-y,-z
1/2+x,1/2-y,z
loop_
_atom_site_type_symbol
_atom_site_label
_atom_site_fract_x
_atom_site_fract_y
_atom_site_fract_z
Si Si1 0.535379 0.696129 0.347882
Si Si2 0.907635 0.500000 0.722852
Si Si3 0.105287 0.500000 0.544263
Si Si4 0.852030 0.674119 0.837013
Si Si5 0.271347 0.860374 0.471448
Si Si6 0.316206 0.770560 0.101449
Si Si7 0.697153 0.594578 0.275755
Si Si8 0.632445 0.288660 0.690209
O O1 0.500000 0.703266 0.500000
O O2 0.586200 0.780243 0.294248
O O3 0.600132 0.619562 0.296956
O O4 0.460760 0.682911 0.298322
O O5 0.887737 0.500000 0.598972
O O6 0.866669 0.578208 0.813505
O O7 0.011564 0.500000 0.665473
O O8 0.152691 0.423045 0.563245
O O9 0.750883 0.696976 0.880192
O O10 0.876345 0.708228 0.951308
O O11 0.208613 0.882876 0.403786
O O12 0.327131 0.779063 0.420498
O O13 0.206651 0.858589 0.626257
O O14 0.267239 0.854771 0.158006
O O15 0.376734 0.741778 0.170644
O O16 0.711397 0.500000 0.241917
#
# Coordination Sequence:
#
# PCOD8091516 Si02
#       8
#     8   4   4   8   8   8   8   8
#     4  11  22  36  58  88 122 156 194 253 301 353
#     4  11  24  34  57  89 122 156 193 253 308 360
#     4  11  22  34  51  86 124 158 183 251 300 354
#     4  10  22  40  59  88 115 158 206 243 302 359
#     4  10  19  34  56  83 117 154 199 235 295 357
#     4   9  21  40  63  84 115 163 207 243 290 367
#     4  10  20  37  60  89 120 158 200 249 301 350
#     4  10  20  35  58  82 112 158 195 243 291 353
#
# _framework density 19.347304000000001
#
# number of rings (size 3 to 8) (size 9 to 14) (size 15 to 20)
#    0.000    1.857    2.143    1.714    7.000    0.857 
#    1.286    0.000    0.000    2.571    0.000    3.000 
#    0.000    0.000    0.000    0.000    0.000    0.000 
#
# Total GULP energy -347099.222269 kJ/mol
# GULP energy per Si atom -12396.400795 kJ/mol
# Density = 1.930327 g / cm^3
# Si number density = 19.347304 Si / 1000 Ang^3
#
#
#
# Elastic Constant Matrix: (Units=GPa)
#
#
# Indices 1 2 3 4 5 6 
#
# 1 108.4206 29.2821 20.5054 0.0000 3.4378 0.0000
# 2 29.2821 98.0815 19.9966 0.0000 -6.1439 0.0000
# 3 20.5054 19.9966 71.7339 0.0000 9.4906 0.0000
# 4 0.0000 0.0000 0.0000 19.3618 0.0000 2.4480
# 5 3.4378 -6.1439 9.4906 0.0000 23.1250 0.0000
# 6 0.0000 0.0000 0.0000 2.4480 0.0000 27.0439
#
#
#
# Elastic Compliance Matrix: (Units=1/GPa)
#
#
# Indices 1 2 3 4 5 6 
#
# 1 0.010402 -0.002789 -0.002002 0.000000 -0.001466 0.000000
# 2 -0.002789 0.011987 -0.003194 0.000000 0.004910 0.000000
# 3 -0.002002 -0.003194 0.016364 0.000000 -0.007267 0.000000
# 4 0.000000 0.000000 0.000000 0.052246 0.000000 -0.004729
# 5 -0.001466 0.004910 -0.007267 0.000000 0.047748 0.000000
# 6 0.000000 0.000000 0.000000 -0.004729 0.000000 0.037405
#
#
# Mechanical properties :
#
#
# Convention : Reuss Voigt Hill
#
# Bulk Modulus (GPa) = 43.89170 46.42271 45.15720
# Shear Modulus (GPa) = 25.03548 27.80294 26.41921
#
# Velocity S-wave (km/s) = 3.60113 3.79495 3.69931
# Velocity P-wave (km/s) = 6.32663 6.57637 6.45271
#
# Compressibility (1/GPa) = 0.02278335
#
# Stress axis : x y z
#
# Youngs Moduli (GPa) = 96.13796 83.42363 61.10803
#
# Poissons Ratio (x) = 0.23268 0.12234
# Poissons Ratio (y) = 0.26814 0.19517
# Poissons Ratio (z) = 0.19247 0.26644
#
# Static dielectric constant tensor:
#      x y z
#    x 3.607620 0.000000 0.085110 
#    y 0.000000 3.488230 0.000000 
#    z 0.085110 0.000000 3.555070 
# 
# 
# High freq. dielectric constant tensor:
#      x y z
#    x 1.754550 0.000000 0.003320 
#    y 0.000000 1.743180 0.000000 
#    z 0.003320 0.000000 1.748340 
# 
# From -- ./inp_files/146077.got.cif
#   From: 2010.06.25/outbox.cif.g09.slc.cpg/sg12_74_cif.got.tgz:146077.got - 2010.06.28 00:19:55.
