data_PCOD8091119
_publ_section_title
;
Structure prediction by ZEFSAII (Michael W. Deem and Ramdas Pophale) SiO2 
 PCOD8091119
Probable space group: C 2/M
;
_chemical_formula_sum "Si O2"
_cell_formula_units_Z 64
_cell_length_a 20.760999
_cell_length_b 8.709948
_cell_length_c 23.073877
_cell_angle_alpha 90.000000
_cell_angle_beta 129.935370
_cell_angle_gamma 90.000000
_cell_volume 3199.255630
_symmetry_space_group_name_H-M "C 2/M"
_symmetry_group_IT_number 12
_symmetry_cell_setting 'monoclinic'
loop_
_space_group_symop_operation_xyz
x,y,z
-x,y,-z
-x,-y,-z
x,-y,z
1/2+x,1/2+y,z
1/2-x,1/2+y,-z
1/2-x,1/2-y,-z
1/2+x,1/2-y,z
loop_
_atom_site_type_symbol
_atom_site_label
_atom_site_fract_x
_atom_site_fract_y
_atom_site_fract_z
Si Si1 0.470106 0.319589 0.919241
Si Si2 0.273745 0.683863 0.339708
Si Si3 0.554065 0.826797 0.861527
Si Si4 0.007140 0.318933 0.347475
Si Si5 0.777667 0.817917 0.807148
Si Si6 0.355755 0.681676 0.192687
Si Si7 0.428445 0.667470 0.503906
Si Si8 0.112773 0.328173 0.306923
O O1 0.471872 0.500000 0.910544
O O2 0.539433 0.249833 0.915549
O O3 0.374066 0.259183 0.855888
O O4 0.500000 0.271459 0.000000
O O5 0.272901 0.500000 0.330691
O O6 0.278137 0.761205 0.279354
O O7 0.349998 0.739063 0.424176
O O8 0.192018 0.756132 0.324375
O O9 0.620363 0.740265 0.858098
O O10 0.463131 0.823250 0.781083
O O11 0.587053 0.000000 0.888838
O O12 0.992449 0.500000 0.329086
O O13 0.922004 0.234221 0.280090
O O14 0.036453 0.286076 0.429050
O O15 0.082386 0.255091 0.349921
O O16 0.735163 0.747623 0.840687
O O17 0.774352 0.000000 0.810392
O O18 0.352129 0.500000 0.188734
O O19 0.500000 0.637837 0.500000
O O20 0.405376 0.500000 0.518215
O O21 0.143326 0.500000 0.337089
#
# Coordination Sequence:
#
# PCOD8091119 Si02
#       8
#     8   8   8   8   8   8   8   8
#     4  10  22  40  62  90 124 157 189 232 285 343
#     4  10  19  34  55  77 109 151 193 235 288 344
#     4  10  19  36  61  88 119 151 194 241 286 342
#     4  10  20  35  54  78 110 145 190 243 293 340
#     4  11  22  37  59  89 119 148 194 242 284 338
#     4  11  22  37  60  86 116 155 197 238 291 347
#     4  10  21  34  48  71 105 147 192 238 291 347
#     4   8  16  31  52  78 106 141 182 231 284 334
#
# _framework density 20.004652
#
# number of rings (size 3 to 8) (size 9 to 14) (size 15 to 20)
#    0.000    2.000    1.250    3.750    0.000    3.000 
#    0.000    1.250    0.000    0.000    0.000    0.000 
#    0.000    0.000    0.000    0.000    0.000    0.000 
#
# Total GULP energy -396647.721355 kJ/mol
# GULP energy per Si atom -12395.241292 kJ/mol
# Density = 1.995912 g / cm^3
# Si number density = 20.004652 Si / 1000 Ang^3
#
#
#
# Elastic Constant Matrix: (Units=GPa)
#
#
# Indices 1 2 3 4 5 6 
#
# 1 120.9937 37.5245 24.8982 0.0000 -15.3911 0.0000
# 2 37.5245 83.3715 26.3265 0.0000 -8.9004 0.0000
# 3 24.8982 26.3265 65.7316 0.0000 -19.9699 0.0000
# 4 0.0000 0.0000 0.0000 23.0338 0.0000 -6.2648
# 5 -15.3911 -8.9004 -19.9699 0.0000 27.5923 0.0000
# 6 0.0000 0.0000 0.0000 -6.2648 0.0000 32.1132
#
#
#
# Elastic Compliance Matrix: (Units=1/GPa)
#
#
# Indices 1 2 3 4 5 6 
#
# 1 0.010149 -0.003796 -0.001251 0.000000 0.003531 0.000000
# 2 -0.003796 0.015158 -0.004859 0.000000 -0.000745 0.000000
# 3 -0.001251 -0.004859 0.021721 0.000000 0.013455 0.000000
# 4 0.000000 0.000000 0.000000 0.045847 0.000000 0.008944
# 5 0.003531 -0.000745 0.013455 0.000000 0.047710 0.000000
# 6 0.000000 0.000000 0.000000 0.008944 0.000000 0.032885
#
#
# Mechanical properties :
#
#
# Convention : Reuss Voigt Hill
#
# Bulk Modulus (GPa) = 36.74405 49.73279 43.23842
# Shear Modulus (GPa) = 24.70915 28.63772 26.67344
#
# Velocity S-wave (km/s) = 3.51831 3.78769 3.65548
# Velocity P-wave (km/s) = 5.90866 6.63652 6.28314
#
# Compressibility (1/GPa) = 0.02721529
#
# Stress axis : x y z
#
# Youngs Moduli (GPa) = 98.53448 65.97216 46.03737
#
# Poissons Ratio (x) = 0.25042 0.05760
# Poissons Ratio (y) = 0.37401 0.22372
# Poissons Ratio (z) = 0.12328 0.32059
#
# Static dielectric constant tensor:
#      x y z
#    x 4.011540 0.000000 -0.068390 
#    y 0.000000 3.484550 0.000000 
#    z -0.068390 0.000000 3.582640 
# 
# 
# High freq. dielectric constant tensor:
#      x y z
#    x 1.799260 0.000000 -0.005830 
#    y 0.000000 1.765890 0.000000 
#    z -0.005830 0.000000 1.758700 
# 
# From -- ./inp_files/346305.got.cif
#   From: 2010.06.25/outbox.cif.g09.slc.cpg/sg12_174_cif.got.tgz:346305.got - 2010.06.28 00:19:55.
