data_PCOD8091283
_publ_section_title
;
Structure prediction by ZEFSAII (Michael W. Deem and Ramdas Pophale) SiO2 
 PCOD8091283
Probable space group: C 2/M
;
_chemical_formula_sum "Si O2"
_cell_formula_units_Z 56
_cell_length_a 25.212754
_cell_length_b 8.783075
_cell_length_c 14.545069
_cell_angle_alpha 90.000000
_cell_angle_beta 119.238500
_cell_angle_gamma 90.000000
_cell_volume 2810.573304
_symmetry_space_group_name_H-M "C 2/M"
_symmetry_group_IT_number 12
_symmetry_cell_setting 'monoclinic'
loop_
_space_group_symop_operation_xyz
x,y,z
-x,y,-z
-x,-y,-z
x,-y,z
1/2+x,1/2+y,z
1/2-x,1/2+y,-z
1/2-x,1/2-y,-z
1/2+x,1/2-y,z
loop_
_atom_site_type_symbol
_atom_site_label
_atom_site_fract_x
_atom_site_fract_y
_atom_site_fract_z
Si Si1 0.269349 0.679661 0.788978
Si Si2 0.297800 0.680345 0.609801
Si Si3 0.980865 0.680742 0.385061
Si Si4 0.850334 0.679645 0.210897
Si Si5 0.490821 0.672767 0.099567
Si Si6 0.854791 0.180455 0.022946
Si Si7 0.925591 0.678160 0.691040
O O1 0.277865 0.500000 0.793240
O O2 0.285280 0.746110 0.701880
O O3 0.200246 0.723856 0.756341
O O4 0.315197 0.746702 0.904707
O O5 0.291593 0.500000 0.603193
O O6 0.250000 0.750000 0.500000
O O7 0.363945 0.728309 0.631615
O O8 0.976547 0.500000 0.386141
O O9 0.915017 0.746269 0.299873
O O10 0.000000 0.748196 0.500000
O O11 0.031462 0.733300 0.355567
O O12 0.853816 0.500000 0.199518
O O13 0.830243 0.751749 0.097274
O O14 0.500600 0.500000 0.143266
O O15 0.424107 0.733136 0.068291
O O16 0.540361 0.783661 0.185636
O O17 0.500000 0.680732 0.000000
O O18 0.848895 0.000000 0.021343
O O19 0.910961 0.500000 0.673357
#
# Coordination Sequence:
#
# PCOD8091283 Si02
#       7
#     8   8   8   8   8   8   8
#     4   9  20  37  60  84 112 155 200 233 279 352
#     4  11  24  43  64  87 116 153 198 241 287 345
#     4   9  19  34  57  85 114 150 194 238 287 350
#     4  10  19  35  59  86 113 149 193 239 287 342
#     4  10  20  35  57  81 115 161 199 234 286 349
#     4  10  19  34  55  84 118 151 189 236 290 344
#     4  11  22  38  61  89 118 149 192 244 293 340
#
# _framework density 19.924761
#
# number of rings (size 3 to 8) (size 9 to 14) (size 15 to 20)
#    0.000    2.000    1.429    2.143    2.000    2.571 
#    0.000    4.286    0.000    2.143    0.000    0.000 
#    0.000    0.000    0.000    0.000    0.000    0.000 
#
# Total GULP energy -347263.999291 kJ/mol
# GULP energy per Si atom -12402.285689 kJ/mol
# Density = 1.987941 g / cm^3
# Si number density = 19.924761 Si / 1000 Ang^3
#
#
#
# Elastic Constant Matrix: (Units=GPa)
#
#
# Indices 1 2 3 4 5 6 
#
# 1 128.4670 26.6555 66.2756 0.0000 14.4411 0.0000
# 2 26.6555 34.5058 27.6983 0.0000 2.8621 0.0000
# 3 66.2756 27.6983 161.6656 0.0000 10.2428 0.0000
# 4 0.0000 0.0000 0.0000 25.0903 0.0000 -0.5026
# 5 14.4411 2.8621 10.2428 0.0000 30.2625 0.0000
# 6 0.0000 0.0000 0.0000 -0.5026 0.0000 25.5102
#
#
#
# Elastic Compliance Matrix: (Units=1/GPa)
#
#
# Indices 1 2 3 4 5 6 
#
# 1 0.011078 -0.005561 -0.003359 0.000000 -0.003624 0.000000
# 2 -0.005561 0.036440 -0.003999 0.000000 0.000561 0.000000
# 3 -0.003359 -0.003999 0.008300 0.000000 -0.000828 0.000000
# 4 0.000000 0.000000 0.000000 0.039872 0.000000 0.000785
# 5 -0.003624 0.000561 -0.000828 0.000000 0.035001 0.000000
# 6 0.000000 0.000000 0.000000 0.000785 0.000000 0.039216
#
#
# Mechanical properties :
#
#
# Convention : Reuss Voigt Hill
#
# Bulk Modulus (GPa) = 33.35532 62.87746 48.11639
# Shear Modulus (GPa) = 24.30270 29.77319 27.03794
#
# Velocity S-wave (km/s) = 3.49624 3.86979 3.68775
# Velocity P-wave (km/s) = 5.75111 7.18282 6.50647
#
# Compressibility (1/GPa) = 0.02998023
#
# Stress axis : x y z
#
# Youngs Moduli (GPa) = 90.26689 27.44239 120.47612
#
# Poissons Ratio (x) = 0.15260 0.40471
# Poissons Ratio (y) = 0.50195 0.48180
# Poissons Ratio (z) = 0.30323 0.10975
#
# Static dielectric constant tensor:
#      x y z
#    x 4.083470 0.000000 0.029890 
#    y 0.000000 3.289150 0.000000 
#    z 0.029890 0.000000 3.843520 
# 
# 
# High freq. dielectric constant tensor:
#      x y z
#    x 1.793400 0.000000 0.001620 
#    y 0.000000 1.740300 0.000000 
#    z 0.001620 0.000000 1.788160 
# 
# From -- ./inp_files/238905.got.cif
#   From: 2010.06.25/outbox.cif.g09.slc.cpg/sg12_120_cif.got.tgz:238905.got - 2010.06.28 00:19:55.
