data_PCOD8091665
_publ_section_title
;
Structure prediction by ZEFSAII (Michael W. Deem and Ramdas Pophale) SiO2 
 PCOD8091665
Probable space group: C 2/M
;
_chemical_formula_sum "Si O2"
_cell_formula_units_Z 56
_cell_length_a 13.395027
_cell_length_b 13.310276
_cell_length_c 17.559017
_cell_angle_alpha 90.000000
_cell_angle_beta 65.301148
_cell_angle_gamma 90.000000
_cell_volume 2844.223345
_symmetry_space_group_name_H-M "C 2/M"
_symmetry_group_IT_number 12
_symmetry_cell_setting 'monoclinic'
loop_
_space_group_symop_operation_xyz
x,y,z
-x,y,-z
-x,-y,-z
x,-y,z
1/2+x,1/2+y,z
1/2-x,1/2+y,-z
1/2-x,1/2-y,-z
1/2+x,1/2-y,z
loop_
_atom_site_type_symbol
_atom_site_label
_atom_site_fract_x
_atom_site_fract_y
_atom_site_fract_z
Si Si1 0.400330 0.796930 0.237773
Si Si2 0.833581 0.382923 0.411179
Si Si3 0.570293 0.802380 0.052135
Si Si4 0.201171 0.114616 0.219510
Si Si5 0.046566 0.886272 0.686385
Si Si6 0.199395 0.113170 0.042663
Si Si7 0.608688 0.701993 0.512780
O O1 0.406712 0.865596 0.311961
O O2 0.498703 0.825171 0.149754
O O3 0.284585 0.809939 0.232818
O O4 0.409085 0.680453 0.258267
O O5 0.832324 0.500000 0.433120
O O6 0.711892 0.338896 0.431267
O O7 0.881691 0.319921 0.467583
O O8 0.611768 0.687158 0.030925
O O9 0.500000 0.830613 0.000000
O O10 0.676858 0.872745 0.027159
O O11 0.199625 0.138715 0.131328
O O12 0.080851 0.136075 0.291020
O O13 0.238408 0.000000 0.223695
O O14 0.111912 0.863777 0.588569
O O15 0.064889 0.000000 0.707068
O O16 0.160323 0.000000 0.038528
O O17 0.500000 0.682484 0.500000
#
# Coordination Sequence:
#
# PCOD8091665 Si02
#       7
#     8   8   8   8   8   8   8
#     4  11  21  35  58  85 115 147 188 235 286 334
#     4  10  22  38  57  86 119 149 187 233 281 335
#     4  11  22  38  59  82 113 150 188 237 286 335
#     4  10  19  34  57  82 107 143 188 233 278 330
#     4  10  21  37  59  83 114 153 190 231 277 334
#     4  10  22  38  56  81 110 143 190 237 282 338
#     4  10  21  38  60  86 115 151 190 232 277 331
#
# _framework density 19.689029999999999
#
# number of rings (size 3 to 8) (size 9 to 14) (size 15 to 20)
#    0.000    1.714    2.857    1.714    0.000    4.286 
#    0.000    0.000    0.000    9.429    0.000    0.000 
#    0.000    0.000    0.000    0.000    0.000    0.000 
#
# Total GULP energy -347244.155324 kJ/mol
# GULP energy per Si atom -12401.576976 kJ/mol
# Density = 1.964422 g / cm^3
# Si number density = 19.689030 Si / 1000 Ang^3
#
#
#
# Elastic Constant Matrix: (Units=GPa)
#
#
# Indices 1 2 3 4 5 6 
#
# 1 66.3751 19.9626 12.8477 0.0000 -6.2149 0.0000
# 2 19.9626 100.9901 19.4004 0.0000 -1.6540 0.0000
# 3 12.8477 19.4004 99.6436 0.0000 -16.9531 0.0000
# 4 0.0000 0.0000 0.0000 19.5535 0.0000 0.4828
# 5 -6.2149 -1.6540 -16.9531 0.0000 22.6116 0.0000
# 6 0.0000 0.0000 0.0000 0.4828 0.0000 22.9754
#
#
#
# Elastic Compliance Matrix: (Units=1/GPa)
#
#
# Indices 1 2 3 4 5 6 
#
# 1 0.016493 -0.003024 -0.000922 0.000000 0.003621 0.000000
# 2 -0.003024 0.010856 -0.001983 0.000000 -0.001524 0.000000
# 3 -0.000922 -0.001983 0.012004 0.000000 0.008602 0.000000
# 4 0.000000 0.000000 0.000000 0.051168 0.000000 -0.001075
# 5 0.003621 -0.001524 0.008602 0.000000 0.051558 0.000000
# 6 0.000000 0.000000 0.000000 -0.001075 0.000000 0.043547
#
#
# Mechanical properties :
#
#
# Convention : Reuss Voigt Hill
#
# Bulk Modulus (GPa) = 36.36937 41.27003 38.81970
# Shear Modulus (GPa) = 24.19572 27.34799 25.77185
#
# Velocity S-wave (km/s) = 3.50936 3.73097 3.62186
# Velocity P-wave (km/s) = 5.91040 6.29020 6.10325
#
# Compressibility (1/GPa) = 0.02749566
#
# Stress axis : x y z
#
# Youngs Moduli (GPa) = 60.63279 92.11808 83.30441
#
# Poissons Ratio (x) = 0.27854 0.07679
# Poissons Ratio (y) = 0.18334 0.16519
# Poissons Ratio (z) = 0.05589 0.18266
#
# Static dielectric constant tensor:
#      x y z
#    x 3.457330 0.000000 -0.227880 
#    y 0.000000 3.537500 0.000000 
#    z -0.227880 0.000000 3.731710 
# 
# 
# High freq. dielectric constant tensor:
#      x y z
#    x 1.752850 0.000000 -0.016960 
#    y 0.000000 1.760750 0.000000 
#    z -0.016960 0.000000 1.780580 
# 
# From -- ./inp_files/262830.got.cif
#   From: 2010.06.25/outbox.cif.g09.slc.cpg/sg12_132_cif.got.tgz:262830.got - 2010.06.28 00:19:55.
