data_PCOD8091169
_publ_section_title
;
Structure prediction by ZEFSAII (Michael W. Deem and Ramdas Pophale) SiO2 
 PCOD8091169
Probable space group: C 2/M
;
_chemical_formula_sum "Si O2"
_cell_formula_units_Z 56
_cell_length_a 27.744374
_cell_length_b 9.484714
_cell_length_c 20.889352
_cell_angle_alpha 90.000000
_cell_angle_beta 147.322396
_cell_angle_gamma 90.000000
_cell_volume 2967.881744
_symmetry_space_group_name_H-M "C 2/M"
_symmetry_group_IT_number 12
_symmetry_cell_setting 'monoclinic'
loop_
_space_group_symop_operation_xyz
x,y,z
-x,y,-z
-x,-y,-z
x,-y,z
1/2+x,1/2+y,z
1/2-x,1/2+y,-z
1/2-x,1/2-y,-z
1/2+x,1/2-y,z
loop_
_atom_site_type_symbol
_atom_site_label
_atom_site_fract_x
_atom_site_fract_y
_atom_site_fract_z
Si Si1 0.992609 0.165058 0.179086
Si Si2 0.724060 0.338598 0.221490
Si Si3 0.690331 0.343916 0.888929
Si Si4 0.072956 0.334067 0.528447
Si Si5 0.934477 0.837670 0.872435
Si Si6 0.490053 0.663852 0.660178
Si Si7 0.338858 0.158263 0.960555
O O1 0.043400 0.190771 0.303858
O O2 0.049114 0.222931 0.181114
O O3 0.968773 0.000000 0.146927
O O4 0.901365 0.255181 0.079575
O O5 0.717142 0.500000 0.190245
O O6 0.827159 0.292917 0.338303
O O7 0.671077 0.319000 0.229577
O O8 0.665325 0.241359 0.110120
O O9 0.683187 0.500000 0.911639
O O10 0.591991 0.283060 0.768902
O O11 0.738192 0.349216 0.873931
O O12 0.750000 0.250000 0.000000
O O13 0.063422 0.500000 0.505836
O O14 0.000000 0.283927 0.500000
O O15 0.063522 0.256762 0.450169
O O16 0.961283 0.000000 0.898856
O O17 0.000000 0.768417 0.000000
O O18 0.479972 0.500000 0.629894
O O19 0.376738 0.000000 0.992581
#
# Coordination Sequence:
#
# PCOD8091169 Si02
#       7
#     8   8   8   8   8   8   8
#     4  10  19  34  55  79 108 142 182 220 265 328
#     4  10  20  36  57  78 104 142 187 227 267 321
#     4  10  20  32  48  75 107 139 175 213 262 322
#     4  10  22  39  58  80 106 142 185 227 270 320
#     4   9  16  30  56  83 104 138 185 227 264 314
#     4  10  21  36  55  78 108 145 180 222 272 321
#     4  11  21  31  49  81 114 140 172 221 276 322
#
# _framework density 18.868676000000001
#
# number of rings (size 3 to 8) (size 9 to 14) (size 15 to 20)
#    0.000    2.000    2.857    1.286    0.000    2.571 
#    0.000    2.143    0.000    0.000    0.000    0.000 
#    0.000    0.000    0.000    0.000    0.000    0.000 
#
# Total GULP energy -346985.947922 kJ/mol
# GULP energy per Si atom -12392.355283 kJ/mol
# Density = 1.882573 g / cm^3
# Si number density = 18.868676 Si / 1000 Ang^3
#
#
#
# Elastic Constant Matrix: (Units=GPa)
#
#
# Indices 1 2 3 4 5 6 
#
# 1 108.3171 15.5828 29.9095 0.0000 -7.1777 0.0000
# 2 15.5828 61.2893 34.7025 0.0000 -11.9993 0.0000
# 3 29.9095 34.7025 72.1760 0.0000 -9.6057 0.0000
# 4 0.0000 0.0000 0.0000 27.1053 0.0000 -8.0792
# 5 -7.1777 -11.9993 -9.6057 0.0000 34.7981 0.0000
# 6 0.0000 0.0000 0.0000 -8.0792 0.0000 20.4469
#
#
#
# Elastic Compliance Matrix: (Units=1/GPa)
#
#
# Indices 1 2 3 4 5 6 
#
# 1 0.010459 -0.000121 -0.004147 0.000000 0.000971 0.000000
# 2 -0.000121 0.023269 -0.010457 0.000000 0.005112 0.000000
# 3 -0.004147 -0.010457 0.020770 0.000000 0.001272 0.000000
# 4 0.000000 0.000000 0.000000 0.041818 0.000000 0.016524
# 5 0.000971 0.005112 0.001272 0.000000 0.031051 0.000000
# 6 0.000000 0.000000 0.000000 0.016524 0.000000 0.055436
#
#
# Mechanical properties :
#
#
# Convention : Reuss Voigt Hill
#
# Bulk Modulus (GPa) = 39.92305 44.68578 42.30441
# Shear Modulus (GPa) = 22.66515 27.24257 24.95386
#
# Velocity S-wave (km/s) = 3.46960 3.80386 3.64057
# Velocity P-wave (km/s) = 6.10370 6.55945 6.33567
#
# Compressibility (1/GPa) = 0.02504819
#
# Stress axis : x y z
#
# Youngs Moduli (GPa) = 95.61192 42.97639 48.14529
#
# Poissons Ratio (x) = 0.00521 0.19964
# Poissons Ratio (y) = 0.01159 0.50346
# Poissons Ratio (z) = 0.39647 0.44940
#
# Static dielectric constant tensor:
#      x y z
#    x 3.795370 0.000000 0.018660 
#    y 0.000000 3.186460 0.000000 
#    z 0.018660 0.000000 3.233370 
# 
# 
# High freq. dielectric constant tensor:
#      x y z
#    x 1.746580 0.000000 -0.002260 
#    y 0.000000 1.713570 0.000000 
#    z -0.002260 0.000000 1.704960 
# 
# From -- ./inp_files/237371.got.cif
#   From: 2010.06.25/outbox.cif.g09.slc.cpg/sg12_119_cif.got.tgz:237371.got - 2010.06.28 00:19:55.
