data_PCOD8091555
_publ_section_title
;
Structure prediction by ZEFSAII (Michael W. Deem and Ramdas Pophale) SiO2 
 PCOD8091555
Probable space group: C 2/M
;
_chemical_formula_sum "Si O2"
_cell_formula_units_Z 40
_cell_length_a 16.411617
_cell_length_b 20.764879
_cell_length_c 10.643064
_cell_angle_alpha 90.000000
_cell_angle_beta 33.990516
_cell_angle_gamma 90.000000
_cell_volume 2027.694422
_symmetry_space_group_name_H-M "C 2/M"
_symmetry_group_IT_number 12
_symmetry_cell_setting 'monoclinic'
loop_
_space_group_symop_operation_xyz
x,y,z
-x,y,-z
-x,-y,-z
x,-y,z
1/2+x,1/2+y,z
1/2-x,1/2+y,-z
1/2-x,1/2-y,-z
1/2+x,1/2-y,z
loop_
_atom_site_type_symbol
_atom_site_label
_atom_site_fract_x
_atom_site_fract_y
_atom_site_fract_z
Si Si1 0.344414 0.691188 0.517270
Si Si2 0.597851 0.168209 0.652516
Si Si3 0.846715 0.424536 0.633105
Si Si4 0.076833 0.848677 0.030943
Si Si5 0.699220 0.781838 0.935250
O O1 0.371316 0.765952 0.459320
O O2 0.186538 0.668254 0.669008
O O3 0.332731 0.685847 0.685167
O O4 0.470553 0.648655 0.289336
O O5 0.656812 0.107723 0.498953
O O6 0.423270 0.162989 0.891872
O O7 0.823964 0.500000 0.647119
O O8 0.713296 0.395600 0.885959
O O9 0.000000 0.406819 0.500000
O O10 0.130492 0.775765 0.939691
O O11 0.000000 0.871317 0.000000
O O12 0.750000 0.750000 0.000000
#
# Coordination Sequence:
#
# PCOD8091555 Si02
#       5
#     8   8   8   8   8
#     4  10  19  34  56  86 120 154 191 254 308 359
#     4  10  19  34  57  81 123 156 197 242 305 363
#     4  11  23  39  60  88 124 163 205 253 301 365
#     4  11  20  37  59  87 120 157 204 247 305 367
#     4  11  21  32  56  89 126 161 191 249 316 373
#
# _framework density 19.726838000000001
#
# number of rings (size 3 to 8) (size 9 to 14) (size 15 to 20)
#    0.000    1.400    4.000    4.200    0.000    2.800 
#    0.000    0.000    0.000    3.600    0.000    4.200 
#    0.000    0.000    0.000    0.000    0.000    0.000 
#
# Total GULP energy -247867.543418 kJ/mol
# GULP energy per Si atom -12393.377171 kJ/mol
# Density = 1.968194 g / cm^3
# Si number density = 19.726838 Si / 1000 Ang^3
#
#
#
# Elastic Constant Matrix: (Units=GPa)
#
#
# Indices 1 2 3 4 5 6 
#
# 1 75.7341 23.8547 67.7160 0.0065 9.0905 -0.0046
# 2 23.8547 60.6481 41.2152 -0.0012 -3.5108 0.0001
# 3 67.7160 41.2152 188.1849 0.0064 10.8130 -0.0058
# 4 0.0065 -0.0012 0.0064 22.2985 -0.0064 -4.5555
# 5 9.0905 -3.5108 10.8130 -0.0064 37.0764 0.0053
# 6 -0.0046 0.0001 -0.0058 -4.5555 0.0053 20.2155
#
#
#
# Elastic Compliance Matrix: (Units=1/GPa)
#
#
# Indices 1 2 3 4 5 6 
#
# 1 0.020531 -0.003996 -0.006307 -0.000005 -0.003573 0.000003
# 2 -0.003996 0.020512 -0.003277 0.000004 0.003878 -0.000002
# 3 -0.006307 -0.003277 0.008371 -0.000001 -0.001205 0.000001
# 4 -0.000005 0.000004 -0.000001 0.047010 0.000008 0.010594
# 5 -0.003573 0.003878 -0.001205 0.000008 0.028566 -0.000007
# 6 0.000003 -0.000002 0.000001 0.010594 -0.000007 0.051854
#
#
# Mechanical properties :
#
#
# Convention : Reuss Voigt Hill
#
# Bulk Modulus (GPa) = 44.93908 65.57098 55.25503
# Shear Modulus (GPa) = 23.64924 28.70351 26.17638
#
# Velocity S-wave (km/s) = 3.46618 3.81865 3.64667
# Velocity P-wave (km/s) = 6.23292 7.26322 6.76771
#
# Compressibility (1/GPa) = 0.02225235
#
# Stress axis : x y z
#
# Youngs Moduli (GPa) = 48.70626 48.75195 119.46562
#
# Poissons Ratio (x) = 0.19481 0.75352
# Poissons Ratio (y) = 0.19463 0.39153
# Poissons Ratio (z) = 0.30721 0.15978
#
# Static dielectric constant tensor:
#      x y z
#    x 3.537720 0.000000 -0.164770 
#    y 0.000000 3.136840 0.000000 
#    z -0.164770 0.000000 4.150300 
# 
# 
# High freq. dielectric constant tensor:
#      x y z
#    x 1.766070 0.000000 -0.010380 
#    y 0.000000 1.702780 0.000000 
#    z -0.010380 0.000000 1.792590 
# 
# From -- ./inp_files/50969.got.cif
#   From: 2010.06.25/outbox.cif.g09.slc.cpg/sg12_26_cif.got.tgz:50969.got - 2010.06.28 00:19:55.
