data_PCOD8091159
_publ_section_title
;
Structure prediction by ZEFSAII (Michael W. Deem and Ramdas Pophale) SiO2 
 PCOD8091159
Probable space group: C 2/M
;
_chemical_formula_sum "Si O2"
_cell_formula_units_Z 64
_cell_length_a 20.708622
_cell_length_b 8.778748
_cell_length_c 26.264997
_cell_angle_alpha 90.000000
_cell_angle_beta 134.311983
_cell_angle_gamma 90.000000
_cell_volume 3416.638980
_symmetry_space_group_name_H-M "C 2/M"
_symmetry_group_IT_number 12
_symmetry_cell_setting 'monoclinic'
loop_
_space_group_symop_operation_xyz
x,y,z
-x,y,-z
-x,-y,-z
x,-y,z
1/2+x,1/2+y,z
1/2-x,1/2+y,-z
1/2-x,1/2-y,-z
1/2+x,1/2-y,z
loop_
_atom_site_type_symbol
_atom_site_label
_atom_site_fract_x
_atom_site_fract_y
_atom_site_fract_z
Si Si1 0.421893 0.679267 0.278088
Si Si2 0.509404 0.679618 0.794363
Si Si3 0.596164 0.319057 0.035780
Si Si4 0.008921 0.820304 0.426774
Si Si5 0.346326 0.680251 0.042513
Si Si6 0.142940 0.819100 0.581117
Si Si7 0.730961 0.680160 0.196952
Si Si8 0.825047 0.319368 0.728352
O O1 0.400859 0.500000 0.268108
O O2 0.456537 0.731202 0.242299
O O3 0.498993 0.725287 0.362010
O O4 0.332256 0.767404 0.243737
O O5 0.492442 0.500000 0.788117
O O6 0.583902 0.733689 0.875862
O O7 0.416973 0.764766 0.754002
O O8 0.591189 0.500000 0.031730
O O9 0.672781 0.263264 0.116772
O O10 0.500000 0.250943 0.000000
O O11 0.618556 0.256154 0.992061
O O12 0.102521 0.760431 0.504250
O O13 0.922717 0.756780 0.410466
O O14 0.008146 0.000000 0.432287
O O15 0.336733 0.500000 0.036749
O O16 0.250000 0.750000 0.000000
O O17 0.243684 0.757870 0.647291
O O18 0.145657 0.000000 0.583840
O O19 0.727322 0.500000 0.201062
O O20 0.686225 0.752706 0.221805
O O21 0.824448 0.500000 0.732195
#
# Coordination Sequence:
#
# PCOD8091159 Si02
#       8
#     8   8   8   8   8   8   8   8
#     4  10  19  34  55  79 106 137 175 216 257 309
#     4  10  22  37  54  78 110 144 174 214 268 317
#     4   9  18  33  52  72  97 133 172 207 249 308
#     4   8  13  26  50  77 103 132 172 215 254 304
#     4  10  20  36  56  76 102 137 176 214 257 313
#     4   8  14  26  49  78 102 132 174 215 254 304
#     4  11  21  33  54  80 105 133 171 220 269 313
#     4  11  21  35  55  79 107 140 179 219 260 313
#
# _framework density 18.731859
#
# number of rings (size 3 to 8) (size 9 to 14) (size 15 to 20)
#    0.000    2.375    1.250    3.000    0.000    3.000 
#    0.000    1.250    0.000    4.875    0.000    0.000 
#    0.000    0.000    0.000    0.000    0.000    0.000 
#
# Total GULP energy -396684.240768 kJ/mol
# GULP energy per Si atom -12396.382524 kJ/mol
# Density = 1.868922 g / cm^3
# Si number density = 18.731859 Si / 1000 Ang^3
#
#
#
# Elastic Constant Matrix: (Units=GPa)
#
#
# Indices 1 2 3 4 5 6 
#
# 1 109.0336 16.3762 54.6473 0.0000 -3.5129 0.0000
# 2 16.3762 26.7934 17.1456 0.0000 1.9084 0.0000
# 3 54.6473 17.1456 156.3997 0.0000 -7.0394 0.0000
# 4 0.0000 0.0000 0.0000 19.5449 0.0000 5.2775
# 5 -3.5129 1.9084 -7.0394 0.0000 30.9409 0.0000
# 6 0.0000 0.0000 0.0000 5.2775 0.0000 28.0013
#
#
#
# Elastic Compliance Matrix: (Units=1/GPa)
#
#
# Indices 1 2 3 4 5 6 
#
# 1 0.011702 -0.004968 -0.003506 0.000000 0.000837 0.000000
# 2 -0.004968 0.042629 -0.003113 0.000000 -0.003902 0.000000
# 3 -0.003506 -0.003113 0.008033 0.000000 0.001622 0.000000
# 4 0.000000 0.000000 0.000000 0.053908 0.000000 -0.010160
# 5 0.000837 -0.003902 0.001622 0.000000 0.033024 0.000000
# 6 0.000000 0.000000 0.000000 -0.010160 0.000000 0.037628
#
#
# Mechanical properties :
#
#
# Convention : Reuss Voigt Hill
#
# Bulk Modulus (GPa) = 25.51716 52.06275 38.78996
# Shear Modulus (GPa) = 22.40522 29.30125 25.85323
#
# Velocity S-wave (km/s) = 3.46222 3.95935 3.71910
# Velocity P-wave (km/s) = 5.44376 6.98254 6.26061
#
# Compressibility (1/GPa) = 0.03918932
#
# Stress axis : x y z
#
# Youngs Moduli (GPa) = 85.45492 23.45817 124.48151
#
# Poissons Ratio (x) = 0.11654 0.43649
# Poissons Ratio (y) = 0.42455 0.38751
# Poissons Ratio (z) = 0.29965 0.07303
#
# Static dielectric constant tensor:
#      x y z
#    x 3.510560 0.000000 -0.179440 
#    y 0.000000 3.052450 0.000000 
#    z -0.179440 0.000000 4.021600 
# 
# 
# High freq. dielectric constant tensor:
#      x y z
#    x 1.719950 0.000000 -0.004920 
#    y 0.000000 1.688080 0.000000 
#    z -0.004920 0.000000 1.752100 
# 
# From -- ./inp_files/365739.got.cif
#   From: 2010.06.25/outbox.cif.g09.slc.cpg/sg12_183_cif.got.tgz:365739.got - 2010.06.28 00:19:55.
