data_PCOD8091654
_publ_section_title
;
Structure prediction by ZEFSAII (Michael W. Deem and Ramdas Pophale) SiO2 
 PCOD8091654
Probable space group: C 2/M
;
_chemical_formula_sum "Si O2"
_cell_formula_units_Z 48
_cell_length_a 29.994258
_cell_length_b 9.154039
_cell_length_c 10.179461
_cell_angle_alpha 90.000000
_cell_angle_beta 69.980667
_cell_angle_gamma 90.000000
_cell_volume 2626.080989
_symmetry_space_group_name_H-M "C 2/M"
_symmetry_group_IT_number 12
_symmetry_cell_setting 'monoclinic'
loop_
_space_group_symop_operation_xyz
x,y,z
-x,y,-z
-x,-y,-z
x,-y,z
1/2+x,1/2+y,z
1/2-x,1/2+y,-z
1/2-x,1/2-y,-z
1/2+x,1/2-y,z
loop_
_atom_site_type_symbol
_atom_site_label
_atom_site_fract_x
_atom_site_fract_y
_atom_site_fract_z
Si Si1 0.947940 0.672971 0.896092
Si Si2 0.301377 0.669731 0.220980
Si Si3 0.858277 0.827682 0.905474
Si Si4 0.947667 0.672522 0.194054
Si Si5 0.692976 0.829623 0.275943
Si Si6 0.149596 0.327681 0.595204
O O1 0.940028 0.500000 0.889156
O O2 0.910408 0.756250 0.842421
O O3 0.001286 0.720768 0.798334
O O4 0.940685 0.728820 0.052619
O O5 0.306985 0.500000 0.247490
O O6 0.247815 0.709017 0.238261
O O7 0.314687 0.757384 0.337405
O O8 0.334880 0.717536 0.067246
O O9 0.825580 0.766605 0.824004
O O10 0.862412 0.000000 0.885249
O O11 0.947939 0.500000 0.186129
O O12 0.904321 0.729872 0.327200
O O13 0.664456 0.782112 0.434560
O O14 0.685419 0.000000 0.251826
O O15 0.153086 0.500000 0.612024
#
# Coordination Sequence:
#
# PCOD8091654 Si02
#       6
#     8   8   8   8   8   8
#     4   9  16  31  55  78 103 133 168 214 259 301
#     4  10  21  36  53  77 106 137 175 215 257 305
#     4  11  22  35  52  77 107 139 176 214 255 305
#     4   8  15  29  53  82 103 127 168 214 257 303
#     4  10  22  37  53  75 106 141 175 212 256 308
#     4  10  19  34  57  82 104 132 173 215 258 309
#
# _framework density 18.278186999999999
#
# number of rings (size 3 to 8) (size 9 to 14) (size 15 to 20)
#    0.000    2.333    1.667    2.500    0.000    2.000 
#    0.000    3.333    0.000    5.000    0.000    0.000 
#    0.000    0.000    0.000    0.000    0.000    0.000 
#
# Total GULP energy -297587.770838 kJ/mol
# GULP energy per Si atom -12399.490452 kJ/mol
# Density = 1.823659 g / cm^3
# Si number density = 18.278187 Si / 1000 Ang^3
#
#
#
# Elastic Constant Matrix: (Units=GPa)
#
#
# Indices 1 2 3 4 5 6 
#
# 1 91.7007 28.5139 25.7390 0.0000 -32.8700 0.0000
# 2 28.5139 43.8162 23.6105 0.0000 -6.5477 0.0000
# 3 25.7390 23.6105 43.1522 0.0000 -12.2564 0.0000
# 4 0.0000 0.0000 0.0000 19.6601 0.0000 5.6269
# 5 -32.8700 -6.5477 -12.2564 0.0000 6.1286 0.0000
# 6 0.0000 0.0000 0.0000 5.6269 0.0000 32.2382
#
#
#
# Elastic Compliance Matrix: (Units=1/GPa)
#
#
# Indices 1 2 3 4 5 6 
#
# 1 -0.005597 0.002892 -0.013641 0.000000 -0.054211 0.000000
# 2 0.002892 0.030880 -0.011215 0.000000 0.026074 0.000000
# 3 -0.013641 -0.011215 0.030703 0.000000 -0.023743 0.000000
# 4 0.000000 0.000000 0.000000 0.053539 0.000000 -0.009345
# 5 -0.054211 0.026074 -0.023743 0.000000 -0.147212 0.000000
# 6 0.000000 0.000000 0.000000 -0.009345 0.000000 0.032650
#
#
# Mechanical properties :
#
#
# Convention : Reuss Voigt Hill
#
# Bulk Modulus (GPa) = 82.93842 37.15510 60.04676
# Shear Modulus (GPa) = 116.51970 18.32576 67.42273
#
# Velocity S-wave (km/s) = 7.99289 3.16983 6.08005
# Velocity P-wave (km/s) = 11.43048 5.81109 9.06710
#
# Compressibility (1/GPa) = 0.01205714
#
# Stress axis : x y z
#
# Youngs Moduli (GPa) = -178.65693 32.38311 32.57002
#
# Poissons Ratio (x) = -0.09365 0.44430
# Poissons Ratio (y) = 0.51669 0.36528
# Poissons Ratio (z) = -2.43711 0.36319
#
# Static dielectric constant tensor:
#      x y z
#    x 3.582660 0.000000 -0.347430 
#    y 0.000000 3.101800 0.000000 
#    z -0.347430 0.000000 3.473070 
# 
# 
# High freq. dielectric constant tensor:
#      x y z
#    x 1.723270 0.000000 -0.013780 
#    y 0.000000 1.685790 0.000000 
#    z -0.013780 0.000000 1.697520 
# 
# From -- ./inp_files/185739.got.cif
#   From: 2010.06.25/outbox.cif.g09.slc.cpg/sg12_93_cif.got.tgz:185739.got - 2010.06.28 00:19:55.
