data_PCOD8091095
_publ_section_title
;
Structure prediction by ZEFSAII (Michael W. Deem and Ramdas Pophale) SiO2 
 PCOD8091095
Probable space group: C 2/M
;
_chemical_formula_sum "Si O2"
_cell_formula_units_Z 48
_cell_length_a 11.662214
_cell_length_b 13.977186
_cell_length_c 19.492862
_cell_angle_alpha 90.000000
_cell_angle_beta 125.272035
_cell_angle_gamma 90.000000
_cell_volume 2594.118116
_symmetry_space_group_name_H-M "C 2/M"
_symmetry_group_IT_number 12
_symmetry_cell_setting 'monoclinic'
loop_
_space_group_symop_operation_xyz
x,y,z
-x,y,-z
-x,-y,-z
x,-y,z
1/2+x,1/2+y,z
1/2-x,1/2+y,-z
1/2-x,1/2-y,-z
1/2+x,1/2-y,z
loop_
_atom_site_type_symbol
_atom_site_label
_atom_site_fract_x
_atom_site_fract_y
_atom_site_fract_z
Si Si1 0.804195 0.391359 0.560483
Si Si2 0.036501 0.219178 0.433838
Si Si3 0.205581 0.657500 0.024297
Si Si4 0.490829 0.603186 0.077301
Si Si5 0.227402 0.891879 0.691589
Si Si6 0.089225 0.309378 0.128092
O O1 0.833912 0.500000 0.546837
O O2 0.935523 0.323965 0.587690
O O3 0.668887 0.352055 0.472611
O O4 0.782655 0.386702 0.633824
O O5 0.000000 0.232671 0.500000
O O6 0.909927 0.173462 0.346922
O O7 0.331060 0.584803 0.049460
O O8 0.198714 0.676636 0.103556
O O9 0.250000 0.750000 0.000000
O O10 0.051813 0.631416 0.941020
O O11 0.566765 0.500000 0.118662
O O12 0.562944 0.696304 0.136214
O O13 0.500000 0.625897 0.000000
O O14 0.350450 0.855204 0.782721
O O15 0.186448 0.000000 0.697010
#
# Coordination Sequence:
#
# PCOD8091095 Si02
#       6
#     8   8   8   8   8   8
#     4   9  18  35  56  80 107 139 177 212 258 315
#     4   9  18  34  57  80 106 140 174 216 259 308
#     4   9  17  34  52  72 100 138 173 223 263 309
#     4  10  19  34  55  76  98 136 180 216 266 323
#     4  10  21  35  53  78 106 140 176 216 265 316
#     4  10  19  34  55  76 107 136 179 223 267 313
#
# _framework density 18.503397
#
# number of rings (size 3 to 8) (size 9 to 14) (size 15 to 20)
#    0.000    2.500    3.333    0.500    0.000    6.333 
#    0.000    2.500    0.000    4.000    0.000    0.000 
#    0.000    0.000    0.000    0.000    0.000    0.000 
#
# Total GULP energy -297380.711290 kJ/mol
# GULP energy per Si atom -12390.862970 kJ/mol
# Density = 1.846128 g / cm^3
# Si number density = 18.503397 Si / 1000 Ang^3
#
#
#
# Elastic Constant Matrix: (Units=GPa)
#
#
# Indices 1 2 3 4 5 6 
#
# 1 76.9184 36.6775 13.4831 0.0000 11.8652 0.0000
# 2 36.6775 145.5061 37.5327 0.0000 8.6834 0.0000
# 3 13.4831 37.5327 79.2676 0.0000 8.8827 0.0000
# 4 0.0000 0.0000 0.0000 19.7035 0.0000 7.2855
# 5 11.8652 8.6834 8.8827 0.0000 13.5986 0.0000
# 6 0.0000 0.0000 0.0000 7.2855 0.0000 17.6425
#
#
#
# Elastic Compliance Matrix: (Units=1/GPa)
#
#
# Indices 1 2 3 4 5 6 
#
# 1 0.016528 -0.003487 0.000223 0.000000 -0.012340 0.000000
# 2 -0.003487 0.008663 -0.003485 0.000000 -0.000213 0.000000
# 3 0.000223 -0.003485 0.015106 0.000000 -0.007836 0.000000
# 4 0.000000 0.000000 0.000000 0.059898 0.000000 -0.024735
# 5 -0.012340 -0.000213 -0.007836 0.000000 0.089558 0.000000
# 6 0.000000 0.000000 0.000000 -0.024735 0.000000 0.066896
#
#
# Mechanical properties :
#
#
# Convention : Reuss Voigt Hill
#
# Bulk Modulus (GPa) = 37.31620 53.00875 45.16248
# Shear Modulus (GPa) = 17.91590 24.45550 21.18570
#
# Velocity S-wave (km/s) = 3.11505 3.63943 3.38740
# Velocity P-wave (km/s) = 5.75752 6.80962 6.30555
#
# Compressibility (1/GPa) = 0.02679801
#
# Stress axis : x y z
#
# Youngs Moduli (GPa) = 60.50294 115.43045 66.19950
#
# Poissons Ratio (x) = 0.40253 -0.01474
# Poissons Ratio (y) = 0.21099 0.23070
# Poissons Ratio (z) = -0.01347 0.40227
#
# Static dielectric constant tensor:
#      x y z
#    x 3.212010 0.000000 0.065160 
#    y 0.000000 5.451900 0.000000 
#    z 0.065160 0.000000 3.135740 
# 
# 
# High freq. dielectric constant tensor:
#      x y z
#    x 1.720060 0.000000 -0.000720 
#    y 0.000000 1.727030 0.000000 
#    z -0.000720 0.000000 1.687260 
# 
# From -- ./inp_files/305186.got.cif
#   From: 2010.06.25/outbox.cif.g09.slc.cpg/sg12_153_cif.got.tgz:305186.got - 2010.06.28 00:19:55.
