data_PCOD8091254
_publ_section_title
;
Structure prediction by ZEFSAII (Michael W. Deem and Ramdas Pophale) SiO2 
 PCOD8091254
Probable space group: C 2/M
;
_chemical_formula_sum "Si O2"
_cell_formula_units_Z 36
_cell_length_a 16.565061
_cell_length_b 13.797233
_cell_length_c 21.783372
_cell_angle_alpha 90.000000
_cell_angle_beta 158.000394
_cell_angle_gamma 90.000000
_cell_volume 1864.997145
_symmetry_space_group_name_H-M "C 2/M"
_symmetry_group_IT_number 12
_symmetry_cell_setting 'monoclinic'
loop_
_space_group_symop_operation_xyz
x,y,z
-x,y,-z
-x,-y,-z
x,-y,z
1/2+x,1/2+y,z
1/2-x,1/2+y,-z
1/2-x,1/2-y,-z
1/2+x,1/2-y,z
loop_
_atom_site_type_symbol
_atom_site_label
_atom_site_fract_x
_atom_site_fract_y
_atom_site_fract_z
Si Si1 0.650649 0.000000 0.410944
Si Si2 0.340723 0.817517 0.979999
Si Si3 0.601137 0.500000 0.785232
Si Si4 0.782892 0.500000 0.236306
Si Si5 0.500000 0.670697 0.000000
Si Si6 0.096773 0.355813 0.844266
Si Si7 0.966738 0.000000 0.119921
O O1 0.586903 0.905594 0.326090
O O2 0.536869 0.000000 0.398847
O O3 0.905071 0.000000 0.599358
O O4 0.125837 0.756629 0.847327
O O5 0.250217 0.906913 0.876358
O O6 0.497877 0.745010 0.055332
O O7 0.466161 0.860334 0.127883
O O8 0.505950 0.500000 0.787600
O O9 0.704505 0.598968 0.147664
O O10 0.700310 0.500000 0.249150
O O11 0.330821 0.407454 0.001054
#
# Coordination Sequence:
#
# PCOD8091254 Si02
#       7
#     4   8   4   4   4   8   4
#     4  11  20  36  54  79 111 142 167 223 267 332
#     4  10  19  34  55  82 101 140 180 227 253 306
#     4  10  24  34  49  78 116 147 178 197 264 332
#     4  11  18  31  56  91 102 133 166 231 276 309
#     4  11  18  33  60  84 106 125 184 233 260 296
#     4   9  17  32  57  79 102 137 183 217 265 297
#     4   9  16  34  55  81 107 130 177 231 255 310
#
# _framework density 19.302979000000001
#
# number of rings (size 3 to 8) (size 9 to 14) (size 15 to 20)
#    0.000    2.000    4.444    2.000    0.000    1.778 
#    0.000    0.000    0.000    2.667    0.000    0.000 
#    0.000    0.000    0.000    0.000    0.000    0.000 
#
# Total GULP energy -222988.912083 kJ/mol
# GULP energy per Si atom -12388.272893 kJ/mol
# Density = 1.925904 g / cm^3
# Si number density = 19.302979 Si / 1000 Ang^3
#
#
#
# Elastic Constant Matrix: (Units=GPa)
#
#
# Indices 1 2 3 4 5 6 
#
# 1 73.4421 25.0945 8.4627 -0.0220 -4.2451 0.0057
# 2 25.0945 126.7777 32.9752 -0.1108 -4.1213 -0.0103
# 3 8.4627 32.9752 58.9542 -0.1177 -13.1119 -0.0110
# 4 -0.0220 -0.1108 -0.1177 7.1902 -0.0349 -5.1547
# 5 -4.2451 -4.1213 -13.1119 -0.0349 18.8910 0.0043
# 6 0.0057 -0.0103 -0.0110 -5.1547 0.0043 34.2246
#
#
#
# Elastic Compliance Matrix: (Units=1/GPa)
#
#
# Indices 1 2 3 4 5 6 
#
# 1 0.014739 -0.002852 0.000092 0.000015 0.002754 -0.000001
# 2 -0.002852 0.009838 -0.005627 0.000045 -0.002400 0.000009
# 3 0.000092 -0.005627 0.023449 0.000419 0.015069 0.000067
# 4 0.000015 0.000045 0.000419 0.155925 0.000587 0.023485
# 5 0.002754 -0.002400 0.015069 0.000587 0.063491 0.000084
# 6 -0.000001 0.000009 0.000067 0.023485 0.000084 0.032756
#
#
# Mechanical properties :
#
#
# Convention : Reuss Voigt Hill
#
# Bulk Modulus (GPa) = 31.99801 43.58210 37.79005
# Shear Modulus (GPa) = 15.27233 24.90393 20.08813
#
# Velocity S-wave (km/s) = 2.81586 3.59578 3.22945
# Velocity P-wave (km/s) = 5.21391 6.31398 5.79013
#
# Compressibility (1/GPa) = 0.03125194
#
# Stress axis : x y z
#
# Youngs Moduli (GPa) = 67.84621 101.64727 42.64594
#
# Poissons Ratio (x) = 0.28988 -0.00392
# Poissons Ratio (y) = 0.19349 0.23997
# Poissons Ratio (z) = -0.00623 0.57197
#
# Static dielectric constant tensor:
#      x y z
#    x 3.572000 -0.000010 -0.151210 
#    y -0.000010 3.767920 -0.000080 
#    z -0.151210 -0.000080 2.841620 
# 
# 
# High freq. dielectric constant tensor:
#      x y z
#    x 1.753920 0.000000 -0.015360 
#    y 0.000000 1.772520 -0.000010 
#    z -0.015360 -0.000010 1.675950 
# 
# From -- ./inp_files/72314.got.cif
#   From: 2010.06.25/outbox.cif.g09.slc.cpg/sg12_37_cif.got.tgz:72314.got - 2010.06.28 00:19:55.
