data_PCOD8091423
_publ_section_title
;
Structure prediction by ZEFSAII (Michael W. Deem and Ramdas Pophale) SiO2 
 PCOD8091423
Probable space group: C 2/M
;
_chemical_formula_sum "Si O2"
_cell_formula_units_Z 48
_cell_length_a 19.957985
_cell_length_b 9.459224
_cell_length_c 13.700652
_cell_angle_alpha 90.000000
_cell_angle_beta 90.187394
_cell_angle_gamma 90.000000
_cell_volume 2586.491850
_symmetry_space_group_name_H-M "C 2/M"
_symmetry_group_IT_number 12
_symmetry_cell_setting 'monoclinic'
loop_
_space_group_symop_operation_xyz
x,y,z
-x,y,-z
-x,-y,-z
x,-y,z
1/2+x,1/2+y,z
1/2-x,1/2+y,-z
1/2-x,1/2-y,-z
1/2+x,1/2-y,z
loop_
_atom_site_type_symbol
_atom_site_label
_atom_site_fract_x
_atom_site_fract_y
_atom_site_fract_z
Si Si1 0.796496 0.336887 0.071621
Si Si2 0.619370 0.334851 0.365436
Si Si3 0.983931 0.835753 0.273400
Si Si4 0.262625 0.835052 0.288583
Si Si5 0.051026 0.663594 0.917178
Si Si6 0.863325 0.835657 0.416997
O O1 0.775918 0.500000 0.061969
O O2 0.784525 0.283871 0.181746
O O3 0.873751 0.311681 0.043360
O O4 0.750000 0.250000 0.000000
O O5 0.606203 0.500000 0.377693
O O6 0.554868 0.271402 0.309634
O O7 0.684244 0.301291 0.300882
O O8 0.627025 0.272573 0.474354
O O9 0.959991 0.752697 0.179234
O O10 0.931834 0.810851 0.359860
O O11 0.989369 0.000000 0.244827
O O12 0.302760 0.748791 0.369004
O O13 0.278271 0.000000 0.304163
O O14 0.039152 0.500000 0.891018
O O15 0.000000 0.715775 0.000000
O O16 0.842828 0.000000 0.418759
#
# Coordination Sequence:
#
# PCOD8091423 Si02
#       6
#     8   8   8   8   8   8
#     4  10  22  38  57  80 107 140 177 219 269 319
#     4   9  19  34  54  81 111 142 178 219 263 311
#     4  10  20  35  57  82 108 141 180 221 261 311
#     4  10  20  36  56  78 109 144 176 219 269 316
#     4  10  22  40  58  78 108 143 176 219 273 320
#     4  10  19  34  56  81 109 142 179 219 263 313
#
# _framework density 18.557955
#
# number of rings (size 3 to 8) (size 9 to 14) (size 15 to 20)
#    0.000    2.167    1.667    1.000    2.333    3.667 
#    0.000    1.667    0.000    2.000    0.000    0.000 
#    0.000    0.000    0.000    0.000    0.000    0.000 
#
# Total GULP energy -297671.263854 kJ/mol
# GULP energy per Si atom -12402.969327 kJ/mol
# Density = 1.851572 g / cm^3
# Si number density = 18.557955 Si / 1000 Ang^3
#
#
#
# Elastic Constant Matrix: (Units=GPa)
#
#
# Indices 1 2 3 4 5 6 
#
# 1 103.0013 29.8408 33.1910 0.0000 3.8826 0.0000
# 2 29.8408 41.2497 31.4987 0.0000 7.5883 0.0000
# 3 33.1910 31.4987 88.6958 0.0000 -0.1105 0.0000
# 4 0.0000 0.0000 0.0000 27.2647 0.0000 6.0620
# 5 3.8826 7.5883 -0.1105 0.0000 39.1353 0.0000
# 6 0.0000 0.0000 0.0000 6.0620 0.0000 24.4822
#
#
#
# Elastic Compliance Matrix: (Units=1/GPa)
#
#
# Indices 1 2 3 4 5 6 
#
# 1 0.012543 -0.007588 -0.001999 0.000000 0.000221 0.000000
# 2 -0.007588 0.039584 -0.011227 0.000000 -0.006954 0.000000
# 3 -0.001999 -0.011227 0.016012 0.000000 0.002420 0.000000
# 4 0.000000 0.000000 0.000000 0.038814 0.000000 -0.009611
# 5 0.000221 -0.006954 0.002420 0.000000 0.026886 0.000000
# 6 0.000000 0.000000 0.000000 -0.009611 0.000000 0.043226
#
#
# Mechanical properties :
#
#
# Convention : Reuss Voigt Hill
#
# Bulk Modulus (GPa) = 37.71828 46.88974 42.30401
# Shear Modulus (GPa) = 21.97520 27.40418 24.68969
#
# Velocity S-wave (km/s) = 3.44487 3.84693 3.65144
# Velocity P-wave (km/s) = 6.01594 6.71218 6.37357
#
# Compressibility (1/GPa) = 0.02651234
#
# Stress axis : x y z
#
# Youngs Moduli (GPa) = 79.72780 25.26266 62.45188
#
# Poissons Ratio (x) = 0.19170 0.12481
# Poissons Ratio (y) = 0.60499 0.70113
# Poissons Ratio (z) = 0.15934 0.28362
#
# Static dielectric constant tensor:
#      x y z
#    x 3.606700 0.000000 -0.092150 
#    y 0.000000 3.206380 0.000000 
#    z -0.092150 0.000000 3.521460 
# 
# 
# High freq. dielectric constant tensor:
#      x y z
#    x 1.737260 0.000000 -0.004800 
#    y 0.000000 1.694240 0.000000 
#    z -0.004800 0.000000 1.727300 
# 
# From -- ./inp_files/153509.got.cif
#   From: 2010.06.25/outbox.cif.g09.slc.cpg/sg12_77_cif.got.tgz:153509.got - 2010.06.28 00:19:55.
