data_PCOD8091783
_publ_section_title
;
Structure prediction by ZEFSAII (Michael W. Deem and Ramdas Pophale) SiO2 
 PCOD8091783
Probable space group: C 2/M
;
_chemical_formula_sum "Si O2"
_cell_formula_units_Z 56
_cell_length_a 27.806810
_cell_length_b 8.723543
_cell_length_c 19.510706
_cell_angle_alpha 90.000000
_cell_angle_beta 38.342681
_cell_angle_gamma 90.000000
_cell_volume 2936.048794
_symmetry_space_group_name_H-M "C 2/M"
_symmetry_group_IT_number 12
_symmetry_cell_setting 'monoclinic'
loop_
_space_group_symop_operation_xyz
x,y,z
-x,y,-z
-x,-y,-z
x,-y,z
1/2+x,1/2+y,z
1/2-x,1/2+y,-z
1/2-x,1/2-y,-z
1/2+x,1/2-y,z
loop_
_atom_site_type_symbol
_atom_site_label
_atom_site_fract_x
_atom_site_fract_y
_atom_site_fract_z
Si Si1 0.111478 0.320286 0.067308
Si Si2 0.628091 0.678004 0.195887
Si Si3 0.189594 0.319368 0.372872
Si Si4 0.250905 0.819202 0.839167
Si Si5 0.046573 0.821196 0.753126
Si Si6 0.047716 0.824063 0.595897
Si Si7 0.786295 0.820438 0.392168
O O1 0.117416 0.500000 0.075163
O O2 0.132250 0.226958 0.112394
O O3 0.025225 0.277009 0.137862
O O4 0.171052 0.269647 0.942054
O O5 0.652010 0.500000 0.174306
O O6 0.686686 0.781936 0.172462
O O7 0.542049 0.705368 0.321994
O O8 0.195108 0.500000 0.365818
O O9 0.217643 0.255699 0.268456
O O10 0.100661 0.272580 0.485122
O O11 0.245097 0.251527 0.370650
O O12 0.235285 0.000000 0.855456
O O13 0.064551 0.771764 0.654896
O O14 0.121898 0.783970 0.714633
O O15 0.023546 0.000000 0.780835
O O16 0.070347 0.000000 0.560772
O O17 0.750000 0.750000 0.500000
O O18 0.772072 0.000000 0.412945
#
# Coordination Sequence:
#
# PCOD8091783 Si02
#       7
#     8   8   8   8   8   8   8
#     4  11  22  37  59  84 108 141 185 231 276 323
#     4  10  21  38  59  83 110 143 184 227 274 327
#     4  10  22  36  54  81 114 148 184 225 271 325
#     4  11  23  39  55  77 111 150 187 226 273 324
#     4   9  18  34  56  83 113 144 180 226 275 324
#     4   9  18  33  54  81 111 143 179 224 275 324
#     4  10  19  34  57  85 113 144 183 224 271 324
#
# _framework density 19.073253000000001
#
# number of rings (size 3 to 8) (size 9 to 14) (size 15 to 20)
#    0.000    2.000    1.429    3.429    0.000    5.143 
#    0.000    3.571    0.000    4.286    0.000    0.000 
#    0.000    0.000    0.000    0.000    0.000    0.000 
#
# Total GULP energy -347266.576922 kJ/mol
# GULP energy per Si atom -12402.377747 kJ/mol
# Density = 1.902984 g / cm^3
# Si number density = 19.073253 Si / 1000 Ang^3
#
#
#
# Elastic Constant Matrix: (Units=GPa)
#
#
# Indices 1 2 3 4 5 6 
#
# 1 46.4149 17.0808 30.9136 -0.0460 -13.0657 0.0245
# 2 17.0808 47.5493 32.2352 -0.0298 -6.2716 0.0231
# 3 30.9136 32.2352 132.8842 -0.0491 -9.4314 0.0334
# 4 -0.0460 -0.0298 -0.0491 33.8586 0.0191 -5.2900
# 5 -13.0657 -6.2716 -9.4314 0.0191 22.9120 -0.0094
# 6 0.0245 0.0231 0.0334 -5.2900 -0.0094 24.2468
#
#
#
# Elastic Compliance Matrix: (Units=1/GPa)
#
#
# Indices 1 2 3 4 5 6 
#
# 1 0.030849 -0.006037 -0.004719 0.000020 0.013997 -0.000009
# 2 -0.006037 0.026812 -0.004968 0.000005 0.001852 -0.000011
# 3 -0.004719 -0.004968 0.009828 0.000003 -0.000005 -0.000003
# 4 0.000020 0.000005 0.000003 0.030577 -0.000008 0.006671
# 5 0.013997 0.001852 -0.000005 -0.000008 0.052132 0.000002
# 6 -0.000009 -0.000011 -0.000003 0.006671 0.000002 0.042698
#
#
# Mechanical properties :
#
#
# Convention : Reuss Voigt Hill
#
# Bulk Modulus (GPa) = 27.74565 43.03418 35.38991
# Shear Modulus (GPa) = 21.15444 25.97807 23.56626
#
# Velocity S-wave (km/s) = 3.33395 3.69455 3.51887
# Velocity P-wave (km/s) = 5.42206 6.38836 5.92495
#
# Compressibility (1/GPa) = 0.03604168
#
# Stress axis : x y z
#
# Youngs Moduli (GPa) = 32.41552 37.29725 101.75064
#
# Poissons Ratio (x) = 0.22515 0.48015
# Poissons Ratio (y) = 0.19568 0.50552
# Poissons Ratio (z) = 0.15296 0.18530
#
# Static dielectric constant tensor:
#      x y z
#    x 3.649180 -0.000100 -0.146610 
#    y -0.000100 3.387170 0.000090 
#    z -0.146610 0.000090 3.585500 
# 
# 
# High freq. dielectric constant tensor:
#      x y z
#    x 1.732860 0.000000 -0.017990 
#    y 0.000000 1.736500 0.000000 
#    z -0.017990 0.000000 1.741770 
# 
# From -- ./inp_files/288469.got.cif
#   From: 2010.06.25/outbox.cif.g09.slc.cpg/sg12_145_cif.got.tgz:288469.got - 2010.06.28 00:19:55.
