data_PCOD8091031
_publ_section_title
;
Structure prediction by ZEFSAII (Michael W. Deem and Ramdas Pophale) SiO2 
 PCOD8091031
Probable space group: C 2/M
;
_chemical_formula_sum "Si O2"
_cell_formula_units_Z 56
_cell_length_a 29.949181
_cell_length_b 9.308390
_cell_length_c 22.625465
_cell_angle_alpha 90.000000
_cell_angle_beta 27.742426
_cell_angle_gamma 90.000000
_cell_volume 2936.124147
_symmetry_space_group_name_H-M "C 2/M"
_symmetry_group_IT_number 12
_symmetry_cell_setting 'monoclinic'
loop_
_space_group_symop_operation_xyz
x,y,z
-x,y,-z
-x,-y,-z
x,-y,z
1/2+x,1/2+y,z
1/2-x,1/2+y,-z
1/2-x,1/2-y,-z
1/2+x,1/2-y,z
loop_
_atom_site_type_symbol
_atom_site_label
_atom_site_fract_x
_atom_site_fract_y
_atom_site_fract_z
Si Si1 0.176612 0.663085 0.515377
Si Si2 0.977356 0.666112 0.698720
Si Si3 0.534420 0.168765 0.024937
Si Si4 0.140522 0.332129 0.690877
Si Si5 0.419601 0.170593 0.637710
Si Si6 0.295627 0.332964 0.118663
Si Si7 0.331763 0.668545 0.939850
O O1 0.213287 0.500000 0.475372
O O2 0.135312 0.709039 0.627950
O O3 0.265645 0.759190 0.390445
O O4 0.092267 0.681686 0.566532
O O5 0.946857 0.500000 0.744837
O O6 0.940479 0.725727 0.679329
O O7 0.933109 0.765270 0.801614
O O8 0.454911 0.224606 0.164824
O O9 0.551683 0.000000 0.011122
O O10 0.500000 0.210612 0.000000
O O11 0.635011 0.245753 0.919505
O O12 0.151082 0.500000 0.689847
O O13 0.500000 0.236653 0.500000
O O14 0.313692 0.218635 0.741256
O O15 0.427161 0.000000 0.629527
O O16 0.307401 0.500000 0.119694
O O17 0.320714 0.300548 0.021692
O O18 0.326293 0.500000 0.932117
O O19 0.250000 0.750000 0.000000
#
# Coordination Sequence:
#
# PCOD8091031 Si02
#       7
#     8   8   8   8   8   8   8
#     4   9  18  31  53  80 104 137 179 222 272 322
#     4  10  19  34  54  80 111 144 185 226 270 332
#     4  10  22  39  58  80 108 147 187 225 277 332
#     4   9  18  34  52  74 106 139 175 222 274 325
#     4   9  18  34  54  76 108 146 181 222 269 322
#     4  10  21  37  57  84 111 140 184 232 276 325
#     4  11  21  34  55  84 114 144 181 227 278 330
#
# _framework density 19.072762000000001
#
# number of rings (size 3 to 8) (size 9 to 14) (size 15 to 20)
#    0.000    2.286    1.429    1.286    0.000    4.857 
#    0.000    4.286    0.000    1.714    0.000    0.000 
#    0.000    0.000    0.000    0.000    0.000    0.000 
#
# Total GULP energy -347233.500077 kJ/mol
# GULP energy per Si atom -12401.196431 kJ/mol
# Density = 1.902935 g / cm^3
# Si number density = 19.072762 Si / 1000 Ang^3
#
#
#
# Elastic Constant Matrix: (Units=GPa)
#
#
# Indices 1 2 3 4 5 6 
#
# 1 118.9280 44.3016 56.2757 0.0006 -21.2897 0.0002
# 2 44.3016 49.8605 37.3288 0.0047 -5.6653 -0.0013
# 3 56.2757 37.3288 132.8489 0.0033 -13.3838 -0.0004
# 4 0.0006 0.0047 0.0033 26.2619 -0.0006 -6.7997
# 5 -21.2897 -5.6653 -13.3838 -0.0006 27.9495 -0.0001
# 6 0.0002 -0.0013 -0.0004 -6.7997 -0.0001 29.8367
#
#
#
# Elastic Compliance Matrix: (Units=1/GPa)
#
#
# Indices 1 2 3 4 5 6 
#
# 1 0.014965 -0.010439 -0.002596 0.000002 0.008040 0.000000
# 2 -0.010439 0.032770 -0.005167 -0.000005 -0.003784 0.000000
# 3 -0.002596 -0.005167 0.010270 0.000000 0.001893 0.000000
# 4 0.000002 -0.000005 0.000000 0.040466 0.000001 0.009222
# 5 0.008040 -0.003784 0.001893 0.000001 0.042042 0.000000
# 6 0.000000 0.000000 0.000000 0.009222 0.000000 0.035617
#
#
# Mechanical properties :
#
#
# Convention : Reuss Voigt Hill
#
# Bulk Modulus (GPa) = 46.29670 64.16107 55.22888
# Shear Modulus (GPa) = 22.75478 27.72505 25.23991
#
# Velocity S-wave (km/s) = 3.45780 3.81681 3.64173
# Velocity P-wave (km/s) = 6.34573 7.28953 6.83394
#
# Compressibility (1/GPa) = 0.02159981
#
# Stress axis : x y z
#
# Youngs Moduli (GPa) = 66.82343 30.51580 97.37566
#
# Poissons Ratio (x) = 0.31857 0.25277
# Poissons Ratio (y) = 0.69760 0.50313
# Poissons Ratio (z) = 0.17346 0.15767
#
# Static dielectric constant tensor:
#      x y z
#    x 3.513930 -0.000010 -0.032950 
#    y -0.000010 3.327430 0.000000 
#    z -0.032950 0.000000 3.670810 
# 
# 
# High freq. dielectric constant tensor:
#      x y z
#    x 1.742330 0.000000 -0.010160 
#    y 0.000000 1.717340 0.000000 
#    z -0.010160 0.000000 1.745600 
# 
# From -- ./inp_files/329553.got.cif
#   From: 2010.06.25/outbox.cif.g09.slc.cpg/sg12_165_cif.got.tgz:329553.got - 2010.06.28 00:19:55.
