data_PCOD8091641
_publ_section_title
;
Structure prediction by ZEFSAII (Michael W. Deem and Ramdas Pophale) SiO2 
 PCOD8091641
Probable space group: C 2/M
;
_chemical_formula_sum "Si O2"
_cell_formula_units_Z 40
_cell_length_a 27.715527
_cell_length_b 9.208650
_cell_length_c 9.546900
_cell_angle_alpha 90.000000
_cell_angle_beta 59.968557
_cell_angle_gamma 90.000000
_cell_volume 2109.475198
_symmetry_space_group_name_H-M "C 2/M"
_symmetry_group_IT_number 12
_symmetry_cell_setting 'monoclinic'
loop_
_space_group_symop_operation_xyz
x,y,z
-x,y,-z
-x,-y,-z
x,-y,z
1/2+x,1/2+y,z
1/2-x,1/2+y,-z
1/2-x,1/2-y,-z
1/2+x,1/2-y,z
loop_
_atom_site_type_symbol
_atom_site_label
_atom_site_fract_x
_atom_site_fract_y
_atom_site_fract_z
Si Si1 0.491249 0.827512 0.169538
Si Si2 0.291638 0.164760 0.035757
Si Si3 0.387619 0.829265 0.500714
Si Si4 0.088979 0.671158 0.220071
Si Si5 0.724800 0.333639 0.407508
O O1 0.430503 0.783327 0.316176
O O2 0.537953 0.760191 0.205906
O O3 0.496416 0.000000 0.159454
O O4 0.500000 0.764575 0.000000
O O5 0.273104 0.175266 0.222317
O O6 0.291744 0.000000 0.980711
O O7 0.250000 0.250000 0.000000
O O8 0.353444 0.231346 0.929412
O O9 0.415236 0.787867 0.609892
O O10 0.331222 0.740485 0.565376
O O11 0.373457 0.000000 0.514780
O O12 0.085965 0.500000 0.205703
O O13 0.711676 0.500000 0.466135
O O14 0.750000 0.250000 0.500000
#
# Coordination Sequence:
#
# PCOD8091641 Si02
#       5
#     8   8   8   8   8
#     4   9  18  30  51  82 111 141 184 232 273 319
#     4  10  20  35  57  83 112 142 182 229 277 330
#     4  10  19  34  57  81 110 146 183 227 280 329
#     4   9  17  31  52  80 110 140 178 226 273 322
#     4  11  24  38  56  83 115 149 186 228 278 334
#
# _framework density 18.962062
#
# number of rings (size 3 to 8) (size 9 to 14) (size 15 to 20)
#    0.000    2.200    2.000    1.200    2.800    3.200 
#    0.000    0.000    0.000    4.200    0.000    0.000 
#    0.000    0.000    0.000    0.000    0.000    0.000 
#
# Total GULP energy -247970.593059 kJ/mol
# GULP energy per Si atom -12398.529653 kJ/mol
# Density = 1.891890 g / cm^3
# Si number density = 18.962062 Si / 1000 Ang^3
#
#
#
# Elastic Constant Matrix: (Units=GPa)
#
#
# Indices 1 2 3 4 5 6 
#
# 1 89.6927 24.7440 38.9489 0.0000 4.5966 0.0000
# 2 24.7440 51.0363 26.0797 0.0000 3.5057 0.0000
# 3 38.9489 26.0797 128.5041 0.0000 -4.7222 0.0000
# 4 0.0000 0.0000 0.0000 19.4415 0.0000 -0.6357
# 5 4.5966 3.5057 -4.7222 0.0000 36.2663 0.0000
# 6 0.0000 0.0000 0.0000 -0.6357 0.0000 23.5948
#
#
#
# Elastic Compliance Matrix: (Units=1/GPa)
#
#
# Indices 1 2 3 4 5 6 
#
# 1 0.014055 -0.005005 -0.003308 0.000000 -0.001728 0.000000
# 2 -0.005005 0.023911 -0.003414 0.000000 -0.002121 0.000000
# 3 -0.003308 -0.003414 0.009550 0.000000 0.001993 0.000000
# 4 0.000000 0.000000 0.000000 0.051482 0.000000 0.001387
# 5 -0.001728 -0.002121 0.001993 0.000000 0.028257 0.000000
# 6 0.000000 0.000000 0.000000 0.001387 0.000000 0.042420
#
#
# Mechanical properties :
#
#
# Convention : Reuss Voigt Hill
#
# Bulk Modulus (GPa) = 41.55761 49.86426 45.71094
# Shear Modulus (GPa) = 24.85722 27.82455 26.34089
#
# Velocity S-wave (km/s) = 3.62455 3.83480 3.73116
# Velocity P-wave (km/s) = 6.28333 6.77949 6.53612
#
# Compressibility (1/GPa) = 0.02406298
#
# Stress axis : x y z
#
# Youngs Moduli (GPa) = 71.14926 41.82234 104.70781
#
# Poissons Ratio (x) = 0.20934 0.34634
# Poissons Ratio (y) = 0.35613 0.35742
# Poissons Ratio (z) = 0.23534 0.14276
#
# Static dielectric constant tensor:
#      x y z
#    x 3.243300 0.000000 -0.150370 
#    y 0.000000 3.084920 0.000000 
#    z -0.150370 0.000000 3.936690 
# 
# 
# High freq. dielectric constant tensor:
#      x y z
#    x 1.747070 0.000000 -0.003520 
#    y 0.000000 1.684840 0.000000 
#    z -0.003520 0.000000 1.754910 
# 
# From -- ./inp_files/83481.got.cif
#   From: 2010.06.25/outbox.cif.g09.slc.cpg/sg12_42_cif.got.tgz:83481.got - 2010.06.28 00:19:55.
