data_PCOD8091128
_publ_section_title
;
Structure prediction by ZEFSAII (Michael W. Deem and Ramdas Pophale) SiO2 
 PCOD8091128
Probable space group: C 2/M
;
_chemical_formula_sum "Si O2"
_cell_formula_units_Z 48
_cell_length_a 15.527185
_cell_length_b 9.198681
_cell_length_c 26.703625
_cell_angle_alpha 90.000000
_cell_angle_beta 34.292268
_cell_angle_gamma 90.000000
_cell_volume 2148.901824
_symmetry_space_group_name_H-M "C 2/M"
_symmetry_group_IT_number 12
_symmetry_cell_setting 'monoclinic'
loop_
_space_group_symop_operation_xyz
x,y,z
-x,y,-z
-x,-y,-z
x,-y,z
1/2+x,1/2+y,z
1/2-x,1/2+y,-z
1/2-x,1/2-y,-z
1/2+x,1/2-y,z
loop_
_atom_site_type_symbol
_atom_site_label
_atom_site_fract_x
_atom_site_fract_y
_atom_site_fract_z
Si Si1 0.291797 0.156712 0.026399
Si Si2 0.480456 0.168719 0.408112
Si Si3 0.343625 0.668499 0.383366
Si Si4 0.737723 0.828698 0.677674
Si Si5 0.866776 0.655981 0.166177
Si Si6 0.322571 0.341132 0.100243
O O1 0.472322 0.136751 0.938278
O O2 0.209685 0.000000 0.063367
O O3 0.250000 0.250000 0.000000
O O4 0.236039 0.235188 0.103533
O O5 0.463406 0.251200 0.362927
O O6 0.324378 0.179149 0.513320
O O7 0.603784 0.251690 0.383150
O O8 0.526870 0.000000 0.377301
O O9 0.392083 0.500000 0.353134
O O10 0.342052 0.751202 0.330965
O O11 0.622861 0.805029 0.780094
O O12 0.765024 0.000000 0.652982
O O13 0.780115 0.500000 0.202423
O O14 0.784817 0.783402 0.174279
O O15 0.248009 0.500000 0.132304
O O16 0.500000 0.350191 0.000000
#
# Coordination Sequence:
#
# PCOD8091128 Si02
#       6
#     8   8   8   8   8   8
#     4  10  19  34  55  78 105 139 181 226 272 325
#     4  10  21  38  60  86 115 151 194 238 287 340
#     4  10  21  38  60  86 116 151 194 240 283 338
#     4  11  22  37  58  85 118 154 192 235 289 344
#     4   9  20  37  54  76 108 143 179 222 273 330
#     4   9  17  31  53  77 100 131 173 217 263 318
#
# _framework density 22.336991000000001
#
# number of rings (size 3 to 8) (size 9 to 14) (size 15 to 20)
#    0.000    2.167    0.000    3.000    0.000    8.000 
#    3.000    0.000    0.000    0.000    0.000    0.000 
#    0.000    0.000    0.000    0.000    0.000    0.000 
#
# Total GULP energy -297440.767267 kJ/mol
# GULP energy per Si atom -12393.365303 kJ/mol
# Density = 2.228615 g / cm^3
# Si number density = 22.336991 Si / 1000 Ang^3
#
#
#
# Elastic Constant Matrix: (Units=GPa)
#
#
# Indices 1 2 3 4 5 6 
#
# 1 113.9748 75.9303 9.7440 0.0000 44.5868 0.0002
# 2 75.9303 216.6205 25.0251 0.0000 39.3990 0.0003
# 3 9.7440 25.0251 31.3980 0.0001 24.6015 0.0000
# 4 0.0000 0.0000 0.0001 23.6889 0.0000 9.4093
# 5 44.5868 39.3990 24.6015 0.0000 39.2106 0.0000
# 6 0.0002 0.0003 0.0000 9.4093 0.0000 46.3352
#
#
#
# Elastic Compliance Matrix: (Units=1/GPa)
#
#
# Indices 1 2 3 4 5 6 
#
# 1 0.027132 -0.004825 0.031080 0.000000 -0.045505 0.000000
# 2 -0.004825 0.006507 -0.005635 0.000000 0.002483 0.000000
# 3 0.031080 -0.005635 0.098251 -0.000001 -0.091324 0.000000
# 4 0.000000 0.000000 -0.000001 0.045918 0.000001 -0.009325
# 5 -0.045505 0.002483 -0.091324 0.000001 0.132051 0.000000
# 6 0.000000 0.000000 0.000000 -0.009325 0.000000 0.023475
#
#
# Mechanical properties :
#
#
# Convention : Reuss Voigt Hill
#
# Bulk Modulus (GPa) = 5.77595 64.82133 35.29864
# Shear Modulus (GPa) = 14.29377 38.59989 26.44683
#
# Velocity S-wave (km/s) = 2.53240 4.16152 3.44465
# Velocity P-wave (km/s) = 3.33799 7.22313 5.62654
#
# Compressibility (1/GPa) = 0.17313177
#
# Stress axis : x y z
#
# Youngs Moduli (GPa) = 36.85627 153.68637 10.17803
#
# Poissons Ratio (x) = 0.74147 -0.31633
# Poissons Ratio (y) = 0.17782 0.05735
# Poissons Ratio (z) = -1.14549 0.86596
#
# Static dielectric constant tensor:
#      x y z
#    x 5.153500 0.000000 -0.502600 
#    y 0.000000 4.527590 0.000000 
#    z -0.502600 0.000000 4.159110 
# 
# 
# High freq. dielectric constant tensor:
#      x y z
#    x 1.873960 0.000000 0.022070 
#    y 0.000000 1.901500 0.000000 
#    z 0.022070 0.000000 1.859070 
# 
# From -- ./inp_files/360226.got.cif
#   From: 2010.06.25/outbox.cif.g09.slc.cpg/sg12_181_cif.got.tgz:360226.got - 2010.06.28 00:19:55.
