data_PCOD8091074
_publ_section_title
;
Structure prediction by ZEFSAII (Michael W. Deem and Ramdas Pophale) SiO2 
 PCOD8091074
Probable space group: C 2/M
;
_chemical_formula_sum "Si O2"
_cell_formula_units_Z 64
_cell_length_a 18.827660
_cell_length_b 9.230258
_cell_length_c 21.111873
_cell_angle_alpha 90.000000
_cell_angle_beta 72.230511
_cell_angle_gamma 90.000000
_cell_volume 3493.872954
_symmetry_space_group_name_H-M "C 2/M"
_symmetry_group_IT_number 12
_symmetry_cell_setting 'monoclinic'
loop_
_space_group_symop_operation_xyz
x,y,z
-x,y,-z
-x,-y,-z
x,-y,z
1/2+x,1/2+y,z
1/2-x,1/2+y,-z
1/2-x,1/2-y,-z
1/2+x,1/2-y,z
loop_
_atom_site_type_symbol
_atom_site_label
_atom_site_fract_x
_atom_site_fract_y
_atom_site_fract_z
Si Si1 0.394391 0.668512 0.811224
Si Si2 0.560515 0.670970 0.780180
Si Si3 0.879286 0.172426 0.370979
Si Si4 0.179510 0.662685 0.273289
Si Si5 0.825793 0.163908 0.149975
Si Si6 0.753845 0.170918 0.932630
Si Si7 0.071522 0.328843 0.522261
Si Si8 0.211813 0.671545 0.402332
O O1 0.391533 0.500000 0.796937
O O2 0.475062 0.716814 0.814444
O O3 0.381424 0.746020 0.747958
O O4 0.333578 0.711161 0.880343
O O5 0.572186 0.500000 0.776341
O O6 0.591668 0.729828 0.704894
O O7 0.605563 0.731155 0.828613
O O8 0.930839 0.247252 0.410035
O O9 0.793320 0.225082 0.402785
O O10 0.887304 0.000000 0.375253
O O11 0.148141 0.500000 0.288368
O O12 0.256880 0.663715 0.215857
O O13 0.192103 0.735077 0.338450
O O14 0.812007 0.267600 0.093803
O O15 0.841572 0.000000 0.121295
O O16 0.743081 0.000000 0.944330
O O17 0.750000 0.250000 0.000000
O O18 0.070990 0.500000 0.534325
O O19 0.147653 0.277021 0.467535
O O20 0.000000 0.282623 0.500000
O O21 0.214383 0.500000 0.395068
#
# Coordination Sequence:
#
# PCOD8091074 Si02
#       8
#     8   8   8   8   8   8   8   8
#     4   9  19  33  50  76 107 131 159 206 254 290
#     4   9  17  32  54  78 103 130 164 210 259 302
#     4  10  19  34  55  74  95 130 174 214 252 302
#     4   9  16  29  51  75  96 128 170 206 245 301
#     4   9  16  31  55  79 101 130 168 205 246 296
#     4  10  20  35  55  78 106 138 169 201 239 289
#     4  10  22  36  48  68 102 137 169 211 261 309
#     4   9  17  32  52  71  96 131 171 209 252 305
#
# _framework density 18.317781
#
# number of rings (size 3 to 8) (size 9 to 14) (size 15 to 20)
#    0.000    2.625    1.250    0.750    1.750    0.750 
#    0.000    3.125    0.000    3.750    0.000    0.000 
#    0.000    0.000    0.000    0.000    0.000    0.000 
#
# Total GULP energy -396747.456196 kJ/mol
# GULP energy per Si atom -12398.358006 kJ/mol
# Density = 1.827609 g / cm^3
# Si number density = 18.317781 Si / 1000 Ang^3
#
#
#
# Elastic Constant Matrix: (Units=GPa)
#
#
# Indices 1 2 3 4 5 6 
#
# 1 132.8108 37.3074 61.7232 0.0000 25.7490 0.0000
# 2 37.3074 45.7152 43.2427 -0.0001 11.1906 -0.0001
# 3 61.7232 43.2427 123.6129 0.0000 29.7821 0.0000
# 4 0.0000 -0.0001 0.0000 25.7517 0.0000 7.7364
# 5 25.7490 11.1906 29.7821 0.0000 29.3769 0.0000
# 6 0.0000 -0.0001 0.0000 7.7364 0.0000 20.9412
#
#
#
# Elastic Compliance Matrix: (Units=1/GPa)
#
#
# Indices 1 2 3 4 5 6 
#
# 1 0.011240 -0.005641 -0.002360 0.000000 -0.005311 0.000000
# 2 -0.005641 0.035552 -0.009988 0.000000 0.001527 0.000000
# 3 -0.002360 -0.009988 0.015015 0.000000 -0.009348 0.000000
# 4 0.000000 0.000000 0.000000 0.043680 0.000000 -0.016137
# 5 -0.005311 0.001527 -0.009348 0.000000 0.047591 0.000000
# 6 0.000000 0.000000 0.000000 -0.016137 0.000000 0.053714
#
#
# Mechanical properties :
#
#
# Convention : Reuss Voigt Hill
#
# Bulk Modulus (GPa) = 38.71573 65.18727 51.95150
# Shear Modulus (GPa) = 19.89016 25.87168 22.88092
#
# Velocity S-wave (km/s) = 3.29878 3.76224 3.53811
# Velocity P-wave (km/s) = 5.97418 7.38490 6.71668
#
# Compressibility (1/GPa) = 0.02582929
#
# Stress axis : x y z
#
# Youngs Moduli (GPa) = 88.96416 28.12764 66.60228
#
# Poissons Ratio (x) = 0.15867 0.15716
# Poissons Ratio (y) = 0.50184 0.66524
# Poissons Ratio (z) = 0.20993 0.28095
#
# Static dielectric constant tensor:
#      x y z
#    x 3.602280 0.000000 0.136720 
#    y 0.000000 3.129590 0.000000 
#    z 0.136720 0.000000 3.377380 
# 
# 
# High freq. dielectric constant tensor:
#      x y z
#    x 1.714590 0.000000 0.011670 
#    y 0.000000 1.677690 0.000000 
#    z 0.011670 0.000000 1.708730 
# 
# From -- ./inp_files/313998.got.cif
#   From: 2010.06.25/outbox.cif.g09.slc.cpg/sg12_157_cif.got.tgz:313998.got - 2010.06.28 00:19:55.
