data_PCOD8091388
_publ_section_title
;
Structure prediction by ZEFSAII (Michael W. Deem and Ramdas Pophale) SiO2 
 PCOD8091388
Probable space group: C 2/M
;
_chemical_formula_sum "Si O2"
_cell_formula_units_Z 64
_cell_length_a 30.032964
_cell_length_b 8.716878
_cell_length_c 25.661058
_cell_angle_alpha 90.000000
_cell_angle_beta 151.451486
_cell_angle_gamma 90.000000
_cell_volume 3210.503989
_symmetry_space_group_name_H-M "C 2/M"
_symmetry_group_IT_number 12
_symmetry_cell_setting 'monoclinic'
loop_
_space_group_symop_operation_xyz
x,y,z
-x,y,-z
-x,-y,-z
x,-y,z
1/2+x,1/2+y,z
1/2-x,1/2+y,-z
1/2-x,1/2-y,-z
1/2+x,1/2-y,z
loop_
_atom_site_type_symbol
_atom_site_label
_atom_site_fract_x
_atom_site_fract_y
_atom_site_fract_z
Si Si1 0.475482 0.816582 0.211163
Si Si2 0.578483 0.318518 0.220738
Si Si3 0.577357 0.830293 0.001333
Si Si4 0.642479 0.316472 0.746234
Si Si5 0.301916 0.167178 0.977708
Si Si6 0.468430 0.182122 0.616670
Si Si7 0.228533 0.681560 0.626356
Si Si8 0.241366 0.182035 0.225957
O O1 0.549276 0.752800 0.245785
O O2 0.506325 0.760200 0.299531
O O3 0.474425 0.000000 0.205000
O O4 0.369472 0.751223 0.090081
O O5 0.569297 0.500000 0.214861
O O6 0.683868 0.263271 0.317911
O O7 0.516633 0.261511 0.108473
O O8 0.635996 0.848326 0.009589
O O9 0.637250 0.738224 0.105463
O O10 0.552855 0.000000 0.997777
O O11 0.648382 0.500000 0.751134
O O12 0.706469 0.249948 0.860628
O O13 0.538119 0.258313 0.646917
O O14 0.679947 0.253055 0.730324
O O15 0.275089 0.000000 0.972102
O O16 0.365634 0.243348 0.497337
O O17 0.476349 0.000000 0.620187
O O18 0.226795 0.500000 0.626152
O O19 0.235334 0.742421 0.692327
O O20 0.244848 0.000000 0.224646
#
# Coordination Sequence:
#
# PCOD8091388 Si02
#       8
#     8   8   8   8   8   8   8   8
#     4   9  18  34  56  80 107 141 179 222 271 320
#     4  10  19  34  56  80 108 143 180 218 268 324
#     4   9  17  32  53  81 113 138 169 217 271 322
#     4  10  20  35  54  79 111 140 173 225 280 323
#     4   7  13  28  49  73 103 133 159 200 260 318
#     4  10  21  38  56  75 104 145 190 227 266 319
#     4   9  21  38  54  76 107 143 186 231 265 312
#     4  10  19  35  58  80 105 142 183 218 265 325
#
# _framework density 19.934564000000002
#
# number of rings (size 3 to 8) (size 9 to 14) (size 15 to 20)
#    0.000    2.750    0.000    3.000    0.000    2.500 
#    0.000   10.625    0.000    0.000    0.000    0.000 
#    0.000    0.000    0.000    0.000    0.000    0.000 
#
# Total GULP energy -396575.977534 kJ/mol
# GULP energy per Si atom -12392.999298 kJ/mol
# Density = 1.988919 g / cm^3
# Si number density = 19.934564 Si / 1000 Ang^3
#
#
#
# Elastic Constant Matrix: (Units=GPa)
#
#
# Indices 1 2 3 4 5 6 
#
# 1 48.9715 11.7413 11.6887 0.0000 1.6884 0.0000
# 2 11.7413 51.7757 11.4921 0.0000 0.0761 0.0000
# 3 11.6887 11.4921 95.1667 0.0000 2.6956 0.0000
# 4 0.0000 0.0000 0.0000 21.4413 0.0000 1.3382
# 5 1.6884 0.0761 2.6956 0.0000 35.6132 0.0000
# 6 0.0000 0.0000 0.0000 1.3382 0.0000 21.8472
#
#
#
# Elastic Compliance Matrix: (Units=1/GPa)
#
#
# Indices 1 2 3 4 5 6 
#
# 1 0.022045 -0.004524 -0.002137 0.000000 -0.000874 0.000000
# 2 -0.004524 0.020775 -0.001962 0.000000 0.000319 0.000000
# 3 -0.002137 -0.001962 0.011028 0.000000 -0.000729 0.000000
# 4 0.000000 0.000000 0.000000 0.046818 0.000000 -0.002868
# 5 -0.000874 0.000319 -0.000729 0.000000 0.028175 0.000000
# 6 0.000000 0.000000 0.000000 -0.002868 0.000000 0.045948
#
#
# Mechanical properties :
#
#
# Convention : Reuss Voigt Hill
#
# Bulk Modulus (GPa) = 27.32026 29.52866 28.42446
# Shear Modulus (GPa) = 24.48167 26.51316 25.49741
#
# Velocity S-wave (km/s) = 3.50823 3.65089 3.58027
# Velocity P-wave (km/s) = 5.49044 5.71112 5.60187
#
# Compressibility (1/GPa) = 0.03660287
#
# Stress axis : x y z
#
# Youngs Moduli (GPa) = 45.36242 48.13488 90.67913
#
# Poissons Ratio (x) = 0.21774 0.19374
# Poissons Ratio (y) = 0.20520 0.17793
# Poissons Ratio (z) = 0.09692 0.09445
#
# Static dielectric constant tensor:
#      x y z
#    x 3.459570 0.000000 0.027650 
#    y 0.000000 3.398120 0.000000 
#    z 0.027650 0.000000 4.128290 
# 
# 
# High freq. dielectric constant tensor:
#      x y z
#    x 1.768110 0.000000 0.001940 
#    y 0.000000 1.754660 0.000000 
#    z 0.001940 0.000000 1.786330 
# 
# From -- ./inp_files/353445.got.cif
#   From: 2010.06.25/outbox.cif.g09.slc.cpg/sg12_177_cif.got.tgz:353445.got - 2010.06.28 00:19:55.
