data_PCOD8091597
_publ_section_title
;
Structure prediction by ZEFSAII (Michael W. Deem and Ramdas Pophale) SiO2 
 PCOD8091597
Probable space group: C 2/M
;
_chemical_formula_sum "Si O2"
_cell_formula_units_Z 44
_cell_length_a 12.835990
_cell_length_b 13.093465
_cell_length_c 20.620612
_cell_angle_alpha 90.000000
_cell_angle_beta 139.817912
_cell_angle_gamma 90.000000
_cell_volume 2236.106975
_symmetry_space_group_name_H-M "C 2/M"
_symmetry_group_IT_number 12
_symmetry_cell_setting 'monoclinic'
loop_
_space_group_symop_operation_xyz
x,y,z
-x,y,-z
-x,-y,-z
x,-y,z
1/2+x,1/2+y,z
1/2-x,1/2+y,-z
1/2-x,1/2-y,-z
1/2+x,1/2-y,z
loop_
_atom_site_type_symbol
_atom_site_label
_atom_site_fract_x
_atom_site_fract_y
_atom_site_fract_z
Si Si1 0.085354 0.190195 0.975315
Si Si2 0.629139 0.612937 0.236884
Si Si3 0.349151 0.188754 0.680128
Si Si4 0.000000 0.756817 0.500000
Si Si5 0.988314 0.617428 0.374436
Si Si6 0.424669 0.116394 0.105457
O O1 0.055967 0.311292 0.948478
O O2 0.016773 0.126436 0.882420
O O3 0.271822 0.160213 0.072489
O O4 0.000000 0.156188 0.000000
O O5 0.620884 0.500000 0.263449
O O6 0.615006 0.691407 0.289788
O O7 0.795327 0.629713 0.276300
O O8 0.428956 0.157194 0.651126
O O9 0.421411 0.122596 0.773657
O O10 0.155176 0.171453 0.587445
O O11 0.949777 0.684561 0.536121
O O12 0.037838 0.500000 0.409906
O O13 0.401625 0.000000 0.071498
#
# Coordination Sequence:
#
# PCOD8091597 Si02
#       6
#     8   8   8   4   8   8
#     4  10  20  34  55  81 109 140 174 214 259 308
#     4   9  19  34  54  81 108 136 175 217 258 311
#     4  10  20  35  55  77 105 139 176 219 264 307
#     4  10  21  36  53  76 106 136 175 222 261 310
#     4  10  19  34  57  80 104 136 173 216 267 315
#     4  10  21  36  54  78 108 140 176 215 258 311
#
# _framework density 19.677054999999999
#
# number of rings (size 3 to 8) (size 9 to 14) (size 15 to 20)
#    0.000    2.182    0.000    3.000    0.000    4.000 
#    0.000    1.818    0.000   27.273    0.000    0.000 
#    0.000    0.000    0.000    0.000    0.000    0.000 
#
# Total GULP energy -272793.633593 kJ/mol
# GULP energy per Si atom -12399.710618 kJ/mol
# Density = 1.963227 g / cm^3
# Si number density = 19.677055 Si / 1000 Ang^3
#
#
#
# Elastic Constant Matrix: (Units=GPa)
#
#
# Indices 1 2 3 4 5 6 
#
# 1 53.6699 10.5004 15.1484 0.0000 8.5667 0.0000
# 2 10.5004 95.7637 16.0861 0.0000 7.9909 0.0000
# 3 15.1484 16.0861 92.9655 0.0000 24.0777 0.0000
# 4 0.0000 0.0000 0.0000 15.0957 0.0000 3.5382
# 5 8.5667 7.9909 24.0777 0.0000 24.7791 0.0000
# 6 0.0000 0.0000 0.0000 3.5382 0.0000 24.3176
#
#
#
# Elastic Compliance Matrix: (Units=1/GPa)
#
#
# Indices 1 2 3 4 5 6 
#
# 1 0.020194 -0.001516 -0.001800 0.000000 -0.004744 0.000000
# 2 -0.001516 0.010961 -0.001162 0.000000 -0.001881 0.000000
# 3 -0.001800 -0.001162 0.014690 0.000000 -0.013277 0.000000
# 4 0.000000 0.000000 0.000000 0.068583 0.000000 -0.009979
# 5 -0.004744 -0.001881 -0.013277 0.000000 0.055505 0.000000
# 6 0.000000 0.000000 0.000000 -0.009979 0.000000 0.042574
#
#
# Mechanical properties :
#
#
# Convention : Reuss Voigt Hill
#
# Bulk Modulus (GPa) = 27.10853 36.20766 31.65809
# Shear Modulus (GPa) = 21.38957 26.21609 23.80283
#
# Velocity S-wave (km/s) = 3.30059 3.65405 3.48181
# Velocity P-wave (km/s) = 5.32277 6.02027 5.68223
#
# Compressibility (1/GPa) = 0.03688876
#
# Stress axis : x y z
#
# Youngs Moduli (GPa) = 49.51910 91.23404 68.07491
#
# Poissons Ratio (x) = 0.13832 0.12250
# Poissons Ratio (y) = 0.07508 0.07913
# Poissons Ratio (z) = 0.08911 0.10604
#
# Static dielectric constant tensor:
#      x y z
#    x 3.376310 0.000000 0.198320 
#    y 0.000000 3.627440 0.000000 
#    z 0.198320 0.000000 3.726580 
# 
# 
# High freq. dielectric constant tensor:
#      x y z
#    x 1.747550 0.000000 0.012210 
#    y 0.000000 1.763790 0.000000 
#    z 0.012210 0.000000 1.775990 
# 
# From -- ./inp_files/268461.got.cif
#   From: 2010.06.25/outbox.cif.g09.slc.cpg/sg12_135_cif.got.tgz:268461.got - 2010.06.28 00:19:55.
