data_PCOD8091870
_publ_section_title
;
Structure prediction by ZEFSAII (Michael W. Deem and Ramdas Pophale) SiO2 
 PCOD8091870
Probable space group: C 2/M
;
_chemical_formula_sum "Si O2"
_cell_formula_units_Z 64
_cell_length_a 24.045554
_cell_length_b 8.535801
_cell_length_c 29.147504
_cell_angle_alpha 90.000000
_cell_angle_beta 148.887417
_cell_angle_gamma 90.000000
_cell_volume 3091.269427
_symmetry_space_group_name_H-M "C 2/M"
_symmetry_group_IT_number 12
_symmetry_cell_setting 'monoclinic'
loop_
_space_group_symop_operation_xyz
x,y,z
-x,y,-z
-x,-y,-z
x,-y,z
1/2+x,1/2+y,z
1/2-x,1/2+y,-z
1/2-x,1/2-y,-z
1/2+x,1/2-y,z
loop_
_atom_site_type_symbol
_atom_site_label
_atom_site_fract_x
_atom_site_fract_y
_atom_site_fract_z
Si Si1 0.688631 0.813321 0.001122
Si Si2 0.270705 0.185421 0.779629
Si Si3 0.446282 0.185000 0.835834
Si Si4 0.800004 0.813580 0.172376
Si Si5 0.043671 0.182982 0.580679
Si Si6 0.150217 0.681622 0.328165
Si Si7 0.636310 0.180146 0.487995
Si Si8 0.957133 0.182257 0.663174
O O1 0.744152 0.749393 0.086808
O O2 0.690681 0.000000 0.000122
O O3 0.750000 0.750000 0.000000
O O4 0.566746 0.746304 0.917073
O O5 0.379383 0.252612 0.832434
O O6 0.258713 0.252006 0.823090
O O7 0.168447 0.229440 0.675348
O O8 0.278824 0.000000 0.788297
O O9 0.378571 0.232187 0.743467
O O10 0.455067 0.000000 0.847146
O O11 0.922559 0.754399 0.259724
O O12 0.796766 0.000000 0.169696
O O13 0.000000 0.229024 0.500000
O O14 0.978968 0.284584 0.571577
O O15 0.025270 0.000000 0.578112
O O16 0.124671 0.500000 0.318919
O O17 0.275710 0.713890 0.424577
O O18 0.075986 0.787417 0.308088
O O19 0.627241 0.223858 0.428017
O O20 0.669631 0.000000 0.516351
O O21 0.948895 0.000000 0.645483
#
# Coordination Sequence:
#
# PCOD8091870 Si02
#       8
#     8   8   8   8   8   8   8   8
#     4  10  20  36  58  88 117 147 185 232 283 337
#     4   9  16  31  54  83 114 146 185 232 280 329
#     4   9  19  34  56  85 116 145 186 233 279 335
#     4   9  18  32  56  85 115 146 185 234 286 337
#     4  10  19  34  58  82 111 154 197 235 281 339
#     4  11  22  37  55  80 112 150 191 237 288 344
#     4  12  24  37  54  81 114 149 190 240 290 340
#     4  11  21  37  57  81 112 150 192 236 285 346
#
# _framework density 20.703468999999998
#
# number of rings (size 3 to 8) (size 9 to 14) (size 15 to 20)
#    0.000    1.875    1.250    3.750    0.000    2.750 
#    0.000    3.750    0.000    0.750    0.000    0.875 
#    0.000    0.000    0.000    0.000    0.000    0.000 
#
# Total GULP energy -396794.401191 kJ/mol
# GULP energy per Si atom -12399.825037 kJ/mol
# Density = 2.065635 g / cm^3
# Si number density = 20.703469 Si / 1000 Ang^3
#
#
#
# Elastic Constant Matrix: (Units=GPa)
#
#
# Indices 1 2 3 4 5 6 
#
# 1 160.8031 12.2810 73.6579 0.0002 5.9769 0.0000
# 2 12.2810 29.6124 15.8206 0.0006 -2.5636 0.0004
# 3 73.6579 15.8206 147.2430 0.0000 -3.1802 0.0000
# 4 0.0002 0.0006 0.0000 10.4423 0.0000 1.0447
# 5 5.9769 -2.5636 -3.1802 0.0000 41.7070 0.0000
# 6 0.0000 0.0004 0.0000 1.0447 0.0000 26.8153
#
#
#
# Elastic Compliance Matrix: (Units=1/GPa)
#
#
# Indices 1 2 3 4 5 6 
#
# 1 0.008213 -0.001410 -0.003991 0.000000 -0.001568 0.000000
# 2 -0.001410 0.036221 -0.003139 -0.000002 0.002189 -0.000001
# 3 -0.003991 -0.003139 0.009148 0.000000 0.001077 0.000000
# 4 0.000000 -0.000002 0.000000 0.096139 0.000000 -0.003745
# 5 -0.001568 0.002189 0.001077 0.000000 0.024418 0.000000
# 6 0.000000 -0.000001 0.000000 -0.003745 0.000000 0.037438
#
#
# Mechanical properties :
#
#
# Convention : Reuss Voigt Hill
#
# Bulk Modulus (GPa) = 27.39535 60.13084 43.76310
# Shear Modulus (GPa) = 20.76199 31.51953 26.14076
#
# Velocity S-wave (km/s) = 3.17018 3.90606 3.55720
# Velocity P-wave (km/s) = 5.16343 7.03207 6.16891
#
# Compressibility (1/GPa) = 0.03650255
#
# Stress axis : x y z
#
# Youngs Moduli (GPa) = 121.76173 27.60835 109.30822
#
# Poissons Ratio (x) = 0.03892 0.43623
# Poissons Ratio (y) = 0.17164 0.34316
# Poissons Ratio (z) = 0.48593 0.08667
#
# Static dielectric constant tensor:
#      x y z
#    x 4.017080 0.000000 -0.002860 
#    y 0.000000 3.233410 0.000000 
#    z -0.002860 0.000000 3.921510 
# 
# 
# High freq. dielectric constant tensor:
#      x y z
#    x 1.826570 0.000000 -0.000090 
#    y 0.000000 1.760710 0.000000 
#    z -0.000090 0.000000 1.815610 
# 
# From -- ./inp_files/382510.got.cif
#   From: 2010.06.25/outbox.cif.g09.slc.cpg/sg12_192_cif.got.tgz:382510.got - 2010.06.28 00:19:55.
