data_PCOD8091131
_publ_section_title
;
Structure prediction by ZEFSAII (Michael W. Deem and Ramdas Pophale) SiO2 
 PCOD8091131
Probable space group: C 2/M
;
_chemical_formula_sum "Si O2"
_cell_formula_units_Z 64
_cell_length_a 22.916851
_cell_length_b 9.335757
_cell_length_c 21.208398
_cell_angle_alpha 90.000000
_cell_angle_beta 50.587530
_cell_angle_gamma 90.000000
_cell_volume 3505.617022
_symmetry_space_group_name_H-M "C 2/M"
_symmetry_group_IT_number 12
_symmetry_cell_setting 'monoclinic'
loop_
_space_group_symop_operation_xyz
x,y,z
-x,y,-z
-x,-y,-z
x,-y,z
1/2+x,1/2+y,z
1/2-x,1/2+y,-z
1/2-x,1/2-y,-z
1/2+x,1/2-y,z
loop_
_atom_site_type_symbol
_atom_site_label
_atom_site_fract_x
_atom_site_fract_y
_atom_site_fract_z
Si Si1 0.414760 0.829624 0.558557
Si Si2 0.653144 0.841437 0.522114
Si Si3 0.171261 0.158323 0.622007
Si Si4 0.696704 0.829837 0.255922
Si Si5 0.010060 0.663503 0.919499
Si Si6 0.701514 0.332208 0.123047
Si Si7 0.346900 0.330155 0.225197
Si Si8 0.858283 0.665702 0.950937
O O1 0.500000 0.772085 0.500000
O O2 0.376851 0.767118 0.521145
O O3 0.369485 0.778357 0.651289
O O4 0.410298 0.000000 0.559240
O O5 0.742509 0.850887 0.457409
O O6 0.626229 0.752721 0.601746
O O7 0.618156 0.000000 0.553724
O O8 0.164751 0.227455 0.695729
O O9 0.135137 0.000000 0.646373
O O10 0.683367 0.746468 0.200524
O O11 0.776554 0.781504 0.230717
O O12 0.694145 0.000000 0.245547
O O13 0.031420 0.500000 0.888989
O O14 0.076572 0.766185 0.853235
O O15 0.933796 0.709005 0.936100
O O16 0.000000 0.685590 0.000000
O O17 0.683237 0.500000 0.141807
O O18 0.647662 0.264968 0.106493
O O19 0.788699 0.304724 0.045679
O O20 0.352229 0.500000 0.221505
O O21 0.858767 0.500000 0.929375
#
# Coordination Sequence:
#
# PCOD8091131 Si02
#       8
#     8   8   8   8   8   8   8   8
#     4   9  17  32  54  77 101 134 176 220 259 307
#     4   9  16  30  52  75  99 129 172 214 254 308
#     4   9  17  31  50  73 102 135 167 210 263 306
#     4  10  19  34  55  78 106 140 180 221 264 315
#     4  10  21  37  56  80 111 141 172 218 268 309
#     4  10  20  35  58  83 106 138 178 220 261 306
#     4  10  20  34  53  77 107 143 179 218 265 319
#     4   9  19  37  57  78 108 143 177 212 258 314
#
# _framework density 18.256415000000001
#
# number of rings (size 3 to 8) (size 9 to 14) (size 15 to 20)
#    0.000    2.500    1.250    1.125    0.000    3.250 
#    2.250    0.625    0.000    0.750    0.000    0.000 
#    0.000    0.000    0.000    0.000    0.000    0.000 
#
# Total GULP energy -396764.086464 kJ/mol
# GULP energy per Si atom -12398.877702 kJ/mol
# Density = 1.821486 g / cm^3
# Si number density = 18.256415 Si / 1000 Ang^3
#
#
#
# Elastic Constant Matrix: (Units=GPa)
#
#
# Indices 1 2 3 4 5 6 
#
# 1 123.1907 43.3238 67.1302 0.0003 14.7224 0.0001
# 2 43.3238 47.4959 37.5629 0.0012 12.8179 -0.0020
# 3 67.1302 37.5629 91.8911 -0.0005 19.0643 0.0004
# 4 0.0003 0.0012 -0.0005 27.5175 0.0000 4.6052
# 5 14.7224 12.8179 19.0643 0.0000 37.2706 0.0004
# 6 0.0001 -0.0020 0.0004 4.6052 0.0004 21.9339
#
#
#
# Elastic Compliance Matrix: (Units=1/GPa)
#
#
# Indices 1 2 3 4 5 6 
#
# 1 0.015103 -0.007586 -0.008095 0.000000 0.000784 -0.000001
# 2 -0.007586 0.035674 -0.007962 -0.000002 -0.005200 0.000004
# 3 -0.008095 -0.007962 0.021054 0.000001 -0.004833 -0.000001
# 4 0.000000 -0.000002 0.000001 0.037664 0.000000 -0.007908
# 5 0.000784 -0.005200 -0.004833 0.000000 0.030782 -0.000001
# 6 -0.000001 0.000004 -0.000001 -0.007908 -0.000001 0.047252
#
#
# Mechanical properties :
#
#
# Convention : Reuss Voigt Hill
#
# Bulk Modulus (GPa) = 40.74207 62.06794 51.40500
# Shear Modulus (GPa) = 20.57654 24.98179 22.77916
#
# Velocity S-wave (km/s) = 3.36085 3.70318 3.53616
# Velocity P-wave (km/s) = 6.11763 7.23577 6.70007
#
# Compressibility (1/GPa) = 0.02454466
#
# Stress axis : x y z
#
# Youngs Moduli (GPa) = 66.21332 28.03161 47.49755
#
# Poissons Ratio (x) = 0.21263 0.38449
# Poissons Ratio (y) = 0.50226 0.37820
# Poissons Ratio (z) = 0.53599 0.22320
#
# Static dielectric constant tensor:
#      x y z
#    x 3.373870 0.000000 0.054680 
#    y 0.000000 3.334270 0.000000 
#    z 0.054680 0.000000 3.155710 
# 
# 
# High freq. dielectric constant tensor:
#      x y z
#    x 1.709330 0.000000 0.015820 
#    y 0.000000 1.687700 0.000000 
#    z 0.015820 0.000000 1.706670 
# 
# From -- ./inp_files/319758.got.cif
#   From: 2010.06.25/outbox.cif.g09.slc.cpg/sg12_160_cif.got.tgz:319758.got - 2010.06.28 00:19:55.
