data_PCOD8091534
_publ_section_title
;
Structure prediction by ZEFSAII (Michael W. Deem and Ramdas Pophale) SiO2 
 PCOD8091534
Probable space group: C 2/M
;
_chemical_formula_sum "Si O2"
_cell_formula_units_Z 64
_cell_length_a 29.486549
_cell_length_b 9.109566
_cell_length_c 18.295333
_cell_angle_alpha 90.000000
_cell_angle_beta 40.189698
_cell_angle_gamma 90.000000
_cell_volume 3171.299866
_symmetry_space_group_name_H-M "C 2/M"
_symmetry_group_IT_number 12
_symmetry_cell_setting 'monoclinic'
loop_
_space_group_symop_operation_xyz
x,y,z
-x,y,-z
-x,-y,-z
x,-y,z
1/2+x,1/2+y,z
1/2-x,1/2+y,-z
1/2-x,1/2-y,-z
1/2+x,1/2-y,z
loop_
_atom_site_type_symbol
_atom_site_label
_atom_site_fract_x
_atom_site_fract_y
_atom_site_fract_z
Si Si1 0.191811 0.675411 0.122994
Si Si2 0.805924 0.832780 0.729778
Si Si3 0.843609 0.334691 0.146777
Si Si4 0.600057 0.326748 0.516730
Si Si5 0.944964 0.169864 0.925142
Si Si6 0.683811 0.665651 0.550238
Si Si7 0.050649 0.827460 0.247983
Si Si8 0.408668 0.664352 0.196616
O O1 0.197311 0.500000 0.108471
O O2 0.204954 0.721479 0.190415
O O3 0.114770 0.730709 0.197275
O O4 0.250000 0.750000 0.000000
O O5 0.739884 0.823454 0.756932
O O6 0.872669 0.785291 0.597921
O O7 0.815289 0.000000 0.747636
O O8 0.870439 0.500000 0.112752
O O9 0.865392 0.268048 0.197068
O O10 0.877032 0.256318 0.035597
O O11 0.600652 0.500000 0.529136
O O12 0.651763 0.260689 0.515841
O O13 0.519530 0.273079 0.623502
O O14 0.961315 0.209236 0.821819
O O15 0.010273 0.214288 0.896570
O O16 0.927533 0.000000 0.954316
O O17 0.709024 0.500000 0.503730
O O18 0.750000 0.750000 0.500000
O O19 0.621561 0.669377 0.685149
O O20 0.066215 0.000000 0.242219
O O21 0.404541 0.500000 0.169424
#
# Coordination Sequence:
#
# PCOD8091534 Si02
#       8
#     8   8   8   8   8   8   8   8
#     4  12  26  44  66  93 123 154 194 245 303 365
#     4  10  22  41  63  88 121 159 199 243 294 353
#     4  11  23  36  54  84 119 156 198 248 301 349
#     4   9  18  37  64  89 118 159 205 245 288 355
#     4  10  20  36  58  84 114 154 201 246 292 351
#     4  10  19  34  56  84 118 158 203 248 292 343
#     4  10  20  39  67  93 118 155 203 250 298 355
#     4  10  20  35  55  81 115 155 200 244 291 351
#
# _framework density 20.180999
#
# number of rings (size 3 to 8) (size 9 to 14) (size 15 to 20)
#    0.000    1.750    1.250    3.375    0.000    7.500 
#    0.000    4.375    0.000    0.000    0.000    0.000 
#    0.000    0.000    0.000    0.000    0.000    0.000 
#
# Total GULP energy -396821.272537 kJ/mol
# GULP energy per Si atom -12400.664767 kJ/mol
# Density = 2.013507 g / cm^3
# Si number density = 20.180999 Si / 1000 Ang^3
#
#
#
# Elastic Constant Matrix: (Units=GPa)
#
#
# Indices 1 2 3 4 5 6 
#
# 1 104.0231 47.6948 40.9744 -0.0009 -1.1435 -0.0048
# 2 47.6948 73.3144 33.5311 -0.0132 1.6701 0.0054
# 3 40.9744 33.5311 118.9800 -0.0077 0.2758 0.0001
# 4 -0.0009 -0.0132 -0.0077 22.2742 0.0049 -1.0660
# 5 -1.1435 1.6701 0.2758 0.0049 34.5428 -0.0001
# 6 -0.0048 0.0054 0.0001 -1.0660 -0.0001 34.6918
#
#
#
# Elastic Compliance Matrix: (Units=1/GPa)
#
#
# Indices 1 2 3 4 5 6 
#
# 1 0.014426 -0.008187 -0.002663 -0.000005 0.000895 0.000003
# 2 -0.008187 0.020323 -0.002905 0.000011 -0.001230 -0.000004
# 3 -0.002663 -0.002905 0.010141 0.000002 -0.000029 0.000000
# 4 -0.000005 0.000011 0.000002 0.044961 -0.000007 0.001382
# 5 0.000895 -0.001230 -0.000029 -0.000007 0.029039 0.000000
# 6 0.000003 -0.000004 0.000000 0.001382 0.000000 0.028868
#
#
# Mechanical properties :
#
#
# Convention : Reuss Voigt Hill
#
# Bulk Modulus (GPa) = 57.54023 60.07980 58.81002
# Shear Modulus (GPa) = 27.61518 29.90958 28.76238
#
# Velocity S-wave (km/s) = 3.70317 3.85394 3.77931
# Velocity P-wave (km/s) = 6.84533 7.04549 6.94613
#
# Compressibility (1/GPa) = 0.01737914
#
# Stress axis : x y z
#
# Youngs Moduli (GPa) = 69.32026 49.20582 98.61438
#
# Poissons Ratio (x) = 0.40286 0.26258
# Poissons Ratio (y) = 0.56755 0.28647
# Poissons Ratio (z) = 0.18458 0.14294
#
# Static dielectric constant tensor:
#      x y z
#    x 3.686750 -0.000010 -0.082690 
#    y -0.000010 3.500920 0.000010 
#    z -0.082690 0.000010 3.889070 
# 
# 
# High freq. dielectric constant tensor:
#      x y z
#    x 1.793770 0.000000 -0.001280 
#    y 0.000000 1.760170 0.000000 
#    z -0.001280 0.000000 1.804580 
# 
# From -- ./inp_files/295474.got.cif
#   From: 2010.06.25/outbox.cif.g09.slc.cpg/sg12_148_cif.got.tgz:295474.got - 2010.06.28 00:19:55.
