data_PCOD8091003
_publ_section_title
;
Structure prediction by ZEFSAII (Michael W. Deem and Ramdas Pophale) SiO2 
 PCOD8091003
Probable space group: C 2/M
;
_chemical_formula_sum "Si O2"
_cell_formula_units_Z 52
_cell_length_a 17.590949
_cell_length_b 16.409638
_cell_length_c 14.168435
_cell_angle_alpha 90.000000
_cell_angle_beta 43.393798
_cell_angle_gamma 90.000000
_cell_volume 2809.781115
_symmetry_space_group_name_H-M "C 2/M"
_symmetry_group_IT_number 12
_symmetry_cell_setting 'monoclinic'
loop_
_space_group_symop_operation_xyz
x,y,z
-x,y,-z
-x,-y,-z
x,-y,z
1/2+x,1/2+y,z
1/2-x,1/2+y,-z
1/2-x,1/2-y,-z
1/2+x,1/2-y,z
loop_
_atom_site_type_symbol
_atom_site_label
_atom_site_fract_x
_atom_site_fract_y
_atom_site_fract_z
Si Si1 0.999718 0.782951 0.261923
Si Si2 0.078194 0.326704 0.020928
Si Si3 0.630627 0.500000 0.373204
Si Si4 0.902966 0.704439 0.532529
Si Si5 0.013840 0.500000 0.097540
Si Si6 0.218895 0.500000 0.591401
Si Si7 0.325240 0.667917 0.753406
Si Si8 0.772939 0.161081 0.433287
O O1 0.034728 0.733544 0.139113
O O2 0.105469 0.827583 0.211866
O O3 0.948498 0.724821 0.387799
O O4 0.906372 0.847789 0.310158
O O5 0.079273 0.417557 0.065978
O O6 0.201632 0.299747 0.881657
O O7 0.000000 0.321516 0.000000
O O8 0.500000 0.500000 0.500000
O O9 0.674132 0.500000 0.439778
O O10 0.679708 0.575203 0.272519
O O11 0.882338 0.783226 0.616427
O O12 0.786103 0.658864 0.617804
O O13 0.000000 0.652883 0.500000
O O14 0.893008 0.500000 0.250082
O O15 0.000000 0.500000 0.000000
O O16 0.220563 0.583795 0.532257
O O17 0.750000 0.250000 0.500000
#
# Coordination Sequence:
#
# PCOD8091003 Si02
#       8
#     8   8   4   8   4   4   8   8
#     4  10  20  34  53  78 108 144 184 225 273 329
#     4  11  21  35  53  78 109 147 184 228 283 339
#     4  12  20  32  52  81 115 145 176 226 287 339
#     4   9  18  34  54  77 107 143 183 227 271 322
#     4  10  20  32  48  75 109 137 171 220 278 336
#     4  12  22  34  55  84 110 144 185 228 280 337
#     4  11  21  34  53  81 112 145 184 229 277 337
#     4  10  19  34  54  78 108 142 178 224 274 328
#
# _framework density 18.506779999999999
#
# number of rings (size 3 to 8) (size 9 to 14) (size 15 to 20)
#    0.000    1.538    0.000    9.692    0.000    0.000 
#    0.000    0.385    0.000    2.769    0.000   14.000 
#    0.000    0.000    0.000    0.000    0.000    0.000 
#
# Total GULP energy -322145.167923 kJ/mol
# GULP energy per Si atom -12390.198766 kJ/mol
# Density = 1.846466 g / cm^3
# Si number density = 18.506780 Si / 1000 Ang^3
#
#
#
# Elastic Constant Matrix: (Units=GPa)
#
#
# Indices 1 2 3 4 5 6 
#
# 1 175.9085 33.3249 41.0058 0.0000 -17.7171 0.0000
# 2 33.3249 85.6899 28.3643 0.0000 13.4883 0.0000
# 3 41.0058 28.3643 108.0920 0.0000 -4.4797 0.0000
# 4 0.0000 0.0000 0.0000 31.4507 0.0000 1.6929
# 5 -17.7171 13.4883 -4.4797 0.0000 34.3999 0.0000
# 6 0.0000 0.0000 0.0000 1.6929 0.0000 22.1284
#
#
#
# Elastic Compliance Matrix: (Units=1/GPa)
#
#
# Indices 1 2 3 4 5 6 
#
# 1 0.007101 -0.002904 -0.001743 0.000000 0.004569 0.000000
# 2 -0.002904 0.015084 -0.003181 0.000000 -0.007824 0.000000
# 3 -0.001743 -0.003181 0.010820 0.000000 0.001759 0.000000
# 4 0.000000 0.000000 0.000000 0.031927 0.000000 -0.002443
# 5 0.004569 -0.007824 0.001759 0.000000 0.034720 0.000000
# 6 0.000000 0.000000 0.000000 -0.002443 0.000000 0.045378
#
#
# Mechanical properties :
#
#
# Convention : Reuss Voigt Hill
#
# Bulk Modulus (GPa) = 57.63547 63.89782 60.76665
# Shear Modulus (GPa) = 30.03568 35.39547 32.71558
#
# Velocity S-wave (km/s) = 4.03296 4.37804 4.20904
# Velocity P-wave (km/s) = 7.27302 7.75615 7.51847
#
# Compressibility (1/GPa) = 0.01735043
#
# Stress axis : x y z
#
# Youngs Moduli (GPa) = 140.81810 66.29584 92.42179
#
# Poissons Ratio (x) = 0.19253 0.16105
# Poissons Ratio (y) = 0.40896 0.29397
# Poissons Ratio (z) = 0.24538 0.21087
#
# Static dielectric constant tensor:
#      x y z
#    x 4.227770 0.000000 -0.404540 
#    y 0.000000 3.179500 0.000000 
#    z -0.404540 0.000000 3.385480 
# 
# 
# High freq. dielectric constant tensor:
#      x y z
#    x 1.738110 0.000000 -0.021280 
#    y 0.000000 1.687230 0.000000 
#    z -0.021280 0.000000 1.713050 
# 
# From -- ./inp_files/225647.got.cif
#   From: 2010.06.25/outbox.cif.g09.slc.cpg/sg12_113_cif.got.tgz:225647.got - 2010.06.28 00:19:55.
