data_PCOD8091147
_publ_section_title
;
Structure prediction by ZEFSAII (Michael W. Deem and Ramdas Pophale) SiO2 
 PCOD8091147
Probable space group: C 2/M
;
_chemical_formula_sum "Si O2"
_cell_formula_units_Z 32
_cell_length_a 9.412018
_cell_length_b 18.792441
_cell_length_c 10.127693
_cell_angle_alpha 90.000000
_cell_angle_beta 85.161025
_cell_angle_gamma 90.000000
_cell_volume 1784.948766
_symmetry_space_group_name_H-M "C 2/M"
_symmetry_group_IT_number 12
_symmetry_cell_setting 'monoclinic'
loop_
_space_group_symop_operation_xyz
x,y,z
-x,y,-z
-x,-y,-z
x,-y,z
1/2+x,1/2+y,z
1/2-x,1/2+y,-z
1/2-x,1/2-y,-z
1/2+x,1/2-y,z
loop_
_atom_site_type_symbol
_atom_site_label
_atom_site_fract_x
_atom_site_fract_y
_atom_site_fract_z
Si Si1 0.150830 0.081797 0.056644
Si Si2 0.036989 0.306011 0.640069
Si Si3 0.379764 0.176554 0.901878
Si Si4 0.666991 0.696189 0.259296
O O1 0.144192 0.117920 0.201496
O O2 0.190593 0.000000 0.075185
O O3 0.271912 0.116054 0.955544
O O4 0.000000 0.091830 0.000000
O O5 0.961483 0.351957 0.762683
O O6 0.973891 0.224922 0.654523
O O7 0.000000 0.339100 0.500000
O O8 0.206040 0.304020 0.645084
O O9 0.298130 0.250558 0.868458
O O10 0.500000 0.193838 0.000000
#
# Coordination Sequence:
#
# PCOD8091147 Si02
#       4
#     8   8   8   8
#     4  11  21  34  54  82 109 138 175 221 269 317
#     4  10  21  33  55  85 106 138 179 219 265 308
#     4  10  20  34  57  81 106 137 177 223 266 307
#     4  10  19  34  55  78 113 134 178 219 266 304
#
# _framework density 17.927685
#
# number of rings (size 3 to 8) (size 9 to 14) (size 15 to 20)
#    1.500    0.250    2.500    3.750    0.000    0.500 
#    0.000    0.000    0.000    3.750    0.000    0.000 
#    0.000    0.000    0.000    0.000    0.000    0.000 
#
# Total GULP energy -198281.987885 kJ/mol
# GULP energy per Si atom -12392.624243 kJ/mol
# Density = 1.788688 g / cm^3
# Si number density = 17.927685 Si / 1000 Ang^3
#
#
#
# Elastic Constant Matrix: (Units=GPa)
#
#
# Indices 1 2 3 4 5 6 
#
# 1 76.1357 36.4323 26.4623 0.0000 28.6153 0.0000
# 2 36.4323 80.5791 20.8027 0.0000 14.8126 0.0000
# 3 26.4623 20.8027 112.6765 0.0000 22.4681 0.0000
# 4 0.0000 0.0000 0.0000 7.2196 0.0000 -1.1027
# 5 28.6153 14.8126 22.4681 0.0000 33.3357 0.0000
# 6 0.0000 0.0000 0.0000 -1.1027 0.0000 21.2586
#
#
#
# Elastic Compliance Matrix: (Units=1/GPa)
#
#
# Indices 1 2 3 4 5 6 
#
# 1 0.022817 -0.007184 -0.000882 0.000000 -0.015799 0.000000
# 2 -0.007184 0.015999 -0.001246 0.000000 -0.000102 0.000000
# 3 -0.000882 -0.001246 0.010456 0.000000 -0.005737 0.000000
# 4 0.000000 0.000000 0.000000 0.139617 0.000000 0.007242
# 5 -0.015799 -0.000102 -0.005737 0.000000 0.047472 0.000000
# 6 0.000000 0.000000 0.000000 0.007242 0.000000 0.047415
#
#
# Mechanical properties :
#
#
# Convention : Reuss Voigt Hill
#
# Bulk Modulus (GPa) = 32.62910 48.53175 40.58042
# Shear Modulus (GPa) = 15.99405 24.74238 20.36821
#
# Velocity S-wave (km/s) = 2.99012 3.71903 3.37431
# Velocity P-wave (km/s) = 5.49190 6.75064 6.15354
#
# Compressibility (1/GPa) = 0.03064749
#
# Stress axis : x y z
#
# Youngs Moduli (GPa) = 43.82743 62.50441 95.63851
#
# Poissons Ratio (x) = 0.44904 0.08433
# Poissons Ratio (y) = 0.31486 0.11918
# Poissons Ratio (z) = 0.03865 0.07789
#
# Static dielectric constant tensor:
#      x y z
#    x 3.405040 0.000000 0.039940 
#    y 0.000000 2.981680 0.000000 
#    z 0.039940 0.000000 3.251750 
# 
# 
# High freq. dielectric constant tensor:
#      x y z
#    x 1.706800 0.000000 0.009710 
#    y 0.000000 1.645410 0.000000 
#    z 0.009710 0.000000 1.694450 
# 
# From -- ./inp_files/38431.got.cif
#   From: 2010.06.25/outbox.cif.g09.slc.cpg/sg12_20_cif.got.tgz:38431.got - 2010.06.28 00:19:55.
