data_PCOD8091072
_publ_section_title
;
Structure prediction by ZEFSAII (Michael W. Deem and Ramdas Pophale) SiO2 
 PCOD8091072
Probable space group: C 2/M
;
_chemical_formula_sum "Si O2"
_cell_formula_units_Z 64
_cell_length_a 14.980043
_cell_length_b 9.282516
_cell_length_c 24.093020
_cell_angle_alpha 90.000000
_cell_angle_beta 92.173252
_cell_angle_gamma 90.000000
_cell_volume 3347.784695
_symmetry_space_group_name_H-M "C 2/M"
_symmetry_group_IT_number 12
_symmetry_cell_setting 'monoclinic'
loop_
_space_group_symop_operation_xyz
x,y,z
-x,y,-z
-x,-y,-z
x,-y,z
1/2+x,1/2+y,z
1/2-x,1/2+y,-z
1/2-x,1/2-y,-z
1/2+x,1/2-y,z
loop_
_atom_site_type_symbol
_atom_site_label
_atom_site_fract_x
_atom_site_fract_y
_atom_site_fract_z
Si Si1 0.898892 0.333101 0.728628
Si Si2 0.852709 0.659096 0.395790
Si Si3 0.904230 0.666869 0.282066
Si Si4 0.237346 0.667917 0.921000
Si Si5 0.103676 0.831047 0.993803
Si Si6 0.242590 0.170854 0.205317
Si Si7 0.350473 0.338768 0.621584
Si Si8 0.395177 0.661674 0.502141
O O1 0.870007 0.500000 0.727820
O O2 0.845497 0.245751 0.773365
O O3 0.890051 0.270309 0.666901
O O4 0.002520 0.312655 0.747307
O O5 0.889843 0.500000 0.411797
O O6 0.906748 0.731998 0.345295
O O7 0.753680 0.648769 0.369514
O O8 0.851899 0.751475 0.451209
O O9 0.881697 0.500000 0.290701
O O10 0.827163 0.733192 0.241435
O O11 0.215517 0.500000 0.926506
O O12 0.151664 0.751151 0.943735
O O13 0.245865 0.717037 0.857862
O O14 0.333179 0.704230 0.951664
O O15 0.102607 0.000000 0.980446
O O16 0.000000 0.778186 0.000000
O O17 0.231276 0.000000 0.210850
O O18 0.393503 0.500000 0.627693
O O19 0.368656 0.272099 0.561005
O O20 0.500000 0.666070 0.500000
O O21 0.357017 0.500000 0.497445
#
# Coordination Sequence:
#
# PCOD8091072 Si02
#       8
#     8   8   8   8   8   8   8   8
#     4  11  22  35  55  82 106 134 180 229 273 320
#     4  10  19  34  55  73  95 136 180 212 264 333
#     4   9  19  36  55  75 104 141 176 220 274 324
#     4   9  19  34  56  83 108 149 195 223 262 322
#     4   9  18  34  55  82 119 153 181 226 279 316
#     4  10  20  39  59  76 110 150 185 223 268 327
#     4  10  20  36  55  73 101 142 176 210 273 338
#     4  10  21  34  49  75 106 131 166 222 276 321
#
# _framework density 19.11712
#
# number of rings (size 3 to 8) (size 9 to 14) (size 15 to 20)
#    0.000    2.250    1.250    1.500    0.000    3.000 
#    0.000    1.875    0.000    0.000    0.000    0.000 
#    0.000    0.000    0.000    0.000    0.000    0.000 
#
# Total GULP energy -396674.561194 kJ/mol
# GULP energy per Si atom -12396.080037 kJ/mol
# Density = 1.907361 g / cm^3
# Si number density = 19.117120 Si / 1000 Ang^3
#
#
#
# Elastic Constant Matrix: (Units=GPa)
#
#
# Indices 1 2 3 4 5 6 
#
# 1 108.4259 30.6352 53.3050 0.0000 -22.2518 0.0000
# 2 30.6352 52.3062 45.4986 0.0000 -8.4877 0.0000
# 3 53.3050 45.4986 151.7262 0.0000 -21.4904 0.0000
# 4 0.0000 0.0000 0.0000 31.5960 0.0000 -4.8325
# 5 -22.2518 -8.4877 -21.4904 0.0000 22.4494 0.0000
# 6 0.0000 0.0000 0.0000 -4.8325 0.0000 28.7255
#
#
#
# Elastic Compliance Matrix: (Units=1/GPa)
#
#
# Indices 1 2 3 4 5 6 
#
# 1 0.013496 -0.004599 -0.001983 0.000000 0.009740 0.000000
# 2 -0.004599 0.027577 -0.006736 0.000000 -0.000581 0.000000
# 3 -0.001983 -0.006736 0.010028 0.000000 0.005088 0.000000
# 4 0.000000 0.000000 0.000000 0.032485 0.000000 0.005465
# 5 0.009740 -0.000581 0.005088 0.000000 0.058850 0.000000
# 6 0.000000 0.000000 0.000000 0.005465 0.000000 0.035732
#
#
# Mechanical properties :
#
#
# Convention : Reuss Voigt Hill
#
# Bulk Modulus (GPa) = 40.87456 63.48176 52.17816
# Shear Modulus (GPa) = 23.47867 28.75547 26.11707
#
# Velocity S-wave (km/s) = 3.50830 3.88258 3.70017
# Velocity P-wave (km/s) = 6.15129 7.30603 6.75339
#
# Compressibility (1/GPa) = 0.02446509
#
# Stress axis : x y z
#
# Youngs Moduli (GPa) = 74.09533 36.26197 99.72151
#
# Poissons Ratio (x) = 0.16678 0.19771
# Poissons Ratio (y) = 0.34079 0.67173
# Poissons Ratio (z) = 0.14691 0.24426
#
# Static dielectric constant tensor:
#      x y z
#    x 3.549510 0.000000 -0.045310 
#    y 0.000000 3.382660 0.000000 
#    z -0.045310 0.000000 3.573110 
# 
# 
# High freq. dielectric constant tensor:
#      x y z
#    x 1.749340 0.000000 -0.009140 
#    y 0.000000 1.722290 0.000000 
#    z -0.009140 0.000000 1.744670 
# 
# From -- ./inp_files/338703.got.cif
#   From: 2010.06.25/outbox.cif.g09.slc.cpg/sg12_170_cif.got.tgz:338703.got - 2010.06.28 00:19:55.
