data_PCOD8091978
_publ_section_title
;
Structure prediction by ZEFSAII (Michael W. Deem and Ramdas Pophale) SiO2 
 PCOD8091978
Probable space group: C 2/M
;
_chemical_formula_sum "Si O2"
_cell_formula_units_Z 52
_cell_length_a 17.516785
_cell_length_b 19.661021
_cell_length_c 9.323815
_cell_angle_alpha 90.000000
_cell_angle_beta 124.903383
_cell_angle_gamma 90.000000
_cell_volume 2633.482927
_symmetry_space_group_name_H-M "C 2/M"
_symmetry_group_IT_number 12
_symmetry_cell_setting 'monoclinic'
loop_
_space_group_symop_operation_xyz
x,y,z
-x,y,-z
-x,-y,-z
x,-y,z
1/2+x,1/2+y,z
1/2-x,1/2+y,-z
1/2-x,1/2-y,-z
1/2+x,1/2-y,z
loop_
_atom_site_type_symbol
_atom_site_label
_atom_site_fract_x
_atom_site_fract_y
_atom_site_fract_z
Si Si1 0.768311 0.000000 0.949368
Si Si2 0.846103 0.745731 0.520664
Si Si3 0.497844 0.853902 0.325844
Si Si4 0.379915 0.398666 0.248446
Si Si5 0.157636 0.253123 0.812393
Si Si6 0.897723 0.000000 0.818387
Si Si7 0.915405 0.894934 0.601230
Si Si8 0.047488 0.500000 0.704187
O O1 0.817612 0.000000 0.849756
O O2 0.658582 0.000000 0.806999
O O3 0.798029 0.066980 0.069518
O O4 0.750000 0.750000 0.500000
O O5 0.909527 0.681579 0.639863
O O6 0.819836 0.731497 0.328318
O O7 0.906185 0.813871 0.612429
O O8 0.500000 0.854129 0.500000
O O9 0.408325 0.809424 0.185506
O O10 0.486397 0.930894 0.251694
O O11 0.391001 0.319351 0.230107
O O12 0.360316 0.414213 0.395476
O O13 0.480489 0.424584 0.306034
O O14 0.250000 0.250000 0.000000
O O15 0.877146 0.066674 0.699807
O O16 0.000000 0.000000 0.000000
O O17 0.000000 0.500000 0.500000
#
# Coordination Sequence:
#
# PCOD8091978 Si02
#       8
#     4   8   8   8   8   4   8   4
#     4  12  23  36  59  93 122 153 207 254 303 365
#     4  10  21  38  59  86 117 158 200 243 299 362
#     4   9  18  36  58  80 114 153 197 237 285 356
#     4  10  19  35  59  81 116 162 207 244 294 372
#     4  10  19  34  58  86 113 152 204 250 291 344
#     4  12  23  35  53  92 133 156 188 251 324 362
#     4  10  20  37  56  82 122 167 195 240 313 371
#     4  10  22  37  57  85 117 160 199 245 300 354
#
# _framework density 19.745715000000001
#
# number of rings (size 3 to 8) (size 9 to 14) (size 15 to 20)
#    0.000    1.846    3.077    1.385    0.000    6.154 
#    0.000    0.769    0.000    0.000    0.000   16.154 
#    0.000    0.000    0.000    0.000    0.000    0.000 
#
# Total GULP energy -322238.599988 kJ/mol
# GULP energy per Si atom -12393.792307 kJ/mol
# Density = 1.970077 g / cm^3
# Si number density = 19.745715 Si / 1000 Ang^3
#
#
#
# Elastic Constant Matrix: (Units=GPa)
#
#
# Indices 1 2 3 4 5 6 
#
# 1 115.3722 57.1997 47.0854 0.0000 15.0356 0.0000
# 2 57.1997 152.0856 50.8038 0.0000 7.0700 0.0000
# 3 47.0854 50.8038 107.1146 0.0000 15.0322 0.0000
# 4 0.0000 0.0000 0.0000 21.1195 0.0000 5.0258
# 5 15.0356 7.0700 15.0322 0.0000 33.0362 0.0000
# 6 0.0000 0.0000 0.0000 5.0258 0.0000 22.7035
#
#
#
# Elastic Compliance Matrix: (Units=1/GPa)
#
#
# Indices 1 2 3 4 5 6 
#
# 1 0.012067 -0.003289 -0.003282 0.000000 -0.003295 0.000000
# 2 -0.003289 0.008710 -0.002813 0.000000 0.000913 0.000000
# 3 -0.003282 -0.002813 0.012625 0.000000 -0.003649 0.000000
# 4 0.000000 0.000000 0.000000 0.049982 0.000000 -0.011064
# 5 -0.003295 0.000913 -0.003649 0.000000 0.033234 0.000000
# 6 0.000000 0.000000 0.000000 -0.011064 0.000000 0.046495
#
#
# Mechanical properties :
#
#
# Convention : Reuss Voigt Hill
#
# Bulk Modulus (GPa) = 68.33930 76.08337 72.21133
# Shear Modulus (GPa) = 26.77232 30.00406 28.38819
#
# Velocity S-wave (km/s) = 3.68619 3.90233 3.79580
# Velocity P-wave (km/s) = 7.26651 7.67590 7.47401
#
# Compressibility (1/GPa) = 0.01463287
#
# Stress axis : x y z
#
# Youngs Moduli (GPa) = 82.87015 114.81677 79.20816
#
# Poissons Ratio (x) = 0.37762 0.25997
# Poissons Ratio (y) = 0.27255 0.22284
# Poissons Ratio (z) = 0.27199 0.32301
#
# Static dielectric constant tensor:
#      x y z
#    x 3.309450 0.000000 0.035380 
#    y 0.000000 3.822340 0.000000 
#    z 0.035380 0.000000 3.483790 
# 
# 
# High freq. dielectric constant tensor:
#      x y z
#    x 1.740090 0.000000 0.014340 
#    y 0.000000 1.787590 0.000000 
#    z 0.014340 0.000000 1.760450 
# 
# From -- ./inp_files/78110.got.cif
#   From: 2010.06.25/outbox.cif.g09.slc.cpg/sg12_40_cif.got.tgz:78110.got - 2010.06.28 00:19:55.
