data_PCOD8091807
_publ_section_title
;
Structure prediction by ZEFSAII (Michael W. Deem and Ramdas Pophale) SiO2 
 PCOD8091807
Probable space group: C 2/M
;
_chemical_formula_sum "Si O2"
_cell_formula_units_Z 48
_cell_length_a 15.214032
_cell_length_b 9.587406
_cell_length_c 28.566610
_cell_angle_alpha 90.000000
_cell_angle_beta 147.461297
_cell_angle_gamma 90.000000
_cell_volume 2241.201063
_symmetry_space_group_name_H-M "C 2/M"
_symmetry_group_IT_number 12
_symmetry_cell_setting 'monoclinic'
loop_
_space_group_symop_operation_xyz
x,y,z
-x,y,-z
-x,-y,-z
x,-y,z
1/2+x,1/2+y,z
1/2-x,1/2+y,-z
1/2-x,1/2-y,-z
1/2+x,1/2-y,z
loop_
_atom_site_type_symbol
_atom_site_label
_atom_site_fract_x
_atom_site_fract_y
_atom_site_fract_z
Si Si1 0.721069 0.656626 0.360251
Si Si2 0.710832 0.844167 0.265965
Si Si3 0.274739 0.842594 0.556768
Si Si4 0.327798 0.658868 0.907431
Si Si5 0.143123 0.343132 0.918632
Si Si6 0.914237 0.770903 0.273175
O O1 0.796088 0.500000 0.391476
O O2 0.745186 0.731114 0.321322
O O3 0.812470 0.754457 0.440181
O O4 0.529477 0.639249 0.289775
O O5 0.546182 0.799892 0.164618
O O6 0.857864 0.851802 0.294604
O O7 0.689435 0.000000 0.278339
O O8 0.250000 0.750000 0.500000
O O9 0.468887 0.855819 0.656337
O O10 0.202915 0.000000 0.519205
O O11 0.365953 0.500000 0.911419
O O12 0.196730 0.674393 0.889309
O O13 0.251265 0.726827 0.827041
O O14 0.500000 0.730985 0.000000
O O15 0.169306 0.500000 0.948063
O O16 0.250000 0.250000 0.000000
#
# Coordination Sequence:
#
# PCOD8091807 Si02
#       6
#     8   8   8   8   8   8
#     4  10  22  39  62  90 123 158 202 252 303 367
#     4  11  22  39  62  87 122 163 205 256 315 371
#     4  10  21  39  67  95 127 166 205 253 311 368
#     4  10  19  34  57  85 121 162 205 254 308 366
#     4  10  20  35  53  80 116 157 204 257 310 367
#     4  10  22  38  64  89 126 160 210 250 314 366
#
# _framework density 21.417086999999999
#
# number of rings (size 3 to 8) (size 9 to 14) (size 15 to 20)
#    1.000    0.833    1.667    3.000    0.000    2.000 
#    0.000    0.833    0.000    7.500    0.000    0.000 
#    0.000    0.000    0.000    0.000    0.000    0.000 
#
# Total GULP energy -297315.173184 kJ/mol
# GULP energy per Si atom -12388.132216 kJ/mol
# Density = 2.136834 g / cm^3
# Si number density = 21.417087 Si / 1000 Ang^3
#
#
#
# Elastic Constant Matrix: (Units=GPa)
#
#
# Indices 1 2 3 4 5 6 
#
# 1 65.9211 8.5830 -1.2173 0.0001 -16.2138 0.0000
# 2 8.5830 128.6006 30.6565 0.0000 -33.7902 0.0000
# 3 -1.2173 30.6565 73.5557 -0.0001 -26.9309 0.0000
# 4 0.0001 0.0000 -0.0001 28.1763 0.0000 -4.5889
# 5 -16.2138 -33.7902 -26.9309 0.0000 34.0395 0.0000
# 6 0.0000 0.0000 0.0000 -4.5889 0.0000 22.1114
#
#
#
# Elastic Compliance Matrix: (Units=1/GPa)
#
#
# Indices 1 2 3 4 5 6 
#
# 1 0.018525 0.001262 0.004885 0.000000 0.013942 0.000000
# 2 0.001262 0.010639 -0.000459 0.000000 0.010799 0.000000
# 3 0.004885 -0.000459 0.020487 0.000000 0.018079 0.000000
# 4 0.000000 0.000000 0.000000 0.036732 0.000000 0.007623
# 5 0.013942 0.010799 0.018079 0.000000 0.061041 0.000000
# 6 0.000000 0.000000 0.000000 0.007623 0.000000 0.046808
#
#
# Mechanical properties :
#
#
# Convention : Reuss Voigt Hill
#
# Bulk Modulus (GPa) = 16.38660 38.23574 27.31117
# Shear Modulus (GPa) = 24.60659 32.20245 28.40452
#
# Velocity S-wave (km/s) = 3.39325 3.88182 3.64573
# Velocity P-wave (km/s) = 4.79792 6.16304 5.52282
#
# Compressibility (1/GPa) = 0.06102549
#
# Stress axis : x y z
#
# Youngs Moduli (GPa) = 53.98246 93.99708 48.81205
#
# Poissons Ratio (x) = -0.11866 -0.23844
# Poissons Ratio (y) = -0.06814 0.02242
# Poissons Ratio (z) = -0.26370 0.04318
#
# Static dielectric constant tensor:
#      x y z
#    x 3.819980 0.000000 -0.031070 
#    y 0.000000 3.652270 0.000000 
#    z -0.031070 0.000000 3.793160 
# 
# 
# High freq. dielectric constant tensor:
#      x y z
#    x 1.836740 0.000000 -0.006020 
#    y 0.000000 1.822440 0.000000 
#    z -0.006020 0.000000 1.836860 
# 
# From -- ./inp_files/360311.got.cif
#   From: 2010.06.25/outbox.cif.g09.slc.cpg/sg12_181_cif.got.tgz:360311.got - 2010.06.28 00:19:55.
