data_PCOD8091114
_publ_section_title
;
Structure prediction by ZEFSAII (Michael W. Deem and Ramdas Pophale) SiO2 
 PCOD8091114
Probable space group: C 2/M
;
_chemical_formula_sum "Si O2"
_cell_formula_units_Z 48
_cell_length_a 19.711834
_cell_length_b 9.084776
_cell_length_c 14.526684
_cell_angle_alpha 90.000000
_cell_angle_beta 99.234120
_cell_angle_gamma 90.000000
_cell_volume 2567.691752
_symmetry_space_group_name_H-M "C 2/M"
_symmetry_group_IT_number 12
_symmetry_cell_setting 'monoclinic'
loop_
_space_group_symop_operation_xyz
x,y,z
-x,y,-z
-x,-y,-z
x,-y,z
1/2+x,1/2+y,z
1/2-x,1/2+y,-z
1/2-x,1/2-y,-z
1/2+x,1/2-y,z
loop_
_atom_site_type_symbol
_atom_site_label
_atom_site_fract_x
_atom_site_fract_y
_atom_site_fract_z
Si Si1 0.694133 0.330748 0.428122
Si Si2 0.373913 0.174430 0.268993
Si Si3 0.597756 0.325563 0.080979
Si Si4 0.076264 0.169665 0.539836
Si Si5 0.218656 0.174648 0.230697
Si Si6 0.952371 0.825804 0.124278
O O1 0.716421 0.500000 0.430251
O O2 0.750000 0.250000 0.500000
O O3 0.619144 0.309471 0.455509
O O4 0.694222 0.265591 0.324913
O O5 0.391366 0.230302 0.374277
O O6 0.296409 0.225379 0.226725
O O7 0.426225 0.243149 0.208205
O O8 0.380866 0.000000 0.269191
O O9 0.599315 0.500000 0.080952
O O10 0.666777 0.259113 0.142425
O O11 0.531133 0.276887 0.125089
O O12 0.592120 0.272815 0.973933
O O13 0.000000 0.224127 0.500000
O O14 0.076660 0.000000 0.572965
O O15 0.213138 0.000000 0.227961
O O16 0.946173 0.000000 0.138658
#
# Coordination Sequence:
#
# PCOD8091114 Si02
#       6
#     8   8   8   8   8   8
#     4  10  19  34  55  77 105 140 172 212 260 310
#     4  11  22  35  52  77 110 145 172 209 266 318
#     4   8  16  33  57  81 102 134 178 221 262 306
#     4  10  22  37  56  81 104 135 180 224 261 301
#     4   9  18  32  52  77 106 140 176 210 257 316
#     4   9  18  34  58  82 104 133 176 224 262 304
#
# _framework density 18.693833000000001
#
# number of rings (size 3 to 8) (size 9 to 14) (size 15 to 20)
#    0.000    2.500    1.667    1.500    2.333    1.000 
#    0.000    1.667    0.000    4.000    0.000    0.000 
#    0.000    0.000    0.000    0.000    0.000    0.000 
#
# Total GULP energy -297556.158800 kJ/mol
# GULP energy per Si atom -12398.173283 kJ/mol
# Density = 1.865128 g / cm^3
# Si number density = 18.693833 Si / 1000 Ang^3
#
#
#
# Elastic Constant Matrix: (Units=GPa)
#
#
# Indices 1 2 3 4 5 6 
#
# 1 89.2619 19.2004 11.7977 0.0000 12.3810 0.0000
# 2 19.2004 37.6762 14.0974 0.0000 -1.1054 0.0000
# 3 11.7977 14.0974 54.4570 0.0000 2.0281 0.0000
# 4 0.0000 0.0000 0.0000 24.1857 0.0000 0.3648
# 5 12.3810 -1.1054 2.0281 0.0000 40.9453 0.0000
# 6 0.0000 0.0000 0.0000 0.3648 0.0000 20.7764
#
#
#
# Elastic Compliance Matrix: (Units=1/GPa)
#
#
# Indices 1 2 3 4 5 6 
#
# 1 0.013319 -0.006519 -0.001043 0.000000 -0.004152 0.000000
# 2 -0.006519 0.032636 -0.007156 0.000000 0.003207 0.000000
# 3 -0.001043 -0.007156 0.020475 0.000000 -0.000892 0.000000
# 4 0.000000 0.000000 0.000000 0.041358 0.000000 -0.000726
# 5 -0.004152 0.003207 -0.000892 0.000000 0.025809 0.000000
# 6 0.000000 0.000000 0.000000 -0.000726 0.000000 0.048144
#
#
# Mechanical properties :
#
#
# Convention : Reuss Voigt Hill
#
# Bulk Modulus (GPa) = 27.03167 30.17623 28.60395
# Shear Modulus (GPa) = 22.37065 26.26814 24.31939
#
# Velocity S-wave (km/s) = 3.46307 3.75264 3.61076
# Velocity P-wave (km/s) = 5.52106 5.91217 5.71996
#
# Compressibility (1/GPa) = 0.03699364
#
# Stress axis : x y z
#
# Youngs Moduli (GPa) = 75.08074 30.64132 48.84070
#
# Poissons Ratio (x) = 0.19975 0.05095
# Poissons Ratio (y) = 0.48945 0.34948
# Poissons Ratio (z) = 0.07833 0.21926
#
# Static dielectric constant tensor:
#      x y z
#    x 3.770920 0.000000 0.116710 
#    y 0.000000 3.066260 0.000000 
#    z 0.116710 0.000000 3.702670 
# 
# 
# High freq. dielectric constant tensor:
#      x y z
#    x 1.736400 0.000000 -0.000470 
#    y 0.000000 1.685070 0.000000 
#    z -0.000470 0.000000 1.733510 
# 
# From -- ./inp_files/221522.got.cif
#   From: 2010.06.25/outbox.cif.g09.slc.cpg/sg12_111_cif.got.tgz:221522.got - 2010.06.28 00:19:55.
