data_PCOD8091739
_publ_section_title
;
Structure prediction by ZEFSAII (Michael W. Deem and Ramdas Pophale) SiO2 
 PCOD8091739
Probable space group: C 2/M
;
_chemical_formula_sum "Si O2"
_cell_formula_units_Z 64
_cell_length_a 19.934520
_cell_length_b 8.989131
_cell_length_c 24.260106
_cell_angle_alpha 90.000000
_cell_angle_beta 126.772058
_cell_angle_gamma 90.000000
_cell_volume 3482.261599
_symmetry_space_group_name_H-M "C 2/M"
_symmetry_group_IT_number 12
_symmetry_cell_setting 'monoclinic'
loop_
_space_group_symop_operation_xyz
x,y,z
-x,y,-z
-x,-y,-z
x,-y,z
1/2+x,1/2+y,z
1/2-x,1/2+y,-z
1/2-x,1/2-y,-z
1/2+x,1/2-y,z
loop_
_atom_site_type_symbol
_atom_site_label
_atom_site_fract_x
_atom_site_fract_y
_atom_site_fract_z
Si Si1 0.702144 0.826627 0.427300
Si Si2 0.014335 0.672774 0.313106
Si Si3 0.850711 0.327890 0.295394
Si Si4 0.294330 0.324145 0.859545
Si Si5 0.965499 0.826426 0.178242
Si Si6 0.771949 0.825188 0.067901
Si Si7 0.753761 0.674303 0.671107
Si Si8 0.402443 0.175297 0.826106
O O1 0.750000 0.750000 0.500000
O O2 0.603500 0.793696 0.384543
O O3 0.735863 0.762949 0.385590
O O4 0.720545 0.000000 0.439788
O O5 0.006643 0.500000 0.291176
O O6 0.944558 0.715013 0.323957
O O7 0.004239 0.772484 0.254515
O O8 0.841223 0.500000 0.303846
O O9 0.788432 0.280778 0.215668
O O10 0.828293 0.243395 0.340745
O O11 0.305087 0.500000 0.871783
O O12 0.287409 0.248325 0.915521
O O13 0.375495 0.256215 0.869262
O O14 0.867671 0.790183 0.129723
O O15 0.007892 0.738568 0.148395
O O16 0.983999 0.000000 0.180066
O O17 0.753962 0.000000 0.056132
O O18 0.750000 0.750000 0.000000
O O19 0.741127 0.500000 0.663856
O O20 0.836570 0.717187 0.745870
O O21 0.408252 0.000000 0.839357
#
# Coordination Sequence:
#
# PCOD8091739 Si02
#       8
#     8   8   8   8   8   8   8   8
#     4  10  21  37  55  78 109 148 187 227 276 332
#     4  10  19  36  57  80 110 145 186 229 277 331
#     4   9  18  31  54  83 108 138 180 226 273 325
#     4  10  19  34  57  85 115 146 184 230 279 335
#     4  11  22  35  56  87 115 142 187 237 277 325
#     4  11  24  40  58  83 116 153 189 229 280 336
#     4   9  18  33  53  77 109 144 179 222 275 327
#     4  10  19  34  57  83 114 148 183 230 281 332
#
# _framework density 18.378861000000001
#
# number of rings (size 3 to 8) (size 9 to 14) (size 15 to 20)
#    0.000    2.000    2.500    1.500    0.000    4.000 
#    0.000    1.250    0.000    7.500    0.000    0.000 
#    0.000    0.000    0.000    0.000    0.000    0.000 
#
# Total GULP energy -396896.708441 kJ/mol
# GULP energy per Si atom -12403.022139 kJ/mol
# Density = 1.833703 g / cm^3
# Si number density = 18.378861 Si / 1000 Ang^3
#
#
#
# Elastic Constant Matrix: (Units=GPa)
#
#
# Indices 1 2 3 4 5 6 
#
# 1 117.6729 43.4768 18.3167 0.0000 -21.6412 0.0000
# 2 43.4768 69.7240 27.2241 0.0000 -8.4898 0.0000
# 3 18.3167 27.2241 45.3159 0.0000 -16.6454 0.0000
# 4 0.0000 0.0000 0.0000 29.5447 0.0000 -5.1803
# 5 -21.6412 -8.4898 -16.6454 0.0000 28.4205 0.0000
# 6 0.0000 0.0000 0.0000 -5.1803 0.0000 37.6661
#
#
#
# Elastic Compliance Matrix: (Units=1/GPa)
#
#
# Indices 1 2 3 4 5 6 
#
# 1 0.012618 -0.007931 0.002961 0.000000 0.008973 0.000000
# 2 -0.007931 0.023759 -0.013606 0.000000 -0.006911 0.000000
# 3 0.002961 -0.013606 0.036159 0.000000 0.019368 0.000000
# 4 0.000000 0.000000 0.000000 0.034683 0.000000 0.004770
# 5 0.008973 -0.006911 0.019368 0.000000 0.051297 0.000000
# 6 0.000000 0.000000 0.000000 0.004770 0.000000 0.027205
#
#
# Mechanical properties :
#
#
# Convention : Reuss Voigt Hill
#
# Bulk Modulus (GPa) = 28.26316 45.63864 36.95090
# Shear Modulus (GPa) = 21.30655 28.70594 25.00625
#
# Velocity S-wave (km/s) = 3.40854 3.95638 3.69263
# Velocity P-wave (km/s) = 5.55898 6.76436 6.19108
#
# Compressibility (1/GPa) = 0.03538175
#
# Stress axis : x y z
#
# Youngs Moduli (GPa) = 79.25245 42.08919 27.65571
#
# Poissons Ratio (x) = 0.33383 -0.08188
# Poissons Ratio (y) = 0.62858 0.37629
# Poissons Ratio (z) = -0.23464 0.57268
#
# Static dielectric constant tensor:
#      x y z
#    x 3.771620 0.000000 -0.037820 
#    y 0.000000 3.364960 0.000000 
#    z -0.037820 0.000000 3.209070 
# 
# 
# High freq. dielectric constant tensor:
#      x y z
#    x 1.730100 0.000000 -0.008200 
#    y 0.000000 1.715850 0.000000 
#    z -0.008200 0.000000 1.681400 
# 
# From -- ./inp_files/346231.got.cif
#   From: 2010.06.25/outbox.cif.g09.slc.cpg/sg12_174_cif.got.tgz:346231.got - 2010.06.28 00:19:55.
