data_PCOD8091101
_publ_section_title
;
Structure prediction by ZEFSAII (Michael W. Deem and Ramdas Pophale) SiO2 
 PCOD8091101
Probable space group: C 2/M
;
_chemical_formula_sum "Si O2"
_cell_formula_units_Z 56
_cell_length_a 14.431283
_cell_length_b 8.699005
_cell_length_c 24.642953
_cell_angle_alpha 90.000000
_cell_angle_beta 74.160047
_cell_angle_gamma 90.000000
_cell_volume 2976.150834
_symmetry_space_group_name_H-M "C 2/M"
_symmetry_group_IT_number 12
_symmetry_cell_setting 'monoclinic'
loop_
_space_group_symop_operation_xyz
x,y,z
-x,y,-z
-x,-y,-z
x,-y,z
1/2+x,1/2+y,z
1/2-x,1/2+y,-z
1/2-x,1/2-y,-z
1/2+x,1/2-y,z
loop_
_atom_site_type_symbol
_atom_site_label
_atom_site_fract_x
_atom_site_fract_y
_atom_site_fract_z
Si Si1 0.623644 0.317999 0.927318
Si Si2 0.281166 0.818849 0.649993
Si Si3 0.193263 0.818710 0.143183
Si Si4 0.592534 0.681793 0.051576
Si Si5 0.106645 0.318178 0.263929
Si Si6 0.927411 0.182644 0.349783
Si Si7 0.974409 0.681798 0.564222
O O1 0.638759 0.500000 0.918675
O O2 0.695121 0.228831 0.875571
O O3 0.517852 0.265254 0.925983
O O4 0.639367 0.262267 0.987282
O O5 0.313463 0.763338 0.704879
O O6 0.177849 0.749088 0.649637
O O7 0.364542 0.767442 0.594476
O O8 0.271195 0.000000 0.651075
O O9 0.149488 0.752700 0.093975
O O10 0.138288 0.736216 0.200179
O O11 0.180811 0.000000 0.151610
O O12 0.595127 0.500000 0.050860
O O13 0.094722 0.500000 0.267453
O O14 0.003525 0.245206 0.294059
O O15 0.951764 0.238541 0.406348
O O16 0.928505 0.000000 0.347992
O O17 0.986858 0.500000 0.569015
O O18 0.000000 0.738355 0.500000
#
# Coordination Sequence:
#
# PCOD8091101 Si02
#       7
#     8   8   8   8   8   8   8
#     4   9  17  34  55  73  95 133 174 202 241 308
#     4   8  17  34  54  73  99 136 171 205 252 299
#     4  11  21  33  50  77 105 128 160 211 263 297
#     4   8  17  33  53  73  99 133 168 203 248 307
#     4  10  21  38  54  71  98 135 174 207 247 308
#     4  10  19  34  55  77 101 131 169 215 259 292
#     4   9  18  34  54  78 110 144 174 202 238 296
#
# _framework density 18.81625
#
# number of rings (size 3 to 8) (size 9 to 14) (size 15 to 20)
#    0.000    2.714    0.000    3.429    0.000    2.000 
#    0.000   16.429    0.000    0.000    0.000    0.000 
#    0.000    0.000    0.000    0.000    0.000    0.000 
#
# Total GULP energy -347128.953017 kJ/mol
# GULP energy per Si atom -12397.462608 kJ/mol
# Density = 1.877342 g / cm^3
# Si number density = 18.816250 Si / 1000 Ang^3
#
#
#
# Elastic Constant Matrix: (Units=GPa)
#
#
# Indices 1 2 3 4 5 6 
#
# 1 128.7394 25.6312 49.0905 0.0000 -9.5622 0.0000
# 2 25.6312 38.7110 21.6663 0.0000 -0.7566 0.0000
# 3 49.0905 21.6663 111.5939 0.0000 -11.5820 0.0000
# 4 0.0000 0.0000 0.0000 30.6255 0.0000 -1.5756
# 5 -9.5622 -0.7566 -11.5820 0.0000 18.5606 0.0000
# 6 0.0000 0.0000 0.0000 -1.5756 0.0000 25.3075
#
#
#
# Elastic Compliance Matrix: (Units=1/GPa)
#
#
# Indices 1 2 3 4 5 6 
#
# 1 0.010195 -0.004889 -0.003220 0.000000 0.003044 0.000000
# 2 -0.004889 0.031434 -0.004364 0.000000 -0.003960 0.000000
# 3 -0.003220 -0.004364 0.011798 0.000000 0.005526 0.000000
# 4 0.000000 0.000000 0.000000 0.032758 0.000000 0.002039
# 5 0.003044 -0.003960 0.005526 0.000000 0.058732 0.000000
# 6 0.000000 0.000000 0.000000 0.002039 0.000000 0.039641
#
#
# Mechanical properties :
#
#
# Convention : Reuss Voigt Hill
#
# Bulk Modulus (GPa) = 35.10823 52.42449 43.76636
# Shear Modulus (GPa) = 22.83151 27.07579 24.95365
#
# Velocity S-wave (km/s) = 3.48716 3.79748 3.64562
# Velocity P-wave (km/s) = 5.90869 6.86655 6.40555
#
# Compressibility (1/GPa) = 0.02848335
#
# Stress axis : x y z
#
# Youngs Moduli (GPa) = 98.09011 31.81260 84.75976
#
# Poissons Ratio (x) = 0.15552 0.27290
# Poissons Ratio (y) = 0.47952 0.36985
# Poissons Ratio (z) = 0.31581 0.13881
#
# Static dielectric constant tensor:
#      x y z
#    x 3.763870 0.000000 0.093700 
#    y 0.000000 3.145390 0.000000 
#    z 0.093700 0.000000 3.578830 
# 
# 
# High freq. dielectric constant tensor:
#      x y z
#    x 1.737330 0.000000 -0.004650 
#    y 0.000000 1.707030 0.000000 
#    z -0.004650 0.000000 1.733160 
# 
# From -- ./inp_files/337845.got.cif
#   From: 2010.06.25/outbox.cif.g09.slc.cpg/sg12_169_cif.got.tgz:337845.got - 2010.06.28 00:19:55.
