data_PCOD8091111
_publ_section_title
;
Structure prediction by ZEFSAII (Michael W. Deem and Ramdas Pophale) SiO2 
 PCOD8091111
Probable space group: C 2/M
;
_chemical_formula_sum "Si O2"
_cell_formula_units_Z 64
_cell_length_a 29.953809
_cell_length_b 8.998460
_cell_length_c 12.048884
_cell_angle_alpha 90.000000
_cell_angle_beta 86.728163
_cell_angle_gamma 90.000000
_cell_volume 3242.340256
_symmetry_space_group_name_H-M "C 2/M"
_symmetry_group_IT_number 12
_symmetry_cell_setting 'monoclinic'
loop_
_space_group_symop_operation_xyz
x,y,z
-x,y,-z
-x,-y,-z
x,-y,z
1/2+x,1/2+y,z
1/2-x,1/2+y,-z
1/2-x,1/2-y,-z
1/2+x,1/2-y,z
loop_
_atom_site_type_symbol
_atom_site_label
_atom_site_fract_x
_atom_site_fract_y
_atom_site_fract_z
Si Si1 0.917488 0.174560 0.280669
Si Si2 0.884241 0.173512 0.517380
Si Si3 0.999510 0.823327 0.127130
Si Si4 0.710016 0.822670 0.437837
Si Si5 0.258949 0.826927 0.803176
Si Si6 0.088097 0.827268 0.243290
Si Si7 0.844124 0.672558 0.916917
Si Si8 0.161725 0.824824 0.861256
O O1 0.915791 0.225145 0.409760
O O2 0.870067 0.221163 0.235059
O O3 0.957875 0.245732 0.202883
O O4 0.924594 0.000000 0.273008
O O5 0.838174 0.263823 0.517555
O O6 0.913142 0.203412 0.624344
O O7 0.871775 0.000000 0.507508
O O8 0.043156 0.772436 0.189055
O O9 0.996338 0.000000 0.122515
O O10 0.000000 0.760936 0.000000
O O11 0.750000 0.750000 0.500000
O O12 0.717890 0.766698 0.311192
O O13 0.711027 0.000000 0.450997
O O14 0.291683 0.794762 0.901703
O O15 0.210531 0.752997 0.831398
O O16 0.250404 0.000000 0.787719
O O17 0.128719 0.731679 0.191538
O O18 0.096725 0.000000 0.217147
O O19 0.853853 0.500000 0.929629
O O20 0.859376 0.756758 0.024744
O O21 0.163782 0.000000 0.878749
#
# Coordination Sequence:
#
# PCOD8091111 Si02
#       8
#     8   8   8   8   8   8   8   8
#     4   9  18  33  55  81 112 144 178 228 285 332
#     4  10  20  35  55  82 112 145 186 230 278 331
#     4   9  17  31  54  84 112 142 184 231 280 331
#     4  11  21  36  56  79 110 150 191 230 274 325
#     4   9  19  34  52  75 106 143 180 220 274 331
#     4  10  20  34  56  83 110 144 190 235 273 330
#     4  11  21  35  53  77 110 145 181 224 279 334
#     4  10  19  34  55  77 103 140 183 226 275 330
#
# _framework density 19.73883
#
# number of rings (size 3 to 8) (size 9 to 14) (size 15 to 20)
#    0.000    2.125    1.250    2.625    0.000    4.500 
#    0.000    6.250    0.000    4.125    0.000    1.750 
#    0.000    0.000    0.000    0.000    0.000    0.000 
#
# Total GULP energy -396715.817396 kJ/mol
# GULP energy per Si atom -12397.369294 kJ/mol
# Density = 1.969390 g / cm^3
# Si number density = 19.738830 Si / 1000 Ang^3
#
#
#
# Elastic Constant Matrix: (Units=GPa)
#
#
# Indices 1 2 3 4 5 6 
#
# 1 123.6666 31.1487 67.2448 0.0000 -3.9859 0.0000
# 2 31.1487 35.3006 25.6128 0.0000 7.8997 0.0000
# 3 67.2448 25.6128 156.7460 0.0000 0.4209 0.0000
# 4 0.0000 0.0000 0.0000 16.9844 0.0000 -1.4225
# 5 -3.9859 7.8997 0.4209 0.0000 33.9962 0.0000
# 6 0.0000 0.0000 0.0000 -1.4225 0.0000 20.2791
#
#
#
# Elastic Compliance Matrix: (Units=1/GPa)
#
#
# Indices 1 2 3 4 5 6 
#
# 1 0.012644 -0.009111 -0.003945 0.000000 0.003648 0.000000
# 2 -0.009111 0.040681 -0.002711 0.000000 -0.010488 0.000000
# 3 -0.003945 -0.002711 0.008515 0.000000 0.000062 0.000000
# 4 0.000000 0.000000 0.000000 0.059226 0.000000 0.004154
# 5 0.003648 -0.010488 0.000062 0.000000 0.032279 0.000000
# 6 0.000000 0.000000 0.000000 0.004154 0.000000 0.049603
#
#
# Mechanical properties :
#
#
# Convention : Reuss Voigt Hill
#
# Bulk Modulus (GPa) = 32.99620 62.63620 47.81620
# Shear Modulus (GPa) = 20.44290 27.03240 23.73765
#
# Velocity S-wave (km/s) = 3.22167 3.70470 3.47160
# Velocity P-wave (km/s) = 5.53097 7.07821 6.35188
#
# Compressibility (1/GPa) = 0.03030652
#
# Stress axis : x y z
#
# Youngs Moduli (GPa) = 79.08916 24.58151 117.43814
#
# Poissons Ratio (x) = 0.22395 0.46334
# Poissons Ratio (y) = 0.72055 0.31834
# Poissons Ratio (z) = 0.31204 0.06663
#
# Static dielectric constant tensor:
#      x y z
#    x 3.703270 0.000000 -0.074100 
#    y 0.000000 3.138050 0.000000 
#    z -0.074100 0.000000 3.849860 
# 
# 
# High freq. dielectric constant tensor:
#      x y z
#    x 1.772810 0.000000 0.001100 
#    y 0.000000 1.721480 0.000000 
#    z 0.001100 0.000000 1.786410 
# 
# From -- ./inp_files/187546.got.cif
#   From: 2010.06.25/outbox.cif.g09.slc.cpg/sg12_94_cif.got.tgz:187546.got - 2010.06.28 00:19:55.
