data_PCOD8091334
_publ_section_title
;
Structure prediction by ZEFSAII (Michael W. Deem and Ramdas Pophale) SiO2 
 PCOD8091334
Probable space group: C 2/M
;
_chemical_formula_sum "Si O2"
_cell_formula_units_Z 64
_cell_length_a 24.837370
_cell_length_b 9.248344
_cell_length_c 14.973719
_cell_angle_alpha 90.000000
_cell_angle_beta 90.843729
_cell_angle_gamma 90.000000
_cell_volume 3439.158337
_symmetry_space_group_name_H-M "C 2/M"
_symmetry_group_IT_number 12
_symmetry_cell_setting 'monoclinic'
loop_
_space_group_symop_operation_xyz
x,y,z
-x,y,-z
-x,-y,-z
x,-y,z
1/2+x,1/2+y,z
1/2-x,1/2+y,-z
1/2-x,1/2-y,-z
1/2+x,1/2-y,z
loop_
_atom_site_type_symbol
_atom_site_label
_atom_site_fract_x
_atom_site_fract_y
_atom_site_fract_z
Si Si1 0.416484 0.166596 0.192103
Si Si2 0.611397 0.830151 0.185039
Si Si3 0.346133 0.828790 0.519416
Si Si4 0.819976 0.671496 0.320336
Si Si5 0.961392 0.342672 0.577883
Si Si6 0.212893 0.669520 0.303323
Si Si7 0.439276 0.166613 0.996681
Si Si8 0.514905 0.329873 0.265732
O O1 0.368057 0.218699 0.254508
O O2 0.404409 0.186963 0.086398
O O3 0.468073 0.267535 0.203652
O O4 0.431159 0.000000 0.214333
O O5 0.671190 0.794309 0.222210
O O6 0.572110 0.742559 0.247890
O O7 0.600504 0.000000 0.193948
O O8 0.598784 0.772489 0.084102
O O9 0.329267 0.768187 0.421382
O O10 0.405641 0.772150 0.543279
O O11 0.307259 0.777387 0.599000
O O12 0.347030 0.000000 0.513052
O O13 0.813077 0.500000 0.318847
O O14 0.766525 0.743962 0.280088
O O15 0.950538 0.500000 0.626351
O O16 0.000000 0.381872 0.500000
O O17 0.995086 0.223973 0.634217
O O18 0.225456 0.500000 0.306637
O O19 0.449165 0.000000 0.975956
O O20 0.500000 0.238106 0.000000
O O21 0.517268 0.500000 0.255327
#
# Coordination Sequence:
#
# PCOD8091334 Si02
#       8
#     8   8   8   8   8   8   8   8
#     4  10  20  37  58  80 108 145 186 228 275 330
#     4  10  19  36  59  81 106 141 186 229 268 326
#     4   9  17  32  53  79 104 138 185 223 262 315
#     4  10  21  36  56  80 108 140 183 231 271 320
#     4  10  19  34  56  78 107 148 190 226 266 325
#     4  10  20  35  56  77 107 145 184 228 271 320
#     4   9  16  30  59  87 103 133 186 235 268 316
#     4  12  23  33  51  82 118 147 174 221 281 334
#
# _framework density 18.609204999999999
#
# number of rings (size 3 to 8) (size 9 to 14) (size 15 to 20)
#    0.000    2.000    2.500    2.250    0.000    3.250 
#    0.000    2.500    0.000    0.000    0.000    0.000 
#    0.000    0.000    0.000    0.000    0.000    0.000 
#
# Total GULP energy -396537.402311 kJ/mol
# GULP energy per Si atom -12391.793822 kJ/mol
# Density = 1.856685 g / cm^3
# Si number density = 18.609205 Si / 1000 Ang^3
#
#
#
# Elastic Constant Matrix: (Units=GPa)
#
#
# Indices 1 2 3 4 5 6 
#
# 1 81.6324 29.3860 36.4933 0.0000 6.5943 0.0000
# 2 29.3860 55.1637 18.5057 0.0000 5.7962 0.0000
# 3 36.4933 18.5057 110.0211 0.0000 14.6826 0.0000
# 4 0.0000 0.0000 0.0000 10.3975 0.0000 4.1915
# 5 6.5943 5.7962 14.6826 0.0000 27.5558 0.0000
# 6 0.0000 0.0000 0.0000 4.1915 0.0000 28.2425
#
#
#
# Elastic Compliance Matrix: (Units=1/GPa)
#
#
# Indices 1 2 3 4 5 6 
#
# 1 0.016908 -0.007542 -0.004319 0.000000 -0.000159 0.000000
# 2 -0.007542 0.022737 -0.000996 0.000000 -0.002447 0.000000
# 3 -0.004319 -0.000996 0.011329 0.000000 -0.004793 0.000000
# 4 0.000000 0.000000 0.000000 0.102297 0.000000 -0.015182
# 5 -0.000159 -0.002447 -0.004793 0.000000 0.039397 0.000000
# 6 0.000000 0.000000 0.000000 -0.015182 0.000000 0.037661
#
#
# Mechanical properties :
#
#
# Convention : Reuss Voigt Hill
#
# Bulk Modulus (GPa) = 39.58723 46.17635 42.88179
# Shear Modulus (GPa) = 18.90629 24.06798 21.48713
#
# Velocity S-wave (km/s) = 3.19088 3.60020 3.40170
# Velocity P-wave (km/s) = 5.90717 6.49227 6.20662
#
# Compressibility (1/GPa) = 0.02526067
#
# Stress axis : x y z
#
# Youngs Moduli (GPa) = 59.14229 43.98172 88.26982
#
# Poissons Ratio (x) = 0.33170 0.38121
# Poissons Ratio (y) = 0.44604 0.08794
# Poissons Ratio (z) = 0.25542 0.04382
#
# Static dielectric constant tensor:
#      x y z
#    x 3.352660 0.000000 0.120940 
#    y 0.000000 3.029440 0.000000 
#    z 0.120940 0.000000 3.716520 
# 
# 
# High freq. dielectric constant tensor:
#      x y z
#    x 1.714350 0.000000 0.006670 
#    y 0.000000 1.681060 0.000000 
#    z 0.006670 0.000000 1.730650 
# 
# From -- ./inp_files/238744.got.cif
#   From: 2010.06.25/outbox.cif.g09.slc.cpg/sg12_120_cif.got.tgz:238744.got - 2010.06.28 00:19:55.
