data_PCOD8091279
_publ_section_title
;
Structure prediction by ZEFSAII (Michael W. Deem and Ramdas Pophale) SiO2 
 PCOD8091279
Probable space group: C 2/M
;
_chemical_formula_sum "Si O2"
_cell_formula_units_Z 64
_cell_length_a 29.786072
_cell_length_b 8.855850
_cell_length_c 11.856853
_cell_angle_alpha 90.000000
_cell_angle_beta 94.033688
_cell_angle_gamma 90.000000
_cell_volume 3119.864849
_symmetry_space_group_name_H-M "C 2/M"
_symmetry_group_IT_number 12
_symmetry_cell_setting 'monoclinic'
loop_
_space_group_symop_operation_xyz
x,y,z
-x,y,-z
-x,-y,-z
x,-y,z
1/2+x,1/2+y,z
1/2-x,1/2+y,-z
1/2-x,1/2-y,-z
1/2+x,1/2-y,z
loop_
_atom_site_type_symbol
_atom_site_label
_atom_site_fract_x
_atom_site_fract_y
_atom_site_fract_z
Si Si1 0.107410 0.819909 0.011256
Si Si2 0.164997 0.176780 0.674763
Si Si3 0.086151 0.322001 0.783421
Si Si4 0.257622 0.329511 0.699529
Si Si5 0.492394 0.321302 0.369208
Si Si6 0.791814 0.168665 0.951222
Si Si7 0.840586 0.178665 0.579895
Si Si8 0.580216 0.320594 0.252922
O O1 0.077733 0.746750 0.906395
O O2 0.105542 0.000000 0.002086
O O3 0.159205 0.760973 0.011303
O O4 0.085255 0.764938 0.125067
O O5 0.136262 0.274013 0.756748
O O6 0.216930 0.213883 0.705300
O O7 0.150670 0.226623 0.546789
O O8 0.156775 0.000000 0.694663
O O9 0.081349 0.500000 0.788195
O O10 0.052183 0.256349 0.685403
O O11 0.240119 0.500000 0.670959
O O12 0.287708 0.329595 0.816521
O O13 0.290821 0.266530 0.607973
O O14 0.500000 0.271247 0.500000
O O15 0.485586 0.500000 0.361175
O O16 0.533464 0.264548 0.298484
O O17 0.790706 0.000000 0.999219
O O18 0.750000 0.250000 0.000000
O O19 0.879569 0.249990 0.664601
O O20 0.841406 0.000000 0.593804
O O21 0.582542 0.500000 0.259038
#
# Coordination Sequence:
#
# PCOD8091279 Si02
#       8
#     8   8   8   8   8   8   8   8
#     4  10  20  38  62  86 114 152 200 246 289 347
#     4  11  22  36  57  85 117 156 203 249 291 349
#     4  12  26  42  59  83 120 159 195 243 301 352
#     4  10  19  34  55  83 119 155 191 237 300 358
#     4  10  21  40  68  98 122 150 193 240 288 351
#     4  10  20  33  53  79 111 153 197 242 288 339
#     4   9  17  33  58  87 119 152 191 241 295 351
#     4   9  17  34  63  92 117 150 194 244 295 346
#
# _framework density 20.513711000000001
#
# number of rings (size 3 to 8) (size 9 to 14) (size 15 to 20)
#    0.000    1.875    1.250    3.375    0.000    5.750 
#    0.000    3.750    0.000    2.250    0.000    0.000 
#    0.000    0.000    0.000    0.000    0.000    0.000 
#
# Total GULP energy -396818.558046 kJ/mol
# GULP energy per Si atom -12400.579939 kJ/mol
# Density = 2.046702 g / cm^3
# Si number density = 20.513711 Si / 1000 Ang^3
#
#
#
# Elastic Constant Matrix: (Units=GPa)
#
#
# Indices 1 2 3 4 5 6 
#
# 1 97.3921 24.7970 43.9886 0.0000 -5.5969 0.0000
# 2 24.7970 47.5960 34.1905 0.0000 1.4109 0.0000
# 3 43.9886 34.1905 129.6912 0.0000 -0.3432 0.0000
# 4 0.0000 0.0000 0.0000 16.7767 0.0000 3.6923
# 5 -5.5969 1.4109 -0.3432 0.0000 39.9785 0.0000
# 6 0.0000 0.0000 0.0000 3.6923 0.0000 26.8103
#
#
#
# Elastic Compliance Matrix: (Units=1/GPa)
#
#
# Indices 1 2 3 4 5 6 
#
# 1 0.012978 -0.004516 -0.003206 0.000000 0.001949 0.000000
# 2 -0.004516 0.027528 -0.005730 0.000000 -0.001653 0.000000
# 3 -0.003206 -0.005730 0.010308 0.000000 -0.000158 0.000000
# 4 0.000000 0.000000 0.000000 0.061469 0.000000 -0.008465
# 5 0.001949 -0.001653 -0.000158 0.000000 0.025343 0.000000
# 6 0.000000 0.000000 0.000000 -0.008465 0.000000 0.038465
#
#
# Mechanical properties :
#
#
# Convention : Reuss Voigt Hill
#
# Bulk Modulus (GPa) = 41.82332 53.40350 47.61341
# Shear Modulus (GPa) = 23.70061 28.15999 25.93030
#
# Velocity S-wave (km/s) = 3.40274 3.70907 3.55920
# Velocity P-wave (km/s) = 5.98919 6.66577 6.33652
#
# Compressibility (1/GPa) = 0.02391011
#
# Stress axis : x y z
#
# Youngs Moduli (GPa) = 77.05579 36.32674 97.01013
#
# Poissons Ratio (x) = 0.16405 0.31102
# Poissons Ratio (y) = 0.34798 0.55585
# Poissons Ratio (z) = 0.24705 0.20815
#
# Static dielectric constant tensor:
#      x y z
#    x 3.745580 0.000000 -0.036410 
#    y 0.000000 3.330140 0.000000 
#    z -0.036410 0.000000 4.031180 
# 
# 
# High freq. dielectric constant tensor:
#      x y z
#    x 1.805820 0.000000 -0.002400 
#    y 0.000000 1.757630 0.000000 
#    z -0.002400 0.000000 1.820890 
# 
# From -- ./inp_files/187512.got.cif
#   From: 2010.06.25/outbox.cif.g09.slc.cpg/sg12_94_cif.got.tgz:187512.got - 2010.06.28 00:19:55.
