data_PCOD8091483
_publ_section_title
;
Structure prediction by ZEFSAII (Michael W. Deem and Ramdas Pophale) SiO2 
 PCOD8091483
Probable space group: C 2/M
;
_chemical_formula_sum "Si O2"
_cell_formula_units_Z 48
_cell_length_a 26.259181
_cell_length_b 15.405963
_cell_length_c 11.705929
_cell_angle_alpha 90.000000
_cell_angle_beta 146.557652
_cell_angle_gamma 90.000000
_cell_volume 2609.783378
_symmetry_space_group_name_H-M "C 2/M"
_symmetry_group_IT_number 12
_symmetry_cell_setting 'monoclinic'
loop_
_space_group_symop_operation_xyz
x,y,z
-x,y,-z
-x,-y,-z
x,-y,z
1/2+x,1/2+y,z
1/2-x,1/2+y,-z
1/2-x,1/2-y,-z
1/2+x,1/2-y,z
loop_
_atom_site_type_symbol
_atom_site_label
_atom_site_fract_x
_atom_site_fract_y
_atom_site_fract_z
Si Si1 0.397682 0.598612 0.269220
Si Si2 0.747536 0.098391 0.180452
Si Si3 0.839815 0.095231 0.591109
Si Si4 0.864170 0.238238 0.013859
Si Si5 0.040828 0.258932 0.194924
Si Si6 0.734532 0.820540 0.569462
O O1 0.500000 0.621299 0.500000
O O2 0.391384 0.500000 0.208789
O O3 0.334413 0.609528 0.261158
O O4 0.367184 0.667080 0.117899
O O5 0.778854 0.121138 0.367336
O O6 0.669951 0.168808 0.000887
O O7 0.707401 0.000000 0.097590
O O8 0.924400 0.161169 0.762730
O O9 0.774339 0.093270 0.582238
O O10 0.882924 0.000000 0.654831
O O11 0.792133 0.199765 0.789279
O O12 0.964648 0.256238 0.150335
O O13 0.124859 0.322339 0.392402
O O14 0.000000 0.295968 0.000000
O O15 0.750000 0.750000 0.500000
#
# Coordination Sequence:
#
# PCOD8091483 Si02
#       6
#     8   8   8   8   8   8
#     4  10  23  40  60  90 119 144 192 251 299 351
#     4  10  20  38  58  79 113 155 197 239 283 342
#     4  10  19  34  56  82 116 152 185 238 301 348
#     4  12  21  36  63  84 116 161 193 232 302 349
#     4  11  19  33  54  82 116 152 185 235 284 347
#     4  10  19  36  52  82 121 148 190 236 281 349
#
# _framework density 18.392330999999999
#
# number of rings (size 3 to 8) (size 9 to 14) (size 15 to 20)
#    0.000    1.500    6.667    1.500    0.000    3.000 
#    0.000    0.833    0.000    3.500    0.000    0.000 
#    0.000    0.000    0.000    0.000    0.000    0.000 
#
# Total GULP energy -297502.605315 kJ/mol
# GULP energy per Si atom -12395.941888 kJ/mol
# Density = 1.835047 g / cm^3
# Si number density = 18.392331 Si / 1000 Ang^3
#
#
#
# Elastic Constant Matrix: (Units=GPa)
#
#
# Indices 1 2 3 4 5 6 
#
# 1 93.2284 51.8768 51.2544 0.0000 11.3019 0.0000
# 2 51.8768 95.7774 54.3574 0.0000 -1.0273 0.0000
# 3 51.2544 54.3574 106.3166 0.0000 8.5485 0.0000
# 4 0.0000 0.0000 0.0000 19.8484 0.0000 -4.2836
# 5 11.3019 -1.0273 8.5485 0.0000 36.1614 0.0000
# 6 0.0000 0.0000 0.0000 -4.2836 0.0000 24.2353
#
#
#
# Elastic Compliance Matrix: (Units=1/GPa)
#
#
# Indices 1 2 3 4 5 6 
#
# 1 0.017730 -0.007065 -0.004560 0.000000 -0.004664 0.000000
# 2 -0.007065 0.017704 -0.005977 0.000000 0.004124 0.000000
# 3 -0.004560 -0.005977 0.014842 0.000000 -0.002253 0.000000
# 4 0.000000 0.000000 0.000000 0.052380 0.000000 0.009258
# 5 -0.004664 0.004124 -0.002253 0.000000 0.029761 0.000000
# 6 0.000000 0.000000 0.000000 0.009258 0.000000 0.042899
#
#
# Mechanical properties :
#
#
# Convention : Reuss Voigt Hill
#
# Bulk Modulus (GPa) = 66.35525 67.81107 67.08316
# Shear Modulus (GPa) = 23.19697 25.23795 24.21746
#
# Velocity S-wave (km/s) = 3.55523 3.70834 3.63259
# Velocity P-wave (km/s) = 7.28072 7.43539 7.35846
#
# Compressibility (1/GPa) = 0.01507040
#
# Stress axis : x y z
#
# Youngs Moduli (GPa) = 56.40028 56.48332 67.37822
#
# Poissons Ratio (x) = 0.39907 0.30727
# Poissons Ratio (y) = 0.39849 0.40274
# Poissons Ratio (z) = 0.25720 0.33762
#
# Static dielectric constant tensor:
#      x y z
#    x 3.694600 0.000000 0.125030 
#    y 0.000000 3.664350 0.000000 
#    z 0.125030 0.000000 3.401310 
# 
# 
# High freq. dielectric constant tensor:
#      x y z
#    x 1.717650 0.000000 0.004480 
#    y 0.000000 1.703570 0.000000 
#    z 0.004480 0.000000 1.704790 
# 
# From -- ./inp_files/144309.got.cif
#   From: 2010.06.25/outbox.cif.g09.slc.cpg/sg12_73_cif.got.tgz:144309.got - 2010.06.28 00:19:55.
