data_PCOD8091707
_publ_section_title
;
Structure prediction by ZEFSAII (Michael W. Deem and Ramdas Pophale) SiO2 
 PCOD8091707
Probable space group: C 2/M
;
_chemical_formula_sum "Si O2"
_cell_formula_units_Z 64
_cell_length_a 30.061605
_cell_length_b 8.736172
_cell_length_c 15.257876
_cell_angle_alpha 90.000000
_cell_angle_beta 52.064217
_cell_angle_gamma 90.000000
_cell_volume 3160.380853
_symmetry_space_group_name_H-M "C 2/M"
_symmetry_group_IT_number 12
_symmetry_cell_setting 'monoclinic'
loop_
_space_group_symop_operation_xyz
x,y,z
-x,y,-z
-x,-y,-z
x,-y,z
1/2+x,1/2+y,z
1/2-x,1/2+y,-z
1/2-x,1/2-y,-z
1/2+x,1/2-y,z
loop_
_atom_site_type_symbol
_atom_site_label
_atom_site_fract_x
_atom_site_fract_y
_atom_site_fract_z
Si Si1 0.109817 0.318421 0.507190
Si Si2 0.963645 0.672082 0.118373
Si Si3 0.383172 0.676930 0.861281
Si Si4 0.310513 0.817491 0.434837
Si Si5 0.836622 0.177079 0.729447
Si Si6 0.988685 0.181191 0.268841
Si Si7 0.292126 0.182030 0.099521
Si Si8 0.842706 0.668445 0.213279
O O1 0.104321 0.500000 0.516385
O O2 0.155069 0.255653 0.523410
O O3 0.132513 0.268710 0.385107
O O4 0.048254 0.249997 0.606135
O O5 0.984203 0.500000 0.118756
O O6 0.960495 0.768386 0.211309
O O7 0.908820 0.657731 0.124643
O O8 0.000000 0.756332 0.000000
O O9 0.379035 0.500000 0.891518
O O10 0.374420 0.703832 0.768924
O O11 0.446122 0.739927 0.806996
O O12 0.332113 0.758749 0.973709
O O13 0.250000 0.750000 0.500000
O O14 0.336141 0.748557 0.314555
O O15 0.311511 0.000000 0.436639
O O16 0.773017 0.236149 0.828476
O O17 0.834086 0.000000 0.704871
O O18 0.987116 0.000000 0.280127
O O19 0.315224 0.253474 0.163250
O O20 0.297056 0.000000 0.091120
O O21 0.814221 0.500000 0.251788
#
# Coordination Sequence:
#
# PCOD8091707 Si02
#       8
#     8   8   8   8   8   8   8   8
#     4  11  23  40  62  88 120 157 201 252 299 350
#     4  10  19  34  57  82 114 152 189 236 292 347
#     4  10  23  41  60  85 120 159 197 249 310 358
#     4  10  20  35  55  80 115 151 187 231 282 344
#     4  10  22  41  63  87 118 157 199 247 308 366
#     4  11  23  39  59  84 120 162 204 248 297 358
#     4  10  20  36  63  92 117 152 198 245 295 363
#     4   9  17  32  52  80 114 145 178 222 280 339
#
# _framework density 20.250724000000002
#
# number of rings (size 3 to 8) (size 9 to 14) (size 15 to 20)
#    0.000    1.875    1.250    2.625    0.000    5.750 
#    0.000    3.750    0.000    0.000    0.000    0.000 
#    0.000    0.000    0.000    0.000    0.000    0.000 
#
# Total GULP energy -396453.930869 kJ/mol
# GULP energy per Si atom -12389.185340 kJ/mol
# Density = 2.020463 g / cm^3
# Si number density = 20.250724 Si / 1000 Ang^3
#
#
#
# Elastic Constant Matrix: (Units=GPa)
#
#
# Indices 1 2 3 4 5 6 
#
# 1 97.8965 21.9375 30.3638 0.0000 -3.6996 -0.0002
# 2 21.9375 46.7345 31.5399 0.0000 -1.7907 -0.0007
# 3 30.3638 31.5399 121.5160 0.0000 -9.1463 0.0000
# 4 0.0000 0.0000 0.0000 30.4419 0.0000 -0.1388
# 5 -3.6996 -1.7907 -9.1463 0.0000 36.7852 0.0000
# 6 -0.0002 -0.0007 0.0000 -0.1388 0.0000 24.3700
#
#
#
# Elastic Compliance Matrix: (Units=1/GPa)
#
#
# Indices 1 2 3 4 5 6 
#
# 1 0.011749 -0.004292 -0.001782 0.000000 0.000530 0.000000
# 2 -0.004292 0.027516 -0.006115 0.000000 -0.000613 0.000001
# 3 -0.001782 -0.006115 0.010421 0.000000 0.002114 0.000000
# 4 0.000000 0.000000 0.000000 0.032850 0.000000 0.000187
# 5 0.000530 -0.000613 0.002114 0.000000 0.027734 0.000000
# 6 0.000000 0.000001 0.000000 0.000187 0.000000 0.041035
#
#
# Mechanical properties :
#
#
# Convention : Reuss Voigt Hill
#
# Bulk Modulus (GPa) = 39.51479 48.20328 43.85903
# Shear Modulus (GPa) = 27.15603 30.47312 28.81458
#
# Velocity S-wave (km/s) = 3.66593 3.88337 3.77622
# Velocity P-wave (km/s) = 6.12159 6.63041 6.38107
#
# Compressibility (1/GPa) = 0.02530698
#
# Stress axis : x y z
#
# Youngs Moduli (GPa) = 85.11037 36.34245 95.95961
#
# Poissons Ratio (x) = 0.15600 0.17099
# Poissons Ratio (y) = 0.36533 0.58684
# Poissons Ratio (z) = 0.15166 0.22225
#
# Static dielectric constant tensor:
#      x y z
#    x 3.882250 0.000000 0.011590 
#    y 0.000000 3.433580 0.000000 
#    z 0.011590 0.000000 3.723800 
# 
# 
# High freq. dielectric constant tensor:
#      x y z
#    x 1.799960 0.000000 -0.002840 
#    y 0.000000 1.760950 0.000000 
#    z -0.002840 0.000000 1.807100 
# 
# From -- ./inp_files/249718.got.cif
#   From: 2010.06.25/outbox.cif.g09.slc.cpg/sg12_125_cif.got.tgz:249718.got - 2010.06.28 00:19:55.
