data_PCOD8091890
_publ_section_title
;
Structure prediction by ZEFSAII (Michael W. Deem and Ramdas Pophale) SiO2 
 PCOD8091890
Probable space group: C 2/M
;
_chemical_formula_sum "Si O2"
_cell_formula_units_Z 56
_cell_length_a 23.426295
_cell_length_b 14.911174
_cell_length_c 14.494411
_cell_angle_alpha 90.000000
_cell_angle_beta 30.978929
_cell_angle_gamma 90.000000
_cell_volume 2606.090134
_symmetry_space_group_name_H-M "C 2/M"
_symmetry_group_IT_number 12
_symmetry_cell_setting 'monoclinic'
loop_
_space_group_symop_operation_xyz
x,y,z
-x,y,-z
-x,-y,-z
x,-y,z
1/2+x,1/2+y,z
1/2-x,1/2+y,-z
1/2-x,1/2-y,-z
1/2+x,1/2-y,z
loop_
_atom_site_type_symbol
_atom_site_label
_atom_site_fract_x
_atom_site_fract_y
_atom_site_fract_z
Si Si1 0.823557 0.404425 0.592370
Si Si2 0.121935 0.292246 0.309769
Si Si3 0.223473 0.147297 0.545827
Si Si4 0.629425 0.899959 0.823995
Si Si5 0.571638 0.901455 0.201087
Si Si6 0.166508 0.271496 0.928772
Si Si7 0.482243 0.604330 0.916939
O O1 0.787918 0.500000 0.684728
O O2 0.825047 0.332399 0.670346
O O3 0.736504 0.381014 0.633954
O O4 0.941985 0.413682 0.382794
O O5 0.116022 0.363879 0.236964
O O6 0.000000 0.250549 0.500000
O O7 0.222504 0.222495 0.157738
O O8 0.250000 0.250000 0.500000
O O9 0.308396 0.095792 0.360697
O O10 0.094600 0.125295 0.702885
O O11 0.637908 0.000000 0.855755
O O12 0.500000 0.871897 0.000000
O O13 0.690527 0.823955 0.800079
O O14 0.583079 0.833293 0.101399
O O15 0.626787 0.000000 0.108636
O O16 0.114502 0.171608 0.985995
O O17 0.448201 0.500000 0.947331
O O18 0.500000 0.624352 0.000000
#
# Coordination Sequence:
#
# PCOD8091890 Si02
#       7
#     8   8   8   8   8   8   8
#     4  10  19  34  58  83 109 144 189 242 294 341
#     4  10  22  39  59  84 110 145 198 256 309 358
#     4  12  22  36  59  89 126 165 202 242 295 364
#     4  11  23  39  61  92 128 165 208 251 294 357
#     4  10  21  38  60  86 113 146 196 253 304 354
#     4  12  23  39  61  85 119 162 199 244 305 371
#     4  11  24  40  59  89 128 165 203 249 307 374
#
# _framework density 21.488129000000001
#
# number of rings (size 3 to 8) (size 9 to 14) (size 15 to 20)
#    0.000    1.143    0.000    8.143    0.000    7.429 
#    0.000    0.000    0.000    1.714    0.000    0.000 
#    0.000    0.000    0.000    0.000    0.000    0.000 
#
# Total GULP energy -346955.604653 kJ/mol
# GULP energy per Si atom -12391.271595 kJ/mol
# Density = 2.143922 g / cm^3
# Si number density = 21.488129 Si / 1000 Ang^3
#
#
#
# Elastic Constant Matrix: (Units=GPa)
#
#
# Indices 1 2 3 4 5 6 
#
# 1 78.5226 21.0644 27.2644 0.0000 -14.7190 0.0000
# 2 21.0644 113.0928 15.5149 0.0000 -10.6431 0.0000
# 3 27.2644 15.5149 96.7375 0.0000 -14.0496 0.0000
# 4 0.0000 0.0000 0.0000 6.1652 0.0000 26.2871
# 5 -14.7190 -10.6431 -14.0496 0.0000 38.2593 0.0000
# 6 0.0000 0.0000 0.0000 26.2871 0.0000 -13.4672
#
#
#
# Elastic Compliance Matrix: (Units=1/GPa)
#
#
# Indices 1 2 3 4 5 6 
#
# 1 0.015201 -0.001986 -0.003377 0.000000 0.004055 0.000000
# 2 -0.001986 0.009462 -0.000725 0.000000 0.001602 0.000000
# 3 -0.003377 -0.000725 0.011818 0.000000 0.002839 0.000000
# 4 0.000000 0.000000 0.000000 0.017399 0.000000 0.033961
# 5 0.004055 0.001602 0.002839 0.000000 0.029186 0.000000
# 6 0.000000 0.000000 0.000000 0.033961 0.000000 -0.007965
#
#
# Mechanical properties :
#
#
# Convention : Reuss Voigt Hill
#
# Bulk Modulus (GPa) = 41.14465 46.22671 43.68568
# Shear Modulus (GPa) = 52.42324 21.15874 36.79099
#
# Velocity S-wave (km/s) = 4.94463 3.14135 4.14231
# Velocity P-wave (km/s) = 7.19641 5.89210 6.57667
#
# Compressibility (1/GPa) = 0.02430450
#
# Stress axis : x y z
#
# Youngs Moduli (GPa) = 65.78675 105.68032 84.62026
#
# Poissons Ratio (x) = 0.20992 0.28573
# Poissons Ratio (y) = 0.13068 0.06136
# Poissons Ratio (z) = 0.22213 0.07663
#
# Static dielectric constant tensor:
#      x y z
#    x 3.726110 0.000000 -0.047160 
#    y 0.000000 2.760940 0.000000 
#    z -0.047160 0.000000 4.183120 
# 
# 
# High freq. dielectric constant tensor:
#      x y z
#    x 1.827760 0.000000 -0.004560 
#    y 0.000000 1.846640 0.000000 
#    z -0.004560 0.000000 1.860840 
# 
# From -- ./inp_files/240898.got.cif
#   From: 2010.06.25/outbox.cif.g09.slc.cpg/sg12_121_cif.got.tgz:240898.got - 2010.06.28 00:19:55.
