data_PCOD8091611
_publ_section_title
;
Structure prediction by ZEFSAII (Michael W. Deem and Ramdas Pophale) SiO2 
 PCOD8091611
Probable space group: C 2/M
;
_chemical_formula_sum "Si O2"
_cell_formula_units_Z 44
_cell_length_a 25.358985
_cell_length_b 9.536890
_cell_length_c 8.682661
_cell_angle_alpha 90.000000
_cell_angle_beta 93.421217
_cell_angle_gamma 90.000000
_cell_volume 2096.123149
_symmetry_space_group_name_H-M "C 2/M"
_symmetry_group_IT_number 12
_symmetry_cell_setting 'monoclinic'
loop_
_space_group_symop_operation_xyz
x,y,z
-x,y,-z
-x,-y,-z
x,-y,z
1/2+x,1/2+y,z
1/2-x,1/2+y,-z
1/2-x,1/2-y,-z
1/2+x,1/2-y,z
loop_
_atom_site_type_symbol
_atom_site_label
_atom_site_fract_x
_atom_site_fract_y
_atom_site_fract_z
Si Si1 0.000000 0.727034 0.000000
Si Si2 0.839197 0.159087 0.864742
Si Si3 0.393090 0.843792 0.111880
Si Si4 0.404876 0.841669 0.458737
Si Si5 0.292730 0.163650 0.601664
Si Si6 0.551398 0.348542 0.292488
O O1 0.007565 0.817974 0.155532
O O2 0.946946 0.638355 0.021170
O O3 0.797432 0.257217 0.766995
O O4 0.891701 0.150759 0.775180
O O5 0.817395 0.000000 0.889121
O O6 0.851996 0.235414 0.028600
O O7 0.404557 0.784747 0.284308
O O8 0.367724 0.000000 0.115502
O O9 0.346928 0.826988 0.518450
O O10 0.448608 0.759106 0.565583
O O11 0.424937 0.000000 0.464737
O O12 0.250000 0.250000 0.500000
O O13 0.276343 0.000000 0.622888
O O14 0.538690 0.500000 0.360898
#
# Coordination Sequence:
#
# PCOD8091611 Si02
#       6
#     4   8   8   8   8   8
#     4  10  20  32  52  78 102 136 178 216 250 298
#     4   9  18  33  53  77 104 136 171 210 255 304
#     4  10  20  35  53  75 104 138 174 212 254 301
#     4   9  20  36  53  75 105 136 168 210 259 305
#     4  10  19  34  57  81 104 133 169 210 255 308
#     4   9  18  33  52  73 102 136 173 214 256 301
#
# _framework density 20.991133000000001
#
# number of rings (size 3 to 8) (size 9 to 14) (size 15 to 20)
#    0.000    2.545    0.000    1.636    0.000    8.000 
#    0.000    3.636    0.000    0.000    0.000    0.000 
#    0.000    0.000    0.000    0.000    0.000    0.000 
#
# Total GULP energy -272683.849275 kJ/mol
# GULP energy per Si atom -12394.720422 kJ/mol
# Density = 2.094336 g / cm^3
# Si number density = 20.991133 Si / 1000 Ang^3
#
#
#
# Elastic Constant Matrix: (Units=GPa)
#
#
# Indices 1 2 3 4 5 6 
#
# 1 27.3420 28.5664 24.1465 0.0000 22.1412 0.0000
# 2 28.5664 171.4052 94.9943 0.0000 32.8842 0.0000
# 3 24.1465 94.9943 183.6789 0.0000 38.1554 0.0000
# 4 0.0000 0.0000 0.0000 35.0771 0.0000 6.0677
# 5 22.1412 32.8842 38.1554 0.0000 35.0194 0.0000
# 6 0.0000 0.0000 0.0000 6.0677 0.0000 11.0737
#
#
#
# Elastic Compliance Matrix: (Units=1/GPa)
#
#
# Indices 1 2 3 4 5 6 
#
# 1 0.077987 -0.005226 0.002163 0.000000 -0.046758 0.000000
# 2 -0.005226 0.008979 -0.003737 0.000000 -0.001055 0.000000
# 3 0.002163 -0.003737 0.008593 0.000000 -0.007220 0.000000
# 4 0.000000 0.000000 0.000000 0.031494 0.000000 -0.017257
# 5 -0.046758 -0.001055 -0.007220 0.000000 0.066976 0.000000
# 6 0.000000 0.000000 0.000000 -0.017257 0.000000 0.099759
#
#
# Mechanical properties :
#
#
# Convention : Reuss Voigt Hill
#
# Bulk Modulus (GPa) = 12.20129 75.31561 43.75845
# Shear Modulus (GPa) = 14.93845 31.88198 23.41022
#
# Velocity S-wave (km/s) = 2.67058 3.90145 3.34315
# Velocity P-wave (km/s) = 3.91594 7.50018 5.98278
#
# Compressibility (1/GPa) = 0.08195855
#
# Stress axis : x y z
#
# Youngs Moduli (GPa) = 12.82268 111.37312 116.37792
#
# Poissons Ratio (x) = 0.58201 -0.25177
# Poissons Ratio (y) = 0.06701 0.43496
# Poissons Ratio (z) = -0.02774 0.41625
#
# Static dielectric constant tensor:
#      x y z
#    x 3.418050 0.000000 0.169550 
#    y 0.000000 4.037580 0.000000 
#    z 0.169550 0.000000 3.953250 
# 
# 
# High freq. dielectric constant tensor:
#      x y z
#    x 1.786430 0.000000 0.016040 
#    y 0.000000 1.827130 0.000000 
#    z 0.016040 0.000000 1.829170 
# 
# From -- ./inp_files/108044.got.cif
#   From: 2010.06.25/outbox.cif.g09.slc.cpg/sg12_55_cif.got.tgz:108044.got - 2010.06.28 00:19:55.
