data_PCOD8091149
_publ_section_title
;
Structure prediction by ZEFSAII (Michael W. Deem and Ramdas Pophale) SiO2 
 PCOD8091149
Probable space group: C 2/M
;
_chemical_formula_sum "Si O2"
_cell_formula_units_Z 44
_cell_length_a 8.841796
_cell_length_b 24.902607
_cell_length_c 12.244371
_cell_angle_alpha 90.000000
_cell_angle_beta 55.702433
_cell_angle_gamma 90.000000
_cell_volume 2227.235245
_symmetry_space_group_name_H-M "C 2/M"
_symmetry_group_IT_number 12
_symmetry_cell_setting 'monoclinic'
loop_
_space_group_symop_operation_xyz
x,y,z
-x,y,-z
-x,-y,-z
x,-y,z
1/2+x,1/2+y,z
1/2-x,1/2+y,-z
1/2-x,1/2-y,-z
1/2+x,1/2-y,z
loop_
_atom_site_type_symbol
_atom_site_label
_atom_site_fract_x
_atom_site_fract_y
_atom_site_fract_z
Si Si1 0.815482 0.500000 0.831929
Si Si2 0.401231 0.792312 0.324279
Si Si3 0.431284 0.284736 0.908591
Si Si4 0.010109 0.395299 0.176353
Si Si5 0.798653 0.891247 0.866651
Si Si6 0.000000 0.232499 0.500000
Si Si7 0.538410 0.500000 0.146936
O O1 0.954129 0.449918 0.772463
O O2 0.678936 0.500000 0.785350
O O3 0.677951 0.500000 0.989549
O O4 0.422392 0.752888 0.211600
O O5 0.516588 0.846503 0.258370
O O6 0.489180 0.769572 0.397982
O O7 0.183252 0.803860 0.423021
O O8 0.412585 0.336481 0.836495
O O9 0.500000 0.303301 0.000000
O O10 0.250000 0.250000 0.000000
O O11 0.812703 0.391885 0.200119
O O12 0.167613 0.391367 0.023635
O O13 0.923844 0.944381 0.805237
#
# Coordination Sequence:
#
# PCOD8091149 Si02
#       7
#     4   8   8   8   8   4   4
#     4   9  19  31  53  79 109 152 187 223 273 334
#     4  11  22  39  58  80 114 149 194 234 280 336
#     4  12  23  34  56  88 119 147 182 233 293 345
#     4  10  19  34  55  78 114 148 185 227 278 339
#     4  10  20  32  51  83 118 154 178 220 281 344
#     4  10  24  40  56  78 106 156 198 234 272 330
#     4   9  19  31  47  77 122 154 184 209 265 352
#
# _framework density 19.755434999999999
#
# number of rings (size 3 to 8) (size 9 to 14) (size 15 to 20)
#    0.000    1.636    1.818    3.818    5.091    2.182 
#    0.000    0.000    0.000    1.091    0.000    5.091 
#    0.000    0.000    0.000    0.000    0.000    0.000 
#
# Total GULP energy -272694.269416 kJ/mol
# GULP energy per Si atom -12395.194064 kJ/mol
# Density = 1.971047 g / cm^3
# Si number density = 19.755435 Si / 1000 Ang^3
#
#
#
# Elastic Constant Matrix: (Units=GPa)
#
#
# Indices 1 2 3 4 5 6 
#
# 1 97.1050 41.6403 19.5198 0.0000 1.3871 0.0000
# 2 41.6403 156.0976 24.5398 0.0000 -5.1975 0.0000
# 3 19.5198 24.5398 47.2036 0.0000 7.5135 0.0000
# 4 0.0000 0.0000 0.0000 12.4592 0.0000 1.7636
# 5 1.3871 -5.1975 7.5135 0.0000 18.6188 0.0000
# 6 0.0000 0.0000 0.0000 1.7636 0.0000 16.0320
#
#
#
# Elastic Compliance Matrix: (Units=1/GPa)
#
#
# Indices 1 2 3 4 5 6 
#
# 1 0.012179 -0.002689 -0.003606 0.000000 -0.000203 0.000000
# 2 -0.002689 0.007809 -0.003555 0.000000 0.003815 0.000000
# 3 -0.003606 -0.003555 0.026331 0.000000 -0.011349 0.000000
# 4 0.000000 0.000000 0.000000 0.081532 0.000000 -0.008969
# 5 -0.000203 0.003815 -0.011349 0.000000 0.059369 0.000000
# 6 0.000000 0.000000 0.000000 -0.008969 0.000000 0.063362
#
#
# Mechanical properties :
#
#
# Convention : Reuss Voigt Hill
#
# Bulk Modulus (GPa) = 37.56746 52.42289 44.99518
# Shear Modulus (GPa) = 17.91116 23.73573 20.82345
#
# Velocity S-wave (km/s) = 3.01432 3.47000 3.25015
# Velocity P-wave (km/s) = 5.58322 6.53055 6.07538
#
# Compressibility (1/GPa) = 0.02661878
#
# Stress axis : x y z
#
# Youngs Moduli (GPa) = 82.10933 128.05052 37.97813
#
# Poissons Ratio (x) = 0.34428 0.13696
# Poissons Ratio (y) = 0.22076 0.13502
# Poissons Ratio (z) = 0.29611 0.45526
#
# Static dielectric constant tensor:
#      x y z
#    x 3.790090 0.000000 0.020770 
#    y 0.000000 3.798690 0.000000 
#    z 0.020770 0.000000 3.360270 
# 
# 
# High freq. dielectric constant tensor:
#      x y z
#    x 1.783210 0.000000 0.002130 
#    y 0.000000 1.773040 0.000000 
#    z 0.002130 0.000000 1.723680 
# 
# From -- ./inp_files/122372.got.cif
#   From: 2010.06.25/outbox.cif.g09.slc.cpg/sg12_62_cif.got.tgz:122372.got - 2010.06.28 00:19:55.
