data_PCOD8091378
_publ_section_title
;
Structure prediction by ZEFSAII (Michael W. Deem and Ramdas Pophale) SiO2 
 PCOD8091378
Probable space group: C 2/M
;
_chemical_formula_sum "Si O2"
_cell_formula_units_Z 40
_cell_length_a 15.938785
_cell_length_b 13.615105
_cell_length_c 9.938486
_cell_angle_alpha 90.000000
_cell_angle_beta 96.399674
_cell_angle_gamma 90.000000
_cell_volume 2143.293701
_symmetry_space_group_name_H-M "C 2/M"
_symmetry_group_IT_number 12
_symmetry_cell_setting 'monoclinic'
loop_
_space_group_symop_operation_xyz
x,y,z
-x,y,-z
-x,-y,-z
x,-y,z
1/2+x,1/2+y,z
1/2-x,1/2+y,-z
1/2-x,1/2-y,-z
1/2+x,1/2-y,z
loop_
_atom_site_type_symbol
_atom_site_label
_atom_site_fract_x
_atom_site_fract_y
_atom_site_fract_z
Si Si1 0.711596 0.887866 0.229989
Si Si2 0.154264 0.733062 0.447976
Si Si3 0.530275 0.608626 0.353834
Si Si4 0.618660 0.737556 0.732402
Si Si5 0.589599 0.887046 0.960304
O O1 0.650083 0.858284 0.343796
O O2 0.794024 0.820642 0.240336
O O3 0.739849 0.000000 0.255280
O O4 0.660981 0.872672 0.084359
O O5 0.250000 0.750000 0.500000
O O6 0.116450 0.828610 0.365277
O O7 0.105745 0.714922 0.580594
O O8 0.500000 0.596824 0.500000
O O9 0.547546 0.500000 0.295660
O O10 0.458231 0.662672 0.253044
O O11 0.617461 0.825580 0.836657
O O12 0.581943 0.000000 0.913897
O O13 0.500000 0.849165 0.000000
#
# Coordination Sequence:
#
# PCOD8091378 Si02
#       5
#     8   8   8   8   8
#     4  10  20  35  54  77 106 141 178 216 265 317
#     4   9  19  32  51  80 107 136 171 210 259 311
#     4   9  17  31  52  77 105 136 171 214 261 308
#     4  10  19  34  56  80 105 136 178 222 263 309
#     4  10  21  36  54  75 104 143 179 215 263 315
#
# _framework density 18.662865
#
# number of rings (size 3 to 8) (size 9 to 14) (size 15 to 20)
#    0.000    2.400    0.000    2.400    0.000    5.600 
#    0.000    3.000    0.000   22.800    0.000    0.000 
#    0.000    0.000    0.000    0.000    0.000    0.000 
#
# Total GULP energy -247925.734199 kJ/mol
# GULP energy per Si atom -12396.286710 kJ/mol
# Density = 1.862039 g / cm^3
# Si number density = 18.662865 Si / 1000 Ang^3
#
#
#
# Elastic Constant Matrix: (Units=GPa)
#
#
# Indices 1 2 3 4 5 6 
#
# 1 98.4046 53.9394 27.0709 0.0000 8.0465 0.0000
# 2 53.9394 119.4042 73.5310 0.0000 -5.9340 0.0000
# 3 27.0709 73.5310 97.8198 0.0000 -4.9653 0.0000
# 4 0.0000 0.0000 0.0000 29.7452 0.0000 -3.7412
# 5 8.0465 -5.9340 -4.9653 0.0000 22.8654 0.0000
# 6 0.0000 0.0000 0.0000 -3.7412 0.0000 33.7867
#
#
#
# Elastic Compliance Matrix: (Units=1/GPa)
#
#
# Indices 1 2 3 4 5 6 
#
# 1 0.014629 -0.007898 0.001540 0.000000 -0.006863 0.000000
# 2 -0.007898 0.019909 -0.012515 0.000000 0.005229 0.000000
# 3 0.001540 -0.012515 0.019223 0.000000 0.000385 0.000000
# 4 0.000000 0.000000 0.000000 0.034094 0.000000 0.003775
# 5 -0.006863 0.005229 0.000385 0.000000 0.047590 0.000000
# 6 0.000000 0.000000 0.000000 0.003775 0.000000 0.030015
#
#
# Mechanical properties :
#
#
# Convention : Reuss Voigt Hill
#
# Bulk Modulus (GPa) = 62.43555 69.41233 65.92394
# Shear Modulus (GPa) = 23.97573 28.01862 25.99717
#
# Velocity S-wave (km/s) = 3.58813 3.87887 3.73633
# Velocity P-wave (km/s) = 7.11992 7.57194 7.34941
#
# Compressibility (1/GPa) = 0.01601652
#
# Stress axis : x y z
#
# Youngs Moduli (GPa) = 68.35848 50.22799 52.01967
#
# Poissons Ratio (x) = 0.39669 -0.08011
# Poissons Ratio (y) = 0.53988 0.65101
# Poissons Ratio (z) = -0.10527 0.62859
#
# Static dielectric constant tensor:
#      x y z
#    x 3.479250 0.000000 0.039610 
#    y 0.000000 3.604510 0.000000 
#    z 0.039610 0.000000 3.596160 
# 
# 
# High freq. dielectric constant tensor:
#      x y z
#    x 1.730690 0.000000 0.018050 
#    y 0.000000 1.720090 0.000000 
#    z 0.018050 0.000000 1.712880 
# 
# From -- ./inp_files/59080.got.cif
#   From: 2010.06.25/outbox.cif.g09.slc.cpg/sg12_30_cif.got.tgz:59080.got - 2010.06.28 00:19:55.
