data_PCOD8091495
_publ_section_title
;
Structure prediction by ZEFSAII (Michael W. Deem and Ramdas Pophale) SiO2 
 PCOD8091495
Probable space group: C 2/M
;
_chemical_formula_sum "Si O2"
_cell_formula_units_Z 48
_cell_length_a 29.252354
_cell_length_b 10.338445
_cell_length_c 27.406205
_cell_angle_alpha 90.000000
_cell_angle_beta 17.797920
_cell_angle_gamma 90.000000
_cell_volume 2533.404887
_symmetry_space_group_name_H-M "C 2/M"
_symmetry_group_IT_number 12
_symmetry_cell_setting 'monoclinic'
loop_
_space_group_symop_operation_xyz
x,y,z
-x,y,-z
-x,-y,-z
x,-y,z
1/2+x,1/2+y,z
1/2-x,1/2+y,-z
1/2-x,1/2-y,-z
1/2+x,1/2-y,z
loop_
_atom_site_type_symbol
_atom_site_label
_atom_site_fract_x
_atom_site_fract_y
_atom_site_fract_z
Si Si1 0.188458 0.846895 0.705252
Si Si2 0.722461 0.141900 0.587843
Si Si3 0.501973 0.274387 0.249206
Si Si4 0.836956 0.346922 0.654532
Si Si5 0.732036 0.145563 0.085408
Si Si6 0.648791 0.653640 0.935067
O O1 0.241997 0.759983 0.605739
O O2 0.292396 0.809429 0.645144
O O3 0.199056 0.000000 0.681155
O O4 0.022572 0.803109 0.888536
O O5 0.574844 0.161024 0.704603
O O6 0.869954 0.136307 0.404117
O O7 0.707272 0.000000 0.628335
O O8 0.599066 0.222341 0.195393
O O9 0.612350 0.355353 0.102478
O O10 0.837262 0.500000 0.660096
O O11 0.721384 0.289293 0.811878
O O12 0.000000 0.288780 0.500000
O O13 0.761879 0.207198 0.108519
O O14 0.675379 0.000000 0.148439
O O15 0.655896 0.500000 0.928416
#
# Coordination Sequence:
#
# PCOD8091495 Si02
#       6
#     8   8   8   8   8   8
#     4  10  20  35  57  83 112 147 186 228 278 336
#     4  11  23  38  56  82 118 154 189 230 279 334
#     4  10  22  36  54  79 110 154 192 229 275 332
#     4   9  18  31  52  84 113 137 177 235 287 328
#     4  10  19  34  56  83 111 141 185 236 282 329
#     4   9  17  31  53  81 111 140 175 226 282 329
#
# _framework density 18.946833000000002
#
# number of rings (size 3 to 8) (size 9 to 14) (size 15 to 20)
#    0.000    2.167    1.667    1.500    2.333    5.333 
#    0.000    0.000    0.000    2.500    0.000    0.000 
#    0.000    0.000    0.000    0.000    0.000    0.000 
#
# Total GULP energy -297505.069497 kJ/mol
# GULP energy per Si atom -12396.044562 kJ/mol
# Density = 1.890371 g / cm^3
# Si number density = 18.946833 Si / 1000 Ang^3
#
#
#
# Elastic Constant Matrix: (Units=GPa)
#
#
# Indices 1 2 3 4 5 6 
#
# 1 119.7864 31.0833 31.0252 -0.0006 -6.2615 -0.0024
# 2 31.0833 63.2627 12.3665 -0.0072 3.4662 0.0024
# 3 31.0252 12.3665 68.0592 -0.0162 -3.7037 0.0061
# 4 -0.0006 -0.0072 -0.0162 9.9917 0.0077 4.2003
# 5 -6.2615 3.4662 -3.7037 0.0077 32.7131 -0.0015
# 6 -0.0024 0.0024 0.0061 4.2003 -0.0015 18.3585
#
#
#
# Elastic Compliance Matrix: (Units=1/GPa)
#
#
# Indices 1 2 3 4 5 6 
#
# 1 0.010661 -0.004587 -0.003913 -0.000013 0.002084 0.000007
# 2 -0.004587 0.018506 -0.001435 0.000016 -0.003001 -0.000006
# 3 -0.003913 -0.001435 0.016809 0.000030 0.001306 -0.000013
# 4 -0.000013 0.000016 0.000030 0.110733 -0.000028 -0.025335
# 5 0.002084 -0.003001 0.001306 -0.000028 0.031434 0.000009
# 6 0.000007 -0.000006 -0.000013 -0.025335 0.000009 0.060267
#
#
# Mechanical properties :
#
#
# Convention : Reuss Voigt Hill
#
# Bulk Modulus (GPa) = 38.30617 44.45090 41.37854
# Shear Modulus (GPa) = 18.05175 23.98821 21.01998
#
# Velocity S-wave (km/s) = 3.09003 3.56206 3.33441
# Velocity P-wave (km/s) = 5.74392 6.35842 6.05897
#
# Compressibility (1/GPa) = 0.02610545
#
# Stress axis : x y z
#
# Youngs Moduli (GPa) = 93.80023 54.03664 59.49334
#
# Poissons Ratio (x) = 0.24789 0.23279
# Poissons Ratio (y) = 0.43030 0.08536
# Poissons Ratio (z) = 0.36703 0.07753
#
# Static dielectric constant tensor:
#      x y z
#    x 3.697980 -0.000010 -0.016190 
#    y -0.000010 2.927870 0.000010 
#    z -0.016190 0.000010 3.630940 
# 
# 
# High freq. dielectric constant tensor:
#      x y z
#    x 1.750720 0.000000 -0.006370 
#    y 0.000000 1.676800 0.000000 
#    z -0.006370 0.000000 1.746920 
# 
# From -- ./inp_files/109348.got.cif
#   From: 2010.06.25/outbox.cif.g09.slc.cpg/sg12_55_cif.got.tgz:109348.got - 2010.06.28 00:19:55.
