data_PCOD8091361
_publ_section_title
;
Structure prediction by ZEFSAII (Michael W. Deem and Ramdas Pophale) SiO2 
 PCOD8091361
Probable space group: C 2/M
;
_chemical_formula_sum "Si O2"
_cell_formula_units_Z 56
_cell_length_a 28.146683
_cell_length_b 9.363392
_cell_length_c 20.832927
_cell_angle_alpha 90.000000
_cell_angle_beta 32.609031
_cell_angle_gamma 90.000000
_cell_volume 2958.842016
_symmetry_space_group_name_H-M "C 2/M"
_symmetry_group_IT_number 12
_symmetry_cell_setting 'monoclinic'
loop_
_space_group_symop_operation_xyz
x,y,z
-x,y,-z
-x,-y,-z
x,-y,z
1/2+x,1/2+y,z
1/2-x,1/2+y,-z
1/2-x,1/2-y,-z
1/2+x,1/2-y,z
loop_
_atom_site_type_symbol
_atom_site_label
_atom_site_fract_x
_atom_site_fract_y
_atom_site_fract_z
Si Si1 0.421684 0.668183 0.134170
Si Si2 0.837380 0.166081 0.823239
Si Si3 0.723979 0.831966 0.342399
Si Si4 0.965730 0.661406 0.207655
Si Si5 0.639524 0.163802 0.078392
Si Si6 0.186735 0.664168 0.525849
Si Si7 0.101770 0.664662 0.367671
O O1 0.431401 0.500000 0.131508
O O2 0.326408 0.708821 0.212795
O O3 0.427964 0.733897 0.197377
O O4 0.500000 0.728784 0.000000
O O5 0.876357 0.233221 0.843572
O O6 0.882046 0.242225 0.713000
O O7 0.861563 0.000000 0.794670
O O8 0.732845 0.193142 0.938805
O O9 0.692152 0.771213 0.447679
O O10 0.662167 0.770298 0.356322
O O11 0.710377 0.000000 0.358974
O O12 0.956576 0.500000 0.192054
O O13 0.912416 0.679374 0.334905
O O14 0.066911 0.699372 0.107315
O O15 0.631822 0.000000 0.110974
O O16 0.218481 0.500000 0.489333
O O17 0.250000 0.750000 0.500000
O O18 0.126776 0.500000 0.325339
O O19 0.000000 0.679987 0.500000
#
# Coordination Sequence:
#
# PCOD8091361 Si02
#       7
#     8   8   8   8   8   8   8
#     4  10  21  36  55  80 113 150 185 223 273 332
#     4  10  21  38  58  83 113 143 182 234 286 329
#     4   9  19  36  55  79 109 144 186 229 270 323
#     4  10  21  35  57  85 110 142 183 228 276 326
#     4   9  20  38  59  82 110 146 185 227 279 339
#     4  10  19  34  56  79 108 140 180 226 270 321
#     4  10  22  38  60  83 108 150 195 229 272 331
#
# _framework density 18.926321999999999
#
# number of rings (size 3 to 8) (size 9 to 14) (size 15 to 20)
#    0.000    2.286    1.429    0.429    4.000    1.714 
#    0.000    1.429    0.000    0.000    0.000    0.000 
#    0.000    0.000    0.000    0.000    0.000    0.000 
#
# Total GULP energy -347226.279439 kJ/mol
# GULP energy per Si atom -12400.938551 kJ/mol
# Density = 1.888324 g / cm^3
# Si number density = 18.926322 Si / 1000 Ang^3
#
#
#
# Elastic Constant Matrix: (Units=GPa)
#
#
# Indices 1 2 3 4 5 6 
#
# 1 93.1368 35.8013 32.6401 -0.0015 -9.1495 0.0008
# 2 35.8013 63.6995 35.5540 -0.0005 5.6126 0.0005
# 3 32.6401 35.5540 92.9721 -0.0012 6.5022 0.0006
# 4 -0.0015 -0.0005 -0.0012 18.4019 0.0013 5.7419
# 5 -9.1495 5.6126 6.5022 0.0013 29.8119 -0.0013
# 6 0.0008 0.0005 0.0006 5.7419 -0.0013 24.3501
#
#
#
# Elastic Compliance Matrix: (Units=1/GPa)
#
#
# Indices 1 2 3 4 5 6 
#
# 1 0.015354 -0.007569 -0.002970 0.000000 0.006785 0.000000
# 2 -0.007569 0.023824 -0.006070 0.000000 -0.005485 0.000000
# 3 -0.002970 -0.006070 0.014322 0.000001 -0.002893 -0.000001
# 4 0.000000 0.000000 0.000001 0.058658 -0.000003 -0.013832
# 5 0.006785 -0.005485 -0.002893 -0.000003 0.037290 0.000003
# 6 0.000000 0.000000 -0.000001 -0.013832 0.000003 0.044329
#
#
# Mechanical properties :
#
#
# Convention : Reuss Voigt Hill
#
# Bulk Modulus (GPa) = 49.30621 50.86657 50.08639
# Shear Modulus (GPa) = 21.38978 24.23365 22.81171
#
# Velocity S-wave (km/s) = 3.36543 3.58218 3.47550
# Velocity P-wave (km/s) = 6.41948 6.63655 6.52892
#
# Compressibility (1/GPa) = 0.02028142
#
# Stress axis : x y z
#
# Youngs Moduli (GPa) = 65.12938 41.97431 69.82192
#
# Poissons Ratio (x) = 0.31772 0.20739
# Poissons Ratio (y) = 0.49300 0.42380
# Poissons Ratio (z) = 0.19345 0.25477
#
# Static dielectric constant tensor:
#      x y z
#    x 3.546600 -0.000010 -0.083220 
#    y -0.000010 3.311130 0.000010 
#    z -0.083220 0.000010 3.679830 
# 
# 
# High freq. dielectric constant tensor:
#      x y z
#    x 1.736790 0.000000 -0.005770 
#    y 0.000000 1.715040 0.000000 
#    z -0.005770 0.000000 1.744580 
# 
# From -- ./inp_files/292394.got.cif
#   From: 2010.06.25/outbox.cif.g09.slc.cpg/sg12_147_cif.got.tgz:292394.got - 2010.06.28 00:19:55.
