data_PCOD8091888
_publ_section_title
;
Structure prediction by ZEFSAII (Michael W. Deem and Ramdas Pophale) SiO2 
 PCOD8091888
Probable space group: C 2/M
;
_chemical_formula_sum "Si O2"
_cell_formula_units_Z 56
_cell_length_a 19.609594
_cell_length_b 8.868180
_cell_length_c 21.052127
_cell_angle_alpha 90.000000
_cell_angle_beta 125.319552
_cell_angle_gamma 90.000000
_cell_volume 2987.153180
_symmetry_space_group_name_H-M "C 2/M"
_symmetry_group_IT_number 12
_symmetry_cell_setting 'monoclinic'
loop_
_space_group_symop_operation_xyz
x,y,z
-x,y,-z
-x,-y,-z
x,-y,z
1/2+x,1/2+y,z
1/2-x,1/2+y,-z
1/2-x,1/2-y,-z
1/2+x,1/2-y,z
loop_
_atom_site_type_symbol
_atom_site_label
_atom_site_fract_x
_atom_site_fract_y
_atom_site_fract_z
Si Si1 0.608707 0.821603 0.800216
Si Si2 0.092685 0.828220 0.051598
Si Si3 0.838161 0.171617 0.050910
Si Si4 0.177331 0.178088 0.502794
Si Si5 0.343312 0.324876 0.367755
Si Si6 0.492257 0.321959 0.361157
Si Si7 0.257991 0.824396 0.807792
O O1 0.600816 0.757469 0.867153
O O2 0.532456 0.757584 0.717814
O O3 0.698173 0.770649 0.821309
O O4 0.604250 0.000000 0.799024
O O5 0.147621 0.728670 0.129537
O O6 0.093185 0.000000 0.077104
O O7 0.123558 0.817530 0.997207
O O8 0.000000 0.760403 0.000000
O O9 0.827124 0.000000 0.067641
O O10 0.750000 0.250000 0.000000
O O11 0.250000 0.250000 0.500000
O O12 0.178798 0.246283 0.575461
O O13 0.087223 0.222360 0.426200
O O14 0.191346 0.000000 0.509705
O O15 0.357575 0.500000 0.387878
O O16 0.430152 0.262666 0.383881
O O17 0.266462 0.292812 0.278665
O O18 0.479574 0.500000 0.345941
O O19 0.247193 0.000000 0.818130
#
# Coordination Sequence:
#
# PCOD8091888 Si02
#       7
#     8   8   8   8   8   8   8
#     4  11  21  34  55  84 114 143 180 234 283 321
#     4  10  22  39  56  78 111 149 184 226 277 327
#     4  11  21  35  58  83 112 147 185 227 274 330
#     4  10  20  36  57  81 114 146 178 220 273 332
#     4   8  16  33  58  83 104 137 182 227 269 316
#     4   9  18  35  59  82 105 141 188 229 268 322
#     4  10  19  34  58  83 109 142 185 231 274 329
#
# _framework density 18.746946000000001
#
# number of rings (size 3 to 8) (size 9 to 14) (size 15 to 20)
#    0.000    2.143    1.429    3.429    0.000    3.143 
#    2.571    3.571    0.000    4.286    0.000    0.000 
#    0.000    0.000    0.000    0.000    0.000    0.000 
#
# Total GULP energy -347168.627180 kJ/mol
# GULP energy per Si atom -12398.879542 kJ/mol
# Density = 1.870428 g / cm^3
# Si number density = 18.746946 Si / 1000 Ang^3
#
#
#
# Elastic Constant Matrix: (Units=GPa)
#
#
# Indices 1 2 3 4 5 6 
#
# 1 96.0389 34.5902 65.9550 0.0000 15.4364 0.0000
# 2 34.5902 81.5075 59.6582 0.0000 3.6635 0.0000
# 3 65.9550 59.6582 153.4733 0.0000 9.8376 0.0000
# 4 0.0000 0.0000 0.0000 29.4388 0.0000 4.1850
# 5 15.4364 3.6635 9.8376 0.0000 27.9329 0.0000
# 6 0.0000 0.0000 0.0000 4.1850 0.0000 24.9680
#
#
#
# Elastic Compliance Matrix: (Units=1/GPa)
#
#
# Indices 1 2 3 4 5 6 
#
# 1 0.016208 -0.002506 -0.005564 0.000000 -0.006669 0.000000
# 2 -0.002506 0.017535 -0.005812 0.000000 0.001132 0.000000
# 3 -0.005564 -0.005812 0.011172 0.000000 -0.000098 0.000000
# 4 0.000000 0.000000 0.000000 0.034798 0.000000 -0.005833
# 5 -0.006669 0.001132 -0.000098 0.000000 0.039371 0.000000
# 6 0.000000 0.000000 0.000000 -0.005833 0.000000 0.041029
#
#
# Mechanical properties :
#
#
# Convention : Reuss Voigt Hill
#
# Bulk Modulus (GPa) = 58.30251 72.38070 65.34161
# Shear Modulus (GPa) = 25.82718 27.85571 26.84145
#
# Velocity S-wave (km/s) = 3.71573 3.85889 3.78799
# Velocity P-wave (km/s) = 7.04103 7.65166 7.35269
#
# Compressibility (1/GPa) = 0.01715192
#
# Stress axis : x y z
#
# Youngs Moduli (GPa) = 61.69865 57.02721 89.50811
#
# Poissons Ratio (x) = 0.14293 0.49798
# Poissons Ratio (y) = 0.15464 0.52021
# Poissons Ratio (z) = 0.34326 0.33143
#
# Static dielectric constant tensor:
#      x y z
#    x 3.266330 0.000000 -0.083730 
#    y 0.000000 3.430870 0.000000 
#    z -0.083730 0.000000 3.707500 
# 
# 
# High freq. dielectric constant tensor:
#      x y z
#    x 1.709690 0.000000 -0.002400 
#    y 0.000000 1.712890 0.000000 
#    z -0.002400 0.000000 1.745410 
# 
# From -- ./inp_files/314425.got.cif
#   From: 2010.06.25/outbox.cif.g09.slc.cpg/sg12_158_cif.got.tgz:314425.got - 2010.06.28 00:19:55.
