data_PCOD8091314
_publ_section_title
;
Structure prediction by ZEFSAII (Michael W. Deem and Ramdas Pophale) SiO2 
 PCOD8091314
Probable space group: C 2/M
;
_chemical_formula_sum "Si O2"
_cell_formula_units_Z 56
_cell_length_a 15.178290
_cell_length_b 9.253442
_cell_length_c 21.687789
_cell_angle_alpha 90.000000
_cell_angle_beta 80.329181
_cell_angle_gamma 90.000000
_cell_volume 3002.793508
_symmetry_space_group_name_H-M "C 2/M"
_symmetry_group_IT_number 12
_symmetry_cell_setting 'monoclinic'
loop_
_space_group_symop_operation_xyz
x,y,z
-x,y,-z
-x,-y,-z
x,-y,z
1/2+x,1/2+y,z
1/2-x,1/2+y,-z
1/2-x,1/2-y,-z
1/2+x,1/2-y,z
loop_
_atom_site_type_symbol
_atom_site_label
_atom_site_fract_x
_atom_site_fract_y
_atom_site_fract_z
Si Si1 0.773330 0.835015 0.558534
Si Si2 0.721352 0.169200 0.088483
Si Si3 0.189657 0.328523 0.230477
Si Si4 0.602236 0.330356 0.006207
Si Si5 0.991549 0.330672 0.694872
Si Si6 0.683121 0.834755 0.694672
Si Si7 0.444537 0.168143 0.566316
O O1 0.750000 0.750000 0.500000
O O2 0.697227 0.822888 0.619338
O O3 0.858709 0.767115 0.580471
O O4 0.790568 0.000000 0.537538
O O5 0.715516 0.223833 0.159287
O O6 0.823291 0.204567 0.055169
O O7 0.701481 0.000000 0.083963
O O8 0.641165 0.249260 0.061555
O O9 0.191636 0.500000 0.234411
O O10 0.093247 0.261500 0.260210
O O11 0.258369 0.271168 0.272240
O O12 0.598830 0.500000 0.021232
O O13 0.500000 0.278871 0.000000
O O14 0.981307 0.500000 0.702503
O O15 0.998373 0.292318 0.621624
O O16 0.081805 0.280961 0.717894
O O17 0.698864 0.000000 0.714233
O O18 0.500000 0.212974 0.500000
O O19 0.416744 0.000000 0.566402
#
# Coordination Sequence:
#
# PCOD8091314 Si02
#       7
#     8   8   8   8   8   8   8
#     4  11  22  35  53  77 106 136 176 227 276 328
#     4   9  19  34  53  80 110 142 182 224 263 311
#     4  10  20  36  56  78 108 143 180 223 269 319
#     4   9  18  34  55  79 111 147 180 217 265 317
#     4   9  18  34  54  74 102 139 174 211 267 326
#     4  10  21  37  55  77 105 139 179 221 265 324
#     4  10  19  34  56  77 101 136 176 217 270 332
#
# _framework density 18.6493
#
# number of rings (size 3 to 8) (size 9 to 14) (size 15 to 20)
#    0.000    2.286    1.429    1.286    0.000    5.143 
#    0.000    1.429    0.000    0.000    0.000    0.000 
#    0.000    0.000    0.000    0.000    0.000    0.000 
#
# Total GULP energy -347026.342376 kJ/mol
# GULP energy per Si atom -12393.797942 kJ/mol
# Density = 1.860685 g / cm^3
# Si number density = 18.649300 Si / 1000 Ang^3
#
#
#
# Elastic Constant Matrix: (Units=GPa)
#
#
# Indices 1 2 3 4 5 6 
#
# 1 130.5116 17.5524 42.5229 0.0000 -2.1926 0.0000
# 2 17.5524 29.7399 22.2153 0.0000 1.1833 0.0000
# 3 42.5229 22.2153 103.6988 0.0000 -8.3797 0.0000
# 4 0.0000 0.0000 0.0000 20.1769 0.0000 4.3646
# 5 -2.1926 1.1833 -8.3797 0.0000 23.5256 0.0000
# 6 0.0000 0.0000 0.0000 4.3646 0.0000 25.2513
#
#
#
# Elastic Compliance Matrix: (Units=1/GPa)
#
#
# Indices 1 2 3 4 5 6 
#
# 1 0.009073 -0.003055 -0.003074 0.000000 -0.000096 0.000000
# 2 -0.003055 0.041691 -0.008105 0.000000 -0.005268 0.000000
# 3 -0.003074 -0.008105 0.013025 0.000000 0.004760 0.000000
# 4 0.000000 0.000000 0.000000 0.051487 0.000000 -0.008899
# 5 -0.000096 -0.005268 0.004760 0.000000 0.044459 0.000000
# 6 0.000000 0.000000 0.000000 -0.008899 0.000000 0.041140
#
#
# Mechanical properties :
#
#
# Convention : Reuss Voigt Hill
#
# Bulk Modulus (GPa) = 28.31051 47.61462 37.96257
# Shear Modulus (GPa) = 20.73699 25.90140 23.31920
#
# Velocity S-wave (km/s) = 3.33820 3.73079 3.53994
# Velocity P-wave (km/s) = 5.48375 6.64420 6.09167
#
# Compressibility (1/GPa) = 0.03532257
#
# Stress axis : x y z
#
# Youngs Moduli (GPa) = 110.21872 23.98572 76.77758
#
# Poissons Ratio (x) = 0.07328 0.23599
# Poissons Ratio (y) = 0.33671 0.62225
# Poissons Ratio (z) = 0.33878 0.19439
#
# Static dielectric constant tensor:
#      x y z
#    x 4.309120 0.000000 -0.406670 
#    y 0.000000 -0.296040 0.000000 
#    z -0.406670 0.000000 3.983030 
# 
# 
# High freq. dielectric constant tensor:
#      x y z
#    x 1.734380 0.000000 -0.003960 
#    y 0.000000 1.703390 0.000000 
#    z -0.003960 0.000000 1.723470 
# 
# From -- ./inp_files/308923.got.cif
#   From: 2010.06.25/outbox.cif.g09.slc.cpg/sg12_155_cif.got.tgz:308923.got - 2010.06.28 00:19:55.
