data_PCOD8091409
_publ_section_title
;
Structure prediction by ZEFSAII (Michael W. Deem and Ramdas Pophale) SiO2 
 PCOD8091409
Probable space group: C 2/M
;
_chemical_formula_sum "Si O2"
_cell_formula_units_Z 64
_cell_length_a 23.907358
_cell_length_b 9.113201
_cell_length_c 28.899711
_cell_angle_alpha 90.000000
_cell_angle_beta 30.745433
_cell_angle_gamma 90.000000
_cell_volume 3218.902056
_symmetry_space_group_name_H-M "C 2/M"
_symmetry_group_IT_number 12
_symmetry_cell_setting 'monoclinic'
loop_
_space_group_symop_operation_xyz
x,y,z
-x,y,-z
-x,-y,-z
x,-y,z
1/2+x,1/2+y,z
1/2-x,1/2+y,-z
1/2-x,1/2-y,-z
1/2+x,1/2-y,z
loop_
_atom_site_type_symbol
_atom_site_label
_atom_site_fract_x
_atom_site_fract_y
_atom_site_fract_z
Si Si1 0.948741 0.173662 0.585095
Si Si2 0.314086 0.327474 0.996082
Si Si3 0.300607 0.829177 0.827360
Si Si4 0.141040 0.674224 0.680041
Si Si5 0.983508 0.170304 0.306264
Si Si6 0.866279 0.829541 0.479938
Si Si7 0.065124 0.169962 0.820905
Si Si8 0.239618 0.167754 0.769577
O O1 0.829213 0.239276 0.678194
O O2 0.000000 0.222850 0.500000
O O3 0.031378 0.237908 0.565015
O O4 0.935252 0.000000 0.597563
O O5 0.304217 0.500000 0.994827
O O6 0.439960 0.276219 0.908740
O O7 0.250000 0.250000 0.000000
O O8 0.265556 0.281088 0.080135
O O9 0.407732 0.730242 0.747379
O O10 0.231274 0.794106 0.830179
O O11 0.333003 0.000000 0.807036
O O12 0.133253 0.500000 0.684206
O O13 0.038823 0.740920 0.724684
O O14 0.251730 0.738458 0.578226
O O15 0.135499 0.731438 0.735969
O O16 0.883660 0.197008 0.413039
O O17 0.998507 0.000000 0.283629
O O18 0.862069 0.000000 0.495348
O O19 0.119581 0.195402 0.832633
O O20 0.072622 0.000000 0.800884
O O21 0.275231 0.000000 0.737913
#
# Coordination Sequence:
#
# PCOD8091409 Si02
#       8
#     8   8   8   8   8   8   8   8
#     4  10  19  34  56  80 112 155 198 235 278 337
#     4  10  22  40  62  86 115 149 189 234 287 347
#     4  10  21  38  60  87 115 150 193 239 287 340
#     4  11  22  37  57  82 113 150 193 240 286 339
#     4  11  21  36  57  82 115 152 190 236 288 344
#     4   9  19  34  52  79 112 149 191 231 281 339
#     4  10  22  40  59  84 116 150 187 232 288 344
#     4  10  21  37  58  85 117 148 189 239 286 337
#
# _framework density 19.882555
#
# number of rings (size 3 to 8) (size 9 to 14) (size 15 to 20)
#    0.000    1.875    1.250    2.625    0.000    5.250 
#    0.000    5.625    0.000    0.000    0.000    3.500 
#    0.000    0.000    0.000    0.000    0.000    0.000 
#
# Total GULP energy -396814.759881 kJ/mol
# GULP energy per Si atom -12400.461246 kJ/mol
# Density = 1.983730 g / cm^3
# Si number density = 19.882555 Si / 1000 Ang^3
#
#
#
# Elastic Constant Matrix: (Units=GPa)
#
#
# Indices 1 2 3 4 5 6 
#
# 1 151.2706 42.9340 58.7697 0.0075 0.0834 -0.0043
# 2 42.9340 58.5653 41.4203 -0.0052 3.2643 0.0217
# 3 58.7697 41.4203 117.7299 0.0021 2.8638 -0.0021
# 4 0.0075 -0.0052 0.0021 25.3403 0.0022 0.3710
# 5 0.0834 3.2643 2.8638 0.0022 36.4351 -0.0013
# 6 -0.0043 0.0217 -0.0021 0.3710 -0.0013 29.1321
#
#
#
# Elastic Compliance Matrix: (Units=1/GPa)
#
#
# Indices 1 2 3 4 5 6 
#
# 1 0.009050 -0.004610 -0.002911 -0.000004 0.000621 0.000005
# 2 -0.004610 0.025152 -0.006506 0.000007 -0.001732 -0.000020
# 3 -0.002911 -0.006506 0.012245 -0.000002 -0.000373 0.000005
# 4 -0.000004 0.000007 -0.000002 0.039470 -0.000003 -0.000503
# 5 0.000621 -0.001732 -0.000373 -0.000003 0.027629 0.000003
# 6 0.000005 -0.000020 0.000005 -0.000503 0.000003 0.034333
#
#
# Mechanical properties :
#
#
# Convention : Reuss Voigt Hill
#
# Bulk Modulus (GPa) = 54.36631 68.20151 61.28391
# Shear Modulus (GPa) = 27.46295 30.47763 28.97029
#
# Velocity S-wave (km/s) = 3.72056 3.91945 3.82130
# Velocity P-wave (km/s) = 6.77199 7.40672 7.09645
#
# Compressibility (1/GPa) = 0.01839374
#
# Stress axis : x y z
#
# Youngs Moduli (GPa) = 110.50181 39.75754 81.66686
#
# Poissons Ratio (x) = 0.18330 0.23770
# Poissons Ratio (y) = 0.50946 0.53130
# Poissons Ratio (z) = 0.32162 0.25865
#
# Static dielectric constant tensor:
#      x y z
#    x 3.780870 -0.000040 -0.010080 
#    y -0.000040 3.388410 0.000000 
#    z -0.010080 0.000000 3.616930 
# 
# 
# High freq. dielectric constant tensor:
#      x y z
#    x 1.791770 0.000000 0.001930 
#    y 0.000000 1.756070 0.000000 
#    z 0.001930 0.000000 1.772730 
# 
# From -- ./inp_files/382260.got.cif
#   From: 2010.06.25/outbox.cif.g09.slc.cpg/sg12_192_cif.got.tgz:382260.got - 2010.06.28 00:19:55.
