data_PCOD8091428
_publ_section_title
;
Structure prediction by ZEFSAII (Michael W. Deem and Ramdas Pophale) SiO2 
 PCOD8091428
Probable space group: C 2/M
;
_chemical_formula_sum "Si O2"
_cell_formula_units_Z 40
_cell_length_a 14.443203
_cell_length_b 17.296652
_cell_length_c 12.266980
_cell_angle_alpha 90.000000
_cell_angle_beta 45.883386
_cell_angle_gamma 90.000000
_cell_volume 2200.097762
_symmetry_space_group_name_H-M "C 2/M"
_symmetry_group_IT_number 12
_symmetry_cell_setting 'monoclinic'
loop_
_space_group_symop_operation_xyz
x,y,z
-x,y,-z
-x,-y,-z
x,-y,z
1/2+x,1/2+y,z
1/2-x,1/2+y,-z
1/2-x,1/2-y,-z
1/2+x,1/2-y,z
loop_
_atom_site_type_symbol
_atom_site_label
_atom_site_fract_x
_atom_site_fract_y
_atom_site_fract_z
Si Si1 0.460228 0.277959 0.332992
Si Si2 0.709181 0.802670 0.133595
Si Si3 0.843101 0.912576 0.882582
Si Si4 0.259245 0.768661 0.324592
Si Si5 0.857459 0.413924 0.146456
O O1 0.553188 0.202155 0.259625
O O2 0.541742 0.357291 0.254295
O O3 0.358408 0.278042 0.318390
O O4 0.384274 0.272597 0.509215
O O5 0.762556 0.771881 0.204418
O O6 0.750000 0.750000 0.000000
O O7 0.775723 0.885325 0.052294
O O8 0.729867 0.910107 0.888244
O O9 0.896097 0.000000 0.854639
O O10 0.303907 0.857319 0.282289
O O11 0.859696 0.500000 0.194651
O O12 0.000000 0.385748 0.000000
#
# Coordination Sequence:
#
# PCOD8091428 Si02
#       5
#     8   8   8   8   8
#     4  10  22  36  55  84 112 151 189 232 274 337
#     4  10  19  34  56  81 109 145 185 232 275 331
#     4  10  21  37  57  85 114 148 187 233 287 330
#     4  11  21  35  57  82 114 149 190 230 283 327
#     4  10  20  33  54  83 113 143 181 234 287 330
#
# _framework density 18.181010000000001
#
# number of rings (size 3 to 8) (size 9 to 14) (size 15 to 20)
#    0.000    1.800    4.000    1.800    2.800    0.800 
#    0.000    4.000    0.000    4.800    0.000    0.000 
#    0.000    0.000    0.000    0.000    0.000    0.000 
#
# Total GULP energy -247854.556749 kJ/mol
# GULP energy per Si atom -12392.727837 kJ/mol
# Density = 1.813963 g / cm^3
# Si number density = 18.181010 Si / 1000 Ang^3
#
#
#
# Elastic Constant Matrix: (Units=GPa)
#
#
# Indices 1 2 3 4 5 6 
#
# 1 77.9817 20.0224 35.9485 0.0000 -5.8537 0.0000
# 2 20.0224 82.9532 37.7459 0.0000 -2.4233 0.0000
# 3 35.9485 37.7459 103.4935 -0.0001 -6.9686 0.0001
# 4 0.0000 0.0000 -0.0001 25.9691 0.0001 -4.2546
# 5 -5.8537 -2.4233 -6.9686 0.0001 33.5220 0.0000
# 6 0.0000 0.0000 0.0001 -4.2546 0.0000 19.6323
#
#
#
# Elastic Compliance Matrix: (Units=1/GPa)
#
#
# Indices 1 2 3 4 5 6 
#
# 1 0.015517 -0.001553 -0.004715 0.000000 0.001617 0.000000
# 2 -0.001553 0.014609 -0.004803 0.000000 -0.000214 0.000000
# 3 -0.004715 -0.004803 0.013157 0.000000 0.001565 0.000000
# 4 0.000000 0.000000 0.000000 0.039925 0.000000 0.008652
# 5 0.001617 -0.000214 0.001565 0.000000 0.030423 0.000000
# 6 0.000000 0.000000 0.000000 0.008652 0.000000 0.052812
#
#
# Mechanical properties :
#
#
# Convention : Reuss Voigt Hill
#
# Bulk Modulus (GPa) = 47.29899 50.20688 48.75294
# Shear Modulus (GPa) = 25.55821 27.20545 26.38183
#
# Velocity S-wave (km/s) = 3.75342 3.87249 3.81342
# Velocity P-wave (km/s) = 6.69748 6.90433 6.80170
#
# Compressibility (1/GPa) = 0.02114210
#
# Stress axis : x y z
#
# Youngs Moduli (GPa) = 64.44556 68.45027 76.00391
#
# Poissons Ratio (x) = 0.10629 0.35833
# Poissons Ratio (y) = 0.10007 0.36506
# Poissons Ratio (z) = 0.30383 0.32878
#
# Static dielectric constant tensor:
#      x y z
#    x 3.341480 0.000000 -0.121110 
#    y 0.000000 4.028680 0.000000 
#    z -0.121110 0.000000 3.716810 
# 
# 
# High freq. dielectric constant tensor:
#      x y z
#    x 1.708700 0.000000 -0.012050 
#    y 0.000000 1.686820 0.000000 
#    z -0.012050 0.000000 1.709990 
# 
# From -- ./inp_files/145281.got.cif
#   From: 2010.06.25/outbox.cif.g09.slc.cpg/sg12_73_cif.got.tgz:145281.got - 2010.06.28 00:19:55.
