data_PCOD8091180
_publ_section_title
;
Structure prediction by ZEFSAII (Michael W. Deem and Ramdas Pophale) SiO2 
 PCOD8091180
Probable space group: C 2/M
;
_chemical_formula_sum "Si O2"
_cell_formula_units_Z 64
_cell_length_a 30.930550
_cell_length_b 9.120630
_cell_length_c 15.069660
_cell_angle_alpha 90.000000
_cell_angle_beta 132.447178
_cell_angle_gamma 90.000000
_cell_volume 3136.991656
_symmetry_space_group_name_H-M "C 2/M"
_symmetry_group_IT_number 12
_symmetry_cell_setting 'monoclinic'
loop_
_space_group_symop_operation_xyz
x,y,z
-x,y,-z
-x,-y,-z
x,-y,z
1/2+x,1/2+y,z
1/2-x,1/2+y,-z
1/2-x,1/2-y,-z
1/2+x,1/2-y,z
loop_
_atom_site_type_symbol
_atom_site_label
_atom_site_fract_x
_atom_site_fract_y
_atom_site_fract_z
Si Si1 0.801656 0.673210 0.422956
Si Si2 0.947196 0.172510 0.867190
Si Si3 0.312483 0.165434 0.940480
Si Si4 0.327152 0.673169 0.781355
Si Si5 0.318974 0.667442 0.265155
Si Si6 0.998521 0.830564 0.393681
Si Si7 0.910157 0.830893 0.627664
Si Si8 0.113291 0.672171 0.788638
O O1 0.808504 0.500000 0.433239
O O2 0.734264 0.721390 0.351418
O O3 0.818445 0.734401 0.350827
O O4 0.849249 0.742239 0.555707
O O5 0.883845 0.236327 0.809271
O O6 0.953161 0.210139 0.770331
O O7 0.947946 0.000000 0.884776
O O8 0.000000 0.242444 0.000000
O O9 0.329738 0.270223 0.884770
O O10 0.243963 0.174431 0.869553
O O11 0.330049 0.000000 0.938449
O O12 0.347167 0.219137 0.074197
O O13 0.328972 0.500000 0.789195
O O14 0.336517 0.500000 0.313532
O O15 0.367714 0.733997 0.269479
O O16 0.952662 0.722663 0.282544
O O17 0.000000 0.791119 0.500000
O O18 0.059145 0.798479 0.424923
O O19 0.980618 0.000000 0.355183
O O20 0.892505 0.000000 0.611331
O O21 0.117333 0.500000 0.774055
#
# Coordination Sequence:
#
# PCOD8091180 Si02
#       8
#     8   8   8   8   8   8   8   8
#     4  10  20  35  56  84 116 147 183 233 290 343
#     4   9  19  36  59  86 115 147 191 243 285 332
#     4   9  20  35  52  79 114 149 185 229 283 342
#     4   9  19  35  58  85 112 146 190 236 282 336
#     4  10  19  34  55  79 111 151 191 231 277 332
#     4  10  22  38  55  79 109 144 193 240 279 335
#     4  10  21  37  59  85 112 150 196 239 286 339
#     4  11  22  34  52  79 112 147 185 233 288 343
#
# _framework density 20.401710999999999
#
# number of rings (size 3 to 8) (size 9 to 14) (size 15 to 20)
#    0.000    2.250    0.000    2.250    1.750    4.250 
#    0.000    0.625    0.000    0.750    0.000    0.000 
#    0.000    0.000    0.000    0.000    0.000    0.000 
#
# Total GULP energy -396683.127953 kJ/mol
# GULP energy per Si atom -12396.347749 kJ/mol
# Density = 2.035528 g / cm^3
# Si number density = 20.401711 Si / 1000 Ang^3
#
#
#
# Elastic Constant Matrix: (Units=GPa)
#
#
# Indices 1 2 3 4 5 6 
#
# 1 104.3880 25.8690 42.8551 0.0000 9.7627 0.0000
# 2 25.8690 35.8775 33.4649 0.0000 7.7035 0.0000
# 3 42.8551 33.4649 126.8059 0.0000 15.2962 0.0000
# 4 0.0000 0.0000 0.0000 31.6483 0.0000 5.8922
# 5 9.7627 7.7035 15.2962 0.0000 26.5594 0.0000
# 6 0.0000 0.0000 0.0000 5.8922 0.0000 18.9994
#
#
#
# Elastic Compliance Matrix: (Units=1/GPa)
#
#
# Indices 1 2 3 4 5 6 
#
# 1 0.012227 -0.006403 -0.002283 0.000000 -0.001322 0.000000
# 2 -0.006403 0.041086 -0.008087 0.000000 -0.004906 0.000000
# 3 -0.002283 -0.008087 0.011185 0.000000 -0.003257 0.000000
# 4 0.000000 0.000000 0.000000 0.033533 0.000000 -0.010400
# 5 -0.001322 -0.004906 -0.003257 0.000000 0.041436 0.000000
# 6 0.000000 0.000000 0.000000 -0.010400 0.000000 0.055858
#
#
# Mechanical properties :
#
#
# Convention : Reuss Voigt Hill
#
# Bulk Modulus (GPa) = 32.30816 52.38328 42.34572
# Shear Modulus (GPa) = 20.90390 26.43358 23.66874
#
# Velocity S-wave (km/s) = 3.20443 3.60343 3.40977
# Velocity P-wave (km/s) = 5.43706 6.56084 6.02520
#
# Compressibility (1/GPa) = 0.03095193
#
# Stress axis : x y z
#
# Youngs Moduli (GPa) = 81.78391 24.33910 89.40753
#
# Poissons Ratio (x) = 0.15584 0.20412
# Poissons Ratio (y) = 0.52366 0.72306
# Poissons Ratio (z) = 0.18672 0.19684
#
# Static dielectric constant tensor:
#      x y z
#    x 3.783900 0.000000 0.243560 
#    y 0.000000 3.496240 0.000000 
#    z 0.243560 0.000000 3.901710 
# 
# 
# High freq. dielectric constant tensor:
#      x y z
#    x 1.793180 0.000000 0.010320 
#    y 0.000000 1.776200 0.000000 
#    z 0.010320 0.000000 1.806770 
# 
# From -- ./inp_files/250029.got.cif
#   From: 2010.06.25/outbox.cif.g09.slc.cpg/sg12_126_cif.got.tgz:250029.got - 2010.06.28 00:19:55.
