data_PCOD8091420
_publ_section_title
;
Structure prediction by ZEFSAII (Michael W. Deem and Ramdas Pophale) SiO2 
 PCOD8091420
Probable space group: C 2/M
;
_chemical_formula_sum "Si O2"
_cell_formula_units_Z 64
_cell_length_a 24.980851
_cell_length_b 8.887565
_cell_length_c 28.554872
_cell_angle_alpha 90.000000
_cell_angle_beta 148.931975
_cell_angle_gamma 90.000000
_cell_volume 3271.647893
_symmetry_space_group_name_H-M "C 2/M"
_symmetry_group_IT_number 12
_symmetry_cell_setting 'monoclinic'
loop_
_space_group_symop_operation_xyz
x,y,z
-x,y,-z
-x,-y,-z
x,-y,z
1/2+x,1/2+y,z
1/2-x,1/2+y,-z
1/2-x,1/2-y,-z
1/2+x,1/2-y,z
loop_
_atom_site_type_symbol
_atom_site_label
_atom_site_fract_x
_atom_site_fract_y
_atom_site_fract_z
Si Si1 0.106511 0.169852 0.559212
Si Si2 0.391812 0.324643 0.704562
Si Si3 0.934322 0.673704 0.834401
Si Si4 0.817634 0.170775 0.483486
Si Si5 0.986978 0.823995 0.680248
Si Si6 0.244207 0.323720 0.730466
Si Si7 0.917803 0.326069 0.975412
Si Si8 0.191195 0.820687 0.782920
O O1 0.103640 0.173935 0.501228
O O2 0.196216 0.281377 0.644134
O O3 0.000000 0.232870 0.500000
O O4 0.127779 0.000000 0.593327
O O5 0.383052 0.500000 0.709757
O O6 0.432554 0.241944 0.781287
O O7 0.281820 0.270595 0.602474
O O8 0.476855 0.291468 0.727914
O O9 0.901328 0.500000 0.805520
O O10 0.859512 0.757215 0.815168
O O11 0.045963 0.693074 0.943220
O O12 0.885086 0.241328 0.576762
O O13 0.780256 0.000000 0.465686
O O14 0.096666 0.757366 0.744131
O O15 0.985372 0.000000 0.667889
O O16 0.247170 0.500000 0.740848
O O17 0.175955 0.244318 0.719428
O O18 0.908199 0.500000 0.954490
O O19 0.801902 0.256298 0.884742
O O20 0.000000 0.252556 0.000000
O O21 0.188839 0.000000 0.780066
#
# Coordination Sequence:
#
# PCOD8091420 Si02
#       8
#     8   8   8   8   8   8   8   8
#     4  10  20  34  54  79 110 150 192 229 271 333
#     4  11  22  37  56  83 116 148 189 236 283 327
#     4  11  21  37  59  83 110 145 190 233 277 337
#     4  10  19  34  56  81 108 146 195 230 269 328
#     4   9  20  37  59  84 110 148 192 232 276 334
#     4  12  23  34  52  83 119 149 179 227 288 337
#     4   9  17  32  59  90 109 135 187 240 277 325
#     4  10  19  38  63  83 110 148 190 232 278 340
#
# _framework density 19.562007000000001
#
# number of rings (size 3 to 8) (size 9 to 14) (size 15 to 20)
#    0.000    1.750    2.500    3.000    0.000    2.250 
#    0.000    6.250    0.000    0.000    0.000    0.000 
#    0.000    0.000    0.000    0.000    0.000    0.000 
#
# Total GULP energy -396704.118973 kJ/mol
# GULP energy per Si atom -12397.003718 kJ/mol
# Density = 1.951748 g / cm^3
# Si number density = 19.562007 Si / 1000 Ang^3
#
#
#
# Elastic Constant Matrix: (Units=GPa)
#
#
# Indices 1 2 3 4 5 6 
#
# 1 106.2632 24.5129 35.5130 0.0000 -2.8885 -0.0001
# 2 24.5129 57.6304 20.2545 -0.0003 -3.0825 -0.0008
# 3 35.5130 20.2545 92.7328 -0.0002 -8.2852 0.0000
# 4 0.0000 -0.0003 -0.0002 8.4956 -0.0001 -0.2278
# 5 -2.8885 -3.0825 -8.2852 -0.0001 25.0745 0.0000
# 6 -0.0001 -0.0008 0.0000 -0.2278 0.0000 21.8517
#
#
#
# Elastic Compliance Matrix: (Units=1/GPa)
#
#
# Indices 1 2 3 4 5 6 
#
# 1 0.011446 -0.003612 -0.003623 0.000000 -0.000323 0.000000
# 2 -0.003612 0.019958 -0.002879 0.000001 0.001086 0.000001
# 3 -0.003623 -0.002879 0.013118 0.000000 0.003563 0.000000
# 4 0.000000 0.000001 0.000000 0.117741 0.000000 0.001227
# 5 -0.000323 0.001086 0.003563 0.000000 0.041155 0.000000
# 6 0.000000 0.000001 0.000000 0.001227 0.000000 0.045776
#
#
# Mechanical properties :
#
#
# Convention : Reuss Voigt Hill
#
# Bulk Modulus (GPa) = 41.16258 46.35414 43.75836
# Shear Modulus (GPa) = 18.01668 22.84077 20.42872
#
# Velocity S-wave (km/s) = 3.03810 3.42074 3.23508
# Velocity P-wave (km/s) = 5.77880 6.27291 6.03091
#
# Compressibility (1/GPa) = 0.02429391
#
# Stress axis : x y z
#
# Youngs Moduli (GPa) = 87.36678 50.10434 76.22907
#
# Poissons Ratio (x) = 0.18100 0.27619
# Poissons Ratio (y) = 0.31560 0.21945
# Poissons Ratio (z) = 0.31655 0.14424
#
# Static dielectric constant tensor:
#      x y z
#    x 3.648600 0.000000 0.063620 
#    y 0.000000 3.244840 0.000000 
#    z 0.063620 0.000000 3.673270 
# 
# 
# High freq. dielectric constant tensor:
#      x y z
#    x 1.763150 0.000000 -0.005650 
#    y 0.000000 1.728900 0.000000 
#    z -0.005650 0.000000 1.761270 
# 
# From -- ./inp_files/382516.got.cif
#   From: 2010.06.25/outbox.cif.g09.slc.cpg/sg12_192_cif.got.tgz:382516.got - 2010.06.28 00:19:55.
