data_PCOD8091426
_publ_section_title
;
Structure prediction by ZEFSAII (Michael W. Deem and Ramdas Pophale) SiO2 
 PCOD8091426
Probable space group: C 2/M
;
_chemical_formula_sum "Si O2"
_cell_formula_units_Z 64
_cell_length_a 20.200741
_cell_length_b 9.204949
_cell_length_c 33.278233
_cell_angle_alpha 90.000000
_cell_angle_beta 146.260603
_cell_angle_gamma 90.000000
_cell_volume 3436.905638
_symmetry_space_group_name_H-M "C 2/M"
_symmetry_group_IT_number 12
_symmetry_cell_setting 'monoclinic'
loop_
_space_group_symop_operation_xyz
x,y,z
-x,y,-z
-x,-y,-z
x,-y,z
1/2+x,1/2+y,z
1/2-x,1/2+y,-z
1/2-x,1/2-y,-z
1/2+x,1/2-y,z
loop_
_atom_site_type_symbol
_atom_site_label
_atom_site_fract_x
_atom_site_fract_y
_atom_site_fract_z
Si Si1 0.984819 0.667908 0.947260
Si Si2 0.359512 0.172099 0.666269
Si Si3 0.252537 0.328768 0.810849
Si Si4 0.148586 0.335111 0.427014
Si Si5 0.238166 0.329987 0.035971
Si Si6 0.601844 0.165368 0.658619
Si Si7 0.116149 0.172677 0.583174
Si Si8 0.884755 0.672049 0.177683
O O1 0.947804 0.500000 0.929542
O O2 0.881112 0.755915 0.873279
O O3 0.000000 0.727998 0.000000
O O4 0.104688 0.695538 0.983521
O O5 0.372849 0.233090 0.627841
O O6 0.236854 0.232190 0.623288
O O7 0.476412 0.219748 0.750230
O O8 0.356988 0.000000 0.663747
O O9 0.268542 0.500000 0.819224
O O10 0.183908 0.277712 0.736337
O O11 0.180102 0.280074 0.813853
O O12 0.191430 0.500000 0.443856
O O13 0.250000 0.250000 0.500000
O O14 0.032755 0.323183 0.395338
O O15 0.267365 0.500000 0.046070
O O16 0.330173 0.260104 0.113411
O O17 0.250000 0.250000 0.000000
O O18 0.617724 0.268065 0.628786
O O19 0.634361 0.000000 0.663405
O O20 0.000000 0.228852 0.500000
O O21 0.115009 0.000000 0.584705
O O22 0.870373 0.500000 0.163003
#
# Coordination Sequence:
#
# PCOD8091426 Si02
#       8
#     8   8   8   8   8   8   8   8
#     4  10  21  38  59  84 115 151 189 234 287 335
#     4   9  18  35  58  80 109 149 190 229 278 336
#     4  10  20  35  59  88 115 148 191 236 283 340
#     4  10  19  34  56  81 109 143 184 231 277 328
#     4  11  24  41  60  85 119 153 188 234 284 337
#     4  10  21  37  56  82 115 147 182 230 286 335
#     4  10  21  37  57  82 112 150 194 234 276 335
#     4  10  19  36  61  85 112 150 192 233 284 340
#
# _framework density 18.621402
#
# number of rings (size 3 to 8) (size 9 to 14) (size 15 to 20)
#    0.000    2.000    2.500    1.125    0.000    4.500 
#    0.000    5.625    0.000    0.000    0.000    0.000 
#    0.000    0.000    0.000    0.000    0.000    0.000 
#
# Total GULP energy -396832.329312 kJ/mol
# GULP energy per Si atom -12401.010291 kJ/mol
# Density = 1.857902 g / cm^3
# Si number density = 18.621402 Si / 1000 Ang^3
#
#
#
# Elastic Constant Matrix: (Units=GPa)
#
#
# Indices 1 2 3 4 5 6 
#
# 1 108.1657 37.1067 51.1831 0.0000 -6.8703 0.0001
# 2 37.1067 41.5707 43.8380 0.0001 -1.6715 0.0002
# 3 51.1831 43.8380 143.0359 -0.0001 5.7454 0.0001
# 4 0.0000 0.0001 -0.0001 32.3541 0.0000 -4.6814
# 5 -6.8703 -1.6715 5.7454 0.0000 32.6147 0.0000
# 6 0.0001 0.0002 0.0001 -4.6814 0.0000 29.7436
#
#
#
# Elastic Compliance Matrix: (Units=1/GPa)
#
#
# Indices 1 2 3 4 5 6 
#
# 1 0.013832 -0.010197 -0.001934 0.000000 0.002732 0.000000
# 2 -0.010197 0.043526 -0.009763 0.000000 0.001803 0.000000
# 3 -0.001934 -0.009763 0.010788 0.000000 -0.002808 0.000000
# 4 0.000000 0.000000 0.000000 0.031628 0.000000 0.004978
# 5 0.002732 0.001803 -0.002808 0.000000 0.031824 0.000000
# 6 0.000000 0.000000 0.000000 0.004978 0.000000 0.034404
#
#
# Mechanical properties :
#
#
# Convention : Reuss Voigt Hill
#
# Bulk Modulus (GPa) = 41.05593 61.89196 51.47395
# Shear Modulus (GPa) = 22.94513 29.65211 26.29862
#
# Velocity S-wave (km/s) = 3.51407 3.99478 3.76211
# Velocity P-wave (km/s) = 6.20971 7.38829 6.82449
#
# Compressibility (1/GPa) = 0.02435702
#
# Stress axis : x y z
#
# Youngs Moduli (GPa) = 72.29626 22.97469 92.69199
#
# Poissons Ratio (x) = 0.23428 0.17926
# Poissons Ratio (y) = 0.73723 0.90499
# Poissons Ratio (z) = 0.13982 0.22431
#
# Static dielectric constant tensor:
#      x y z
#    x 3.550620 0.000000 0.046100 
#    y 0.000000 3.238950 0.000000 
#    z 0.046100 0.000000 3.559090 
# 
# 
# High freq. dielectric constant tensor:
#      x y z
#    x 1.728740 0.000000 0.001530 
#    y 0.000000 1.701920 0.000000 
#    z 0.001530 0.000000 1.739010 
# 
# From -- ./inp_files/378338.got.cif
#   From: 2010.06.25/outbox.cif.g09.slc.cpg/sg12_190_cif.got.tgz:378338.got - 2010.06.28 00:19:55.
