data_PCOD8091240
_publ_section_title
;
Structure prediction by ZEFSAII (Michael W. Deem and Ramdas Pophale) SiO2 
 PCOD8091240
Probable space group: C 2/M
;
_chemical_formula_sum "Si O2"
_cell_formula_units_Z 56
_cell_length_a 24.815730
_cell_length_b 8.618592
_cell_length_c 14.985872
_cell_angle_alpha 90.000000
_cell_angle_beta 105.611227
_cell_angle_gamma 90.000000
_cell_volume 3086.890487
_symmetry_space_group_name_H-M "C 2/M"
_symmetry_group_IT_number 12
_symmetry_cell_setting 'monoclinic'
loop_
_space_group_symop_operation_xyz
x,y,z
-x,y,-z
-x,-y,-z
x,-y,z
1/2+x,1/2+y,z
1/2-x,1/2+y,-z
1/2-x,1/2-y,-z
1/2+x,1/2-y,z
loop_
_atom_site_type_symbol
_atom_site_label
_atom_site_fract_x
_atom_site_fract_y
_atom_site_fract_z
Si Si1 0.703656 0.319621 0.285887
Si Si2 0.704044 0.820465 0.101452
Si Si3 0.133529 0.682542 0.405901
Si Si4 0.597846 0.316625 0.716270
Si Si5 0.318281 0.682517 0.399024
Si Si6 0.489530 0.816674 0.594417
Si Si7 0.827128 0.181129 0.089574
O O1 0.718300 0.500000 0.301915
O O2 0.684516 0.280689 0.176950
O O3 0.652543 0.275203 0.327270
O O4 0.757064 0.216009 0.334116
O O5 0.768429 0.780176 0.110318
O O6 0.695367 0.000000 0.120039
O O7 0.666280 0.774926 0.999479
O O8 0.136741 0.500000 0.389256
O O9 0.173821 0.724340 0.506048
O O10 0.070802 0.739324 0.399082
O O11 0.595561 0.500000 0.712071
O O12 0.635887 0.256419 0.651351
O O13 0.535941 0.247768 0.682596
O O14 0.624352 0.262058 0.821863
O O15 0.324172 0.500000 0.419559
O O16 0.500000 0.748568 0.500000
O O17 0.493684 0.000000 0.594653
O O18 0.831361 0.000000 0.069582
#
# Coordination Sequence:
#
# PCOD8091240 Si02
#       7
#     8   8   8   8   8   8   8
#     4  12  24  37  55  80 111 149 186 225 273 329
#     4  10  19  34  55  81 112 144 180 222 271 327
#     4  11  23  39  56  77 110 149 186 229 273 324
#     4  10  20  34  56  82 113 146 179 224 271 321
#     4  11  21  36  55  81 113 147 184 223 270 326
#     4  10  21  37  56  80 108 142 186 230 272 319
#     4   9  18  34  53  81 113 143 179 220 271 326
#
# _framework density 18.141233
#
# number of rings (size 3 to 8) (size 9 to 14) (size 15 to 20)
#    0.000    1.571    2.857    3.000    0.000    3.143 
#    0.000    0.000    0.000    0.857    0.000    6.000 
#    0.000    0.000    0.000    0.000    0.000    0.000 
#
# Total GULP energy -347347.559940 kJ/mol
# GULP energy per Si atom -12405.269998 kJ/mol
# Density = 1.809994 g / cm^3
# Si number density = 18.141233 Si / 1000 Ang^3
#
#
#
# Elastic Constant Matrix: (Units=GPa)
#
#
# Indices 1 2 3 4 5 6 
#
# 1 75.7988 20.9218 52.1699 0.0000 -2.0912 0.0000
# 2 20.9218 44.9104 27.2475 0.0000 -4.8294 0.0000
# 3 52.1699 27.2475 128.5720 0.0000 -2.1354 0.0000
# 4 0.0000 0.0000 0.0000 33.2670 0.0000 1.9776
# 5 -2.0912 -4.8294 -2.1354 0.0000 27.3223 0.0000
# 6 0.0000 0.0000 0.0000 1.9776 0.0000 24.6163
#
#
#
# Elastic Compliance Matrix: (Units=1/GPa)
#
#
# Indices 1 2 3 4 5 6 
#
# 1 0.019178 -0.004825 -0.006758 0.000000 0.000087 0.000000
# 2 -0.004825 0.027233 -0.003744 0.000000 0.004152 0.000000
# 3 -0.006758 -0.003744 0.011308 0.000000 -0.000295 0.000000
# 4 0.000000 0.000000 0.000000 0.030204 0.000000 -0.002426
# 5 0.000087 0.004152 -0.000295 0.000000 0.037318 0.000000
# 6 0.000000 0.000000 0.000000 -0.002426 0.000000 0.040818
#
#
# Mechanical properties :
#
#
# Convention : Reuss Voigt Hill
#
# Bulk Modulus (GPa) = 36.94853 49.99550 43.47202
# Shear Modulus (GPa) = 24.30307 26.97059 25.63683
#
# Velocity S-wave (km/s) = 3.66411 3.85996 3.76331
# Velocity P-wave (km/s) = 6.18969 6.89091 6.54969
#
# Compressibility (1/GPa) = 0.02706468
#
# Stress axis : x y z
#
# Youngs Moduli (GPa) = 52.14255 36.72078 88.42917
#
# Poissons Ratio (x) = 0.17717 0.59759
# Poissons Ratio (y) = 0.25158 0.33112
# Poissons Ratio (z) = 0.35237 0.13750
#
# Static dielectric constant tensor:
#      x y z
#    x 3.305360 0.000000 -0.008160 
#    y 0.000000 3.251560 0.000000 
#    z -0.008160 0.000000 3.472340 
# 
# 
# High freq. dielectric constant tensor:
#      x y z
#    x 1.679470 0.000000 -0.001330 
#    y 0.000000 1.704710 0.000000 
#    z -0.001330 0.000000 1.707530 
# 
# From -- ./inp_files/237891.got.cif
#   From: 2010.06.25/outbox.cif.g09.slc.cpg/sg12_119_cif.got.tgz:237891.got - 2010.06.28 00:19:55.
