data_PCOD8091630
_publ_section_title
;
Structure prediction by ZEFSAII (Michael W. Deem and Ramdas Pophale) SiO2 
 PCOD8091630
Probable space group: C 2/M
;
_chemical_formula_sum "Si O2"
_cell_formula_units_Z 56
_cell_length_a 17.351631
_cell_length_b 12.700061
_cell_length_c 19.779662
_cell_angle_alpha 90.000000
_cell_angle_beta 42.714122
_cell_angle_gamma 90.000000
_cell_volume 2956.738441
_symmetry_space_group_name_H-M "C 2/M"
_symmetry_group_IT_number 12
_symmetry_cell_setting 'monoclinic'
loop_
_space_group_symop_operation_xyz
x,y,z
-x,y,-z
-x,-y,-z
x,-y,z
1/2+x,1/2+y,z
1/2-x,1/2+y,-z
1/2-x,1/2-y,-z
1/2+x,1/2-y,z
loop_
_atom_site_type_symbol
_atom_site_label
_atom_site_fract_x
_atom_site_fract_y
_atom_site_fract_z
Si Si1 0.926629 0.770511 0.408714
Si Si2 0.270524 0.615325 0.421042
Si Si3 0.500000 0.740768 0.500000
Si Si4 0.739279 0.192379 0.304403
Si Si5 0.591813 0.122811 0.808316
Si Si6 0.056660 0.621004 0.227513
Si Si7 0.701622 0.380943 0.880685
Si Si8 0.000000 0.726337 0.000000
O O1 0.821618 0.698463 0.496754
O O2 0.887231 0.865235 0.386601
O O3 0.974525 0.823870 0.447350
O O4 0.017684 0.698293 0.312203
O O5 0.224874 0.500000 0.467907
O O6 0.303222 0.625403 0.320990
O O7 0.392781 0.812346 0.589693
O O8 0.791563 0.310869 0.273247
O O9 0.755682 0.135815 0.223080
O O10 0.504577 0.149743 0.803647
O O11 0.624879 0.000000 0.786545
O O12 0.533160 0.151677 0.916786
O O13 0.029110 0.500000 0.264904
O O14 0.193286 0.636835 0.135065
O O15 0.655497 0.500000 0.917820
O O16 0.601699 0.299747 0.961795
#
# Coordination Sequence:
#
# PCOD8091630 Si02
#       8
#     8   8   4   8   8   8   8   4
#     4  10  19  35  51  76 112 147 185 226 261 316
#     4  10  20  33  52  77 108 149 189 222 267 317
#     4  10  20  34  54  78 114 150 182 218 272 308
#     4  10  19  35  55  81 115 147 179 232 269 321
#     4  10  21  38  60  82 105 144 189 226 276 328
#     4  10  19  34  57  81 108 142 182 224 269 324
#     4  10  20  35  57  85 113 142 178 225 283 333
#     4  10  22  38  60  82 110 142 174 236 280 334
#
# _framework density 18.939789000000001
#
# number of rings (size 3 to 8) (size 9 to 14) (size 15 to 20)
#    0.000    2.000    2.857    1.286    0.000    0.571 
#    0.000    3.571    0.000    0.000    0.000    0.000 
#    0.000    0.000    0.000    0.000    0.000    0.000 
#
# Total GULP energy -346965.626130 kJ/mol
# GULP energy per Si atom -12391.629505 kJ/mol
# Density = 1.889668 g / cm^3
# Si number density = 18.939789 Si / 1000 Ang^3
#
#
#
# Elastic Constant Matrix: (Units=GPa)
#
#
# Indices 1 2 3 4 5 6 
#
# 1 112.8948 31.0109 24.1036 0.0000 4.3302 0.0000
# 2 31.0109 71.2382 18.0635 0.0000 -2.4079 0.0000
# 3 24.1036 18.0635 63.2723 0.0000 -1.8310 0.0000
# 4 0.0000 0.0000 0.0000 20.8182 0.0000 8.7440
# 5 4.3302 -2.4079 -1.8310 0.0000 24.7016 0.0000
# 6 0.0000 0.0000 0.0000 8.7440 0.0000 37.6774
#
#
#
# Elastic Compliance Matrix: (Units=1/GPa)
#
#
# Indices 1 2 3 4 5 6 
#
# 1 0.010687 -0.003973 -0.003009 0.000000 -0.002484 0.000000
# 2 -0.003973 0.016643 -0.003178 0.000000 0.002083 0.000000
# 3 -0.003009 -0.003178 0.017903 0.000000 0.001545 0.000000
# 4 0.000000 0.000000 0.000000 0.053223 0.000000 -0.012352
# 5 -0.002484 0.002083 0.001545 0.000000 0.041236 0.000000
# 6 0.000000 0.000000 0.000000 -0.012352 0.000000 0.029408
#
#
# Mechanical properties :
#
#
# Convention : Reuss Voigt Hill
#
# Bulk Modulus (GPa) = 40.13840 43.75127 41.94484
# Shear Modulus (GPa) = 25.28794 28.25460 26.77127
#
# Velocity S-wave (km/s) = 3.65797 3.86659 3.76372
# Velocity P-wave (km/s) = 6.25137 6.56387 6.40952
#
# Compressibility (1/GPa) = 0.02491380
#
# Stress axis : x y z
#
# Youngs Moduli (GPa) = 93.57313 60.08497 55.85733
#
# Poissons Ratio (x) = 0.23873 0.16806
# Poissons Ratio (y) = 0.37178 0.17749
# Poissons Ratio (z) = 0.28154 0.19092
#
# Static dielectric constant tensor:
#      x y z
#    x 4.089330 0.000000 0.078740 
#    y 0.000000 3.239500 0.000000 
#    z 0.078740 0.000000 3.331740 
# 
# 
# High freq. dielectric constant tensor:
#      x y z
#    x 1.758080 0.000000 0.005800 
#    y 0.000000 1.713330 0.000000 
#    z 0.005800 0.000000 1.721530 
# 
# From -- ./inp_files/315944.got.cif
#   From: 2010.06.25/outbox.cif.g09.slc.cpg/sg12_158_cif.got.tgz:315944.got - 2010.06.28 00:19:55.
