data_PCOD8091526
_publ_section_title
;
Structure prediction by ZEFSAII (Michael W. Deem and Ramdas Pophale) SiO2 
 PCOD8091526
Probable space group: C 2/M
;
_chemical_formula_sum "Si O2"
_cell_formula_units_Z 64
_cell_length_a 19.856935
_cell_length_b 8.811520
_cell_length_c 20.116912
_cell_angle_alpha 90.000000
_cell_angle_beta 102.028785
_cell_angle_gamma 90.000000
_cell_volume 3442.566366
_symmetry_space_group_name_H-M "C 2/M"
_symmetry_group_IT_number 12
_symmetry_cell_setting 'monoclinic'
loop_
_space_group_symop_operation_xyz
x,y,z
-x,y,-z
-x,-y,-z
x,-y,z
1/2+x,1/2+y,z
1/2-x,1/2+y,-z
1/2-x,1/2-y,-z
1/2+x,1/2-y,z
loop_
_atom_site_type_symbol
_atom_site_label
_atom_site_fract_x
_atom_site_fract_y
_atom_site_fract_z
Si Si1 0.897677 0.322999 0.655224
Si Si2 0.131735 0.823182 0.685191
Si Si3 0.160836 0.175386 0.157377
Si Si4 0.036786 0.325395 0.193040
Si Si5 0.757223 0.178686 0.073179
Si Si6 0.730184 0.323492 0.312194
Si Si7 0.003705 0.176229 0.424610
Si Si8 0.119289 0.323383 0.824689
O O1 0.881137 0.500000 0.648691
O O2 0.946642 0.280960 0.727481
O O3 0.826013 0.233306 0.646529
O O4 0.935644 0.272044 0.596380
O O5 0.200546 0.771306 0.661300
O O6 0.068988 0.786085 0.623774
O O7 0.123439 0.725580 0.749557
O O8 0.135822 0.000000 0.704592
O O9 0.081740 0.224740 0.151907
O O10 0.192734 0.270736 0.104228
O O11 0.204349 0.210054 0.232348
O O12 0.163017 0.000000 0.138425
O O13 0.055703 0.500000 0.184245
O O14 0.956917 0.292487 0.162672
O O15 0.828948 0.229175 0.119817
O O16 0.756364 0.000000 0.066241
O O17 0.750000 0.250000 0.000000
O O18 0.744379 0.500000 0.326844
O O19 0.000000 0.227137 0.500000
O O20 0.022435 0.000000 0.421240
O O21 0.139171 0.500000 0.832464
#
# Coordination Sequence:
#
# PCOD8091526 Si02
#       8
#     8   8   8   8   8   8   8   8
#     4  10  19  34  56  84 115 148 191 237 286 342
#     4  11  21  34  57  86 114 148 193 240 285 337
#     4  10  20  35  57  85 117 151 189 234 285 339
#     4   9  19  34  56  85 117 149 185 236 288 335
#     4  12  25  41  61  85 118 156 194 235 285 341
#     4  10  20  34  56  84 116 149 186 237 289 338
#     4  10  22  39  57  81 117 156 193 236 290 348
#     4  11  21  37  59  87 119 149 189 237 286 338
#
# _framework density 18.590781
#
# number of rings (size 3 to 8) (size 9 to 14) (size 15 to 20)
#    0.000    1.625    2.500    3.000    0.000    3.250 
#    0.000    1.250    0.000    3.750    0.000    0.000 
#    0.000    0.000    0.000    0.000    0.000    0.000 
#
# Total GULP energy -396970.562301 kJ/mol
# GULP energy per Si atom -12405.330072 kJ/mol
# Density = 1.854847 g / cm^3
# Si number density = 18.590781 Si / 1000 Ang^3
#
#
#
# Elastic Constant Matrix: (Units=GPa)
#
#
# Indices 1 2 3 4 5 6 
#
# 1 117.9051 54.1453 54.2246 0.0000 -17.3304 0.0000
# 2 54.1453 94.0182 42.2240 0.0000 -10.3032 0.0000
# 3 54.2246 42.2240 98.3610 0.0000 -8.1188 0.0000
# 4 0.0000 0.0000 0.0000 28.2217 0.0000 -6.7787
# 5 -17.3304 -10.3032 -8.1188 0.0000 23.4342 0.0000
# 6 0.0000 0.0000 0.0000 -6.7787 0.0000 35.1109
#
#
#
# Elastic Compliance Matrix: (Units=1/GPa)
#
#
# Indices 1 2 3 4 5 6 
#
# 1 0.014111 -0.005162 -0.005033 0.000000 0.006422 0.000000
# 2 -0.005162 0.015430 -0.003637 0.000000 0.001706 0.000000
# 3 -0.005033 -0.003637 0.014477 0.000000 -0.000305 0.000000
# 4 0.000000 0.000000 0.000000 0.037157 0.000000 0.007174
# 5 0.006422 0.001706 -0.000305 0.000000 0.048066 0.000000
# 6 0.000000 0.000000 0.000000 0.007174 0.000000 0.029866
#
#
# Mechanical properties :
#
#
# Convention : Reuss Voigt Hill
#
# Bulk Modulus (GPa) = 61.14929 67.94133 64.54531
# Shear Modulus (GPa) = 26.01168 27.99938 27.00553
#
# Velocity S-wave (km/s) = 3.74461 3.88505 3.81547
# Velocity P-wave (km/s) = 7.18747 7.53325 7.36239
#
# Compressibility (1/GPa) = 0.01635342
#
# Stress axis : x y z
#
# Youngs Moduli (GPa) = 70.86882 64.81090 69.07460
#
# Poissons Ratio (x) = 0.33457 0.34764
# Poissons Ratio (y) = 0.36585 0.25121
# Poissons Ratio (z) = 0.35667 0.23570
#
# Static dielectric constant tensor:
#      x y z
#    x 3.460870 0.000000 -0.190250 
#    y 0.000000 3.488820 0.000000 
#    z -0.190250 0.000000 3.089630 
# 
# 
# High freq. dielectric constant tensor:
#      x y z
#    x 1.734760 0.000000 -0.012030 
#    y 0.000000 1.733430 0.000000 
#    z -0.012030 0.000000 1.694630 
# 
# From -- ./inp_files/281295.got.cif
#   From: 2010.06.25/outbox.cif.g09.slc.cpg/sg12_141_cif.got.tgz:281295.got - 2010.06.28 00:19:55.
