data_PCOD8091837
_publ_section_title
;
Structure prediction by ZEFSAII (Michael W. Deem and Ramdas Pophale) SiO2 
 PCOD8091837
Probable space group: C 2/M
;
_chemical_formula_sum "Si O2"
_cell_formula_units_Z 48
_cell_length_a 24.381870
_cell_length_b 8.626218
_cell_length_c 11.602036
_cell_angle_alpha 90.000000
_cell_angle_beta 110.601982
_cell_angle_gamma 90.000000
_cell_volume 2284.122932
_symmetry_space_group_name_H-M "C 2/M"
_symmetry_group_IT_number 12
_symmetry_cell_setting 'monoclinic'
loop_
_space_group_symop_operation_xyz
x,y,z
-x,y,-z
-x,-y,-z
x,-y,z
1/2+x,1/2+y,z
1/2-x,1/2+y,-z
1/2-x,1/2-y,-z
1/2+x,1/2-y,z
loop_
_atom_site_type_symbol
_atom_site_label
_atom_site_fract_x
_atom_site_fract_y
_atom_site_fract_z
Si Si1 0.694921 0.316836 0.023027
Si Si2 0.363279 0.815815 0.400918
Si Si3 0.087183 0.183894 0.794357
Si Si4 0.483248 0.816402 0.859062
Si Si5 0.731585 0.682470 0.295216
Si Si6 0.121586 0.183396 0.348844
O O1 0.696836 0.500000 0.016108
O O2 0.636121 0.253854 0.919764
O O3 0.750000 0.250000 0.000000
O O4 0.698089 0.257412 0.156412
O O5 0.400321 0.752278 0.322006
O O6 0.296865 0.745843 0.351052
O O7 0.394607 0.756304 0.540026
O O8 0.363913 0.000000 0.398323
O O9 0.025496 0.243885 0.794338
O O10 0.086221 0.000000 0.784705
O O11 0.418669 0.755591 0.780942
O O12 0.486035 0.000000 0.853125
O O13 0.500000 0.758711 0.000000
O O14 0.739549 0.500000 0.293508
O O15 0.689507 0.728151 0.370611
O O16 0.112272 0.000000 0.343698
#
# Coordination Sequence:
#
# PCOD8091837 Si02
#       6
#     8   8   8   8   8   8
#     4  10  19  34  57  88 122 156 197 243 298 358
#     4  11  22  39  62  90 128 166 205 253 307 365
#     4  11  23  39  63  94 126 163 207 254 305 363
#     4  11  25  45  67  92 122 158 203 253 308 368
#     4   9  19  36  60  89 125 164 201 248 305 362
#     4  11  23  41  64  90 123 163 209 255 304 365
#
# _framework density 21.01463
#
# number of rings (size 3 to 8) (size 9 to 14) (size 15 to 20)
#    0.000    1.500    1.667    3.500    0.000    4.000 
#    0.000    7.500    0.000    0.000    0.000    0.000 
#    0.000    0.000    0.000    0.000    0.000    0.000 
#
# Total GULP energy -297640.157586 kJ/mol
# GULP energy per Si atom -12401.673233 kJ/mol
# Density = 2.096680 g / cm^3
# Si number density = 21.014630 Si / 1000 Ang^3
#
#
#
# Elastic Constant Matrix: (Units=GPa)
#
#
# Indices 1 2 3 4 5 6 
#
# 1 116.8537 30.8831 31.1277 0.0000 -13.8630 0.0000
# 2 30.8831 69.5874 31.4889 0.0000 -6.5088 0.0000
# 3 31.1277 31.4889 130.1647 0.0000 -14.6442 0.0000
# 4 0.0000 0.0000 0.0000 28.5628 0.0000 0.9976
# 5 -13.8630 -6.5088 -14.6442 0.0000 37.6973 0.0000
# 6 0.0000 0.0000 0.0000 0.9976 0.0000 29.8883
#
#
#
# Elastic Compliance Matrix: (Units=1/GPa)
#
#
# Indices 1 2 3 4 5 6 
#
# 1 0.010180 -0.003711 -0.001242 0.000000 0.002621 0.000000
# 2 -0.003711 0.017553 -0.003317 0.000000 0.000378 0.000000
# 3 -0.001242 -0.003317 0.009062 0.000000 0.002491 0.000000
# 4 0.000000 0.000000 0.000000 0.035051 0.000000 -0.001170
# 5 0.002621 0.000378 0.002491 0.000000 0.028524 0.000000
# 6 0.000000 0.000000 0.000000 -0.001170 0.000000 0.033497
#
#
# Mechanical properties :
#
#
# Convention : Reuss Voigt Hill
#
# Bulk Modulus (GPa) = 49.36563 55.95613 52.66088
# Shear Modulus (GPa) = 31.81494 34.10342 32.95918
#
# Velocity S-wave (km/s) = 3.89516 4.03282 3.96459
# Velocity P-wave (km/s) = 6.61603 6.95485 6.78755
#
# Compressibility (1/GPa) = 0.02025701
#
# Stress axis : x y z
#
# Youngs Moduli (GPa) = 98.23012 56.96892 110.34912
#
# Poissons Ratio (x) = 0.21141 0.13705
# Poissons Ratio (y) = 0.36452 0.36598
# Poissons Ratio (z) = 0.12200 0.18894
#
# Static dielectric constant tensor:
#      x y z
#    x 3.786630 0.000000 -0.329290 
#    y 0.000000 4.050650 0.000000 
#    z -0.329290 0.000000 1.520830 
# 
# 
# High freq. dielectric constant tensor:
#      x y z
#    x 1.829060 0.000000 -0.003620 
#    y 0.000000 1.809560 0.000000 
#    z -0.003620 0.000000 1.836300 
# 
# From -- ./inp_files/173026.got.cif
#   From: 2010.06.25/outbox.cif.g09.slc.cpg/sg12_87_cif.got.tgz:173026.got - 2010.06.28 00:19:55.
