data_PCOD8091411
_publ_section_title
;
Structure prediction by ZEFSAII (Michael W. Deem and Ramdas Pophale) SiO2 
 PCOD8091411
Probable space group: C 2/M
;
_chemical_formula_sum "Si O2"
_cell_formula_units_Z 40
_cell_length_a 26.154793
_cell_length_b 18.972775
_cell_length_c 13.686152
_cell_angle_alpha 90.000000
_cell_angle_beta 17.258248
_cell_angle_gamma 90.000000
_cell_volume 2014.885561
_symmetry_space_group_name_H-M "C 2/M"
_symmetry_group_IT_number 12
_symmetry_cell_setting 'monoclinic'
loop_
_space_group_symop_operation_xyz
x,y,z
-x,y,-z
-x,-y,-z
x,-y,z
1/2+x,1/2+y,z
1/2-x,1/2+y,-z
1/2-x,1/2-y,-z
1/2+x,1/2-y,z
loop_
_atom_site_type_symbol
_atom_site_label
_atom_site_fract_x
_atom_site_fract_y
_atom_site_fract_z
Si Si1 0.786859 0.271557 0.129643
Si Si2 0.311475 0.830059 0.389320
Si Si3 0.969361 0.650159 0.447277
Si Si4 0.731668 0.079449 0.338662
Si Si5 0.044310 0.837432 0.721910
O O1 0.683008 0.207096 0.273505
O O2 0.669821 0.327520 0.400776
O O3 0.858873 0.313456 0.906039
O O4 0.938068 0.237965 0.924766
O O5 0.250000 0.750000 0.500000
O O6 0.303622 0.864861 0.510341
O O7 0.161015 0.863971 0.598761
O O8 0.500000 0.841498 0.000000
O O9 0.919736 0.586250 0.465197
O O10 0.000000 0.620646 0.500000
O O11 0.736369 0.000000 0.370760
O O12 0.908879 0.098849 0.958975
#
# Coordination Sequence:
#
# PCOD8091411 Si02
#       5
#     8   8   8   8   8
#     4   9  18  34  58  91 114 138 184 237 290 337
#     4  12  22  36  61  89 114 144 184 230 283 340
#     4  10  19  35  60  85 114 147 186 239 289 334
#     4  11  25  40  54  79 115 155 195 231 278 340
#     4  10  19  34  56  80 114 147 178 227 285 341
#
# _framework density 19.852243999999999
#
# number of rings (size 3 to 8) (size 9 to 14) (size 15 to 20)
#    0.000    1.600    0.000    8.400    0.000    2.400 
#    0.000    3.000    0.000    1.200    0.000    0.000 
#    0.000    0.000    0.000    0.000    0.000    0.000 
#
# Total GULP energy -247839.140022 kJ/mol
# GULP energy per Si atom -12391.957001 kJ/mol
# Density = 1.980706 g / cm^3
# Si number density = 19.852244 Si / 1000 Ang^3
#
#
#
# Elastic Constant Matrix: (Units=GPa)
#
#
# Indices 1 2 3 4 5 6 
#
# 1 133.8919 34.7812 36.4797 0.0027 9.6033 -0.0020
# 2 34.7812 96.2205 34.5751 0.0046 10.3431 0.0004
# 3 36.4797 34.5751 122.4666 0.0071 6.6493 0.0020
# 4 0.0027 0.0046 0.0071 15.1747 0.0012 1.2677
# 5 9.6033 10.3431 6.6493 0.0012 23.3400 -0.0021
# 6 -0.0020 0.0004 0.0020 1.2677 -0.0021 15.8457
#
#
#
# Elastic Compliance Matrix: (Units=1/GPa)
#
#
# Indices 1 2 3 4 5 6 
#
# 1 0.008706 -0.002264 -0.001843 0.000000 -0.002054 0.000001
# 2 -0.002264 0.012588 -0.002668 -0.000002 -0.003887 -0.000001
# 3 -0.001843 -0.002668 0.009509 -0.000003 -0.000768 -0.000001
# 4 0.000000 -0.000002 -0.000003 0.066343 -0.000002 -0.005308
# 5 -0.002054 -0.003887 -0.000768 -0.000002 0.045631 0.000006
# 6 0.000001 -0.000001 -0.000001 -0.005308 0.000006 0.063533
#
#
# Mechanical properties :
#
#
# Convention : Reuss Voigt Hill
#
# Bulk Modulus (GPa) = 57.96042 62.69455 60.32748
# Shear Modulus (GPa) = 22.16192 27.32160 24.74176
#
# Velocity S-wave (km/s) = 3.34480 3.71381 3.53412
# Velocity P-wave (km/s) = 6.64652 7.07382 6.86349
#
# Compressibility (1/GPa) = 0.01725315
#
# Stress axis : x y z
#
# Youngs Moduli (GPa) = 114.86035 79.44166 105.15877
#
# Poissons Ratio (x) = 0.17987 0.19377
# Poissons Ratio (y) = 0.26006 0.28060
# Poissons Ratio (z) = 0.21164 0.21198
#
# Static dielectric constant tensor:
#      x y z
#    x 4.036110 0.000010 -0.404860 
#    y 0.000010 3.231810 0.000010 
#    z -0.404860 0.000010 4.001360 
# 
# 
# High freq. dielectric constant tensor:
#      x y z
#    x 1.770740 0.000000 -0.009230 
#    y 0.000000 1.727460 0.000000 
#    z -0.009230 0.000000 1.793240 
# 
# From -- ./inp_files/177853.got.cif
#   From: 2010.06.25/outbox.cif.g09.slc.cpg/sg12_89_cif.got.tgz:177853.got - 2010.06.28 00:19:55.
