data_PCOD8091939
_publ_section_title
;
Structure prediction by ZEFSAII (Michael W. Deem and Ramdas Pophale) SiO2 
 PCOD8091939
Probable space group: C 2/M
;
_chemical_formula_sum "Si O2"
_cell_formula_units_Z 56
_cell_length_a 28.258937
_cell_length_b 8.820532
_cell_length_c 17.567209
_cell_angle_alpha 90.000000
_cell_angle_beta 43.610988
_cell_angle_gamma 90.000000
_cell_volume 3020.302026
_symmetry_space_group_name_H-M "C 2/M"
_symmetry_group_IT_number 12
_symmetry_cell_setting 'monoclinic'
loop_
_space_group_symop_operation_xyz
x,y,z
-x,y,-z
-x,-y,-z
x,-y,z
1/2+x,1/2+y,z
1/2-x,1/2+y,-z
1/2-x,1/2-y,-z
1/2+x,1/2-y,z
loop_
_atom_site_type_symbol
_atom_site_label
_atom_site_fract_x
_atom_site_fract_y
_atom_site_fract_z
Si Si1 0.428172 0.320819 0.119067
Si Si2 0.660718 0.674272 0.329579
Si Si3 0.561138 0.324110 0.581572
Si Si4 0.317536 0.178686 0.139438
Si Si5 0.453361 0.820493 0.245191
Si Si6 0.579924 0.821092 0.289573
Si Si7 0.605995 0.821549 0.094449
O O1 0.428452 0.500000 0.125506
O O2 0.364936 0.268628 0.141988
O O3 0.415551 0.250507 0.216897
O O4 0.500000 0.261205 0.000000
O O5 0.654066 0.500000 0.311226
O O6 0.625357 0.702213 0.451524
O O7 0.739492 0.722886 0.246781
O O8 0.626605 0.777968 0.305712
O O9 0.548245 0.500000 0.613193
O O10 0.580147 0.239832 0.637747
O O11 0.494126 0.257105 0.618216
O O12 0.331105 0.000000 0.133514
O O13 0.335695 0.234359 0.032058
O O14 0.532143 0.763946 0.151196
O O15 0.445709 0.000000 0.251650
O O16 0.617873 0.765114 0.167356
O O17 0.567251 0.000000 0.303359
O O18 0.604543 0.000000 0.097093
#
# Coordination Sequence:
#
# PCOD8091939 Si02
#       7
#     8   8   8   8   8   8   8
#     4  11  22  35  55  86 116 140 175 220 271 324
#     4  10  22  37  54  78 109 148 186 225 275 323
#     4  10  20  36  56  80 111 142 181 232 276 315
#     4  10  20  37  57  77 108 148 186 221 269 329
#     4  10  19  34  58  85 108 139 182 223 271 322
#     4  10  20  34  55  82 108 142 187 229 271 323
#     4   8  16  31  52  79 107 135 175 223 266 314
#
# _framework density 18.541191999999999
#
# number of rings (size 3 to 8) (size 9 to 14) (size 15 to 20)
#    0.000    2.143    1.429    3.000    0.000    4.571 
#    0.000    1.429    0.000    0.000    0.000    0.000 
#    0.000    0.000    0.000    0.000    0.000    0.000 
#
# Total GULP energy -347200.731743 kJ/mol
# GULP energy per Si atom -12400.026134 kJ/mol
# Density = 1.849899 g / cm^3
# Si number density = 18.541192 Si / 1000 Ang^3
#
#
#
# Elastic Constant Matrix: (Units=GPa)
#
#
# Indices 1 2 3 4 5 6 
#
# 1 67.6016 30.8651 62.0511 -0.0248 10.9161 0.0059
# 2 30.8651 68.5586 43.3315 0.0193 4.2419 -0.0063
# 3 62.0511 43.3315 137.0383 0.0018 1.8127 -0.0025
# 4 -0.0248 0.0193 0.0018 22.8443 -0.0006 4.4514
# 5 10.9161 4.2419 1.8127 -0.0006 24.8562 -0.0012
# 6 0.0059 -0.0063 -0.0025 4.4514 -0.0012 31.8668
#
#
#
# Elastic Compliance Matrix: (Units=1/GPa)
#
#
# Indices 1 2 3 4 5 6 
#
# 1 0.029718 -0.005336 -0.011620 0.000040 -0.011293 -0.000013
# 2 -0.005336 0.019369 -0.003699 -0.000023 -0.000692 0.000008
# 3 -0.011620 -0.003699 0.013666 -0.000011 0.004738 0.000004
# 4 0.000040 -0.000023 -0.000011 0.045000 -0.000012 -0.006286
# 5 -0.011293 -0.000692 0.004738 -0.000012 0.044964 0.000006
# 6 -0.000013 0.000008 0.000004 -0.006286 0.000006 0.032259
#
#
# Mechanical properties :
#
#
# Convention : Reuss Voigt Hill
#
# Bulk Modulus (GPa) = 46.63566 60.63265 53.63415
# Shear Modulus (GPa) = 21.41939 25.04350 23.23144
#
# Velocity S-wave (km/s) = 3.40256 3.67917 3.54356
# Velocity P-wave (km/s) = 6.37523 7.12888 6.76256
#
# Compressibility (1/GPa) = 0.02144282
#
# Stress axis : x y z
#
# Youngs Moduli (GPa) = 33.64926 51.62813 73.17623
#
# Poissons Ratio (x) = 0.27551 0.85029
# Poissons Ratio (y) = 0.17957 0.27068
# Poissons Ratio (z) = 0.39100 0.19098
#
# Static dielectric constant tensor:
#      x y z
#    x 3.299650 -0.000010 0.211890 
#    y -0.000010 3.317110 0.000010 
#    z 0.211890 0.000010 3.643550 
# 
# 
# High freq. dielectric constant tensor:
#      x y z
#    x 1.713220 0.000000 0.018840 
#    y 0.000000 1.714480 0.000000 
#    z 0.018840 0.000000 1.719120 
# 
# From -- ./inp_files/288179.got.cif
#   From: 2010.06.25/outbox.cif.g09.slc.cpg/sg12_145_cif.got.tgz:288179.got - 2010.06.28 00:19:55.
