data_PCOD8091356
_publ_section_title
;
Structure prediction by ZEFSAII (Michael W. Deem and Ramdas Pophale) SiO2 
 PCOD8091356
Probable space group: C 2/M
;
_chemical_formula_sum "Si O2"
_cell_formula_units_Z 56
_cell_length_a 26.410597
_cell_length_b 8.947851
_cell_length_c 13.160822
_cell_angle_alpha 90.000000
_cell_angle_beta 113.610914
_cell_angle_gamma 90.000000
_cell_volume 2849.779399
_symmetry_space_group_name_H-M "C 2/M"
_symmetry_group_IT_number 12
_symmetry_cell_setting 'monoclinic'
loop_
_space_group_symop_operation_xyz
x,y,z
-x,y,-z
-x,-y,-z
x,-y,z
1/2+x,1/2+y,z
1/2-x,1/2+y,-z
1/2-x,1/2-y,-z
1/2+x,1/2-y,z
loop_
_atom_site_type_symbol
_atom_site_label
_atom_site_fract_x
_atom_site_fract_y
_atom_site_fract_z
Si Si1 0.948597 0.677024 0.662071
Si Si2 0.332386 0.174892 0.885088
Si Si3 0.129868 0.825861 0.548298
Si Si4 0.651135 0.172403 0.872035
Si Si5 0.442560 0.673246 0.313234
Si Si6 0.775977 0.325464 0.260851
Si Si7 0.050975 0.677355 0.105917
O O1 0.945122 0.500000 0.650665
O O2 0.892829 0.746974 0.571062
O O3 0.954000 0.732067 0.782352
O O4 0.000804 0.735726 0.640982
O O5 0.285901 0.262945 0.785517
O O6 0.391642 0.234814 0.895396
O O7 0.325209 0.000000 0.856937
O O8 0.325478 0.210894 0.998600
O O9 0.086665 0.794695 0.603560
O O10 0.188902 0.755205 0.623380
O O11 0.138140 0.000000 0.534339
O O12 0.596877 0.271367 0.809210
O O13 0.698467 0.211254 0.829024
O O14 0.632570 0.000000 0.849774
O O15 0.456126 0.500000 0.308744
O O16 0.775554 0.500000 0.283802
O O17 0.049074 0.500000 0.098613
O O18 0.000000 0.744841 0.000000
#
# Coordination Sequence:
#
# PCOD8091356 Si02
#       7
#     8   8   8   8   8   8   8
#     4  11  21  34  55  80 106 139 179 221 264 310
#     4  10  19  34  56  79 106 143 181 215 261 316
#     4  10  21  37  55  77 107 141 177 217 264 318
#     4   9  18  32  53  80 109 142 177 215 261 315
#     4  10  20  33  52  79 110 142 175 215 265 319
#     4  10  20  34  53  81 112 138 173 220 266 313
#     4   9  19  36  57  80 106 138 177 216 254 307
#
# _framework density 19.650645000000001
#
# number of rings (size 3 to 8) (size 9 to 14) (size 15 to 20)
#    0.000    2.143    0.000    3.429    0.000    6.857 
#    0.000    2.143    0.000    3.000    0.000    0.000 
#    0.000    0.000    0.000    0.000    0.000    0.000 
#
# Total GULP energy -347319.064101 kJ/mol
# GULP energy per Si atom -12404.252289 kJ/mol
# Density = 1.960592 g / cm^3
# Si number density = 19.650645 Si / 1000 Ang^3
#
#
#
# Elastic Constant Matrix: (Units=GPa)
#
#
# Indices 1 2 3 4 5 6 
#
# 1 86.2920 33.0500 56.0411 0.0000 26.2792 0.0000
# 2 33.0500 78.6156 58.9049 0.0000 12.2588 0.0000
# 3 56.0411 58.9049 153.2132 0.0000 27.1783 0.0000
# 4 0.0000 0.0000 0.0000 33.3064 0.0000 12.0826
# 5 26.2792 12.2588 27.1783 0.0000 30.1960 0.0000
# 6 0.0000 0.0000 0.0000 12.0826 0.0000 22.2906
#
#
#
# Elastic Compliance Matrix: (Units=1/GPa)
#
#
# Indices 1 2 3 4 5 6 
#
# 1 0.018741 -0.003470 -0.003424 0.000000 -0.011819 0.000000
# 2 -0.003470 0.018551 -0.006025 0.000000 0.000911 0.000000
# 3 -0.003424 -0.006025 0.010868 0.000000 -0.004356 0.000000
# 4 0.000000 0.000000 0.000000 0.037373 0.000000 -0.020258
# 5 -0.011819 0.000911 -0.004356 0.000000 0.046954 0.000000
# 6 0.000000 0.000000 0.000000 -0.020258 0.000000 0.055843
#
#
# Mechanical properties :
#
#
# Convention : Reuss Voigt Hill
#
# Bulk Modulus (GPa) = 44.79774 68.23477 56.51626
# Shear Modulus (GPa) = 22.56230 28.50024 25.53127
#
# Velocity S-wave (km/s) = 3.39214 3.81247 3.60843
# Velocity P-wave (km/s) = 6.17971 7.36066 6.79588
#
# Compressibility (1/GPa) = 0.02232255
#
# Stress axis : x y z
#
# Youngs Moduli (GPa) = 53.35973 53.90585 92.01062
#
# Poissons Ratio (x) = 0.18705 0.31506
# Poissons Ratio (y) = 0.18515 0.55432
# Poissons Ratio (z) = 0.18271 0.32476
#
# Static dielectric constant tensor:
#      x y z
#    x 3.464470 0.000000 0.084680 
#    y 0.000000 3.414290 0.000000 
#    z 0.084680 0.000000 3.673030 
# 
# 
# High freq. dielectric constant tensor:
#      x y z
#    x 1.751520 0.000000 0.013850 
#    y 0.000000 1.753780 0.000000 
#    z 0.013850 0.000000 1.773340 
# 
# From -- ./inp_files/238951.got.cif
#   From: 2010.06.25/outbox.cif.g09.slc.cpg/sg12_120_cif.got.tgz:238951.got - 2010.06.28 00:19:55.
