data_PCOD8091794
_publ_section_title
;
Structure prediction by ZEFSAII (Michael W. Deem and Ramdas Pophale) SiO2 
 PCOD8091794
Probable space group: C 2/M
;
_chemical_formula_sum "Si O2"
_cell_formula_units_Z 56
_cell_length_a 22.612846
_cell_length_b 12.909112
_cell_length_c 10.228595
_cell_angle_alpha 90.000000
_cell_angle_beta 102.751891
_cell_angle_gamma 90.000000
_cell_volume 2912.201372
_symmetry_space_group_name_H-M "C 2/M"
_symmetry_group_IT_number 12
_symmetry_cell_setting 'monoclinic'
loop_
_space_group_symop_operation_xyz
x,y,z
-x,y,-z
-x,-y,-z
x,-y,z
1/2+x,1/2+y,z
1/2-x,1/2+y,-z
1/2-x,1/2-y,-z
1/2+x,1/2-y,z
loop_
_atom_site_type_symbol
_atom_site_label
_atom_site_fract_x
_atom_site_fract_y
_atom_site_fract_z
Si Si1 0.317640 0.717725 0.563439
Si Si2 0.350400 0.267679 0.306826
Si Si3 0.068171 0.699955 0.009699
Si Si4 0.647963 0.617893 0.958833
Si Si5 0.549485 0.118170 0.727206
Si Si6 0.262714 0.616763 0.771842
Si Si7 0.911106 0.618630 0.704326
O O1 0.250000 0.750000 0.500000
O O2 0.345014 0.669262 0.441872
O O3 0.315089 0.642867 0.688435
O O4 0.359373 0.817171 0.608189
O O5 0.344632 0.350465 0.188479
O O6 0.412957 0.201451 0.339139
O O7 0.295357 0.188011 0.267490
O O8 0.100363 0.809185 0.006701
O O9 0.074223 0.625148 0.887612
O O10 0.095125 0.636777 0.143828
O O11 0.000000 0.732834 0.000000
O O12 0.624377 0.500000 0.952893
O O13 0.710758 0.628970 0.068998
O O14 0.478393 0.148523 0.685563
O O15 0.559317 0.000000 0.682481
O O16 0.241351 0.500000 0.736582
O O17 0.897491 0.500000 0.666700
#
# Coordination Sequence:
#
# PCOD8091794 Si02
#       7
#     8   8   8   8   8   8   8
#     4  10  22  37  54  78 111 150 188 226 270 329
#     4  10  21  36  55  81 118 146 181 232 284 335
#     4   9  17  32  55  84 116 148 183 234 281 328
#     4  10  20  35  57  81 108 146 192 236 279 327
#     4   9  18  32  55  87 117 148 181 226 285 341
#     4  10  20  37  59  78 105 146 191 234 277 332
#     4  10  19  34  57  85 117 149 188 228 277 338
#
# _framework density 19.22944
#
# number of rings (size 3 to 8) (size 9 to 14) (size 15 to 20)
#    0.000    2.286    1.429    1.286    0.000    6.000 
#    0.000    3.571    0.000    0.000    0.000    4.000 
#    0.000    0.000    0.000    0.000    0.000    0.000 
#
# Total GULP energy -347036.582181 kJ/mol
# GULP energy per Si atom -12394.163649 kJ/mol
# Density = 1.918567 g / cm^3
# Si number density = 19.229440 Si / 1000 Ang^3
#
#
#
# Elastic Constant Matrix: (Units=GPa)
#
#
# Indices 1 2 3 4 5 6 
#
# 1 71.2981 22.1296 22.4235 0.0000 2.0139 0.0000
# 2 22.1296 69.3457 1.8279 0.0000 9.1544 0.0000
# 3 22.4235 1.8279 55.5166 0.0000 4.2532 0.0000
# 4 0.0000 0.0000 0.0000 13.3252 0.0000 3.5687
# 5 2.0139 9.1544 4.2532 0.0000 29.5521 0.0000
# 6 0.0000 0.0000 0.0000 3.5687 0.0000 28.8548
#
#
#
# Elastic Compliance Matrix: (Units=1/GPa)
#
#
# Indices 1 2 3 4 5 6 
#
# 1 0.018045 -0.005779 -0.007221 0.000000 0.001600 0.000000
# 2 -0.005779 0.016887 0.002173 0.000000 -0.005150 0.000000
# 3 -0.007221 0.002173 0.021104 0.000000 -0.003218 0.000000
# 4 0.000000 0.000000 0.000000 0.077617 0.000000 -0.009599
# 5 0.001600 -0.005150 -0.003218 0.000000 0.035788 0.000000
# 6 0.000000 0.000000 0.000000 -0.009599 0.000000 0.035844
#
#
# Mechanical properties :
#
#
# Convention : Reuss Voigt Hill
#
# Bulk Modulus (GPa) = 29.08496 32.10249 30.59372
# Shear Modulus (GPa) = 20.97309 24.33171 22.65240
#
# Velocity S-wave (km/s) = 3.30612 3.56102 3.43593
# Velocity P-wave (km/s) = 5.45270 5.79987 5.62896
#
# Compressibility (1/GPa) = 0.03438204
#
# Stress axis : x y z
#
# Youngs Moduli (GPa) = 55.41627 59.21562 47.38398
#
# Poissons Ratio (x) = 0.34223 0.34215
# Poissons Ratio (y) = 0.32028 -0.10296
# Poissons Ratio (z) = 0.40015 -0.12867
#
# Static dielectric constant tensor:
#      x y z
#    x 3.615100 0.000000 -0.289360 
#    y 0.000000 3.342440 0.000000 
#    z -0.289360 0.000000 4.010060 
# 
# 
# High freq. dielectric constant tensor:
#      x y z
#    x 1.745480 0.000000 -0.004860 
#    y 0.000000 1.726860 0.000000 
#    z -0.004860 0.000000 1.763660 
# 
# From -- ./inp_files/165031.got.cif
#   From: 2010.06.25/outbox.cif.g09.slc.cpg/sg12_83_cif.got.tgz:165031.got - 2010.06.28 00:19:55.
