data_PCOD8091083
_publ_section_title
;
Structure prediction by ZEFSAII (Michael W. Deem and Ramdas Pophale) SiO2 
 PCOD8091083
Probable space group: C 2/M
;
_chemical_formula_sum "Si O2"
_cell_formula_units_Z 56
_cell_length_a 18.734223
_cell_length_b 9.716184
_cell_length_c 19.273212
_cell_angle_alpha 90.000000
_cell_angle_beta 64.747354
_cell_angle_gamma 90.000000
_cell_volume 3172.948979
_symmetry_space_group_name_H-M "C 2/M"
_symmetry_group_IT_number 12
_symmetry_cell_setting 'monoclinic'
loop_
_space_group_symop_operation_xyz
x,y,z
-x,y,-z
-x,-y,-z
x,-y,z
1/2+x,1/2+y,z
1/2-x,1/2+y,-z
1/2-x,1/2-y,-z
1/2+x,1/2-y,z
loop_
_atom_site_type_symbol
_atom_site_label
_atom_site_fract_x
_atom_site_fract_y
_atom_site_fract_z
Si Si1 0.382471 0.163922 0.758880
Si Si2 0.205418 0.163180 0.575666
Si Si3 0.022546 0.653973 0.064511
Si Si4 0.185944 0.344824 0.063266
Si Si5 0.583420 0.648677 0.813208
Si Si6 0.534387 0.650099 0.679125
Si Si7 0.748792 0.662857 0.710358
O O1 0.344194 0.209070 0.848863
O O2 0.465574 0.236998 0.709119
O O3 0.325878 0.214599 0.719788
O O4 0.397002 0.000000 0.753464
O O5 0.250000 0.250000 0.500000
O O6 0.111698 0.197334 0.603487
O O7 0.241878 0.216903 0.634296
O O8 0.220246 0.000000 0.560228
O O9 0.988433 0.500000 0.083974
O O10 0.115314 0.656348 0.037593
O O11 0.981884 0.743209 0.139394
O O12 0.000000 0.719140 0.000000
O O13 0.219561 0.500000 0.057699
O O14 0.250000 0.250000 0.000000
O O15 0.572228 0.500000 0.855885
O O16 0.573097 0.624662 0.736912
O O17 0.671958 0.707669 0.787780
O O18 0.501883 0.500000 0.666639
O O19 0.749350 0.500000 0.708022
#
# Coordination Sequence:
#
# PCOD8091083 Si02
#       7
#     8   8   8   8   8   8   8
#     4  10  19  34  55  76 101 135 175 215 253 303
#     4   9  18  35  57  80 107 135 166 206 250 300
#     4  10  21  35  48  68 101 132 164 212 264 304
#     4  10  22  36  50  72 102 137 174 215 262 306
#     4   9  17  32  53  72  92 127 172 211 248 296
#     4   9  18  33  53  77 103 132 165 207 255 299
#     4   8  17  33  53  77 103 130 167 212 252 292
#
# _framework density 17.649196
#
# number of rings (size 3 to 8) (size 9 to 14) (size 15 to 20)
#    0.000    2.714    1.429    1.714    2.000    2.000 
#    0.000    4.286    0.000    4.286    0.000    0.000 
#    0.000    0.000    0.000    0.000    0.000    0.000 
#
# Total GULP energy -346896.990575 kJ/mol
# GULP energy per Si atom -12389.178235 kJ/mol
# Density = 1.760903 g / cm^3
# Si number density = 17.649196 Si / 1000 Ang^3
#
#
#
# Elastic Constant Matrix: (Units=GPa)
#
#
# Indices 1 2 3 4 5 6 
#
# 1 104.3128 38.4221 42.9225 0.0000 -9.5317 0.0000
# 2 38.4221 67.6710 51.4962 0.0000 -18.7401 -0.0001
# 3 42.9225 51.4962 96.3383 0.0000 -18.7329 0.0000
# 4 0.0000 0.0000 0.0000 27.8397 0.0000 -6.3913
# 5 -9.5317 -18.7401 -18.7329 0.0000 29.1755 0.0000
# 6 0.0000 -0.0001 0.0000 -6.3913 0.0000 24.4269
#
#
#
# Elastic Compliance Matrix: (Units=1/GPa)
#
#
# Indices 1 2 3 4 5 6 
#
# 1 0.012655 -0.005133 -0.003121 0.000000 -0.001167 0.000000
# 2 -0.005133 0.028991 -0.011330 0.000000 0.009670 0.000000
# 3 -0.003121 -0.011330 0.018527 0.000000 0.003598 0.000000
# 4 0.000000 0.000000 0.000000 0.038215 0.000000 0.009999
# 5 -0.001167 0.009670 0.003598 0.000000 0.042416 0.000000
# 6 0.000000 0.000000 0.000000 0.009999 0.000000 0.043555
#
#
# Mechanical properties :
#
#
# Convention : Reuss Voigt Hill
#
# Bulk Modulus (GPa) = 47.60777 59.33375 53.47076
# Shear Modulus (GPa) = 21.68926 25.32050 23.50488
#
# Velocity S-wave (km/s) = 3.50938 3.79179 3.65332
# Velocity P-wave (km/s) = 6.59197 7.27060 6.93958
#
# Compressibility (1/GPa) = 0.02100498
#
# Stress axis : x y z
#
# Youngs Moduli (GPa) = 79.02008 34.49305 53.97658
#
# Poissons Ratio (x) = 0.17705 0.16848
# Poissons Ratio (y) = 0.40561 0.61153
# Poissons Ratio (z) = 0.24665 0.39079
#
# Static dielectric constant tensor:
#      x y z
#    x 3.576800 0.000000 -0.005350 
#    y 0.000000 3.122150 0.000000 
#    z -0.005350 0.000000 3.233620 
# 
# 
# High freq. dielectric constant tensor:
#      x y z
#    x 1.685940 0.000000 -0.005820 
#    y 0.000000 1.667350 0.000000 
#    z -0.005820 0.000000 1.668690 
# 
# From -- ./inp_files/223916.got.cif
#   From: 2010.06.25/outbox.cif.g09.slc.cpg/sg12_112_cif.got.tgz:223916.got - 2010.06.28 00:19:55.
