data_PCOD8091688
_publ_section_title
;
Structure prediction by ZEFSAII (Michael W. Deem and Ramdas Pophale) SiO2 
 PCOD8091688
Probable space group: C 2/M
;
_chemical_formula_sum "Si O2"
_cell_formula_units_Z 64
_cell_length_a 15.485583
_cell_length_b 9.284422
_cell_length_c 23.784903
_cell_angle_alpha 90.000000
_cell_angle_beta 89.353275
_cell_angle_gamma 90.000000
_cell_volume 3419.449153
_symmetry_space_group_name_H-M "C 2/M"
_symmetry_group_IT_number 12
_symmetry_cell_setting 'monoclinic'
loop_
_space_group_symop_operation_xyz
x,y,z
-x,y,-z
-x,-y,-z
x,-y,z
1/2+x,1/2+y,z
1/2-x,1/2+y,-z
1/2-x,1/2-y,-z
1/2+x,1/2-y,z
loop_
_atom_site_type_symbol
_atom_site_label
_atom_site_fract_x
_atom_site_fract_y
_atom_site_fract_z
Si Si1 0.474858 0.831569 0.937104
Si Si2 0.777743 0.331620 0.944346
Si Si3 0.619277 0.331212 0.867811
Si Si4 0.959718 0.832071 0.674566
Si Si5 0.122828 0.829136 0.739112
Si Si6 0.771154 0.834149 0.674291
Si Si7 0.288752 0.165032 0.447720
Si Si8 0.041258 0.166364 0.558682
O O1 0.375148 0.787675 0.925653
O O2 0.537116 0.747490 0.894744
O O3 0.489903 0.000000 0.927141
O O4 0.500000 0.786782 0.000000
O O5 0.774879 0.500000 0.958274
O O6 0.710067 0.289014 0.896210
O O7 0.750000 0.250000 0.000000
O O8 0.601332 0.500000 0.873311
O O9 0.627197 0.281130 0.803573
O O10 0.865259 0.774686 0.692705
O O11 0.034909 0.763929 0.712731
O O12 0.973554 0.801632 0.608466
O O13 0.960792 0.000000 0.686103
O O14 0.202527 0.764811 0.705084
O O15 0.127991 0.000000 0.732158
O O16 0.770768 0.821004 0.606706
O O17 0.755731 0.000000 0.692074
O O18 0.250000 0.250000 0.500000
O O19 0.379477 0.230886 0.429473
O O20 0.299634 0.000000 0.466082
O O21 0.000000 0.209530 0.500000
O O22 0.071767 0.000000 0.558249
#
# Coordination Sequence:
#
# PCOD8091688 Si02
#       8
#     8   8   8   8   8   8   8   8
#     4  10  20  35  56  82 112 147 186 225 273 333
#     4  10  20  35  55  81 114 149 184 228 280 330
#     4  10  22  37  56  84 115 147 187 233 277 328
#     4   9  18  35  58  79 108 148 185 224 278 338
#     4  10  21  39  59  81 112 150 190 230 277 335
#     4  10  21  38  59  83 110 147 191 234 276 331
#     4  11  22  35  54  82 116 146 186 237 287 341
#     4  10  19  34  57  82 110 147 188 230 285 344
#
# _framework density 18.716463999999998
#
# number of rings (size 3 to 8) (size 9 to 14) (size 15 to 20)
#    0.000    2.000    2.500    1.125    0.000    5.000 
#    0.000    1.250    0.000    0.000    0.000    0.000 
#    0.000    0.000    0.000    0.000    0.000    0.000 
#
# Total GULP energy -396781.761632 kJ/mol
# GULP energy per Si atom -12399.430051 kJ/mol
# Density = 1.867386 g / cm^3
# Si number density = 18.716464 Si / 1000 Ang^3
#
#
#
# Elastic Constant Matrix: (Units=GPa)
#
#
# Indices 1 2 3 4 5 6 
#
# 1 160.5530 37.3427 59.4992 0.0000 5.8793 0.0000
# 2 37.3427 44.0387 31.0432 0.0000 -3.6308 0.0000
# 3 59.4992 31.0432 117.3558 0.0000 8.0909 0.0000
# 4 0.0000 0.0000 0.0000 21.8195 0.0000 -4.3114
# 5 5.8793 -3.6308 8.0909 0.0000 29.8423 0.0000
# 6 0.0000 0.0000 0.0000 -4.3114 0.0000 30.0170
#
#
#
# Elastic Compliance Matrix: (Units=1/GPa)
#
#
# Indices 1 2 3 4 5 6 
#
# 1 0.008592 -0.005438 -0.002808 0.000000 -0.001593 0.000000
# 2 -0.005438 0.032268 -0.006240 0.000000 0.006689 0.000000
# 3 -0.002808 -0.006240 0.011831 0.000000 -0.003414 0.000000
# 4 0.000000 0.000000 0.000000 0.047169 0.000000 0.006775
# 5 -0.001593 0.006689 -0.003414 0.000000 0.035563 0.000000
# 6 0.000000 0.000000 0.000000 0.006775 0.000000 0.034288
#
#
# Mechanical properties :
#
#
# Convention : Reuss Voigt Hill
#
# Bulk Modulus (GPa) = 42.15877 64.19086 53.17481
# Shear Modulus (GPa) = 24.20270 29.27325 26.73798
#
# Velocity S-wave (km/s) = 3.59990 3.95908 3.78376
# Velocity P-wave (km/s) = 6.31292 7.43438 6.89648
#
# Compressibility (1/GPa) = 0.02371986
#
# Stress axis : x y z
#
# Youngs Moduli (GPa) = 116.38507 30.99023 84.52599
#
# Poissons Ratio (x) = 0.16852 0.23735
# Poissons Ratio (y) = 0.63287 0.52743
# Poissons Ratio (z) = 0.32681 0.19338
#
# Static dielectric constant tensor:
#      x y z
#    x 3.928990 0.000000 0.287080 
#    y 0.000000 3.373080 0.000000 
#    z 0.287080 0.000000 3.583340 
# 
# 
# High freq. dielectric constant tensor:
#      x y z
#    x 1.742890 0.000000 0.004800 
#    y 0.000000 1.707880 0.000000 
#    z 0.004800 0.000000 1.726130 
# 
# From -- ./inp_files/338913.got.cif
#   From: 2010.06.25/outbox.cif.g09.slc.cpg/sg12_170_cif.got.tgz:338913.got - 2010.06.28 00:19:55.
