data_PCOD8091782
_publ_section_title
;
Structure prediction by ZEFSAII (Michael W. Deem and Ramdas Pophale) SiO2 
 PCOD8091782
Probable space group: C 2/M
;
_chemical_formula_sum "Si O2"
_cell_formula_units_Z 40
_cell_length_a 23.593737
_cell_length_b 13.938968
_cell_length_c 12.341782
_cell_angle_alpha 90.000000
_cell_angle_beta 29.862283
_cell_angle_gamma 90.000000
_cell_volume 2020.980628
_symmetry_space_group_name_H-M "C 2/M"
_symmetry_group_IT_number 12
_symmetry_cell_setting 'monoclinic'
loop_
_space_group_symop_operation_xyz
x,y,z
-x,y,-z
-x,-y,-z
x,-y,z
1/2+x,1/2+y,z
1/2-x,1/2+y,-z
1/2-x,1/2-y,-z
1/2+x,1/2-y,z
loop_
_atom_site_type_symbol
_atom_site_label
_atom_site_fract_x
_atom_site_fract_y
_atom_site_fract_z
Si Si1 0.267523 0.245269 0.843488
Si Si2 0.000000 0.694760 0.500000
Si Si3 0.878781 0.608487 0.338803
Si Si4 0.832127 0.888629 0.159682
Si Si5 0.000000 0.757914 0.000000
Si Si6 0.090654 0.606691 0.139801
O O1 0.403785 0.258583 0.597356
O O2 0.223334 0.146902 0.861460
O O3 0.250000 0.250000 0.000000
O O4 0.191754 0.330554 0.918366
O O5 0.931159 0.629027 0.697932
O O6 0.885612 0.500000 0.279001
O O7 0.756170 0.625306 0.595446
O O8 0.973413 0.623422 0.273099
O O9 0.900665 0.688314 0.210917
O O10 0.865492 0.000000 0.089723
O O11 0.944570 0.826657 0.000763
O O12 0.136274 0.500000 0.053706
#
# Coordination Sequence:
#
# PCOD8091782 Si02
#       6
#     8   4   8   8   4   8
#     4  10  21  36  57  88 117 149 189 243 292 341
#     4  10  19  34  61  82 112 152 195 238 291 350
#     4  10  21  37  60  87 115 152 195 243 290 340
#     4  11  23  40  61  87 119 156 199 241 290 353
#     4  12  22  40  62  88 120 156 194 248 300 344
#     4  10  19  34  57  85 112 148 193 238 290 346
#
# _framework density 19.792372
#
# number of rings (size 3 to 8) (size 9 to 14) (size 15 to 20)
#    0.000    1.600    4.000    1.500    0.000    3.200 
#    0.000    0.500    0.000    7.200    0.000    0.000 
#    0.000    0.000    0.000    0.000    0.000    0.000 
#
# Total GULP energy -247877.095173 kJ/mol
# GULP energy per Si atom -12393.854759 kJ/mol
# Density = 1.974732 g / cm^3
# Si number density = 19.792372 Si / 1000 Ang^3
#
#
#
# Elastic Constant Matrix: (Units=GPa)
#
#
# Indices 1 2 3 4 5 6 
#
# 1 64.5820 32.4259 18.6080 0.0000 -5.7598 0.0000
# 2 32.4259 127.2130 45.2453 0.0000 -4.5647 0.0000
# 3 18.6080 45.2453 46.8388 0.0000 -13.3687 0.0000
# 4 0.0000 0.0000 0.0000 30.4546 0.0000 4.1516
# 5 -5.7598 -4.5647 -13.3687 0.0000 36.3876 0.0000
# 6 0.0000 0.0000 0.0000 4.1516 0.0000 25.9439
#
#
#
# Elastic Compliance Matrix: (Units=1/GPa)
#
#
# Indices 1 2 3 4 5 6 
#
# 1 0.018323 -0.003280 -0.003799 0.000000 0.001093 0.000000
# 2 -0.003280 0.012877 -0.012091 0.000000 -0.003346 0.000000
# 3 -0.003799 -0.012091 0.037909 0.000000 0.011810 0.000000
# 4 0.000000 0.000000 0.000000 0.033568 0.000000 -0.005372
# 5 0.001093 -0.003346 0.011810 0.000000 0.031574 0.000000
# 6 0.000000 0.000000 0.000000 -0.005372 0.000000 0.039404
#
#
# Mechanical properties :
#
#
# Convention : Reuss Voigt Hill
#
# Bulk Modulus (GPa) = 32.49940 47.91026 40.20483
# Shear Modulus (GPa) = 22.49692 28.04753 25.27222
#
# Velocity S-wave (km/s) = 3.37508 3.76851 3.57720
# Velocity P-wave (km/s) = 5.62530 6.57225 6.11713
#
# Compressibility (1/GPa) = 0.03076980
#
# Stress axis : x y z
#
# Youngs Moduli (GPa) = 54.57576 77.65652 26.37869
#
# Poissons Ratio (x) = 0.25472 0.10021
# Poissons Ratio (y) = 0.17902 0.31895
# Poissons Ratio (z) = 0.20732 0.93895
#
# Static dielectric constant tensor:
#      x y z
#    x 3.641200 0.000000 -0.331880 
#    y 0.000000 3.787890 0.000000 
#    z -0.331880 0.000000 3.849340 
# 
# 
# High freq. dielectric constant tensor:
#      x y z
#    x 1.773480 0.000000 -0.015760 
#    y 0.000000 1.766060 0.000000 
#    z -0.015760 0.000000 1.761200 
# 
# From -- ./inp_files/245274.got.cif
#   From: 2010.06.25/outbox.cif.g09.slc.cpg/sg12_123_cif.got.tgz:245274.got - 2010.06.28 00:19:55.
