data_PCOD8091695
_publ_section_title
;
Structure prediction by ZEFSAII (Michael W. Deem and Ramdas Pophale) SiO2 
 PCOD8091695
Probable space group: C 2/M
;
_chemical_formula_sum "Si O2"
_cell_formula_units_Z 64
_cell_length_a 20.612425
_cell_length_b 8.550377
_cell_length_c 19.908637
_cell_angle_alpha 90.000000
_cell_angle_beta 76.573127
_cell_angle_gamma 90.000000
_cell_volume 3412.872753
_symmetry_space_group_name_H-M "C 2/M"
_symmetry_group_IT_number 12
_symmetry_cell_setting 'monoclinic'
loop_
_space_group_symop_operation_xyz
x,y,z
-x,y,-z
-x,-y,-z
x,-y,z
1/2+x,1/2+y,z
1/2-x,1/2+y,-z
1/2-x,1/2-y,-z
1/2+x,1/2-y,z
loop_
_atom_site_type_symbol
_atom_site_label
_atom_site_fract_x
_atom_site_fract_y
_atom_site_fract_z
Si Si1 0.170636 0.184627 0.785902
Si Si2 0.800730 0.180568 0.583206
Si Si3 0.447506 0.314435 0.921095
Si Si4 0.426700 0.182564 0.301595
Si Si5 0.408638 0.685052 0.070533
Si Si6 0.335538 0.681635 0.427476
Si Si7 0.934954 0.183278 0.775878
Si Si8 0.320057 0.818233 0.716317
O O1 0.120265 0.270314 0.748575
O O2 0.152506 0.236387 0.866820
O O3 0.245818 0.237112 0.753724
O O4 0.161524 0.000000 0.776952
O O5 0.723062 0.219519 0.592792
O O6 0.840885 0.220220 0.505320
O O7 0.832633 0.283402 0.634816
O O8 0.807554 0.000000 0.601259
O O9 0.447504 0.500000 0.921063
O O10 0.522574 0.251004 0.914012
O O11 0.421409 0.254563 0.855243
O O12 0.401541 0.253324 0.994890
O O13 0.404158 0.271401 0.375020
O O14 0.502770 0.226566 0.270164
O O15 0.421255 0.000000 0.315943
O O16 0.412870 0.500000 0.067400
O O17 0.318914 0.500000 0.420264
O O18 0.869682 0.216920 0.748753
O O19 0.951333 0.000000 0.771459
O O20 0.331605 0.000000 0.728330
#
# Coordination Sequence:
#
# PCOD8091695 Si02
#       8
#     8   8   8   8   8   8   8   8
#     4  10  19  34  57  82 111 147 188 232 278 330
#     4  10  20  35  57  85 114 147 185 228 276 326
#     4   8  14  26  51  82 107 138 183 233 277 330
#     4  12  23  35  56  85 115 144 186 235 279 331
#     4   8  13  26  51  83 109 134 182 234 277 327
#     4  10  20  35  57  85 115 145 183 229 278 328
#     4  11  22  38  58  79 111 151 191 233 284 339
#     4  11  23  37  55  81 116 154 189 229 279 334
#
# _framework density 18.75253
#
# number of rings (size 3 to 8) (size 9 to 14) (size 15 to 20)
#    0.000    2.000    2.500    3.375    0.000    2.000 
#    0.000    1.250    0.000    6.000    0.000    0.000 
#    0.000    0.000    0.000    0.000    0.000    0.000 
#
# Total GULP energy -396718.793269 kJ/mol
# GULP energy per Si atom -12397.462290 kJ/mol
# Density = 1.870985 g / cm^3
# Si number density = 18.752530 Si / 1000 Ang^3
#
#
#
# Elastic Constant Matrix: (Units=GPa)
#
#
# Indices 1 2 3 4 5 6 
#
# 1 75.8307 10.7571 52.3844 0.0000 0.7903 0.0000
# 2 10.7571 34.5765 20.7262 0.0000 -3.1372 0.0000
# 3 52.3844 20.7262 163.3916 0.0000 -3.5994 0.0000
# 4 0.0000 0.0000 0.0000 16.1365 0.0000 1.3962
# 5 0.7903 -3.1372 -3.5994 0.0000 26.0640 0.0000
# 6 0.0000 0.0000 0.0000 1.3962 0.0000 25.4361
#
#
#
# Elastic Compliance Matrix: (Units=1/GPa)
#
#
# Indices 1 2 3 4 5 6 
#
# 1 0.017152 -0.002336 -0.005236 0.000000 -0.001524 0.000000
# 2 -0.002336 0.031893 -0.003220 0.000000 0.003465 0.000000
# 3 -0.005236 -0.003220 0.008228 0.000000 0.000907 0.000000
# 4 0.000000 0.000000 0.000000 0.062267 0.000000 -0.003418
# 5 -0.001524 0.003465 0.000907 0.000000 0.038956 0.000000
# 6 0.000000 0.000000 0.000000 -0.003418 0.000000 0.039502
#
#
# Mechanical properties :
#
#
# Convention : Reuss Voigt Hill
#
# Bulk Modulus (GPa) = 28.02106 49.05936 38.54021
# Shear Modulus (GPa) = 21.60041 26.18939 23.89490
#
# Velocity S-wave (km/s) = 3.39760 3.74114 3.57350
# Velocity P-wave (km/s) = 5.51059 6.69923 6.13377
#
# Compressibility (1/GPa) = 0.03568745
#
# Stress axis : x y z
#
# Youngs Moduli (GPa) = 58.30311 31.35501 121.54282
#
# Poissons Ratio (x) = 0.07323 0.63643
# Poissons Ratio (y) = 0.13617 0.39142
# Poissons Ratio (z) = 0.30529 0.10098
#
# Static dielectric constant tensor:
#      x y z
#    x 3.183700 0.000000 -0.157000 
#    y 0.000000 3.209330 0.000000 
#    z -0.157000 0.000000 4.028750 
# 
# 
# High freq. dielectric constant tensor:
#      x y z
#    x 1.692930 0.000000 -0.008740 
#    y 0.000000 1.710370 0.000000 
#    z -0.008740 0.000000 1.751690 
# 
# From -- ./inp_files/319143.got.cif
#   From: 2010.06.25/outbox.cif.g09.slc.cpg/sg12_160_cif.got.tgz:319143.got - 2010.06.28 00:19:55.
