data_PCOD8091043
_publ_section_title
;
Structure prediction by ZEFSAII (Michael W. Deem and Ramdas Pophale) SiO2 
 PCOD8091043
Probable space group: C 2/M
;
_chemical_formula_sum "Si O2"
_cell_formula_units_Z 64
_cell_length_a 27.230308
_cell_length_b 16.078449
_cell_length_c 7.956198
_cell_angle_alpha 90.000000
_cell_angle_beta 76.805492
_cell_angle_gamma 90.000000
_cell_volume 3391.432711
_symmetry_space_group_name_H-M "C 2/M"
_symmetry_group_IT_number 12
_symmetry_cell_setting 'monoclinic'
loop_
_space_group_symop_operation_xyz
x,y,z
-x,y,-z
-x,-y,-z
x,-y,z
1/2+x,1/2+y,z
1/2-x,1/2+y,-z
1/2-x,1/2-y,-z
1/2+x,1/2-y,z
loop_
_atom_site_type_symbol
_atom_site_label
_atom_site_fract_x
_atom_site_fract_y
_atom_site_fract_z
Si Si1 0.496990 0.908394 0.822097
Si Si2 0.787137 0.324115 0.933778
Si Si3 0.103247 0.407514 0.572186
Si Si4 0.803321 0.596846 0.270905
Si Si5 0.193550 0.096232 0.876142
Si Si6 0.447503 0.781919 0.622765
Si Si7 0.144314 0.190695 0.226777
Si Si8 0.195510 0.098501 0.491206
O O1 0.553172 0.918279 0.716556
O O2 0.460872 0.850588 0.746642
O O3 0.471495 0.000000 0.847895
O O4 0.500000 0.866062 0.000000
O O5 0.753873 0.393207 0.861876
O O6 0.831691 0.284121 0.787345
O O7 0.750000 0.250000 0.000000
O O8 0.660139 0.355142 0.040905
O O9 0.114489 0.500000 0.481214
O O10 0.149681 0.379066 0.650653
O O11 0.092703 0.329800 0.461384
O O12 0.801147 0.500000 0.234226
O O13 0.752461 0.626408 0.404055
O O14 0.810174 0.641647 0.087847
O O15 0.181919 0.126652 0.693509
O O16 0.179911 0.000000 0.906182
O O17 0.500000 0.749460 0.500000
O O18 0.416652 0.703301 0.722277
O O19 0.159059 0.140169 0.382415
O O20 0.189251 0.000000 0.479683
#
# Coordination Sequence:
#
# PCOD8091043 Si02
#       8
#     8   8   8   8   8   8   8   8
#     4   9  18  35  55  76 106 148 192 233 278 330
#     4  10  20  33  51  82 117 152 185 225 283 335
#     4   9  19  34  54  78 107 149 193 232 274 331
#     4  10  19  34  54  81 117 153 193 233 270 330
#     4  10  21  39  60  83 113 157 198 230 280 346
#     4  10  22  39  56  80 112 148 193 241 297 341
#     4  11  23  38  57  86 119 152 187 240 294 343
#     4  10  21  38  61  83 112 156 194 230 281 346
#
# _framework density 18.871079999999999
#
# number of rings (size 3 to 8) (size 9 to 14) (size 15 to 20)
#    0.000    2.125    2.500    1.125    3.500    4.000 
#    2.250    1.250    0.000    1.500    0.000    1.750 
#    0.000    0.000    0.000    0.000    0.000    0.000 
#
# Total GULP energy -396482.372263 kJ/mol
# GULP energy per Si atom -12390.074133 kJ/mol
# Density = 1.882813 g / cm^3
# Si number density = 18.871080 Si / 1000 Ang^3
#
#
#
# Elastic Constant Matrix: (Units=GPa)
#
#
# Indices 1 2 3 4 5 6 
#
# 1 130.6966 1.3411 46.3723 0.0000 -92.7703 0.0000
# 2 1.3411 105.6740 41.5270 0.0000 145.1410 0.0000
# 3 46.3723 41.5270 122.7015 0.0000 12.3187 0.0000
# 4 0.0000 0.0000 0.0000 31.9207 0.0000 10.1501
# 5 -92.7703 145.1410 12.3187 0.0000 404.8097 0.0000
# 6 0.0000 0.0000 0.0000 10.1501 0.0000 44.7312
#
#
#
# Elastic Compliance Matrix: (Units=1/GPa)
#
#
# Indices 1 2 3 4 5 6 
#
# 1 0.012420 -0.005768 -0.003245 0.000000 0.005013 0.000000
# 2 -0.005768 0.026276 -0.005652 0.000000 -0.010571 0.000000
# 3 -0.003245 -0.005652 0.011195 0.000000 0.000942 0.000000
# 4 0.000000 0.000000 0.000000 0.033764 0.000000 -0.007661
# 5 0.005013 -0.010571 0.000942 0.000000 0.007381 0.000000
# 6 0.000000 0.000000 0.000000 -0.007661 0.000000 0.024094
#
#
# Mechanical properties :
#
#
# Convention : Reuss Voigt Hill
#
# Bulk Modulus (GPa) = 48.63464 59.72809 54.18137
# Shear Modulus (GPa) = 33.04407 114.28109 73.66258
#
# Velocity S-wave (km/s) = 4.18909 7.79040 6.25455
# Velocity P-wave (km/s) = 7.01612 10.61319 8.99627
#
# Compressibility (1/GPa) = 0.02056148
#
# Stress axis : x y z
#
# Youngs Moduli (GPa) = 80.51347 38.05724 89.32899
#
# Poissons Ratio (x) = 0.21950 0.28990
# Poissons Ratio (y) = 0.46437 0.50488
# Poissons Ratio (z) = 0.26129 0.21509
#
# Static dielectric constant tensor:
#      x y z
#    x 3.484800 0.000000 0.086380 
#    y 0.000000 3.660430 0.000000 
#    z 0.086380 0.000000 3.384890 
# 
# 
# High freq. dielectric constant tensor:
#      x y z
#    x 1.720510 0.000000 0.004820 
#    y 0.000000 1.721720 0.000000 
#    z 0.004820 0.000000 1.738310 
# 
# From -- ./inp_files/98593.got.cif
#   From: 2010.06.25/outbox.cif.g09.slc.cpg/sg12_50_cif.got.tgz:98593.got - 2010.06.28 00:19:55.
