data_PCOD8091660
_publ_section_title
;
Structure prediction by ZEFSAII (Michael W. Deem and Ramdas Pophale) SiO2 
 PCOD8091660
Probable space group: C 2/M
;
_chemical_formula_sum "Si O2"
_cell_formula_units_Z 64
_cell_length_a 18.736099
_cell_length_b 8.430223
_cell_length_c 20.782864
_cell_angle_alpha 90.000000
_cell_angle_beta 89.906239
_cell_angle_gamma 90.000000
_cell_volume 3282.638431
_symmetry_space_group_name_H-M "C 2/M"
_symmetry_group_IT_number 12
_symmetry_cell_setting 'monoclinic'
loop_
_space_group_symop_operation_xyz
x,y,z
-x,y,-z
-x,-y,-z
x,-y,z
1/2+x,1/2+y,z
1/2-x,1/2+y,-z
1/2-x,1/2-y,-z
1/2+x,1/2-y,z
loop_
_atom_site_type_symbol
_atom_site_label
_atom_site_fract_x
_atom_site_fract_y
_atom_site_fract_z
Si Si1 0.581262 0.183103 0.997749
Si Si2 0.675999 0.686609 0.612975
Si Si3 0.918773 0.316898 0.497245
Si Si4 0.176493 0.186610 0.887501
Si Si5 0.832376 0.818953 0.609090
Si Si6 0.164711 0.178146 0.750272
Si Si7 0.812007 0.180107 0.749836
Si Si8 0.332888 0.318942 0.890451
O O1 0.616585 0.208158 0.067238
O O2 0.586136 0.000000 0.978256
O O3 0.500000 0.242011 0.000000
O O4 0.621381 0.285674 0.944380
O O5 0.692323 0.500000 0.619678
O O6 0.620639 0.714353 0.556450
O O7 0.749629 0.776090 0.598031
O O8 0.641547 0.753152 0.681107
O O9 0.914120 0.500000 0.477723
O O10 0.882663 0.291994 0.566504
O O11 0.000000 0.257944 0.500000
O O12 0.141803 0.253179 0.819571
O O13 0.250187 0.276023 0.902008
O O14 0.192782 0.000000 0.880700
O O15 0.856741 0.795947 0.683834
O O16 0.842971 0.000000 0.586917
O O17 0.250661 0.188281 0.750010
O O18 0.136857 0.000000 0.750366
O O19 0.856987 0.204142 0.815569
O O20 0.779900 0.000000 0.749951
O O21 0.343531 0.500000 0.912522
#
# Coordination Sequence:
#
# PCOD8091660 Si02
#       8
#     8   8   8   8   8   8   8   8
#     4  11  24  39  52  71 103 141 180 219 258 303
#     4  10  19  34  57  82 107 135 170 211 257 308
#     4  11  24  39  52  71 103 141 180 219 258 303
#     4  10  19  34  57  82 107 135 170 211 257 308
#     4  10  19  34  57  82 107 135 170 211 257 308
#     4   8  16  30  51  80 107 131 163 207 255 304
#     4   8  16  30  51  80 107 131 163 207 255 304
#     4  10  19  34  57  82 107 135 170 211 257 308
#
# _framework density 19.496513
#
# number of rings (size 3 to 8) (size 9 to 14) (size 15 to 20)
#    0.000    2.250    0.000    3.000    0.000    4.000 
#    0.000    1.250    0.000    7.500    0.000    0.000 
#    0.000    0.000    0.000    0.000    0.000    0.000 
#
# Total GULP energy -396519.648761 kJ/mol
# GULP energy per Si atom -12391.239024 kJ/mol
# Density = 1.945214 g / cm^3
# Si number density = 19.496513 Si / 1000 Ang^3
#
#
#
# Elastic Constant Matrix: (Units=GPa)
#
#
# Indices 1 2 3 4 5 6 
#
# 1 81.4156 7.4305 55.0374 0.0000 0.7985 0.0000
# 2 7.4305 36.6420 13.0429 0.0000 0.0833 0.0000
# 3 55.0374 13.0429 156.5623 0.0000 1.0819 0.0000
# 4 0.0000 0.0000 0.0000 18.9777 0.0000 0.0870
# 5 0.7985 0.0833 1.0819 0.0000 0.4403 0.0000
# 6 0.0000 0.0000 0.0000 0.0870 0.0000 21.7240
#
#
#
# Elastic Compliance Matrix: (Units=1/GPa)
#
#
# Indices 1 2 3 4 5 6 
#
# 1 0.016277 -0.001306 -0.005504 0.000000 -0.015749 0.000000
# 2 -0.001306 0.028230 -0.001905 0.000000 0.001706 0.000000
# 3 -0.005504 -0.001905 0.008555 0.000000 -0.010678 0.000000
# 4 0.000000 0.000000 0.000000 0.052694 0.000000 -0.000211
# 5 -0.015749 0.001706 -0.010678 0.000000 2.325884 0.000000
# 6 0.000000 0.000000 0.000000 -0.000211 0.000000 0.046033
#
#
# Mechanical properties :
#
#
# Convention : Reuss Voigt Hill
#
# Bulk Modulus (GPa) = 28.06424 47.29350 37.67887
# Shear Modulus (GPa) = 1.99443 21.50233 11.74838
#
# Velocity S-wave (km/s) = 1.01252 3.32457 2.45743
# Velocity P-wave (km/s) = 3.97400 6.24877 5.23640
#
# Compressibility (1/GPa) = 0.03563253
#
# Stress axis : x y z
#
# Youngs Moduli (GPa) = 61.43508 35.42342 116.89453
#
# Poissons Ratio (x) = 0.04625 0.64344
# Poissons Ratio (y) = 0.08021 0.22263
# Poissons Ratio (z) = 0.33817 0.06747
#
# Static dielectric constant tensor:
#      x y z
#    x 3.103860 0.000000 0.004420 
#    y 0.000000 3.491530 0.000000 
#    z 0.004420 0.000000 4.040840 
# 
# 
# High freq. dielectric constant tensor:
#      x y z
#    x 1.704600 0.000000 0.000340 
#    y 0.000000 1.759350 0.000000 
#    z 0.000340 0.000000 1.790060 
# 
# From -- ./inp_files/313980.got.cif
#   From: 2010.06.25/outbox.cif.g09.slc.cpg/sg12_157_cif.got.tgz:313980.got - 2010.06.28 00:19:55.
