data_PCOD8091977
_publ_section_title
;
Structure prediction by ZEFSAII (Michael W. Deem and Ramdas Pophale) SiO2 
 PCOD8091977
Probable space group: C 2/M
;
_chemical_formula_sum "Si O2"
_cell_formula_units_Z 56
_cell_length_a 17.090910
_cell_length_b 15.343571
_cell_length_c 17.638545
_cell_angle_alpha 90.000000
_cell_angle_beta 36.201649
_cell_angle_gamma 90.000000
_cell_volume 2731.926933
_symmetry_space_group_name_H-M "C 2/M"
_symmetry_group_IT_number 12
_symmetry_cell_setting 'monoclinic'
loop_
_space_group_symop_operation_xyz
x,y,z
-x,y,-z
-x,-y,-z
x,-y,z
1/2+x,1/2+y,z
1/2-x,1/2+y,-z
1/2-x,1/2-y,-z
1/2+x,1/2-y,z
loop_
_atom_site_type_symbol
_atom_site_label
_atom_site_fract_x
_atom_site_fract_y
_atom_site_fract_z
Si Si1 0.649964 0.825068 0.053116
Si Si2 0.075974 0.401722 0.270727
Si Si3 0.801204 0.595123 0.423640
Si Si4 0.641282 0.769702 0.746886
Si Si5 0.136607 0.098526 0.207671
Si Si6 0.597777 0.405243 0.709118
Si Si7 0.886811 0.758891 0.653447
O O1 0.623080 0.882807 0.148213
O O2 0.513162 0.791828 0.121425
O O3 0.750000 0.750000 0.000000
O O4 0.713598 0.880548 0.934965
O O5 0.121385 0.500000 0.257562
O O6 0.128841 0.333273 0.291029
O O7 0.917126 0.393401 0.395146
O O8 0.817511 0.500000 0.370186
O O9 0.798692 0.673480 0.367331
O O10 0.664614 0.598226 0.574595
O O11 0.654935 0.667162 0.719579
O O12 0.739211 0.784565 0.740525
O O13 0.076969 0.164412 0.316567
O O14 0.055464 0.110393 0.192298
O O15 0.127213 0.000000 0.246894
O O16 0.619102 0.500000 0.731227
O O17 0.000000 0.753795 0.500000
#
# Coordination Sequence:
#
# PCOD8091977 Si02
#       7
#     8   8   8   8   8   8   8
#     4  11  20  42  66  85 113 150 210 258 290 338
#     4  10  21  39  64  89 119 160 202 249 295 346
#     4   9  18  34  58  85 112 150 205 252 289 339
#     4  11  22  35  59  85 119 158 193 242 298 352
#     4  11  23  41  64  88 118 158 201 251 301 349
#     4  10  19  34  58  86 113 151 202 250 293 343
#     4  12  25  39  58  91 131 164 192 234 302 371
#
# _framework density 20.498352000000001
#
# number of rings (size 3 to 8) (size 9 to 14) (size 15 to 20)
#    0.000    1.429    2.857    3.429    0.000    2.857 
#    0.000    0.714    0.000    0.857    0.000    0.000 
#    0.000    0.000    0.000    0.000    0.000    0.000 
#
# Total GULP energy -347068.076692 kJ/mol
# GULP energy per Si atom -12395.288453 kJ/mol
# Density = 2.045170 g / cm^3
# Si number density = 20.498352 Si / 1000 Ang^3
#
#
#
# Elastic Constant Matrix: (Units=GPa)
#
#
# Indices 1 2 3 4 5 6 
#
# 1 56.6496 9.9924 9.7280 0.0000 -13.7869 -0.0002
# 2 9.9924 110.4375 19.5414 0.0001 0.6120 -0.0001
# 3 9.7280 19.5414 80.5130 0.0000 -3.0046 0.0000
# 4 0.0000 0.0001 0.0000 15.9862 -0.0001 -23.7105
# 5 -13.7869 0.6120 -3.0046 -0.0001 27.2369 0.0001
# 6 -0.0002 -0.0001 0.0000 -23.7105 0.0001 -30.0249
#
#
#
# Elastic Compliance Matrix: (Units=1/GPa)
#
#
# Indices 1 2 3 4 5 6 
#
# 1 0.020756 -0.001630 -0.001726 0.000000 0.010352 0.000000
# 2 -0.001630 0.009595 -0.002180 0.000000 -0.001281 0.000000
# 3 -0.001726 -0.002180 0.013181 0.000000 0.000629 0.000000
# 4 0.000000 0.000000 0.000000 0.028810 0.000000 -0.022751
# 5 0.010352 -0.001281 0.000629 0.000000 0.042053 0.000000
# 6 0.000000 0.000000 0.000000 -0.022751 0.000000 -0.015339
#
#
# Mechanical properties :
#
#
# Convention : Reuss Voigt Hill
#
# Bulk Modulus (GPa) = 30.80599 36.23596 33.52097
# Shear Modulus (GPa) = 41.34013 16.52885 28.93449
#
# Velocity S-wave (km/s) = 4.49570 2.84271 3.76114
# Velocity P-wave (km/s) = 6.48148 5.33765 5.93718
#
# Compressibility (1/GPa) = 0.03246122
#
# Stress axis : x y z
#
# Youngs Moduli (GPa) = 48.17942 104.21910 75.86441
#
# Poissons Ratio (x) = 0.16987 0.13093
# Poissons Ratio (y) = 0.07853 0.16536
# Poissons Ratio (z) = 0.08315 0.22717
#
# Static dielectric constant tensor:
#      x y z
#    x 3.489410 0.000000 -0.308160 
#    y 0.000000 3.955330 0.000000 
#    z -0.308160 0.000000 3.779060 
# 
# 
# High freq. dielectric constant tensor:
#      x y z
#    x 1.776390 0.000000 -0.024900 
#    y 0.000000 1.820040 0.000000 
#    z -0.024900 0.000000 1.797970 
# 
# From -- ./inp_files/277817.got.cif
#   From: 2010.06.25/outbox.cif.g09.slc.cpg/sg12_139_cif.got.tgz:277817.got - 2010.06.28 00:19:55.
