data_PCOD8091927
_publ_section_title
;
Structure prediction by ZEFSAII (Michael W. Deem and Ramdas Pophale) SiO2 
 PCOD8091927
Probable space group: C 2/M
;
_chemical_formula_sum "Si O2"
_cell_formula_units_Z 64
_cell_length_a 15.518248
_cell_length_b 8.675045
_cell_length_c 23.869754
_cell_angle_alpha 90.000000
_cell_angle_beta 89.778852
_cell_angle_gamma 90.000000
_cell_volume 3213.358145
_symmetry_space_group_name_H-M "C 2/M"
_symmetry_group_IT_number 12
_symmetry_cell_setting 'monoclinic'
loop_
_space_group_symop_operation_xyz
x,y,z
-x,y,-z
-x,-y,-z
x,-y,z
1/2+x,1/2+y,z
1/2-x,1/2+y,-z
1/2-x,1/2-y,-z
1/2+x,1/2-y,z
loop_
_atom_site_type_symbol
_atom_site_label
_atom_site_fract_x
_atom_site_fract_y
_atom_site_fract_z
Si Si1 0.453925 0.675368 0.057062
Si Si2 0.136994 0.820979 0.758304
Si Si3 0.281314 0.683071 0.558494
Si Si4 0.211129 0.816365 0.175094
Si Si5 0.975862 0.823188 0.824517
Si Si6 0.278036 0.822457 0.057958
Si Si7 0.030718 0.681364 0.437440
Si Si8 0.872167 0.179492 0.372540
O O1 0.418399 0.500000 0.053550
O O2 0.518971 0.693984 0.108449
O O3 0.378467 0.795649 0.067260
O O4 0.500000 0.722806 0.000000
O O5 0.223354 0.738703 0.778007
O O6 0.055687 0.744744 0.791587
O O7 0.123709 0.791725 0.693252
O O8 0.146638 0.000000 0.773181
O O9 0.285809 0.500000 0.554436
O O10 0.250000 0.750000 0.500000
O O11 0.375379 0.746966 0.574397
O O12 0.211416 0.731098 0.604846
O O13 0.231793 0.750381 0.112869
O O14 0.116534 0.753020 0.193001
O O15 0.212738 0.000000 0.172614
O O16 0.977726 0.000000 0.806007
O O17 0.255435 0.000000 0.053778
O O18 0.250000 0.750000 0.000000
O O19 0.035722 0.500000 0.426417
O O20 0.000000 0.719266 0.500000
O O21 0.961284 0.755960 0.396455
O O22 0.863562 0.000000 0.388139
#
# Coordination Sequence:
#
# PCOD8091927 Si02
#       8
#     8   8   8   8   8   8   8   8
#     4  10  19  34  58  84 114 153 197 245 306 369
#     4  10  22  41  63  88 120 161 206 251 299 358
#     4  12  24  40  65  95 129 169 211 259 316 368
#     4  10  21  38  61  87 117 157 204 252 302 365
#     4   9  18  36  60  83 115 156 198 242 298 361
#     4  11  22  35  54  84 120 155 199 250 307 368
#     4  11  23  40  65  96 130 167 208 256 316 373
#     4  11  24  41  63  94 130 168 215 258 304 375
#
# _framework density 19.916858000000001
#
# number of rings (size 3 to 8) (size 9 to 14) (size 15 to 20)
#    0.000    1.500    2.500    3.000    0.000    5.250 
#    0.000    2.500    0.000    0.000    0.000    0.000 
#    0.000    0.000    0.000    0.000    0.000    0.000 
#
# Total GULP energy -396796.410576 kJ/mol
# GULP energy per Si atom -12399.887830 kJ/mol
# Density = 1.987153 g / cm^3
# Si number density = 19.916858 Si / 1000 Ang^3
#
#
#
# Elastic Constant Matrix: (Units=GPa)
#
#
# Indices 1 2 3 4 5 6 
#
# 1 174.8626 33.5911 54.8993 0.0000 7.5170 0.0000
# 2 33.5911 63.2038 32.3030 0.0000 6.2903 0.0000
# 3 54.8993 32.3030 91.8667 0.0000 0.9183 0.0000
# 4 0.0000 0.0000 0.0000 23.5408 0.0000 3.8460
# 5 7.5170 6.2903 0.9183 0.0000 32.8433 0.0000
# 6 0.0000 0.0000 0.0000 3.8460 0.0000 34.8493
#
#
#
# Elastic Compliance Matrix: (Units=1/GPa)
#
#
# Indices 1 2 3 4 5 6 
#
# 1 0.007287 -0.001869 -0.003685 0.000000 -0.001207 0.000000
# 2 -0.001869 0.020180 -0.005946 0.000000 -0.003271 0.000000
# 3 -0.003685 -0.005946 0.015163 0.000000 0.001558 0.000000
# 4 0.000000 0.000000 0.000000 0.043259 0.000000 -0.004774
# 5 -0.001207 -0.003271 0.001558 0.000000 0.031307 0.000000
# 6 0.000000 0.000000 0.000000 -0.004774 0.000000 0.029222
#
#
# Mechanical properties :
#
#
# Convention : Reuss Voigt Hill
#
# Bulk Modulus (GPa) = 50.94647 63.50221 57.22434
# Shear Modulus (GPa) = 28.41538 32.18931 30.30235
#
# Velocity S-wave (km/s) = 3.78127 4.02454 3.90480
# Velocity P-wave (km/s) = 6.68574 7.31770 7.00885
#
# Compressibility (1/GPa) = 0.01962845
#
# Stress axis : x y z
#
# Youngs Moduli (GPa) = 137.23619 49.55457 65.95052
#
# Poissons Ratio (x) = 0.09262 0.24304
# Poissons Ratio (y) = 0.25651 0.39215
# Poissons Ratio (z) = 0.50575 0.29466
#
# Static dielectric constant tensor:
#      x y z
#    x 4.011980 0.000000 -0.118080 
#    y 0.000000 3.818210 0.000000 
#    z -0.118080 0.000000 3.672390 
# 
# 
# High freq. dielectric constant tensor:
#      x y z
#    x 1.794630 0.000000 -0.000740 
#    y 0.000000 1.761410 0.000000 
#    z -0.000740 0.000000 1.779540 
# 
# From -- ./inp_files/338740.got.cif
#   From: 2010.06.25/outbox.cif.g09.slc.cpg/sg12_170_cif.got.tgz:338740.got - 2010.06.28 00:19:55.
