data_PCOD8091133
_publ_section_title
;
Structure prediction by ZEFSAII (Michael W. Deem and Ramdas Pophale) SiO2 
 PCOD8091133
Probable space group: C 2/M
;
_chemical_formula_sum "Si O2"
_cell_formula_units_Z 64
_cell_length_a 32.312726
_cell_length_b 9.162448
_cell_length_c 25.221347
_cell_angle_alpha 90.000000
_cell_angle_beta 153.223006
_cell_angle_gamma 90.000000
_cell_volume 3364.082283
_symmetry_space_group_name_H-M "C 2/M"
_symmetry_group_IT_number 12
_symmetry_cell_setting 'monoclinic'
loop_
_space_group_symop_operation_xyz
x,y,z
-x,y,-z
-x,-y,-z
x,-y,z
1/2+x,1/2+y,z
1/2-x,1/2+y,-z
1/2-x,1/2-y,-z
1/2+x,1/2-y,z
loop_
_atom_site_type_symbol
_atom_site_label
_atom_site_fract_x
_atom_site_fract_y
_atom_site_fract_z
Si Si1 0.572805 0.839190 0.123554
Si Si2 0.823993 0.327548 0.936904
Si Si3 0.848930 0.170458 0.697680
Si Si4 0.748700 0.339251 0.740042
Si Si5 0.172233 0.671090 0.559543
Si Si6 0.010559 0.329267 0.203449
Si Si7 0.701324 0.673255 0.895432
Si Si8 0.978575 0.670077 0.287980
O O1 0.576909 0.718665 0.173643
O O2 0.667522 0.860214 0.202981
O O3 0.541537 0.000000 0.109900
O O4 0.500000 0.774134 0.000000
O O5 0.827835 0.500000 0.935705
O O6 0.783990 0.264229 0.835372
O O7 0.754616 0.279484 0.903519
O O8 0.927771 0.274438 0.069823
O O9 0.748843 0.224330 0.603776
O O10 0.890280 0.251023 0.693115
O O11 0.850366 0.000000 0.688448
O O12 0.704954 0.500000 0.701347
O O13 0.678153 0.240412 0.625417
O O14 0.185886 0.500000 0.583085
O O15 0.074724 0.713849 0.424161
O O16 0.029043 0.500000 0.218822
O O17 0.979481 0.291110 0.227145
O O18 0.702896 0.500000 0.905694
O O19 0.597889 0.731444 0.771185
O O20 0.750000 0.750000 0.000000
O O21 0.956063 0.500000 0.271099
#
# Coordination Sequence:
#
# PCOD8091133 Si02
#       8
#     8   8   8   8   8   8   8   8
#     4   9  16  28  48  71  97 136 184 224 261 314
#     4   9  18  34  56  82 110 139 174 219 271 324
#     4  10  20  32  47  74 110 143 177 222 271 319
#     4   9  17  31  53  77 102 137 182 223 259 313
#     4   9  20  38  55  74 109 149 183 221 271 322
#     4  10  19  34  55  78 106 142 183 224 270 323
#     4  11  21  37  60  86 114 141 174 220 274 329
#     4  10  21  39  60  79 104 145 186 224 272 324
#
# _framework density 19.024505000000001
#
# number of rings (size 3 to 8) (size 9 to 14) (size 15 to 20)
#    0.000    2.375    1.250    1.500    0.000    4.250 
#    0.000    5.000    0.000    3.750    0.000    0.000 
#    0.000    0.000    0.000    0.000    0.000    0.000 
#
# Total GULP energy -396534.789334 kJ/mol
# GULP energy per Si atom -12391.712167 kJ/mol
# Density = 1.898120 g / cm^3
# Si number density = 19.024505 Si / 1000 Ang^3
#
#
#
# Elastic Constant Matrix: (Units=GPa)
#
#
# Indices 1 2 3 4 5 6 
#
# 1 86.6603 31.2378 34.1592 0.0000 2.8753 0.0000
# 2 31.2378 49.2127 32.6713 0.0000 4.5270 0.0000
# 3 34.1592 32.6713 108.8172 0.0000 2.6834 0.0000
# 4 0.0000 0.0000 0.0000 28.2585 0.0000 -0.2619
# 5 2.8753 4.5270 2.6834 0.0000 28.2929 0.0000
# 6 0.0000 0.0000 0.0000 -0.2619 0.0000 30.3774
#
#
#
# Elastic Compliance Matrix: (Units=1/GPa)
#
#
# Indices 1 2 3 4 5 6 
#
# 1 0.015441 -0.008219 -0.002379 0.000000 -0.000028 0.000000
# 2 -0.008219 0.030074 -0.006366 0.000000 -0.003373 0.000000
# 3 -0.002379 -0.006366 0.011844 0.000000 0.000137 0.000000
# 4 0.000000 0.000000 0.000000 0.035390 0.000000 0.000305
# 5 -0.000028 -0.003373 0.000137 0.000000 0.035874 0.000000
# 6 0.000000 0.000000 0.000000 0.000305 0.000000 0.032922
#
#
# Mechanical properties :
#
#
# Convention : Reuss Voigt Hill
#
# Bulk Modulus (GPa) = 42.67860 48.98077 45.82969
# Shear Modulus (GPa) = 24.59629 27.16056 25.87843
#
# Velocity S-wave (km/s) = 3.59956 3.78254 3.69218
# Velocity P-wave (km/s) = 6.30539 6.69917 6.50526
#
# Compressibility (1/GPa) = 0.02343094
#
# Stress axis : x y z
#
# Youngs Moduli (GPa) = 64.76459 33.25175 84.42846
#
# Poissons Ratio (x) = 0.27330 0.20082
# Poissons Ratio (y) = 0.53231 0.53747
# Poissons Ratio (z) = 0.15405 0.21168
#
# Static dielectric constant tensor:
#      x y z
#    x 3.600870 0.000000 0.105820 
#    y 0.000000 3.438530 0.000000 
#    z 0.105820 0.000000 3.294600 
# 
# 
# High freq. dielectric constant tensor:
#      x y z
#    x 1.739320 0.000000 -0.001840 
#    y 0.000000 1.715520 0.000000 
#    z -0.001840 0.000000 1.735630 
# 
# From -- ./inp_files/353493.got.cif
#   From: 2010.06.25/outbox.cif.g09.slc.cpg/sg12_177_cif.got.tgz:353493.got - 2010.06.28 00:19:55.
