data_PCOD8091301
_publ_section_title
;
Structure prediction by ZEFSAII (Michael W. Deem and Ramdas Pophale) SiO2 
 PCOD8091301
Probable space group: C 2/M
;
_chemical_formula_sum "Si O2"
_cell_formula_units_Z 64
_cell_length_a 18.080032
_cell_length_b 21.387499
_cell_length_c 18.057740
_cell_angle_alpha 90.000000
_cell_angle_beta 31.278140
_cell_angle_gamma 90.000000
_cell_volume 3625.362870
_symmetry_space_group_name_H-M "C 2/M"
_symmetry_group_IT_number 12
_symmetry_cell_setting 'monoclinic'
loop_
_space_group_symop_operation_xyz
x,y,z
-x,y,-z
-x,-y,-z
x,-y,z
1/2+x,1/2+y,z
1/2-x,1/2+y,-z
1/2-x,1/2-y,-z
1/2+x,1/2-y,z
loop_
_atom_site_type_symbol
_atom_site_label
_atom_site_fract_x
_atom_site_fract_y
_atom_site_fract_z
Si Si1 0.338134 0.619453 0.152667
Si Si2 0.386743 0.176041 0.861950
Si Si3 0.844302 0.197431 0.825458
Si Si4 0.419868 0.928696 0.719111
Si Si5 0.726288 0.073050 0.400628
Si Si6 0.334474 0.221311 0.318859
Si Si7 0.161907 0.264056 0.851444
Si Si8 0.146966 0.840887 0.595192
O O1 0.226647 0.579985 0.199902
O O2 0.297122 0.611473 0.273308
O O3 0.326303 0.691201 0.137056
O O4 0.500000 0.595465 0.000000
O O5 0.381727 0.229585 0.803722
O O6 0.422051 0.111349 0.792002
O O7 0.505457 0.195013 0.820192
O O8 0.240427 0.170821 0.031584
O O9 0.759748 0.192936 0.820617
O O10 0.985759 0.155573 0.703592
O O11 0.557061 0.911687 0.550811
O O12 0.431789 0.000000 0.734808
O O13 0.804846 0.093930 0.409227
O O14 0.753334 0.000000 0.364751
O O15 0.281223 0.226813 0.280469
O O16 0.239659 0.171428 0.443270
O O17 0.327511 0.288240 0.364427
O O18 0.000000 0.286606 0.000000
#
# Coordination Sequence:
#
# PCOD8091301 Si02
#       8
#     8   8   8   8   8   8   8   8
#     4  11  24  36  54  82 118 149 189 225 263 325
#     4  10  19  35  54  80 108 143 183 231 269 326
#     4  10  21  32  55  81 112 140 179 228 284 323
#     4  11  23  39  57  78 110 156 195 223 266 323
#     4  11  23  40  57  76 111 155 191 224 272 329
#     4  10  19  34  56  75 113 141 180 229 276 327
#     4  11  20  34  55  85 112 154 178 217 284 344
#     4  10  21  35  52  85 106 140 185 234 273 318
#
# _framework density 17.653404999999999
#
# number of rings (size 3 to 8) (size 9 to 14) (size 15 to 20)
#    0.000    1.500    5.000    0.750    1.750    2.500 
#    2.250    0.000    0.000    0.000    0.000    5.250 
#    0.000    0.000    0.000    0.000    0.000    0.000 
#
# Total GULP energy -396847.347577 kJ/mol
# GULP energy per Si atom -12401.479612 kJ/mol
# Density = 1.761322 g / cm^3
# Si number density = 17.653405 Si / 1000 Ang^3
#
#
#
# Elastic Constant Matrix: (Units=GPa)
#
#
# Indices 1 2 3 4 5 6 
#
# 1 89.6299 15.4029 28.6932 -0.0132 -7.9880 0.0038
# 2 15.4029 37.5595 19.3100 -0.0119 0.8974 0.0037
# 3 28.6932 19.3100 85.0353 0.0018 -11.1013 0.0042
# 4 -0.0132 -0.0119 0.0018 18.1600 0.0000 1.7399
# 5 -7.9880 0.8974 -11.1013 0.0000 30.6078 -0.0044
# 6 0.0038 0.0037 0.0042 1.7399 -0.0044 21.3757
#
#
#
# Elastic Compliance Matrix: (Units=1/GPa)
#
#
# Indices 1 2 3 4 5 6 
#
# 1 0.013047 -0.003736 -0.003249 0.000007 0.002336 -0.000001
# 2 -0.003736 0.031582 -0.006465 0.000019 -0.004246 -0.000006
# 3 -0.003249 -0.006465 0.014946 -0.000008 0.004762 0.000000
# 4 0.000007 0.000019 -0.000008 0.055499 -0.000002 -0.004517
# 5 0.002336 -0.004246 0.004762 -0.000002 0.035133 0.000007
# 6 -0.000001 -0.000006 0.000000 -0.004517 0.000007 0.047150
#
#
# Mechanical properties :
#
#
# Convention : Reuss Voigt Hill
#
# Bulk Modulus (GPa) = 30.60509 37.67076 34.13793
# Shear Modulus (GPa) = 21.26308 23.94995 22.60651
#
# Velocity S-wave (km/s) = 3.47432 3.68730 3.58239
# Velocity P-wave (km/s) = 5.78522 6.28599 6.04080
#
# Compressibility (1/GPa) = 0.03267430
#
# Stress axis : x y z
#
# Youngs Moduli (GPa) = 76.64369 31.66368 66.90716
#
# Poissons Ratio (x) = 0.11830 0.21739
# Poissons Ratio (y) = 0.28634 0.43258
# Poissons Ratio (z) = 0.24903 0.20472
#
# Static dielectric constant tensor:
#      x y z
#    x 3.205520 -0.000020 -0.133220 
#    y -0.000020 2.955330 0.000050 
#    z -0.133220 0.000050 3.412950 
# 
# 
# High freq. dielectric constant tensor:
#      x y z
#    x 1.678160 0.000000 -0.006970 
#    y 0.000000 1.644030 0.000000 
#    z -0.006970 0.000000 1.697960 
# 
# From -- ./inp_files/77532.got.cif
#   From: 2010.06.25/outbox.cif.g09.slc.cpg/sg12_39_cif.got.tgz:77532.got - 2010.06.28 00:19:55.
