data_PCOD8091375
_publ_section_title
;
Structure prediction by ZEFSAII (Michael W. Deem and Ramdas Pophale) SiO2 
 PCOD8091375
Probable space group: C 2/M
;
_chemical_formula_sum "Si O2"
_cell_formula_units_Z 56
_cell_length_a 20.611005
_cell_length_b 8.914851
_cell_length_c 17.834903
_cell_angle_alpha 90.000000
_cell_angle_beta 63.947154
_cell_angle_gamma 90.000000
_cell_volume 2944.073163
_symmetry_space_group_name_H-M "C 2/M"
_symmetry_group_IT_number 12
_symmetry_cell_setting 'monoclinic'
loop_
_space_group_symop_operation_xyz
x,y,z
-x,y,-z
-x,-y,-z
x,-y,z
1/2+x,1/2+y,z
1/2-x,1/2+y,-z
1/2-x,1/2-y,-z
1/2+x,1/2-y,z
loop_
_atom_site_type_symbol
_atom_site_label
_atom_site_fract_x
_atom_site_fract_y
_atom_site_fract_z
Si Si1 0.649148 0.678110 0.757001
Si Si2 0.105296 0.674231 0.214330
Si Si3 0.425629 0.178492 0.504254
Si Si4 0.438120 0.173708 0.329521
Si Si5 0.579745 0.321621 0.944884
Si Si6 0.811633 0.321653 0.680636
Si Si7 0.172146 0.177346 0.038716
O O1 0.650559 0.500000 0.758200
O O2 0.607344 0.729612 0.705074
O O3 0.609136 0.741758 0.851094
O O4 0.730692 0.742102 0.714444
O O5 0.120696 0.500000 0.189312
O O6 0.154018 0.732099 0.258498
O O7 0.124451 0.772183 0.132862
O O8 0.022588 0.702913 0.276435
O O9 0.500000 0.244791 0.500000
O O10 0.415603 0.229926 0.423622
O O11 0.358893 0.240988 0.587223
O O12 0.429314 0.000000 0.506413
O O13 0.419243 0.000000 0.327175
O O14 0.576634 0.500000 0.944364
O O15 0.500000 0.255203 0.000000
O O16 0.632440 0.266574 0.983831
O O17 0.812229 0.500000 0.678355
O O18 0.180537 0.000000 0.035478
O O19 0.250000 0.250000 0.000000
#
# Coordination Sequence:
#
# PCOD8091375 Si02
#       7
#     8   8   8   8   8   8   8
#     4  10  20  34  52  75 104 139 176 215 264 320
#     4  10  19  34  56  80 104 134 178 226 266 307
#     4   9  15  29  53  80 104 134 179 222 260 309
#     4  10  20  33  54  82 108 134 173 224 268 311
#     4   9  18  34  54  73  98 139 184 215 247 310
#     4   9  17  31  53  77 104 141 183 221 257 312
#     4  11  22  36  56  81 108 138 176 222 268 315
#
# _framework density 19.021267000000002
#
# number of rings (size 3 to 8) (size 9 to 14) (size 15 to 20)
#    0.000    2.286    1.429    2.143    0.000    4.571 
#    0.000    3.571    0.000    5.143    0.000    0.000 
#    0.000    0.000    0.000    0.000    0.000    0.000 
#
# Total GULP energy -347225.757456 kJ/mol
# GULP energy per Si atom -12400.919909 kJ/mol
# Density = 1.897797 g / cm^3
# Si number density = 19.021267 Si / 1000 Ang^3
#
#
#
# Elastic Constant Matrix: (Units=GPa)
#
#
# Indices 1 2 3 4 5 6 
#
# 1 153.9039 25.5670 75.7833 0.0000 4.3372 0.0000
# 2 25.5670 24.8922 23.2762 0.0000 1.4859 -0.0001
# 3 75.7833 23.2762 168.3242 0.0000 5.4573 0.0000
# 4 0.0000 0.0000 0.0000 16.3324 0.0000 6.5052
# 5 4.3372 1.4859 5.4573 0.0000 38.6483 0.0000
# 6 0.0000 -0.0001 0.0000 6.5052 0.0000 25.6350
#
#
#
# Elastic Compliance Matrix: (Units=1/GPa)
#
#
# Indices 1 2 3 4 5 6 
#
# 1 0.009155 -0.006362 -0.003231 0.000000 -0.000326 0.000000
# 2 -0.006362 0.050590 -0.004110 0.000000 -0.000651 0.000000
# 3 -0.003231 -0.004110 0.007984 0.000000 -0.000607 0.000000
# 4 0.000000 0.000000 0.000000 0.068112 0.000000 -0.017284
# 5 -0.000326 -0.000651 -0.000607 0.000000 0.026022 0.000000
# 6 0.000000 0.000000 0.000000 -0.017284 0.000000 0.043395
#
#
# Mechanical properties :
#
#
# Convention : Reuss Voigt Hill
#
# Bulk Modulus (GPa) = 24.80078 66.26370 45.53224
# Shear Modulus (GPa) = 20.31652 30.95606 25.63629
#
# Velocity S-wave (km/s) = 3.27172 4.03854 3.67518
# Velocity P-wave (km/s) = 5.22866 7.52719 6.48065
#
# Compressibility (1/GPa) = 0.04032131
#
# Stress axis : x y z
#
# Youngs Moduli (GPa) = 109.23275 19.76681 125.25369
#
# Poissons Ratio (x) = 0.12575 0.40474
# Poissons Ratio (y) = 0.69493 0.51483
# Poissons Ratio (z) = 0.35297 0.08125
#
# Static dielectric constant tensor:
#      x y z
#    x 3.679820 0.000000 -0.155060 
#    y 0.000000 3.009090 0.000000 
#    z -0.155060 0.000000 4.105650 
# 
# 
# High freq. dielectric constant tensor:
#      x y z
#    x 1.752560 0.000000 -0.000690 
#    y 0.000000 1.686100 0.000000 
#    z -0.000690 0.000000 1.759660 
# 
# From -- ./inp_files/275287.got.cif
#   From: 2010.06.25/outbox.cif.g09.slc.cpg/sg12_138_cif.got.tgz:275287.got - 2010.06.28 00:19:55.
