data_PCOD8091878
_publ_section_title
;
Structure prediction by ZEFSAII (Michael W. Deem and Ramdas Pophale) SiO2 
 PCOD8091878
Probable space group: C 2/M
;
_chemical_formula_sum "Si O2"
_cell_formula_units_Z 64
_cell_length_a 16.695174
_cell_length_b 15.990257
_cell_length_c 12.757890
_cell_angle_alpha 90.000000
_cell_angle_beta 78.949692
_cell_angle_gamma 90.000000
_cell_volume 3342.700967
_symmetry_space_group_name_H-M "C 2/M"
_symmetry_group_IT_number 12
_symmetry_cell_setting 'monoclinic'
loop_
_space_group_symop_operation_xyz
x,y,z
-x,y,-z
-x,-y,-z
x,-y,z
1/2+x,1/2+y,z
1/2-x,1/2+y,-z
1/2-x,1/2-y,-z
1/2+x,1/2-y,z
loop_
_atom_site_type_symbol
_atom_site_label
_atom_site_fract_x
_atom_site_fract_y
_atom_site_fract_z
Si Si1 0.793203 0.401071 0.708965
Si Si2 0.227279 0.902177 0.332669
Si Si3 0.394351 0.200342 0.298150
Si Si4 0.183803 0.096533 0.917705
Si Si5 0.373358 0.598917 0.847557
Si Si6 0.026701 0.401014 0.378605
Si Si7 0.307284 0.676401 0.450788
Si Si8 0.031556 0.816084 0.881339
O O1 0.798810 0.500000 0.713170
O O2 0.754878 0.362542 0.826530
O O3 0.883685 0.363795 0.669266
O O4 0.736184 0.379255 0.625837
O O5 0.309375 0.848179 0.306700
O O6 0.172595 0.876971 0.247166
O O7 0.175486 0.880996 0.451263
O O8 0.249816 0.000000 0.325803
O O9 0.462561 0.134944 0.313611
O O10 0.387272 0.278743 0.381605
O O11 0.422940 0.237351 0.180773
O O12 0.096159 0.109977 0.885633
O O13 0.203391 0.000000 0.914438
O O14 0.181754 0.129126 0.038681
O O15 0.390484 0.500000 0.850957
O O16 0.459459 0.647258 0.826928
O O17 0.025640 0.500000 0.368536
O O18 0.000000 0.371653 0.500000
O O19 0.250000 0.750000 0.500000
O O20 0.000000 0.781778 0.000000
#
# Coordination Sequence:
#
# PCOD8091878 Si02
#       8
#     8   8   8   8   8   8   8   8
#     4  10  19  34  58  83 107 140 190 240 272 316
#     4  10  21  39  59  81 114 151 188 224 275 340
#     4  11  22  36  55  82 117 150 183 224 282 336
#     4   9  17  34  60  84 108 142 189 237 278 321
#     4   9  19  36  59  83 109 148 189 228 275 332
#     4  10  21  37  57  81 107 145 192 232 274 326
#     4  10  20  34  56  81 111 145 181 224 278 332
#     4  10  20  37  56  84 115 147 184 231 283 331
#
# _framework density 19.146193
#
# number of rings (size 3 to 8) (size 9 to 14) (size 15 to 20)
#    0.000    2.125    1.250    2.625    0.000    5.500 
#    2.250    1.250    0.000    2.250    0.000    0.000 
#    0.000    0.000    0.000    0.000    0.000    0.000 
#
# Total GULP energy -396631.753718 kJ/mol
# GULP energy per Si atom -12394.742304 kJ/mol
# Density = 1.910262 g / cm^3
# Si number density = 19.146193 Si / 1000 Ang^3
#
#
#
# Elastic Constant Matrix: (Units=GPa)
#
#
# Indices 1 2 3 4 5 6 
#
# 1 98.6488 25.6604 68.8577 0.0000 -6.6521 0.0000
# 2 25.6604 40.1971 32.4140 0.0000 -0.1010 0.0000
# 3 68.8577 32.4140 131.3704 0.0000 -3.0708 0.0000
# 4 0.0000 0.0000 0.0000 21.4184 0.0000 -3.9845
# 5 -6.6521 -0.1010 -3.0708 0.0000 38.0623 0.0000
# 6 0.0000 0.0000 0.0000 -3.9845 0.0000 17.2021
#
#
#
# Elastic Compliance Matrix: (Units=1/GPa)
#
#
# Indices 1 2 3 4 5 6 
#
# 1 0.016805 -0.004572 -0.007626 0.000000 0.002310 0.000000
# 2 -0.004572 0.032312 -0.005603 0.000000 -0.001165 0.000000
# 3 -0.007626 -0.005603 0.012985 0.000000 -0.000300 0.000000
# 4 0.000000 0.000000 0.000000 0.048791 0.000000 0.011302
# 5 0.002310 -0.001165 -0.000300 0.000000 0.026649 0.000000
# 6 0.000000 0.000000 0.000000 0.011302 0.000000 0.060750
#
#
# Mechanical properties :
#
#
# Convention : Reuss Voigt Hill
#
# Bulk Modulus (GPa) = 37.73856 58.23116 47.98486
# Shear Modulus (GPa) = 20.59911 24.88884 22.74398
#
# Velocity S-wave (km/s) = 3.28363 3.60937 3.45035
# Velocity P-wave (km/s) = 5.84207 6.91738 6.40234
#
# Compressibility (1/GPa) = 0.02649810
#
# Stress axis : x y z
#
# Youngs Moduli (GPa) = 59.50494 30.94867 77.01279
#
# Poissons Ratio (x) = 0.14151 0.58732
# Poissons Ratio (y) = 0.27208 0.43151
# Poissons Ratio (z) = 0.45380 0.17341
#
# Static dielectric constant tensor:
#      x y z
#    x 3.538460 0.000000 -0.344960 
#    y 0.000000 3.450320 0.000000 
#    z -0.344960 0.000000 4.067610 
# 
# 
# High freq. dielectric constant tensor:
#      x y z
#    x 1.734320 0.000000 -0.012710 
#    y 0.000000 1.733350 0.000000 
#    z -0.012710 0.000000 1.756430 
# 
# From -- ./inp_files/146166.got.cif
#   From: 2010.06.25/outbox.cif.g09.slc.cpg/sg12_74_cif.got.tgz:146166.got - 2010.06.28 00:19:55.
