data_PCOD8091751
_publ_section_title
;
Structure prediction by ZEFSAII (Michael W. Deem and Ramdas Pophale) SiO2 
 PCOD8091751
Probable space group: C 2/M
;
_chemical_formula_sum "Si O2"
_cell_formula_units_Z 64
_cell_length_a 26.742143
_cell_length_b 12.336902
_cell_length_c 15.776370
_cell_angle_alpha 90.000000
_cell_angle_beta 40.812763
_cell_angle_gamma 90.000000
_cell_volume 3401.843113
_symmetry_space_group_name_H-M "C 2/M"
_symmetry_group_IT_number 12
_symmetry_cell_setting 'monoclinic'
loop_
_space_group_symop_operation_xyz
x,y,z
-x,y,-z
-x,-y,-z
x,-y,z
1/2+x,1/2+y,z
1/2-x,1/2+y,-z
1/2-x,1/2-y,-z
1/2+x,1/2-y,z
loop_
_atom_site_type_symbol
_atom_site_label
_atom_site_fract_x
_atom_site_fract_y
_atom_site_fract_z
Si Si1 0.088532 0.372879 0.869056
Si Si2 0.980511 0.128460 0.327593
Si Si3 0.635428 0.305166 0.197056
Si Si4 0.246406 0.623757 0.084182
Si Si5 0.745674 0.876937 0.410360
Si Si6 0.869623 0.759489 0.350490
Si Si7 0.359979 0.622995 0.624010
Si Si8 0.709939 0.260631 0.806391
O O1 0.108895 0.500000 0.842010
O O2 0.109738 0.321892 0.751645
O O3 0.135954 0.313955 0.883281
O O4 0.000000 0.352582 0.000000
O O5 0.943497 0.176800 0.289750
O O6 0.929083 0.158028 0.474605
O O7 0.060895 0.190675 0.233996
O O8 0.994067 0.000000 0.300117
O O9 0.664155 0.181689 0.175528
O O10 0.613472 0.361889 0.313386
O O11 0.704621 0.371529 0.064698
O O12 0.230166 0.500000 0.130838
O O13 0.294874 0.686062 0.094636
O O14 0.808617 0.849729 0.400585
O O15 0.668515 0.808306 0.524287
O O16 0.783182 0.856301 0.270731
O O17 0.721264 0.000000 0.449587
O O18 0.338331 0.500000 0.633411
O O19 0.285117 0.689618 0.699025
#
# Coordination Sequence:
#
# PCOD8091751 Si02
#       8
#     8   8   8   8   8   8   8   8
#     4  10  22  39  57  82 118 152 186 231 278 328
#     4  11  21  35  58  86 116 146 184 237 288 329
#     4  10  22  37  58  83 114 146 188 235 279 339
#     4  10  21  39  60  82 111 152 191 232 278 331
#     4  10  19  35  55  79 110 146 184 228 277 331
#     4  10  21  35  56  83 111 147 187 231 275 334
#     4  10  19  34  57  84 111 143 186 236 285 329
#     4  10  20  35  58  83 110 150 188 232 270 338
#
# _framework density 18.813331000000002
#
# number of rings (size 3 to 8) (size 9 to 14) (size 15 to 20)
#    0.000    1.875    1.250    3.000    1.750    1.000 
#    0.000    1.875    0.000    3.750    0.000    0.000 
#    0.000    0.000    0.000    0.000    0.000    0.000 
#
# Total GULP energy -396855.433122 kJ/mol
# GULP energy per Si atom -12401.732285 kJ/mol
# Density = 1.877051 g / cm^3
# Si number density = 18.813331 Si / 1000 Ang^3
#
#
#
# Elastic Constant Matrix: (Units=GPa)
#
#
# Indices 1 2 3 4 5 6 
#
# 1 113.8595 53.6216 20.4092 0.0000 -14.1482 0.0000
# 2 53.6216 107.9101 30.1618 -0.0001 -5.9911 0.0000
# 3 20.4092 30.1618 53.4263 0.0000 -3.6399 0.0000
# 4 0.0000 -0.0001 0.0000 22.4129 0.0000 -2.5983
# 5 -14.1482 -5.9911 -3.6399 0.0000 31.0031 0.0000
# 6 0.0000 0.0000 0.0000 -2.5983 0.0000 20.9630
#
#
#
# Elastic Compliance Matrix: (Units=1/GPa)
#
#
# Indices 1 2 3 4 5 6 
#
# 1 0.012099 -0.005417 -0.001269 0.000000 0.004325 0.000000
# 2 -0.005417 0.013490 -0.005582 0.000000 -0.000521 0.000000
# 3 -0.001269 -0.005582 0.022420 0.000000 0.000974 0.000000
# 4 0.000000 0.000000 0.000000 0.045268 0.000000 0.005611
# 5 0.004325 -0.000521 0.000974 0.000000 0.034243 0.000000
# 6 0.000000 0.000000 0.000000 0.005611 0.000000 0.048399
#
#
# Mechanical properties :
#
#
# Convention : Reuss Voigt Hill
#
# Bulk Modulus (GPa) = 42.60261 53.73125 48.16693
# Shear Modulus (GPa) = 24.00639 26.27602 25.14121
#
# Velocity S-wave (km/s) = 3.57603 3.74126 3.65958
# Velocity P-wave (km/s) = 6.30434 6.87640 6.59658
#
# Compressibility (1/GPa) = 0.02347274
#
# Stress axis : x y z
#
# Youngs Moduli (GPa) = 82.65206 74.12819 44.60360
#
# Poissons Ratio (x) = 0.40157 0.05660
# Poissons Ratio (y) = 0.44775 0.24897
# Poissons Ratio (z) = 0.10487 0.41378
#
# Static dielectric constant tensor:
#      x y z
#    x 3.489120 0.000000 0.057030 
#    y 0.000000 3.376540 0.000000 
#    z 0.057030 0.000000 3.390790 
# 
# 
# High freq. dielectric constant tensor:
#      x y z
#    x 1.733050 0.000000 0.005960 
#    y 0.000000 1.728300 0.000000 
#    z 0.005960 0.000000 1.729840 
# 
# From -- ./inp_files/245942.got.cif
#   From: 2010.06.25/outbox.cif.g09.slc.cpg/sg12_123_cif.got.tgz:245942.got - 2010.06.28 00:19:55.
