data_PCOD8091955
_publ_section_title
;
Structure prediction by ZEFSAII (Michael W. Deem and Ramdas Pophale) SiO2 
 PCOD8091955
Probable space group: C 2/M
;
_chemical_formula_sum "Si O2"
_cell_formula_units_Z 56
_cell_length_a 30.104789
_cell_length_b 8.474296
_cell_length_c 12.399263
_cell_angle_alpha 90.000000
_cell_angle_beta 74.487608
_cell_angle_gamma 90.000000
_cell_volume 3048.032163
_symmetry_space_group_name_H-M "C 2/M"
_symmetry_group_IT_number 12
_symmetry_cell_setting 'monoclinic'
loop_
_space_group_symop_operation_xyz
x,y,z
-x,y,-z
-x,-y,-z
x,-y,z
1/2+x,1/2+y,z
1/2-x,1/2+y,-z
1/2-x,1/2-y,-z
1/2+x,1/2-y,z
loop_
_atom_site_type_symbol
_atom_site_label
_atom_site_fract_x
_atom_site_fract_y
_atom_site_fract_z
Si Si1 0.049240 0.186304 0.347474
Si Si2 0.794971 0.684297 0.028510
Si Si3 0.296381 0.317569 0.263421
Si Si4 0.142051 0.814388 0.187212
Si Si5 0.052550 0.813136 0.588746
Si Si6 0.355617 0.181657 0.407008
Si Si7 0.699283 0.682274 0.362221
O O1 0.089646 0.245205 0.241728
O O2 0.057624 0.250008 0.462864
O O3 0.998727 0.235248 0.336066
O O4 0.051979 0.000000 0.355951
O O5 0.788508 0.500000 0.054179
O O6 0.801651 0.772176 0.136109
O O7 0.750000 0.750000 0.000000
O O8 0.839535 0.716989 0.926324
O O9 0.307939 0.500000 0.271664
O O10 0.332982 0.216298 0.306678
O O11 0.245097 0.286124 0.340492
O O12 0.172164 0.771568 0.271984
O O13 0.144382 0.000000 0.160359
O O14 0.090320 0.724934 0.636765
O O15 0.060129 0.000000 0.592134
O O16 0.332485 0.287804 0.514170
O O17 0.349025 0.000000 0.441345
O O18 0.713789 0.500000 0.350669
#
# Coordination Sequence:
#
# PCOD8091955 Si02
#       7
#     8   8   8   8   8   8   8
#     4   8  15  30  56  84 111 144 185 228 273 327
#     4  12  24  39  58  82 112 148 188 232 279 327
#     4  12  25  41  59  79 108 148 194 235 279 332
#     4  10  19  34  58  85 114 148 186 230 277 326
#     4   9  16  32  56  82 111 147 187 227 273 327
#     4  12  24  37  54  81 118 153 187 228 280 336
#     4  11  21  36  58  83 115 150 187 227 274 332
#
# _framework density 18.372510999999999
#
# number of rings (size 3 to 8) (size 9 to 14) (size 15 to 20)
#    0.000    1.429    2.857    5.571    0.000    0.571 
#    0.000    2.143    0.000    0.857    0.000    6.000 
#    0.000    0.000    0.000    0.000    0.000    0.000 
#
# Total GULP energy -347265.377812 kJ/mol
# GULP energy per Si atom -12402.334922 kJ/mol
# Density = 1.833069 g / cm^3
# Si number density = 18.372511 Si / 1000 Ang^3
#
#
#
# Elastic Constant Matrix: (Units=GPa)
#
#
# Indices 1 2 3 4 5 6 
#
# 1 132.8383 22.6118 47.2409 0.0000 -11.9381 0.0000
# 2 22.6118 56.9470 13.1308 0.0000 -3.3988 0.0000
# 3 47.2409 13.1308 73.1496 0.0000 -5.3453 0.0000
# 4 0.0000 0.0000 0.0000 25.6796 0.0000 -0.7239
# 5 -11.9381 -3.3988 -5.3453 0.0000 31.5821 0.0000
# 6 0.0000 0.0000 0.0000 -0.7239 0.0000 26.1365
#
#
#
# Elastic Compliance Matrix: (Units=1/GPa)
#
#
# Indices 1 2 3 4 5 6 
#
# 1 0.010343 -0.002561 -0.006029 0.000000 0.002614 0.000000
# 2 -0.002561 0.019017 -0.001702 0.000000 0.000790 0.000000
# 3 -0.006029 -0.001702 0.017911 0.000000 0.000569 0.000000
# 4 0.000000 0.000000 0.000000 0.038972 0.000000 0.001079
# 5 0.002614 0.000790 0.000569 0.000000 0.032833 0.000000
# 6 0.000000 0.000000 0.000000 0.001079 0.000000 0.038291
#
#
# Mechanical properties :
#
#
# Convention : Reuss Voigt Hill
#
# Bulk Modulus (GPa) = 37.47091 47.65574 42.56333
# Shear Modulus (GPa) = 26.76018 28.67641 27.71829
#
# Velocity S-wave (km/s) = 3.82060 3.95502 3.88839
# Velocity P-wave (km/s) = 6.31680 6.84479 6.58609
#
# Compressibility (1/GPa) = 0.02668737
#
# Stress axis : x y z
#
# Youngs Moduli (GPa) = 96.68638 52.58572 55.83084
#
# Poissons Ratio (x) = 0.13465 0.33659
# Poissons Ratio (y) = 0.24758 0.09503
# Poissons Ratio (z) = 0.58290 0.08951
#
# Static dielectric constant tensor:
#      x y z
#    x 3.616250 0.000000 -0.195860 
#    y 0.000000 3.234870 0.000000 
#    z -0.195860 0.000000 3.380630 
# 
# 
# High freq. dielectric constant tensor:
#      x y z
#    x 1.715770 0.000000 -0.010620 
#    y 0.000000 1.704710 0.000000 
#    z -0.010620 0.000000 1.693980 
# 
# From -- ./inp_files/186421.got.cif
#   From: 2010.06.25/outbox.cif.g09.slc.cpg/sg12_94_cif.got.tgz:186421.got - 2010.06.28 00:19:55.
