data_PCOD8091068
_publ_section_title
;
Structure prediction by ZEFSAII (Michael W. Deem and Ramdas Pophale) SiO2 
 PCOD8091068
Probable space group: C 2/M
;
_chemical_formula_sum "Si O2"
_cell_formula_units_Z 64
_cell_length_a 16.786288
_cell_length_b 21.500654
_cell_length_c 11.427662
_cell_angle_alpha 90.000000
_cell_angle_beta 125.923247
_cell_angle_gamma 90.000000
_cell_volume 3339.976897
_symmetry_space_group_name_H-M "C 2/M"
_symmetry_group_IT_number 12
_symmetry_cell_setting 'monoclinic'
loop_
_space_group_symop_operation_xyz
x,y,z
-x,y,-z
-x,-y,-z
x,-y,z
1/2+x,1/2+y,z
1/2-x,1/2+y,-z
1/2-x,1/2-y,-z
1/2+x,1/2-y,z
loop_
_atom_site_type_symbol
_atom_site_label
_atom_site_fract_x
_atom_site_fract_y
_atom_site_fract_z
Si Si1 0.312964 0.070664 0.239836
Si Si2 0.293255 0.372641 0.649616
Si Si3 0.818206 0.640610 0.885399
Si Si4 0.538929 0.928604 0.822526
Si Si5 0.689290 0.927422 0.350486
Si Si6 0.170357 0.860495 0.958343
Si Si7 0.009331 0.929690 0.140997
Si Si8 0.116511 0.226555 0.113905
O O1 0.297067 0.112423 0.340707
O O2 0.418066 0.085310 0.270172
O O3 0.306374 0.000000 0.275649
O O4 0.228237 0.083403 0.071457
O O5 0.250494 0.378142 0.482167
O O6 0.377401 0.425165 0.725911
O O7 0.343766 0.307504 0.732991
O O8 0.787148 0.588977 0.763561
O O9 0.723329 0.656577 0.882942
O O10 0.852687 0.702086 0.847534
O O11 0.909865 0.615817 0.039282
O O12 0.424453 0.914496 0.720655
O O13 0.560927 0.000000 0.877090
O O14 0.716112 0.000000 0.397139
O O15 0.060424 0.886217 0.838708
O O16 0.168150 0.800967 0.041961
O O17 0.973220 0.000000 0.121661
O O18 0.000000 0.904961 0.000000
O O19 0.000000 0.219499 0.000000
#
# Coordination Sequence:
#
# PCOD8091068 Si02
#       8
#     8   8   8   8   8   8   8   8
#     4   9  16  29  53  83 110 140 180 237 293 332
#     4  11  21  35  54  83 120 147 188 235 280 341
#     4  11  23  37  59  82 112 151 193 229 280 341
#     4   9  19  36  57  82 110 141 187 240 285 333
#     4  11  23  38  55  81 116 155 188 226 283 347
#     4  10  19  34  54  87 112 141 185 243 283 330
#     4  11  18  31  58  87 114 147 188 241 294 332
#     4  11  20  38  62  85 109 144 192 241 286 328
#
# _framework density 19.161808000000001
#
# number of rings (size 3 to 8) (size 9 to 14) (size 15 to 20)
#    0.000    1.625    3.750    3.375    0.000    3.500 
#    0.000    2.500    0.000    1.500    6.500    0.000 
#    0.000    0.000    0.000    0.000    0.000    0.000 
#
# Total GULP energy -396735.408250 kJ/mol
# GULP energy per Si atom -12397.981508 kJ/mol
# Density = 1.911819 g / cm^3
# Si number density = 19.161808 Si / 1000 Ang^3
#
#
#
# Elastic Constant Matrix: (Units=GPa)
#
#
# Indices 1 2 3 4 5 6 
#
# 1 83.5898 23.4540 32.8443 0.0000 7.3243 0.0000
# 2 23.4540 82.2869 27.3090 0.0000 4.2691 0.0000
# 3 32.8443 27.3090 83.5815 0.0000 2.1446 0.0000
# 4 0.0000 0.0000 0.0000 21.3499 0.0000 0.5619
# 5 7.3243 4.2691 2.1446 0.0000 15.0067 0.0000
# 6 0.0000 0.0000 0.0000 0.5619 0.0000 26.0950
#
#
#
# Elastic Compliance Matrix: (Units=1/GPa)
#
#
# Indices 1 2 3 4 5 6 
#
# 1 0.015117 -0.002330 -0.005025 0.000000 -0.005997 0.000000
# 2 -0.002330 0.014150 -0.003647 0.000000 -0.002367 0.000000
# 3 -0.005025 -0.003647 0.015097 0.000000 0.001333 0.000000
# 4 0.000000 0.000000 0.000000 0.046865 0.000000 -0.001009
# 5 -0.005997 -0.002367 0.001333 0.000000 0.070047 0.000000
# 6 0.000000 0.000000 0.000000 -0.001009 0.000000 0.038343
#
#
# Mechanical properties :
#
#
# Convention : Reuss Voigt Hill
#
# Bulk Modulus (GPa) = 44.72449 46.29699 45.51074
# Shear Modulus (GPa) = 21.82685 23.54704 22.68695
#
# Velocity S-wave (km/s) = 3.37869 3.50930 3.44461
# Velocity P-wave (km/s) = 6.21384 6.37447 6.29467
#
# Compressibility (1/GPa) = 0.02235911
#
# Stress axis : x y z
#
# Youngs Moduli (GPa) = 66.15111 70.67228 66.24050
#
# Poissons Ratio (x) = 0.16465 0.33287
# Poissons Ratio (y) = 0.15412 0.24158
# Poissons Ratio (z) = 0.33243 0.25774
#
# Static dielectric constant tensor:
#      x y z
#    x 3.727070 0.000000 0.051390 
#    y 0.000000 3.408640 0.000000 
#    z 0.051390 0.000000 3.199870 
# 
# 
# High freq. dielectric constant tensor:
#      x y z
#    x 1.753490 0.000000 0.007850 
#    y 0.000000 1.739660 0.000000 
#    z 0.007850 0.000000 1.710820 
# 
# From -- ./inp_files/159583.got.cif
#   From: 2010.06.25/outbox.cif.g09.slc.cpg/sg12_80_cif.got.tgz:159583.got - 2010.06.28 00:19:55.
