data_PCOD8091063
_publ_section_title
;
Structure prediction by ZEFSAII (Michael W. Deem and Ramdas Pophale) SiO2 
 PCOD8091063
Probable space group: C 2/M
;
_chemical_formula_sum "Si O2"
_cell_formula_units_Z 40
_cell_length_a 8.138595
_cell_length_b 28.133780
_cell_length_c 10.848801
_cell_angle_alpha 90.000000
_cell_angle_beta 125.229995
_cell_angle_gamma 90.000000
_cell_volume 2029.073917
_symmetry_space_group_name_H-M "C 2/M"
_symmetry_group_IT_number 12
_symmetry_cell_setting 'monoclinic'
loop_
_space_group_symop_operation_xyz
x,y,z
-x,y,-z
-x,-y,-z
x,-y,z
1/2+x,1/2+y,z
1/2-x,1/2+y,-z
1/2-x,1/2-y,-z
1/2+x,1/2-y,z
loop_
_atom_site_type_symbol
_atom_site_label
_atom_site_fract_x
_atom_site_fract_y
_atom_site_fract_z
Si Si1 0.023501 0.789105 0.689568
Si Si2 0.078148 0.401900 0.665815
Si Si3 0.153575 0.553997 0.955156
Si Si4 0.486035 0.367370 0.128823
Si Si5 0.654350 0.193051 0.379946
O O1 0.786821 0.799814 0.560411
O O2 0.024076 0.732249 0.714032
O O3 0.092981 0.821777 0.831907
O O4 0.182681 0.803561 0.656476
O O5 0.065786 0.437523 0.778091
O O6 0.303965 0.387126 0.731156
O O7 0.000000 0.423182 0.500000
O O8 0.948589 0.357555 0.656600
O O9 0.231806 0.500000 0.992885
O O10 0.335955 0.588428 0.064757
O O11 0.000000 0.562988 0.000000
O O12 0.500000 0.345928 0.000000
#
# Coordination Sequence:
#
# PCOD8091063 Si02
#       5
#     8   8   8   8   8
#     4  10  19  34  54  85 117 161 199 233 287 348
#     4  11  21  37  61  91 122 153 200 248 290 348
#     4  10  23  44  65  85 116 157 195 242 307 363
#     4  10  21  37  60  86 119 156 194 244 296 354
#     4  10  20  32  57  82 120 156 196 241 286 340
#
# _framework density 19.713426999999999
#
# number of rings (size 3 to 8) (size 9 to 14) (size 15 to 20)
#    0.000    1.800    2.000    2.400    2.800    4.000 
#    0.000   10.000    0.000    2.400    0.000    0.000 
#    0.000    0.000    0.000    0.000    0.000    0.000 
#
# Total GULP energy -247797.452041 kJ/mol
# GULP energy per Si atom -12389.872602 kJ/mol
# Density = 1.966856 g / cm^3
# Si number density = 19.713427 Si / 1000 Ang^3
#
#
#
# Elastic Constant Matrix: (Units=GPa)
#
#
# Indices 1 2 3 4 5 6 
#
# 1 89.4056 43.7711 40.9856 0.0000 -10.8121 0.0000
# 2 43.7711 100.2353 31.0743 0.0000 -10.2319 0.0000
# 3 40.9856 31.0743 99.9243 0.0000 -16.0899 0.0000
# 4 0.0000 0.0000 0.0000 31.1567 0.0000 -8.9498
# 5 -10.8121 -10.2319 -16.0899 0.0000 31.8734 0.0000
# 6 0.0000 0.0000 0.0000 -8.9498 0.0000 10.7022
#
#
#
# Elastic Compliance Matrix: (Units=1/GPa)
#
#
# Indices 1 2 3 4 5 6 
#
# 1 0.016191 -0.005468 -0.004723 0.000000 0.001353 0.000000
# 2 -0.005468 0.013003 -0.001554 0.000000 0.001535 0.000000
# 3 -0.004723 -0.001554 0.013159 0.000000 0.004542 0.000000
# 4 0.000000 0.000000 0.000000 0.042243 0.000000 0.035326
# 5 0.001353 0.001535 0.004542 0.000000 0.034619 0.000000
# 6 0.000000 0.000000 0.000000 0.035326 0.000000 0.122981
#
#
# Mechanical properties :
#
#
# Convention : Reuss Voigt Hill
#
# Bulk Modulus (GPa) = 53.01097 57.91413 55.46255
# Shear Modulus (GPa) = 18.38428 26.32873 22.35651
#
# Velocity S-wave (km/s) = 3.05712 3.65851 3.37126
# Velocity P-wave (km/s) = 6.27778 6.87663 6.58402
#
# Compressibility (1/GPa) = 0.01886402
#
# Stress axis : x y z
#
# Youngs Moduli (GPa) = 61.76460 76.90757 75.99300
#
# Poissons Ratio (x) = 0.42053 0.35888
# Poissons Ratio (y) = 0.33773 0.11806
# Poissons Ratio (z) = 0.29169 0.11948
#
# Static dielectric constant tensor:
#      x y z
#    x 4.390760 0.000000 -0.266860 
#    y 0.000000 3.531930 0.000000 
#    z -0.266860 0.000000 3.853570 
# 
# 
# High freq. dielectric constant tensor:
#      x y z
#    x 1.783790 0.000000 -0.008810 
#    y 0.000000 1.761140 0.000000 
#    z -0.008810 0.000000 1.760630 
# 
# From -- ./inp_files/39167.got.cif
#   From: 2010.06.25/outbox.cif.g09.slc.cpg/sg12_20_cif.got.tgz:39167.got - 2010.06.28 00:19:55.
