data_PCOD8091958
_publ_section_title
;
Structure prediction by ZEFSAII (Michael W. Deem and Ramdas Pophale) SiO2 
 PCOD8091958
Probable space group: C 2/M
;
_chemical_formula_sum "Si O2"
_cell_formula_units_Z 64
_cell_length_a 21.624852
_cell_length_b 16.447770
_cell_length_c 17.150154
_cell_angle_alpha 90.000000
_cell_angle_beta 148.058361
_cell_angle_gamma 90.000000
_cell_volume 3227.224360
_symmetry_space_group_name_H-M "C 2/M"
_symmetry_group_IT_number 12
_symmetry_cell_setting 'monoclinic'
loop_
_space_group_symop_operation_xyz
x,y,z
-x,y,-z
-x,-y,-z
x,-y,z
1/2+x,1/2+y,z
1/2-x,1/2+y,-z
1/2-x,1/2-y,-z
1/2+x,1/2-y,z
loop_
_atom_site_type_symbol
_atom_site_label
_atom_site_fract_x
_atom_site_fract_y
_atom_site_fract_z
Si Si1 0.108346 0.093691 0.818408
Si Si2 0.153457 0.336676 0.457296
Si Si3 0.291755 0.909653 0.731439
Si Si4 0.768216 0.315209 0.090255
Si Si5 0.988605 0.594956 0.397036
Si Si6 0.233385 0.332705 0.137501
Si Si7 0.852893 0.849947 0.559665
Si Si8 0.507785 0.905917 0.166341
O O1 0.150465 0.139275 0.784818
O O2 0.985988 0.128708 0.716531
O O3 0.099249 0.000000 0.788277
O O4 0.193482 0.106897 0.984011
O O5 0.160936 0.241884 0.485084
O O6 0.280453 0.365888 0.562177
O O7 0.057350 0.349350 0.287084
O O8 0.114749 0.387310 0.492299
O O9 0.253645 0.846973 0.757028
O O10 0.198437 0.907653 0.562198
O O11 0.420891 0.888661 0.836935
O O12 0.292387 0.000000 0.768494
O O13 0.896423 0.348340 0.251164
O O14 0.717895 0.264891 0.110481
O O15 0.750000 0.250000 0.000000
O O16 0.955027 0.500000 0.352861
O O17 0.000000 0.619388 0.500000
O O18 0.126503 0.384154 0.988708
O O19 0.519474 0.000000 0.203902
#
# Coordination Sequence:
#
# PCOD8091958 Si02
#       8
#     8   8   8   8   8   8   8   8
#     4  11  21  35  56  81 114 153 194 236 283 355
#     4  10  20  38  61  83 115 152 201 245 295 345
#     4  10  21  35  53  83 118 154 195 241 295 353
#     4  10  22  39  58  87 116 153 200 243 298 362
#     4  11  24  41  66  95 122 155 204 266 314 350
#     4  11  21  34  55  83 116 154 187 238 304 354
#     4  10  22  37  56  85 118 157 197 238 286 361
#     4  10  19  34  58  85 114 149 199 251 290 347
#
# _framework density 19.831284
#
# number of rings (size 3 to 8) (size 9 to 14) (size 15 to 20)
#    0.000    1.625    0.000    6.375    1.750    3.000 
#    0.000    1.250    0.000    0.000    0.000    2.625 
#    0.000    0.000    0.000    0.000    0.000    0.000 
#
# Total GULP energy -396684.611070 kJ/mol
# GULP energy per Si atom -12396.394096 kJ/mol
# Density = 1.978615 g / cm^3
# Si number density = 19.831284 Si / 1000 Ang^3
#
#
#
# Elastic Constant Matrix: (Units=GPa)
#
#
# Indices 1 2 3 4 5 6 
#
# 1 125.2022 39.9453 39.8939 0.0000 9.3575 0.0000
# 2 39.9453 64.8168 10.3792 0.0000 0.3684 0.0000
# 3 39.8939 10.3792 77.4154 0.0000 19.7057 0.0000
# 4 0.0000 0.0000 0.0000 31.3811 0.0000 -3.0126
# 5 9.3575 0.3684 19.7057 0.0000 24.2139 0.0000
# 6 0.0000 0.0000 0.0000 -3.0126 0.0000 31.6221
#
#
#
# Elastic Compliance Matrix: (Units=1/GPa)
#
#
# Indices 1 2 3 4 5 6 
#
# 1 0.011660 -0.006370 -0.005086 0.000000 -0.000270 0.000000
# 2 -0.006370 0.019314 0.000178 0.000000 0.002023 0.000000
# 3 -0.005086 0.000178 0.018938 0.000000 -0.013449 0.000000
# 4 0.000000 0.000000 0.000000 0.032160 0.000000 0.003064
# 5 -0.000270 0.002023 -0.013449 0.000000 0.052317 0.000000
# 6 0.000000 0.000000 0.000000 0.003064 0.000000 0.031915
#
#
# Mechanical properties :
#
#
# Convention : Reuss Voigt Hill
#
# Bulk Modulus (GPa) = 36.55455 49.76345 43.15900
# Shear Modulus (GPa) = 25.25525 29.25784 27.25655
#
# Velocity S-wave (km/s) = 3.57249 3.84518 3.71134
# Velocity P-wave (km/s) = 5.95733 6.69789 6.33843
#
# Compressibility (1/GPa) = 0.02735637
#
# Stress axis : x y z
#
# Youngs Moduli (GPa) = 85.76227 51.77665 52.80464
#
# Poissons Ratio (x) = 0.32981 0.26856
# Poissons Ratio (y) = 0.54630 -0.00941
# Poissons Ratio (z) = 0.43618 -0.00923
#
# Static dielectric constant tensor:
#      x y z
#    x 3.819770 0.000000 0.040530 
#    y 0.000000 3.742770 0.000000 
#    z 0.040530 0.000000 3.586750 
# 
# 
# High freq. dielectric constant tensor:
#      x y z
#    x 1.771540 0.000000 0.009480 
#    y 0.000000 1.777060 0.000000 
#    z 0.009480 0.000000 1.760360 
# 
# From -- ./inp_files/285212.got.cif
#   From: 2010.06.25/outbox.cif.g09.slc.cpg/sg12_143_cif.got.tgz:285212.got - 2010.06.28 00:19:55.
