data_PCOD8091157
_publ_section_title
;
Structure prediction by ZEFSAII (Michael W. Deem and Ramdas Pophale) SiO2 
 PCOD8091157
Probable space group: C 2/M
;
_chemical_formula_sum "Si O2"
_cell_formula_units_Z 56
_cell_length_a 31.838600
_cell_length_b 8.941926
_cell_length_c 11.890415
_cell_angle_alpha 90.000000
_cell_angle_beta 116.981385
_cell_angle_gamma 90.000000
_cell_volume 3016.718564
_symmetry_space_group_name_H-M "C 2/M"
_symmetry_group_IT_number 12
_symmetry_cell_setting 'monoclinic'
loop_
_space_group_symop_operation_xyz
x,y,z
-x,y,-z
-x,-y,-z
x,-y,z
1/2+x,1/2+y,z
1/2-x,1/2+y,-z
1/2-x,1/2-y,-z
1/2+x,1/2-y,z
loop_
_atom_site_type_symbol
_atom_site_label
_atom_site_fract_x
_atom_site_fract_y
_atom_site_fract_z
Si Si1 0.164843 0.176937 0.720742
Si Si2 0.937259 0.822626 0.031781
Si Si3 0.040958 0.825635 0.188310
Si Si4 0.770864 0.323474 0.831619
Si Si5 0.206220 0.323355 0.386983
Si Si6 0.627779 0.325342 0.433808
Si Si7 0.357013 0.177203 0.081707
O O1 0.218223 0.242154 0.783375
O O2 0.138114 0.223449 0.573844
O O3 0.136365 0.253566 0.786960
O O4 0.163960 0.000000 0.736992
O O5 0.936052 0.766731 0.900380
O O6 0.928830 0.000000 0.034913
O O7 0.897315 0.735258 0.049196
O O8 0.987767 0.768322 0.144279
O O9 0.073579 0.787837 0.335704
O O10 0.036173 0.000000 0.162430
O O11 0.766226 0.500000 0.824446
O O12 0.793130 0.269202 0.741237
O O13 0.805865 0.269718 0.972681
O O14 0.210586 0.500000 0.403116
O O15 0.250000 0.250000 0.500000
O O16 0.158482 0.268751 0.384821
O O17 0.639471 0.500000 0.431373
O O18 0.360250 0.000000 0.092137
#
# Coordination Sequence:
#
# PCOD8091157 Si02
#       7
#     8   8   8   8   8   8   8
#     4  10  20  36  53  70 101 141 176 214 256 303
#     4   9  17  34  57  81 107 132 166 213 258 304
#     4   8  16  32  58  85 105 130 168 211 255 310
#     4   9  19  35  52  73 103 137 172 214 258 299
#     4  11  20  33  52  77 108 138 168 208 256 306
#     4  10  19  34  55  79 106 137 172 211 259 310
#     4  11  22  35  52  75 103 136 177 218 256 303
#
# _framework density 18.563217000000002
#
# number of rings (size 3 to 8) (size 9 to 14) (size 15 to 20)
#    0.000    2.286    1.429    3.000    0.000    0.571 
#    0.000    5.714    0.000    4.286    0.000    0.000 
#    0.000    0.000    0.000    0.000    0.000    0.000 
#
# Total GULP energy -347123.812073 kJ/mol
# GULP energy per Si atom -12397.279003 kJ/mol
# Density = 1.852097 g / cm^3
# Si number density = 18.563217 Si / 1000 Ang^3
#
#
#
# Elastic Constant Matrix: (Units=GPa)
#
#
# Indices 1 2 3 4 5 6 
#
# 1 93.8550 23.5736 60.7914 0.0000 3.0137 0.0000
# 2 23.5736 39.3707 28.0420 0.0000 -1.2697 0.0000
# 3 60.7914 28.0420 130.7564 0.0000 4.8556 0.0000
# 4 0.0000 0.0000 0.0000 16.7847 0.0000 -2.8891
# 5 3.0137 -1.2697 4.8556 0.0000 31.4830 0.0000
# 6 0.0000 0.0000 0.0000 -2.8891 0.0000 30.2359
#
#
#
# Elastic Compliance Matrix: (Units=1/GPa)
#
#
# Indices 1 2 3 4 5 6 
#
# 1 0.016079 -0.005132 -0.006346 0.000000 -0.000767 0.000000
# 2 -0.005132 0.031771 -0.004519 0.000000 0.002470 0.000000
# 3 -0.006346 -0.004519 0.011618 0.000000 -0.001367 0.000000
# 4 0.000000 0.000000 0.000000 0.060574 0.000000 0.005788
# 5 -0.000767 0.002470 -0.001367 0.000000 0.032147 0.000000
# 6 0.000000 0.000000 0.000000 0.005788 0.000000 0.033626
#
#
# Mechanical properties :
#
#
# Convention : Reuss Voigt Hill
#
# Bulk Modulus (GPa) = 36.39942 54.31068 45.35505
# Shear Modulus (GPa) = 22.02943 25.80574 23.91759
#
# Velocity S-wave (km/s) = 3.44862 3.73252 3.59338
# Velocity P-wave (km/s) = 5.95888 6.92071 6.45773
#
# Compressibility (1/GPa) = 0.02747296
#
# Stress axis : x y z
#
# Youngs Moduli (GPa) = 62.19281 31.47523 86.07080
#
# Poissons Ratio (x) = 0.16153 0.54624
# Poissons Ratio (y) = 0.31917 0.38898
# Poissons Ratio (z) = 0.39470 0.14225
#
# Static dielectric constant tensor:
#      x y z
#    x 3.774780 0.000000 0.186560 
#    y 0.000000 3.257680 0.000000 
#    z 0.186560 0.000000 3.639160 
# 
# 
# High freq. dielectric constant tensor:
#      x y z
#    x 1.716400 0.000000 0.003730 
#    y 0.000000 1.691530 0.000000 
#    z 0.003730 0.000000 1.729550 
# 
# From -- ./inp_files/186475.got.cif
#   From: 2010.06.25/outbox.cif.g09.slc.cpg/sg12_94_cif.got.tgz:186475.got - 2010.06.28 00:19:55.
