data_PCOD8091141
_publ_section_title
;
Structure prediction by ZEFSAII (Michael W. Deem and Ramdas Pophale) SiO2 
 PCOD8091141
Probable space group: C 2/M
;
_chemical_formula_sum "Si O2"
_cell_formula_units_Z 56
_cell_length_a 19.077137
_cell_length_b 9.174452
_cell_length_c 18.487282
_cell_angle_alpha 90.000000
_cell_angle_beta 114.890268
_cell_angle_gamma 90.000000
_cell_volume 2935.141162
_symmetry_space_group_name_H-M "C 2/M"
_symmetry_group_IT_number 12
_symmetry_cell_setting 'monoclinic'
loop_
_space_group_symop_operation_xyz
x,y,z
-x,y,-z
-x,-y,-z
x,-y,z
1/2+x,1/2+y,z
1/2-x,1/2+y,-z
1/2-x,1/2-y,-z
1/2+x,1/2-y,z
loop_
_atom_site_type_symbol
_atom_site_label
_atom_site_fract_x
_atom_site_fract_y
_atom_site_fract_z
Si Si1 0.574375 0.333080 0.571062
Si Si2 0.670269 0.170049 0.210403
Si Si3 0.598058 0.837481 0.327429
Si Si4 0.654769 0.673201 0.749264
Si Si5 0.439553 0.832993 0.177536
Si Si6 0.327649 0.664866 0.522196
Si Si7 0.524758 0.668076 0.092860
O O1 0.500000 0.255527 0.500000
O O2 0.551210 0.500000 0.575492
O O3 0.601427 0.266066 0.659685
O O4 0.647526 0.320937 0.550011
O O5 0.658124 0.203977 0.290000
O O6 0.756511 0.215591 0.226537
O O7 0.609757 0.263064 0.137517
O O8 0.653299 0.000000 0.188038
O O9 0.511700 0.824949 0.262068
O O10 0.605529 0.727274 0.397128
O O11 0.616404 0.000000 0.363348
O O12 0.645707 0.500000 0.753235
O O13 0.630955 0.751739 0.813275
O O14 0.460564 0.751942 0.112396
O O15 0.416603 0.000000 0.150451
O O16 0.313161 0.500000 0.538418
O O17 0.250000 0.750000 0.500000
O O18 0.527557 0.500000 0.118868
O O19 0.500000 0.684260 0.000000
#
# Coordination Sequence:
#
# PCOD8091141 Si02
#       7
#     8   8   8   8   8   8   8
#     4   9  18  32  50  72 100 138 181 222 264 309
#     4   9  19  35  56  81 111 147 180 219 271 321
#     4   9  18  34  52  72 101 136 178 223 266 316
#     4  10  19  34  55  78 108 144 184 226 266 315
#     4  10  21  36  56  81 109 141 175 215 264 319
#     4  11  21  32  49  72  99 134 177 225 275 322
#     4  10  21  38  61  87 111 136 173 219 262 316
#
# _framework density 19.079151
#
# number of rings (size 3 to 8) (size 9 to 14) (size 15 to 20)
#    0.000    2.286    0.000    3.857    0.000    8.000 
#    0.000    3.571    0.000    3.857    0.000    0.000 
#    0.000    0.000    0.000    0.000    0.000    0.000 
#
# Total GULP energy -347185.683406 kJ/mol
# GULP energy per Si atom -12399.488693 kJ/mol
# Density = 1.903573 g / cm^3
# Si number density = 19.079151 Si / 1000 Ang^3
#
#
#
# Elastic Constant Matrix: (Units=GPa)
#
#
# Indices 1 2 3 4 5 6 
#
# 1 102.1426 35.7571 22.2028 0.0000 -9.9254 0.0000
# 2 35.7571 91.4878 39.8432 0.0000 -7.7183 0.0000
# 3 22.2028 39.8432 73.4244 0.0000 -8.3027 0.0000
# 4 0.0000 0.0000 0.0000 27.1865 0.0000 -1.1920
# 5 -9.9254 -7.7183 -8.3027 0.0000 20.6396 0.0000
# 6 0.0000 0.0000 0.0000 -1.1920 0.0000 29.8907
#
#
#
# Elastic Compliance Matrix: (Units=1/GPa)
#
#
# Indices 1 2 3 4 5 6 
#
# 1 0.011718 -0.003802 -0.001052 0.000000 0.003790 0.000000
# 2 -0.003802 0.015655 -0.007218 0.000000 0.001122 0.000000
# 3 -0.001052 -0.007218 0.018326 0.000000 0.004167 0.000000
# 4 0.000000 0.000000 0.000000 0.036847 0.000000 0.001469
# 5 0.003790 0.001122 0.004167 0.000000 0.052369 0.000000
# 6 0.000000 0.000000 0.000000 0.001469 0.000000 0.033514
#
#
# Mechanical properties :
#
#
# Convention : Reuss Voigt Hill
#
# Bulk Modulus (GPa) = 46.39458 51.40678 48.90068
# Shear Modulus (GPa) = 25.03034 26.82681 25.92857
#
# Velocity S-wave (km/s) = 3.62597 3.75384 3.69046
# Velocity P-wave (km/s) = 6.47302 6.76690 6.62159
#
# Compressibility (1/GPa) = 0.02155424
#
# Stress axis : x y z
#
# Youngs Moduli (GPa) = 85.33755 63.87855 54.56853
#
# Poissons Ratio (x) = 0.24288 0.05739
# Poissons Ratio (y) = 0.32447 0.39389
# Poissons Ratio (z) = 0.08974 0.46109
#
# Static dielectric constant tensor:
#      x y z
#    x 3.541040 0.000000 -0.064900 
#    y 0.000000 3.503380 0.000000 
#    z -0.064900 0.000000 3.424510 
# 
# 
# High freq. dielectric constant tensor:
#      x y z
#    x 1.748160 0.000000 -0.005490 
#    y 0.000000 1.729830 0.000000 
#    z -0.005490 0.000000 1.729170 
# 
# From -- ./inp_files/275188.got.cif
#   From: 2010.06.25/outbox.cif.g09.slc.cpg/sg12_138_cif.got.tgz:275188.got - 2010.06.28 00:19:55.
