data_PCOD8091512
_publ_section_title
;
Structure prediction by ZEFSAII (Michael W. Deem and Ramdas Pophale) SiO2 
 PCOD8091512
Probable space group: C 2/M
;
_chemical_formula_sum "Si O2"
_cell_formula_units_Z 56
_cell_length_a 27.237894
_cell_length_b 9.479266
_cell_length_c 20.713189
_cell_angle_alpha 90.000000
_cell_angle_beta 147.324900
_cell_angle_gamma 90.000000
_cell_volume 2887.274443
_symmetry_space_group_name_H-M "C 2/M"
_symmetry_group_IT_number 12
_symmetry_cell_setting 'monoclinic'
loop_
_space_group_symop_operation_xyz
x,y,z
-x,y,-z
-x,-y,-z
x,-y,z
1/2+x,1/2+y,z
1/2-x,1/2+y,-z
1/2-x,1/2-y,-z
1/2+x,1/2-y,z
loop_
_atom_site_type_symbol
_atom_site_label
_atom_site_fract_x
_atom_site_fract_y
_atom_site_fract_z
Si Si1 0.486410 0.659734 0.162295
Si Si2 0.431211 0.835278 0.979783
Si Si3 0.693751 0.345717 0.572783
Si Si4 0.429456 0.833031 0.364762
Si Si5 0.494398 0.338863 0.315466
Si Si6 0.722226 0.657530 0.745983
Si Si7 0.800309 0.159866 0.608952
O O1 0.456545 0.500000 0.113004
O O2 0.443592 0.762976 0.062743
O O3 0.454591 0.698679 0.200231
O O4 0.593443 0.674876 0.277141
O O5 0.450467 0.000000 0.010315
O O6 0.500000 0.776561 0.000000
O O7 0.326785 0.803213 0.845842
O O8 0.736353 0.500000 0.604022
O O9 0.603302 0.325235 0.430296
O O10 0.666927 0.338170 0.617931
O O11 0.767257 0.224403 0.640328
O O12 0.500000 0.792206 0.500000
O O13 0.459628 0.770965 0.329647
O O14 0.328755 0.769524 0.265202
O O15 0.420867 0.000000 0.348642
O O16 0.468372 0.500000 0.305935
O O17 0.716807 0.500000 0.770671
O O18 0.750000 0.250000 0.500000
O O19 0.767299 0.000000 0.566598
#
# Coordination Sequence:
#
# PCOD8091512 Si02
#       7
#     8   8   8   8   8   8   8
#     4  10  22  39  57  83 118 156 197 241 293 353
#     4  10  22  41  64  90 118 153 201 247 286 345
#     4  10  19  34  56  83 115 151 190 238 292 349
#     4  11  23  37  57  90 125 154 195 247 298 351
#     4  10  20  37  59  83 116 155 195 236 292 360
#     4  10  21  38  62  87 115 156 200 239 293 355
#     4  11  21  33  51  80 116 151 191 235 289 353
#
# _framework density 19.395454000000001
#
# number of rings (size 3 to 8) (size 9 to 14) (size 15 to 20)
#    0.000    1.714    2.857    1.714    0.000    5.429 
#    0.000    0.714    0.000    0.000    0.000    0.000 
#    0.000    0.000    0.000    0.000    0.000    0.000 
#
# Total GULP energy -347086.852183 kJ/mol
# GULP energy per Si atom -12395.959007 kJ/mol
# Density = 1.935131 g / cm^3
# Si number density = 19.395454 Si / 1000 Ang^3
#
#
#
# Elastic Constant Matrix: (Units=GPa)
#
#
# Indices 1 2 3 4 5 6 
#
# 1 98.5443 51.3506 32.5377 0.0000 -0.7614 0.0000
# 2 51.3506 95.4119 36.7410 0.0000 3.6186 0.0000
# 3 32.5377 36.7410 68.3099 0.0000 -10.6034 0.0000
# 4 0.0000 0.0000 0.0000 29.0855 0.0000 -3.8373
# 5 -0.7614 3.6186 -10.6034 0.0000 29.7588 0.0000
# 6 0.0000 0.0000 0.0000 -3.8373 0.0000 38.3456
#
#
#
# Elastic Compliance Matrix: (Units=1/GPa)
#
#
# Indices 1 2 3 4 5 6 
#
# 1 0.014728 -0.006582 -0.003485 0.000000 -0.000065 0.000000
# 2 -0.006582 0.016723 -0.006564 0.000000 -0.004541 0.000000
# 3 -0.003485 -0.006564 0.021107 0.000000 0.008230 0.000000
# 4 0.000000 0.000000 0.000000 0.034841 0.000000 0.003487
# 5 -0.000065 -0.004541 0.008230 0.000000 0.037086 0.000000
# 6 0.000000 0.000000 0.000000 0.003487 0.000000 0.026428
#
#
# Mechanical properties :
#
#
# Convention : Reuss Voigt Hill
#
# Bulk Modulus (GPa) = 51.82562 55.94720 53.88641
# Shear Modulus (GPa) = 26.23176 28.88044 27.55610
#
# Velocity S-wave (km/s) = 3.68158 3.86298 3.77337
# Velocity P-wave (km/s) = 6.69706 6.98606 6.84308
#
# Compressibility (1/GPa) = 0.01929548
#
# Stress axis : x y z
#
# Youngs Moduli (GPa) = 67.89897 59.79658 47.37672
#
# Poissons Ratio (x) = 0.39358 0.16511
# Poissons Ratio (y) = 0.44691 0.31100
# Poissons Ratio (z) = 0.23663 0.39253
#
# Static dielectric constant tensor:
#      x y z
#    x 3.753670 0.000000 -0.131560 
#    y 0.000000 3.950010 0.000000 
#    z -0.131560 0.000000 3.525790 
# 
# 
# High freq. dielectric constant tensor:
#      x y z
#    x 1.757010 0.000000 -0.008660 
#    y 0.000000 1.753520 0.000000 
#    z -0.008660 0.000000 1.738560 
# 
# From -- ./inp_files/329532.got.cif
#   From: 2010.06.25/outbox.cif.g09.slc.cpg/sg12_165_cif.got.tgz:329532.got - 2010.06.28 00:19:55.
