data_PCOD8091244
_publ_section_title
;
Structure prediction by ZEFSAII (Michael W. Deem and Ramdas Pophale) SiO2 
 PCOD8091244
Probable space group: C 2/M
;
_chemical_formula_sum "Si O2"
_cell_formula_units_Z 48
_cell_length_a 27.691000
_cell_length_b 9.007698
_cell_length_c 17.063246
_cell_angle_alpha 90.000000
_cell_angle_beta 36.172049
_cell_angle_gamma 90.000000
_cell_volume 2512.014224
_symmetry_space_group_name_H-M "C 2/M"
_symmetry_group_IT_number 12
_symmetry_cell_setting 'monoclinic'
loop_
_space_group_symop_operation_xyz
x,y,z
-x,y,-z
-x,-y,-z
x,-y,z
1/2+x,1/2+y,z
1/2-x,1/2+y,-z
1/2-x,1/2-y,-z
1/2+x,1/2-y,z
loop_
_atom_site_type_symbol
_atom_site_label
_atom_site_fract_x
_atom_site_fract_y
_atom_site_fract_z
Si Si1 0.054404 0.324418 0.257799
Si Si2 0.089932 0.675590 0.898271
Si Si3 0.173540 0.671976 0.235830
Si Si4 0.626457 0.827573 0.474515
Si Si5 0.739184 0.175029 0.597443
Si Si6 0.155742 0.324124 0.976433
O O1 0.051269 0.500000 0.270265
O O2 0.109854 0.262150 0.255978
O O3 0.090841 0.273623 0.126972
O O4 0.962048 0.264402 0.384682
O O5 0.083075 0.500000 0.916085
O O6 0.150096 0.718716 0.748299
O O7 0.125063 0.741268 0.933555
O O8 0.000000 0.743789 0.000000
O O9 0.192161 0.500000 0.195475
O O10 0.134811 0.696928 0.371342
O O11 0.257020 0.759572 0.115720
O O12 0.693122 0.730224 0.431064
O O13 0.638003 0.000000 0.482633
O O14 0.750000 0.250000 0.500000
O O15 0.747579 0.000000 0.576537
O O16 0.164329 0.500000 0.962002
#
# Coordination Sequence:
#
# PCOD8091244 Si02
#       6
#     8   8   8   8   8   8
#     4   9  19  33  55  83 109 148 193 225 258 322
#     4   9  19  35  57  81 105 139 183 226 266 321
#     4  10  19  34  55  81 114 146 182 228 277 320
#     4  10  20  36  58  81 111 147 185 225 271 320
#     4  11  23  39  60  84 111 140 180 226 276 329
#     4  10  19  34  56  80 108 143 187 228 269 324
#
# _framework density 19.108172
#
# number of rings (size 3 to 8) (size 9 to 14) (size 15 to 20)
#    0.000    2.167    1.667    1.500    2.333    2.000 
#    0.000    1.667    0.000    4.500    0.000    0.000 
#    0.000    0.000    0.000    0.000    0.000    0.000 
#
# Total GULP energy -297635.369414 kJ/mol
# GULP energy per Si atom -12401.473726 kJ/mol
# Density = 1.906468 g / cm^3
# Si number density = 19.108172 Si / 1000 Ang^3
#
#
#
# Elastic Constant Matrix: (Units=GPa)
#
#
# Indices 1 2 3 4 5 6 
#
# 1 118.2392 36.1595 61.3545 0.0037 -3.4151 -0.0012
# 2 36.1595 38.9693 47.9963 0.0102 2.9222 -0.0037
# 3 61.3545 47.9963 159.3654 0.0031 -11.6408 -0.0021
# 4 0.0037 0.0102 0.0031 22.7689 -0.0017 -2.9215
# 5 -3.4151 2.9222 -11.6408 -0.0017 41.1968 0.0002
# 6 -0.0012 -0.0037 -0.0021 -2.9215 0.0002 27.8458
#
#
#
# Elastic Compliance Matrix: (Units=1/GPa)
#
#
# Indices 1 2 3 4 5 6 
#
# 1 0.012265 -0.009143 -0.001885 0.000002 0.001132 -0.000001
# 2 -0.009143 0.049387 -0.011911 -0.000019 -0.007627 0.000003
# 3 -0.001885 -0.011911 0.010863 0.000004 0.003758 0.000000
# 4 0.000002 -0.000019 0.000004 0.044519 0.000005 0.004671
# 5 0.001132 -0.007627 0.003758 0.000005 0.025970 0.000000
# 6 -0.000001 0.000003 0.000000 0.004671 0.000000 0.036402
#
#
# Mechanical properties :
#
#
# Convention : Reuss Voigt Hill
#
# Bulk Modulus (GPa) = 37.54428 67.51047 52.52738
# Shear Modulus (GPa) = 21.35263 29.76655 25.55959
#
# Velocity S-wave (km/s) = 3.34647 3.95117 3.66132
# Velocity P-wave (km/s) = 5.88411 7.49820 6.73965
#
# Compressibility (1/GPa) = 0.02663522
#
# Stress axis : x y z
#
# Youngs Moduli (GPa) = 81.53564 20.24816 92.05937
#
# Poissons Ratio (x) = 0.18513 0.17357
# Poissons Ratio (y) = 0.74548 1.09653
# Poissons Ratio (z) = 0.15373 0.24118
#
# Static dielectric constant tensor:
#      x y z
#    x 3.014610 0.000050 0.638610 
#    y 0.000050 3.183950 -0.000050 
#    z 0.638610 -0.000050 3.185920 
# 
# 
# High freq. dielectric constant tensor:
#      x y z
#    x 1.756780 0.000000 0.001320 
#    y 0.000000 1.700920 0.000000 
#    z 0.001320 0.000000 1.761540 
# 
# From -- ./inp_files/274108.got.cif
#   From: 2010.06.25/outbox.cif.g09.slc.cpg/sg12_138_cif.got.tgz:274108.got - 2010.06.28 00:19:55.
