data_PCOD8091581
_publ_section_title
;
Structure prediction by ZEFSAII (Michael W. Deem and Ramdas Pophale) SiO2 
 PCOD8091581
Probable space group: C 2/M
;
_chemical_formula_sum "Si O2"
_cell_formula_units_Z 64
_cell_length_a 19.713931
_cell_length_b 9.165553
_cell_length_c 24.236947
_cell_angle_alpha 90.000000
_cell_angle_beta 129.518589
_cell_angle_gamma 90.000000
_cell_volume 3378.311447
_symmetry_space_group_name_H-M "C 2/M"
_symmetry_group_IT_number 12
_symmetry_cell_setting 'monoclinic'
loop_
_space_group_symop_operation_xyz
x,y,z
-x,y,-z
-x,-y,-z
x,-y,z
1/2+x,1/2+y,z
1/2-x,1/2+y,-z
1/2-x,1/2-y,-z
1/2+x,1/2-y,z
loop_
_atom_site_type_symbol
_atom_site_label
_atom_site_fract_x
_atom_site_fract_y
_atom_site_fract_z
Si Si1 0.165956 0.832646 0.229767
Si Si2 0.969439 0.827047 0.125371
Si Si3 0.581292 0.673278 0.377919
Si Si4 0.080222 0.826904 0.502761
Si Si5 0.758781 0.832699 0.611310
Si Si6 0.424528 0.326212 0.221259
Si Si7 0.404589 0.667978 0.976367
Si Si8 0.738474 0.172700 0.169241
O O1 0.186899 0.816034 0.304603
O O2 0.230716 0.734944 0.226846
O O3 0.068555 0.770540 0.168159
O O4 0.174605 0.000000 0.214865
O O5 0.931469 0.762912 0.162748
O O6 0.974343 0.000000 0.131742
O O7 0.908553 0.780202 0.042393
O O8 0.578315 0.500000 0.373440
O O9 0.566283 0.727883 0.432720
O O10 0.676566 0.725016 0.404031
O O11 0.502980 0.738083 0.299759
O O12 0.171522 0.762588 0.571597
O O13 0.000000 0.771503 0.500000
O O14 0.087184 0.000000 0.509295
O O15 0.731359 0.000000 0.586644
O O16 0.430236 0.500000 0.223762
O O17 0.332380 0.271534 0.196944
O O18 0.374745 0.500000 0.955840
O O19 0.335861 0.768753 0.909917
O O20 0.500000 0.689471 0.000000
O O21 0.732292 0.000000 0.167763
#
# Coordination Sequence:
#
# PCOD8091581 Si02
#       8
#     8   8   8   8   8   8   8   8
#     4  10  19  35  58  81 103 137 188 231 264 313
#     4   9  16  32  57  79 100 137 188 227 256 311
#     4   9  17  34  57  79 106 145 185 220 261 318
#     4  10  22  36  54  82 117 150 177 212 267 331
#     4  10  20  35  60  84 104 139 187 234 267 302
#     4   9  18  33  54  80 108 140 182 223 266 322
#     4  10  19  34  57  79 103 142 186 225 266 318
#     4  11  23  34  52  83 115 143 172 221 280 326
#
# _framework density 18.944375999999998
#
# number of rings (size 3 to 8) (size 9 to 14) (size 15 to 20)
#    0.000    2.250    2.500    0.750    1.750    1.500 
#    0.000    0.000    0.000    3.750    0.000    0.000 
#    0.000    0.000    0.000    0.000    0.000    0.000 
#
# Total GULP energy -396760.560413 kJ/mol
# GULP energy per Si atom -12398.767513 kJ/mol
# Density = 1.890126 g / cm^3
# Si number density = 18.944376 Si / 1000 Ang^3
#
#
#
# Elastic Constant Matrix: (Units=GPa)
#
#
# Indices 1 2 3 4 5 6 
#
# 1 150.5226 33.6096 46.9819 0.0000 -9.0759 0.0000
# 2 33.6096 33.7735 20.3656 0.0000 1.6757 0.0000
# 3 46.9819 20.3656 80.9932 0.0000 -8.0372 0.0000
# 4 0.0000 0.0000 0.0000 23.6190 0.0000 1.8446
# 5 -9.0759 1.6757 -8.0372 0.0000 33.3138 0.0000
# 6 0.0000 0.0000 0.0000 1.8446 0.0000 17.3751
#
#
#
# Elastic Compliance Matrix: (Units=1/GPa)
#
#
# Indices 1 2 3 4 5 6 
#
# 1 0.009518 -0.007518 -0.003418 0.000000 0.002147 0.000000
# 2 -0.007518 0.041358 -0.006606 0.000000 -0.005722 0.000000
# 3 -0.003418 -0.006606 0.016322 0.000000 0.003339 0.000000
# 4 0.000000 0.000000 0.000000 0.042693 0.000000 -0.004532
# 5 0.002147 -0.005722 0.003339 0.000000 0.031696 0.000000
# 6 0.000000 0.000000 0.000000 -0.004532 0.000000 0.058035
#
#
# Mechanical properties :
#
#
# Convention : Reuss Voigt Hill
#
# Bulk Modulus (GPa) = 31.13913 51.91151 41.52532
# Shear Modulus (GPa) = 20.37406 25.81708 23.09557
#
# Velocity S-wave (km/s) = 3.28299 3.69559 3.49539
# Velocity P-wave (km/s) = 5.55369 6.75806 6.18526
#
# Compressibility (1/GPa) = 0.03211394
#
# Stress axis : x y z
#
# Youngs Moduli (GPa) = 105.05975 24.17925 61.26725
#
# Poissons Ratio (x) = 0.18177 0.20941
# Poissons Ratio (y) = 0.78980 0.40476
# Poissons Ratio (z) = 0.35910 0.15974
#
# Static dielectric constant tensor:
#      x y z
#    x 3.722930 0.000000 -0.162880 
#    y 0.000000 3.055500 0.000000 
#    z -0.162880 0.000000 3.668640 
# 
# 
# High freq. dielectric constant tensor:
#      x y z
#    x 1.747500 0.000000 -0.008990 
#    y 0.000000 1.687450 0.000000 
#    z -0.008990 0.000000 1.748670 
# 
# From -- ./inp_files/346126.got.cif
#   From: 2010.06.25/outbox.cif.g09.slc.cpg/sg12_174_cif.got.tgz:346126.got - 2010.06.28 00:19:55.
