data_PCOD8092226
_publ_section_title
;
Structure prediction by ZEFSAII (Michael W. Deem and Ramdas Pophale) SiO2 
 PCOD8092226
Probable space group: C 2/M
;
_chemical_formula_sum "Si O2"
_cell_formula_units_Z 64
_cell_length_a 24.955731
_cell_length_b 17.244560
_cell_length_c 21.118846
_cell_angle_alpha 90.000000
_cell_angle_beta 158.435769
_cell_angle_gamma 90.000000
_cell_volume 3340.426913
_symmetry_space_group_name_H-M "C 2/M"
_symmetry_group_IT_number 12
_symmetry_cell_setting 'monoclinic'
loop_
_space_group_symop_operation_xyz
x,y,z
-x,y,-z
-x,-y,-z
x,-y,z
1/2+x,1/2+y,z
1/2-x,1/2+y,-z
1/2-x,1/2-y,-z
1/2+x,1/2-y,z
loop_
_atom_site_type_symbol
_atom_site_label
_atom_site_fract_x
_atom_site_fract_y
_atom_site_fract_z
Si Si1 0.162988 0.910746 0.494101
Si Si2 0.852269 0.290868 0.195618
Si Si3 0.841594 0.832495 0.808751
Si Si4 0.952188 0.588467 0.518243
Si Si5 0.601026 0.221124 0.244641
Si Si6 0.361149 0.587364 0.386435
Si Si7 0.458651 0.307731 0.197606
Si Si8 0.207417 0.290805 0.143105
O O1 0.295496 0.851844 0.626971
O O2 0.111033 0.902149 0.509075
O O3 0.025163 0.886795 0.299433
O O4 0.207700 0.000000 0.528042
O O5 0.931209 0.255438 0.221757
O O6 0.829329 0.222642 0.222590
O O7 0.956903 0.358521 0.334309
O O8 0.693303 0.327213 0.004511
O O9 0.721467 0.898254 0.664017
O O10 0.840384 0.774251 0.747978
O O11 0.795568 0.788519 0.821585
O O12 0.000000 0.869337 0.000000
O O13 0.986459 0.500000 0.573349
O O14 0.000000 0.608617 0.500000
O O15 0.581138 0.273393 0.285255
O O16 0.444686 0.185940 0.055542
O O17 0.500000 0.615568 0.500000
O O18 0.319076 0.500000 0.322850
O O19 0.231545 0.640258 0.219032
#
# Coordination Sequence:
#
# PCOD8092226 Si02
#       8
#     8   8   8   8   8   8   8   8
#     4  11  22  36  56  81 115 156 190 232 286 337
#     4  10  21  38  62  87 109 148 196 241 289 333
#     4  10  20  36  60  87 116 150 188 231 289 348
#     4  11  23  38  60  90 120 148 186 243 300 346
#     4  10  21  38  56  83 114 150 197 234 275 343
#     4  10  21  33  51  85 118 144 180 229 291 348
#     4  10  22  39  59  83 112 151 202 241 272 335
#     4  10  19  34  60  85 111 147 186 238 292 334
#
# _framework density 19.159229
#
# number of rings (size 3 to 8) (size 9 to 14) (size 15 to 20)
#    0.000    1.750    2.500    1.875    1.750    1.250 
#    0.000    3.750    0.000    4.500    0.000    0.000 
#    0.000    0.000    0.000    0.000    0.000    0.000 
#
# Total GULP energy -396754.370629 kJ/mol
# GULP energy per Si atom -12398.574082 kJ/mol
# Density = 1.911562 g / cm^3
# Si number density = 19.159229 Si / 1000 Ang^3
#
#
#
# Elastic Constant Matrix: (Units=GPa)
#
#
# Indices 1 2 3 4 5 6 
#
# 1 87.5879 25.9923 32.4019 0.0032 -3.2410 0.0018
# 2 25.9923 74.9280 60.0543 0.0012 -7.4128 0.0014
# 3 32.4019 60.0543 107.9791 0.0060 -4.8360 0.0046
# 4 0.0032 0.0012 0.0060 16.3066 0.0039 -1.9681
# 5 -3.2410 -7.4128 -4.8360 0.0039 27.6985 0.0023
# 6 0.0018 0.0014 0.0046 -1.9681 0.0023 24.2851
#
#
#
# Elastic Compliance Matrix: (Units=1/GPa)
#
#
# Indices 1 2 3 4 5 6 
#
# 1 0.013105 -0.002467 -0.002541 -0.000002 0.000430 0.000000
# 2 -0.002467 0.025025 -0.012992 0.000003 0.004140 0.000001
# 3 -0.002541 -0.012992 0.017215 -0.000005 -0.000769 -0.000003
# 4 -0.000002 0.000003 -0.000005 0.061931 -0.000009 0.005019
# 5 0.000430 0.004140 -0.000769 -0.000009 0.037127 -0.000004
# 6 0.000000 0.000001 -0.000003 0.005019 -0.000004 0.041584
#
#
# Mechanical properties :
#
#
# Convention : Reuss Voigt Hill
#
# Bulk Modulus (GPa) = 51.69518 56.37690 54.03604
# Shear Modulus (GPa) = 20.97002 23.79447 22.38225
#
# Velocity S-wave (km/s) = 3.31193 3.52793 3.42164
# Velocity P-wave (km/s) = 6.45489 6.78855 6.62382
#
# Compressibility (1/GPa) = 0.01934416
#
# Stress axis : x y z
#
# Youngs Moduli (GPa) = 76.30576 39.96061 58.08869
#
# Poissons Ratio (x) = 0.09857 0.14762
# Poissons Ratio (y) = 0.18823 0.75470
# Poissons Ratio (z) = 0.19392 0.51918
#
# Static dielectric constant tensor:
#      x y z
#    x 3.654100 -0.000020 -0.035670 
#    y -0.000020 3.243590 -0.000010 
#    z -0.035670 -0.000010 3.652010 
# 
# 
# High freq. dielectric constant tensor:
#      x y z
#    x 1.756920 0.000000 -0.002570 
#    y 0.000000 1.720970 0.000000 
#    z -0.002570 0.000000 1.753100 
# 
# From -- ./inp_files/326169.got.cif
#   From: 2010.06.25/outbox.cif.g09.slc.cpg/sg12_164_cif.got.tgz:326169.got - 2010.06.28 00:19:55.
