data_PCOD8092144
_publ_section_title
;
Structure prediction by ZEFSAII (Michael W. Deem and Ramdas Pophale) SiO2 
 PCOD8092144
Probable space group: C 2/M
;
_chemical_formula_sum "Si O2"
_cell_formula_units_Z 64
_cell_length_a 29.989544
_cell_length_b 9.230254
_cell_length_c 15.922658
_cell_angle_alpha 90.000000
_cell_angle_beta 47.892602
_cell_angle_gamma 90.000000
_cell_volume 3269.927858
_symmetry_space_group_name_H-M "C 2/M"
_symmetry_group_IT_number 12
_symmetry_cell_setting 'monoclinic'
loop_
_space_group_symop_operation_xyz
x,y,z
-x,y,-z
-x,-y,-z
x,-y,z
1/2+x,1/2+y,z
1/2-x,1/2+y,-z
1/2-x,1/2-y,-z
1/2+x,1/2-y,z
loop_
_atom_site_type_symbol
_atom_site_label
_atom_site_fract_x
_atom_site_fract_y
_atom_site_fract_z
Si Si1 0.504367 0.671535 0.745182
Si Si2 0.339017 0.165988 0.723208
Si Si3 0.265331 0.332479 0.565033
Si Si4 0.205253 0.834297 0.926816
Si Si5 0.885447 0.833746 0.506292
Si Si6 0.383994 0.167377 0.848790
Si Si7 0.672355 0.334481 0.784101
Si Si8 0.546680 0.672150 0.873515
O O1 0.493397 0.500000 0.760922
O O2 0.551506 0.716160 0.613489
O O3 0.441985 0.748926 0.807288
O O4 0.529778 0.726741 0.802283
O O5 0.271986 0.227075 0.823877
O O6 0.373069 0.245720 0.605706
O O7 0.379406 0.185115 0.754702
O O8 0.332781 0.000000 0.703552
O O9 0.248820 0.500000 0.574784
O O10 0.250000 0.250000 0.500000
O O11 0.335177 0.310712 0.498354
O O12 0.227885 0.265576 0.688669
O O13 0.164750 0.825997 0.894030
O O14 0.208773 0.000000 0.955311
O O15 0.175685 0.734524 0.034743
O O16 0.888105 0.000000 0.530349
O O17 0.388499 0.000000 0.869324
O O18 0.685250 0.500000 0.739627
O O19 0.612912 0.272344 0.814442
O O20 0.546101 0.500000 0.878878
O O21 0.500000 0.737011 0.000000
#
# Coordination Sequence:
#
# PCOD8092144 Si02
#       8
#     8   8   8   8   8   8   8   8
#     4  10  21  39  59  82 115 154 201 243 283 345
#     4  10  22  40  61  87 117 151 193 242 297 354
#     4  11  22  36  56  84 116 150 189 233 286 341
#     4  10  20  37  62  89 117 152 192 236 293 359
#     4  10  22  39  60  85 116 155 197 245 291 342
#     4  11  24  39  58  86 118 152 193 245 300 348
#     4  10  19  34  59  87 114 147 190 236 286 342
#     4   9  17  32  57  85 113 151 195 237 278 332
#
# _framework density 19.572298
#
# number of rings (size 3 to 8) (size 9 to 14) (size 15 to 20)
#    0.000    1.875    1.250    2.625    0.000    7.500 
#    0.000    4.375    0.000    1.500    0.000    0.000 
#    0.000    0.000    0.000    0.000    0.000    0.000 
#
# Total GULP energy -396915.090658 kJ/mol
# GULP energy per Si atom -12403.596583 kJ/mol
# Density = 1.952775 g / cm^3
# Si number density = 19.572298 Si / 1000 Ang^3
#
#
#
# Elastic Constant Matrix: (Units=GPa)
#
#
# Indices 1 2 3 4 5 6 
#
# 1 78.4237 20.2039 21.4780 -0.0002 -0.5195 0.0001
# 2 20.2039 66.2352 43.5593 -0.0006 3.6292 0.0011
# 3 21.4780 43.5593 116.0150 0.0000 1.1261 0.0001
# 4 -0.0002 -0.0006 0.0000 30.4866 0.0000 -1.5832
# 5 -0.5195 3.6292 1.1261 0.0000 31.9381 0.0000
# 6 0.0001 0.0011 0.0001 -1.5832 0.0000 28.0924
#
#
#
# Elastic Compliance Matrix: (Units=1/GPa)
#
#
# Indices 1 2 3 4 5 6 
#
# 1 0.014001 -0.003450 -0.001303 0.000000 0.000666 0.000000
# 2 -0.003450 0.021029 -0.007235 0.000000 -0.002191 -0.000001
# 3 -0.001303 -0.007235 0.011574 0.000000 0.000393 0.000000
# 4 0.000000 0.000000 0.000000 0.032898 0.000000 0.001854
# 5 0.000666 -0.002191 0.000393 0.000000 0.031556 0.000000
# 6 0.000000 -0.000001 0.000000 0.001854 0.000000 0.035701
#
#
# Mechanical properties :
#
#
# Convention : Reuss Voigt Hill
#
# Bulk Modulus (GPa) = 44.19722 47.90626 46.05174
# Shear Modulus (GPa) = 28.04599 29.79894 28.92246
#
# Velocity S-wave (km/s) = 3.78953 3.90616 3.84829
# Velocity P-wave (km/s) = 6.46358 6.69879 6.58224
#
# Compressibility (1/GPa) = 0.02262586
#
# Stress axis : x y z
#
# Youngs Moduli (GPa) = 71.42119 47.55443 86.40343
#
# Poissons Ratio (x) = 0.16408 0.11259
# Poissons Ratio (y) = 0.24643 0.62516
# Poissons Ratio (z) = 0.09307 0.34407
#
# Static dielectric constant tensor:
#      x y z
#    x 3.623040 0.000000 -0.020560 
#    y 0.000000 3.414840 0.000000 
#    z -0.020560 0.000000 3.641880 
# 
# 
# High freq. dielectric constant tensor:
#      x y z
#    x 1.772830 0.000000 0.001330 
#    y 0.000000 1.740920 0.000000 
#    z 0.001330 0.000000 1.769380 
# 
# From -- ./inp_files/249858.got.cif
#   From: 2010.06.25/outbox.cif.g09.slc.cpg/sg12_125_cif.got.tgz:249858.got - 2010.06.28 00:19:55.
