data_PCOD8092471
_publ_section_title
;
Structure prediction by ZEFSAII (Michael W. Deem and Ramdas Pophale) SiO2 
 PCOD8092471
Probable space group: C 2/M
;
_chemical_formula_sum "Si O2"
_cell_formula_units_Z 40
_cell_length_a 20.715032
_cell_length_b 21.833914
_cell_length_c 7.402697
_cell_angle_alpha 90.000000
_cell_angle_beta 146.573712
_cell_angle_gamma 90.000000
_cell_volume 1844.384010
_symmetry_space_group_name_H-M "C 2/M"
_symmetry_group_IT_number 12
_symmetry_cell_setting 'monoclinic'
loop_
_space_group_symop_operation_xyz
x,y,z
-x,y,-z
-x,-y,-z
x,-y,z
1/2+x,1/2+y,z
1/2-x,1/2+y,-z
1/2-x,1/2-y,-z
1/2+x,1/2-y,z
loop_
_atom_site_type_symbol
_atom_site_label
_atom_site_fract_x
_atom_site_fract_y
_atom_site_fract_z
Si Si1 0.791903 0.371060 0.279962
Si Si2 0.655325 0.301908 0.253385
Si Si3 0.652624 0.000000 0.032544
Si Si4 0.742540 0.871833 0.214436
Si Si5 0.604523 0.000000 0.499004
Si Si6 0.015235 0.708127 0.739514
O O1 0.692348 0.349372 0.183437
O O2 0.832284 0.439369 0.429775
O O3 0.901298 0.325057 0.550618
O O4 0.736763 0.368135 0.950862
O O5 0.750000 0.250000 0.500000
O O6 0.648102 0.340037 0.425066
O O7 0.535726 0.267782 0.914294
O O8 0.612791 0.000000 0.733059
O O9 0.533819 0.000000 0.876376
O O10 0.732355 0.058692 0.259685
O O11 0.621775 0.839636 0.991522
O O12 0.000000 0.731778 0.500000
#
# Coordination Sequence:
#
# PCOD8092471 Si02
#       6
#     8   8   4   8   4   8
#     4  10  19  35  55  78 109 142 171 210 271 320
#     4  10  22  34  47  75 109 142 182 215 250 314
#     4   9  14  29  51  79 108 135 169 210 270 329
#     4   9  18  31  50  75 106 137 169 212 260 314
#     4   9  16  29  57  81 106 140 168 209 276 334
#     4   9  18  33  52  72 105 146 174 211 261 309
#
# _framework density 21.687456000000001
#
# number of rings (size 3 to 8) (size 9 to 14) (size 15 to 20)
#    0.000    2.600    2.000    0.000    0.000   11.200 
#    0.000    3.000    0.000    0.000    0.000    2.800 
#    0.000   41.600    0.000    0.000    0.000    0.000 
#
# Total GULP energy -247918.300675 kJ/mol
# GULP energy per Si atom -12395.915034 kJ/mol
# Density = 2.163809 g / cm^3
# Si number density = 21.687456 Si / 1000 Ang^3
#
#
#
# Elastic Constant Matrix: (Units=GPa)
#
#
# Indices 1 2 3 4 5 6 
#
# 1 58.5170 34.1198 18.2112 0.0000 -10.8633 0.0000
# 2 34.1198 160.5045 69.7247 0.0000 -17.9543 0.0000
# 3 18.2112 69.7247 75.1900 0.0000 -21.8026 0.0000
# 4 0.0000 0.0000 0.0000 24.1901 0.0000 -6.5809
# 5 -10.8633 -17.9543 -21.8026 0.0000 19.0741 0.0000
# 6 0.0000 0.0000 0.0000 -6.5809 0.0000 20.3092
#
#
#
# Elastic Compliance Matrix: (Units=1/GPa)
#
#
# Indices 1 2 3 4 5 6 
#
# 1 0.020754 -0.003963 0.001486 0.000000 0.009789 0.000000
# 2 -0.003963 0.011234 -0.010539 0.000000 -0.003729 0.000000
# 3 0.001486 -0.010539 0.030037 0.000000 0.025260 0.000000
# 4 0.000000 0.000000 0.000000 0.045336 0.000000 0.014690
# 5 0.009789 -0.003729 0.025260 0.000000 0.083366 0.000000
# 6 0.000000 0.000000 0.000000 0.014690 0.000000 0.053999
#
#
# Mechanical properties :
#
#
# Convention : Reuss Voigt Hill
#
# Bulk Modulus (GPa) = 27.78146 59.81366 43.79756
# Shear Modulus (GPa) = 17.68322 24.19173 20.93748
#
# Velocity S-wave (km/s) = 2.85856 3.34349 3.11049
# Velocity P-wave (km/s) = 4.87164 6.52265 5.75664
#
# Compressibility (1/GPa) = 0.03599522
#
# Stress axis : x y z
#
# Youngs Moduli (GPa) = 48.18290 89.01797 33.29235
#
# Poissons Ratio (x) = 0.35274 -0.04948
# Poissons Ratio (y) = 0.19093 0.35086
# Poissons Ratio (z) = -0.07162 0.93813
#
# Static dielectric constant tensor:
#      x y z
#    x 3.679170 0.000000 -0.400350 
#    y 0.000000 4.299820 0.000000 
#    z -0.400350 0.000000 4.071660 
# 
# 
# High freq. dielectric constant tensor:
#      x y z
#    x 1.838210 0.000000 -0.031740 
#    y 0.000000 1.858180 0.000000 
#    z -0.031740 0.000000 1.822570 
# 
# From -- ./inp_files/99215.got.cif
#   From: 2010.06.25/outbox.cif.g09.slc.cpg/sg12_50_cif.got.tgz:99215.got - 2010.06.28 00:19:55.
