data_PCOD8092276
_publ_section_title
;
Structure prediction by ZEFSAII (Michael W. Deem and Ramdas Pophale) SiO2 
 PCOD8092276
Probable space group: C 2/M
;
_chemical_formula_sum "Si O2"
_cell_formula_units_Z 64
_cell_length_a 13.337780
_cell_length_b 13.007562
_cell_length_c 28.922760
_cell_angle_alpha 90.000000
_cell_angle_beta 39.932949
_cell_angle_gamma 90.000000
_cell_volume 3220.922463
_symmetry_space_group_name_H-M "C 2/M"
_symmetry_group_IT_number 12
_symmetry_cell_setting 'monoclinic'
loop_
_space_group_symop_operation_xyz
x,y,z
-x,y,-z
-x,-y,-z
x,-y,z
1/2+x,1/2+y,z
1/2-x,1/2+y,-z
1/2-x,1/2-y,-z
1/2+x,1/2-y,z
loop_
_atom_site_type_symbol
_atom_site_label
_atom_site_fract_x
_atom_site_fract_y
_atom_site_fract_z
Si Si1 0.303063 0.879786 0.691552
Si Si2 0.605811 0.618161 0.003908
Si Si3 0.630941 0.690858 0.845471
Si Si4 0.593930 0.392701 0.421605
Si Si5 0.923572 0.382895 0.784883
Si Si6 0.090160 0.776437 0.583057
Si Si7 0.343206 0.727904 0.339468
Si Si8 0.043823 0.383434 0.121704
O O1 0.204557 0.850910 0.772036
O O2 0.467650 0.819359 0.629184
O O3 0.185353 0.856344 0.690262
O O4 0.343393 0.000000 0.677351
O O5 0.631319 0.500000 0.981454
O O6 0.524790 0.631073 0.082812
O O7 0.500000 0.669085 0.000000
O O8 0.781499 0.663389 0.946019
O O9 0.752140 0.668867 0.844276
O O10 0.584419 0.811399 0.857952
O O11 0.500000 0.416755 0.500000
O O12 0.687813 0.500000 0.377155
O O13 0.484878 0.372475 0.416229
O O14 0.688118 0.292410 0.399383
O O15 0.915652 0.500000 0.768428
O O16 0.996348 0.381979 0.809902
O O17 0.023485 0.310731 0.716905
O O18 0.250000 0.750000 0.500000
O O19 0.123647 0.821420 0.622413
O O20 0.027713 0.500000 0.107719
#
# Coordination Sequence:
#
# PCOD8092276 Si02
#       8
#     8   8   8   8   8   8   8   8
#     4  11  25  40  61  91 121 158 201 247 299 362
#     4  10  19  34  60  92 122 157 206 254 296 349
#     4  12  21  37  63  92 122 158 206 252 297 353
#     4  10  21  37  59  86 111 142 191 241 289 348
#     4  11  21  37  62  89 117 155 203 249 296 351
#     4  11  23  40  61  85 119 153 192 243 303 358
#     4  11  22  40  59  84 122 152 189 245 300 360
#     4  10  22  39  59  89 125 160 199 247 303 355
#
# _framework density 19.870085
#
# number of rings (size 3 to 8) (size 9 to 14) (size 15 to 20)
#    0.000    1.250    5.000    1.875    0.000    1.500 
#    0.000    1.250    0.000    0.375    0.000    0.000 
#    0.000    0.000    0.000    0.000    0.000    0.000 
#
# Total GULP energy -396456.822054 kJ/mol
# GULP energy per Si atom -12389.275689 kJ/mol
# Density = 1.982486 g / cm^3
# Si number density = 19.870085 Si / 1000 Ang^3
#
#
#
# Elastic Constant Matrix: (Units=GPa)
#
#
# Indices 1 2 3 4 5 6 
#
# 1 70.1125 26.9683 11.8718 0.0003 2.9866 -0.0002
# 2 26.9683 86.0229 16.1323 0.0000 -3.7098 0.0000
# 3 11.8718 16.1323 100.6334 0.0006 3.8209 -0.0004
# 4 0.0003 0.0000 0.0006 -14.7147 -0.0002 32.4150
# 5 2.9866 -3.7098 3.8209 -0.0002 26.2365 0.0001
# 6 -0.0002 0.0000 -0.0004 32.4150 0.0001 -0.2781
#
#
#
# Elastic Compliance Matrix: (Units=1/GPa)
#
#
# Indices 1 2 3 4 5 6 
#
# 1 0.016498 -0.005083 -0.001039 0.000000 -0.002445 0.000000
# 2 -0.005083 0.013655 -0.001694 0.000000 0.002756 0.000000
# 3 -0.001039 -0.001694 0.010393 0.000000 -0.001635 0.000000
# 4 0.000000 0.000000 0.000000 0.000266 0.000000 0.030971
# 5 -0.002445 0.002756 -0.001635 0.000000 0.039021 0.000000
# 6 0.000000 0.000000 0.000000 0.030971 0.000000 0.014059
#
#
# Mechanical properties :
#
#
# Convention : Reuss Voigt Hill
#
# Bulk Modulus (GPa) = 40.13624 40.74593 40.44108
# Shear Modulus (GPa) = 42.43493 15.70184 29.06839
#
# Velocity S-wave (km/s) = 4.62629 2.81414 3.82897
# Velocity P-wave (km/s) = 6.98426 5.57762 6.32020
#
# Compressibility (1/GPa) = 0.02491514
#
# Stress axis : x y z
#
# Youngs Moduli (GPa) = 60.61386 73.23424 96.21656
#
# Poissons Ratio (x) = 0.37223 0.09993
# Poissons Ratio (y) = 0.30809 0.16299
# Poissons Ratio (z) = 0.06295 0.12406
#
# Static dielectric constant tensor:
#      x y z
#    x 3.828070 0.000000 -0.113790 
#    y 0.000000 6.807190 0.000000 
#    z -0.113790 0.000000 3.765510 
# 
# 
# High freq. dielectric constant tensor:
#      x y z
#    x 1.772750 0.000000 -0.000180 
#    y 0.000000 1.756810 0.000000 
#    z -0.000180 0.000000 1.788130 
# 
# From -- ./inp_files/376068.got.cif
#   From: 2010.06.25/outbox.cif.g09.slc.cpg/sg12_189_cif.got.tgz:376068.got - 2010.06.28 00:19:55.
