data_PCOD8092055
_publ_section_title
;
Structure prediction by ZEFSAII (Michael W. Deem and Ramdas Pophale) SiO2 
 PCOD8092055
Probable space group: C 2/M
;
_chemical_formula_sum "Si O2"
_cell_formula_units_Z 44
_cell_length_a 11.549215
_cell_length_b 25.789722
_cell_length_c 14.605596
_cell_angle_alpha 90.000000
_cell_angle_beta 149.789019
_cell_angle_gamma 90.000000
_cell_volume 2189.004211
_symmetry_space_group_name_H-M "C 2/M"
_symmetry_group_IT_number 12
_symmetry_cell_setting 'monoclinic'
loop_
_space_group_symop_operation_xyz
x,y,z
-x,y,-z
-x,-y,-z
x,-y,z
1/2+x,1/2+y,z
1/2-x,1/2+y,-z
1/2-x,1/2-y,-z
1/2+x,1/2-y,z
loop_
_atom_site_type_symbol
_atom_site_label
_atom_site_fract_x
_atom_site_fract_y
_atom_site_fract_z
Si Si1 0.760328 0.854072 0.385867
Si Si2 0.000000 0.134903 0.000000
Si Si3 0.222355 0.689572 0.970285
Si Si4 0.002356 0.883143 0.286947
Si Si5 0.804917 0.440958 0.791602
Si Si6 0.741865 0.559581 0.291602
O O1 0.790311 0.854213 0.517534
O O2 0.661004 0.908740 0.278333
O O3 0.000000 0.836154 0.500000
O O4 0.552495 0.814817 0.225782
O O5 0.803750 0.097226 0.824802
O O6 0.130053 0.170755 0.016026
O O7 0.316110 0.658369 0.123275
O O8 0.250000 0.750000 0.000000
O O9 0.073968 0.922408 0.257188
O O10 0.921409 0.919567 0.314902
O O11 0.778462 0.500000 0.743132
O O12 0.000000 0.432683 0.000000
O O13 0.687592 0.500000 0.228843
O O14 0.000000 0.566880 0.500000
#
# Coordination Sequence:
#
# PCOD8092055 Si02
#       6
#     8   4   8   8   8   8
#     4  10  22  38  61  90 124 156 197 248 296 352
#     4  10  23  40  60  86 118 152 197 244 290 350
#     4  11  24  43  63  86 116 157 200 251 304 350
#     4  10  21  37  59  85 122 154 199 245 294 354
#     4  10  19  34  58  89 124 158 192 234 294 358
#     4  10  20  36  58  84 118 157 195 236 286 348
#
# _framework density 20.100463000000001
#
# number of rings (size 3 to 8) (size 9 to 14) (size 15 to 20)
#    0.000    1.818    1.818    1.909    0.000    7.636 
#    0.000    4.545    0.000    0.000    0.000    0.000 
#    0.000    0.000    0.000    0.000    0.000    0.000 
#
# Total GULP energy -272654.904831 kJ/mol
# GULP energy per Si atom -12393.404765 kJ/mol
# Density = 2.005471 g / cm^3
# Si number density = 20.100463 Si / 1000 Ang^3
#
#
#
# Elastic Constant Matrix: (Units=GPa)
#
#
# Indices 1 2 3 4 5 6 
#
# 1 59.3950 42.8613 27.1463 -0.0003 -5.2068 -0.0001
# 2 42.8613 136.3220 65.4984 -0.0002 8.0059 -0.0001
# 3 27.1463 65.4984 134.9025 -0.0002 -2.2443 0.0001
# 4 -0.0003 -0.0002 -0.0002 17.0300 0.0009 0.9273
# 5 -5.2068 8.0059 -2.2443 0.0009 33.1137 0.0004
# 6 -0.0001 -0.0001 0.0001 0.9273 0.0004 21.0011
#
#
#
# Elastic Compliance Matrix: (Units=1/GPa)
#
#
# Indices 1 2 3 4 5 6 
#
# 1 0.022812 -0.006929 -0.001140 0.000000 0.005185 0.000000
# 2 -0.006929 0.011907 -0.004458 0.000000 -0.004270 0.000000
# 3 -0.001140 -0.004458 0.009833 0.000000 0.001565 0.000000
# 4 0.000000 0.000000 0.000000 0.058862 -0.000002 -0.002599
# 5 0.005185 -0.004270 0.001565 -0.000002 0.032153 -0.000001
# 6 0.000000 0.000000 0.000000 -0.002599 -0.000001 0.047731
#
#
# Mechanical properties :
#
#
# Convention : Reuss Voigt Hill
#
# Bulk Modulus (GPa) = 51.28772 66.84794 59.06783
# Shear Modulus (GPa) = 23.27199 27.23652 25.25425
#
# Velocity S-wave (km/s) = 3.40631 3.68505 3.54842
# Velocity P-wave (km/s) = 6.40638 7.17184 6.79989
#
# Compressibility (1/GPa) = 0.01949785
#
# Stress axis : x y z
#
# Youngs Moduli (GPa) = 43.83586 83.98549 101.70352
#
# Poissons Ratio (x) = 0.58196 0.11593
# Poissons Ratio (y) = 0.30375 0.45337
# Poissons Ratio (z) = 0.04997 0.37438
#
# Static dielectric constant tensor:
#      x y z
#    x 3.506990 -0.000010 -0.374180 
#    y -0.000010 3.502230 -0.000010 
#    z -0.374180 -0.000010 3.883740 
# 
# 
# High freq. dielectric constant tensor:
#      x y z
#    x 1.774900 0.000000 -0.009080 
#    y 0.000000 1.772390 0.000000 
#    z -0.009080 0.000000 1.809350 
# 
# From -- ./inp_files/209233.got.cif
#   From: 2010.06.25/outbox.cif.g09.slc.cpg/sg12_105_cif.got.tgz:209233.got - 2010.06.28 00:19:55.
