data_PCOD8092267
_publ_section_title
;
Structure prediction by ZEFSAII (Michael W. Deem and Ramdas Pophale) SiO2 
 PCOD8092267
Probable space group: C 2/M
;
_chemical_formula_sum "Si O2"
_cell_formula_units_Z 48
_cell_length_a 9.360419
_cell_length_b 15.336350
_cell_length_c 26.752793
_cell_angle_alpha 90.000000
_cell_angle_beta 37.830937
_cell_angle_gamma 90.000000
_cell_volume 2355.500466
_symmetry_space_group_name_H-M "C 2/M"
_symmetry_group_IT_number 12
_symmetry_cell_setting 'monoclinic'
loop_
_space_group_symop_operation_xyz
x,y,z
-x,y,-z
-x,-y,-z
x,-y,z
1/2+x,1/2+y,z
1/2-x,1/2+y,-z
1/2-x,1/2-y,-z
1/2+x,1/2-y,z
loop_
_atom_site_type_symbol
_atom_site_label
_atom_site_fract_x
_atom_site_fract_y
_atom_site_fract_z
Si Si1 0.561742 0.161124 0.320763
Si Si2 0.627065 0.904009 0.818021
Si Si3 0.068041 0.098332 0.172215
Si Si4 0.711138 0.344274 0.327067
Si Si5 0.332434 0.664130 0.502833
Si Si6 0.756850 0.742263 0.939999
O O1 0.641925 0.254337 0.319235
O O2 0.429482 0.170719 0.304145
O O3 0.388814 0.115345 0.410152
O O4 0.788272 0.102247 0.250817
O O5 0.829459 0.879208 0.801412
O O6 0.726498 0.910219 0.734372
O O7 0.429059 0.831641 0.873239
O O8 0.525576 0.000000 0.858964
O O9 0.177690 0.164935 0.102249
O O10 0.136311 0.000000 0.137066
O O11 0.490726 0.387483 0.418340
O O12 0.500000 0.697274 0.500000
O O13 0.250000 0.750000 0.500000
O O14 0.500000 0.710387 0.000000
O O15 0.750000 0.750000 0.000000
#
# Coordination Sequence:
#
# PCOD8092267 Si02
#       6
#     8   8   8   8   8   8
#     4  10  19  34  60  90 126 169 212 255 307 363
#     4  11  25  44  65  95 130 164 205 258 313 371
#     4  11  25  44  66  94 129 167 206 253 313 377
#     4  10  19  34  60  90 127 168 211 257 307 361
#     4   8  16  30  51  86 123 163 211 256 298 355
#     4  12  26  46  71  94 120 159 205 255 314 376
#
# _framework density 20.377835999999999
#
# number of rings (size 3 to 8) (size 9 to 14) (size 15 to 20)
#    0.000    1.667    3.333    1.000    2.333    3.333 
#    0.000    0.833    0.000    5.000    0.000    0.000 
#    0.000    0.000    0.000    0.000    0.000    0.000 
#
# Total GULP energy -297326.584792 kJ/mol
# GULP energy per Si atom -12388.607700 kJ/mol
# Density = 2.033145 g / cm^3
# Si number density = 20.377836 Si / 1000 Ang^3
#
#
#
# Elastic Constant Matrix: (Units=GPa)
#
#
# Indices 1 2 3 4 5 6 
#
# 1 143.6409 38.8214 69.5018 -0.0046 5.7187 -0.0057
# 2 38.8214 93.8331 44.1984 0.0228 3.3054 0.0069
# 3 69.5018 44.1984 136.5154 0.0444 5.1937 0.0157
# 4 -0.0046 0.0228 0.0444 3.1351 -0.0109 0.2600
# 5 5.7187 3.3054 5.1937 -0.0109 41.0597 0.0009
# 6 -0.0057 0.0069 0.0157 0.2600 0.0009 21.2322
#
#
#
# Elastic Compliance Matrix: (Units=1/GPa)
#
#
# Indices 1 2 3 4 5 6 
#
# 1 0.009549 -0.001947 -0.004207 0.000085 -0.000641 0.000005
# 2 -0.001947 0.012982 -0.003198 -0.000053 -0.000369 -0.000002
# 3 -0.004207 -0.003198 0.010521 -0.000133 -0.000487 -0.000006
# 4 0.000085 -0.000053 -0.000133 0.319297 0.000094 -0.003910
# 5 -0.000641 -0.000369 -0.000487 0.000094 0.024536 -0.000002
# 6 0.000005 -0.000002 -0.000006 -0.003910 -0.000002 0.047146
#
#
# Mechanical properties :
#
#
# Convention : Reuss Voigt Hill
#
# Bulk Modulus (GPa) = 69.69125 75.44805 72.56965
# Shear Modulus (GPa) = 11.17278 27.84991 19.51134
#
# Velocity S-wave (km/s) = 2.34408 3.70087 3.09767
# Velocity P-wave (km/s) = 6.44981 7.44089 6.96301
#
# Compressibility (1/GPa) = 0.01434900
#
# Stress axis : x y z
#
# Youngs Moduli (GPa) = 104.72328 77.03015 95.04831
#
# Poissons Ratio (x) = 0.14994 0.39986
# Poissons Ratio (y) = 0.20385 0.30396
# Poissons Ratio (z) = 0.44057 0.24634
#
# Static dielectric constant tensor:
#      x y z
#    x 3.938550 -0.000060 -0.330530 
#    y -0.000060 3.249480 0.001270 
#    z -0.330530 0.001270 5.953770 
# 
# 
# High freq. dielectric constant tensor:
#      x y z
#    x 1.814100 0.000000 0.002860 
#    y 0.000000 1.764950 0.000000 
#    z 0.002860 0.000000 1.812860 
# 
# From -- ./inp_files/372327.got.cif
#   From: 2010.06.25/outbox.cif.g09.slc.cpg/sg12_187_cif.got.tgz:372327.got - 2010.06.28 00:19:55.
