data_PCOD8092693
_publ_section_title
;
Structure prediction by ZEFSAII (Michael W. Deem and Ramdas Pophale) SiO2 
 PCOD8092693
Probable space group: C 2/M
;
_chemical_formula_sum "Si O2"
_cell_formula_units_Z 48
_cell_length_a 24.968229
_cell_length_b 8.995472
_cell_length_c 12.466478
_cell_angle_alpha 90.000000
_cell_angle_beta 108.579220
_cell_angle_gamma 90.000000
_cell_volume 2654.059624
_symmetry_space_group_name_H-M "C 2/M"
_symmetry_group_IT_number 12
_symmetry_cell_setting 'monoclinic'
loop_
_space_group_symop_operation_xyz
x,y,z
-x,y,-z
-x,-y,-z
x,-y,z
1/2+x,1/2+y,z
1/2-x,1/2+y,-z
1/2-x,1/2-y,-z
1/2+x,1/2-y,z
loop_
_atom_site_type_symbol
_atom_site_label
_atom_site_fract_x
_atom_site_fract_y
_atom_site_fract_z
Si Si1 0.746336 0.825343 0.612072
Si Si2 0.560950 0.325622 0.989908
Si Si3 0.446915 0.171268 0.237500
Si Si4 0.060277 0.176387 0.378494
Si Si5 0.864357 0.175768 0.769134
Si Si6 0.376002 0.829629 0.394635
O O1 0.750000 0.750000 0.500000
O O2 0.799269 0.772115 0.718802
O O3 0.689131 0.778763 0.636196
O O4 0.750145 0.000000 0.594756
O O5 0.566675 0.500000 0.969664
O O6 0.571045 0.238122 0.887281
O O7 0.500000 0.288800 0.000000
O O8 0.608224 0.265548 0.103109
O O9 0.498684 0.257659 0.322786
O O10 0.393407 0.189837 0.282122
O O11 0.463898 0.000000 0.233931
O O12 0.101101 0.237819 0.310804
O O13 0.084345 0.227353 0.507568
O O14 0.055494 0.000000 0.373924
O O15 0.870187 0.000000 0.772112
O O16 0.383525 0.000000 0.437112
#
# Coordination Sequence:
#
# PCOD8092693 Si02
#       6
#     8   8   8   8   8   8
#     4  10  19  35  57  80 107 143 181 221 268 317
#     4  10  19  36  58  79 106 140 182 228 271 317
#     4  11  23  37  52  78 115 149 180 218 273 331
#     4  11  20  34  57  84 110 140 181 226 271 324
#     4   9  18  33  55  82 108 134 174 227 273 312
#     4  10  22  37  53  78 115 150 178 218 274 328
#
# _framework density 18.085502000000002
#
# number of rings (size 3 to 8) (size 9 to 14) (size 15 to 20)
#    0.000    1.833    3.333    1.500    0.000    3.667 
#    0.000    1.667    0.000    0.000    0.000    0.000 
#    0.000    0.000    0.000    0.000    0.000    0.000 
#
# Total GULP energy -297637.815512 kJ/mol
# GULP energy per Si atom -12401.575646 kJ/mol
# Density = 1.804434 g / cm^3
# Si number density = 18.085502 Si / 1000 Ang^3
#
#
#
# Elastic Constant Matrix: (Units=GPa)
#
#
# Indices 1 2 3 4 5 6 
#
# 1 116.6280 37.4805 72.7029 0.0000 3.5628 0.0000
# 2 37.4805 58.1983 47.0316 0.0000 -3.1606 0.0000
# 3 72.7029 47.0316 145.3273 0.0000 6.6388 0.0000
# 4 0.0000 0.0000 0.0000 31.5522 0.0000 -1.8587
# 5 3.5628 -3.1606 6.6388 0.0000 35.8548 0.0000
# 6 0.0000 0.0000 0.0000 -1.8587 0.0000 18.4315
#
#
#
# Elastic Compliance Matrix: (Units=1/GPa)
#
#
# Indices 1 2 3 4 5 6 
#
# 1 0.013225 -0.004385 -0.005163 0.000000 -0.000745 0.000000
# 2 -0.004385 0.025159 -0.006121 0.000000 0.003787 0.000000
# 3 -0.005163 -0.006121 0.011544 0.000000 -0.002164 0.000000
# 4 0.000000 0.000000 0.000000 0.031883 0.000000 0.003215
# 5 -0.000745 0.003787 -0.002164 0.000000 0.028699 0.000000
# 6 0.000000 0.000000 0.000000 0.003215 0.000000 0.054579
#
#
# Mechanical properties :
#
#
# Convention : Reuss Voigt Hill
#
# Bulk Modulus (GPa) = 53.79529 70.50930 62.15230
# Shear Modulus (GPa) = 24.67638 28.03030 26.35334
#
# Velocity S-wave (km/s) = 3.69783 3.94112 3.82141
# Velocity P-wave (km/s) = 6.93119 7.73183 7.34243
#
# Compressibility (1/GPa) = 0.01858899
#
# Stress axis : x y z
#
# Youngs Moduli (GPa) = 75.61695 39.74686 86.62769
#
# Poissons Ratio (x) = 0.17429 0.44723
# Poissons Ratio (y) = 0.33159 0.53028
# Poissons Ratio (z) = 0.39039 0.24331
#
# Static dielectric constant tensor:
#      x y z
#    x 3.581290 0.000000 0.178940 
#    y 0.000000 3.221270 0.000000 
#    z 0.178940 0.000000 3.669900 
# 
# 
# High freq. dielectric constant tensor:
#      x y z
#    x 1.703520 0.000000 0.002760 
#    y 0.000000 1.687220 0.000000 
#    z 0.002760 0.000000 1.700850 
# 
# From -- ./inp_files/172412.got.cif
#   From: 2010.06.25/outbox.cif.g09.slc.cpg/sg12_87_cif.got.tgz:172412.got - 2010.06.28 00:19:55.
