data_PCOD8092178
_publ_section_title
;
Structure prediction by ZEFSAII (Michael W. Deem and Ramdas Pophale) SiO2 
 PCOD8092178
Probable space group: C 2/M
;
_chemical_formula_sum "Si O2"
_cell_formula_units_Z 56
_cell_length_a 28.287684
_cell_length_b 8.651365
_cell_length_c 17.167140
_cell_angle_alpha 90.000000
_cell_angle_beta 136.555671
_cell_angle_gamma 90.000000
_cell_volume 2888.996886
_symmetry_space_group_name_H-M "C 2/M"
_symmetry_group_IT_number 12
_symmetry_cell_setting 'monoclinic'
loop_
_space_group_symop_operation_xyz
x,y,z
-x,y,-z
-x,-y,-z
x,-y,z
1/2+x,1/2+y,z
1/2-x,1/2+y,-z
1/2-x,1/2-y,-z
1/2+x,1/2-y,z
loop_
_atom_site_type_symbol
_atom_site_label
_atom_site_fract_x
_atom_site_fract_y
_atom_site_fract_z
Si Si1 0.380609 0.820302 0.564143
Si Si2 0.313099 0.320208 0.343488
Si Si3 0.543141 0.321422 0.915324
Si Si4 0.331040 0.319262 0.827434
Si Si5 0.524613 0.678223 0.717462
Si Si6 0.428901 0.818964 0.375476
Si Si7 0.398973 0.819881 0.762881
O O1 0.325179 0.723488 0.448569
O O2 0.456701 0.780893 0.625246
O O3 0.372995 0.775521 0.645483
O O4 0.367110 0.000000 0.533353
O O5 0.325252 0.500000 0.344325
O O6 0.236011 0.275462 0.227960
O O7 0.365206 0.224827 0.352826
O O8 0.525744 0.500000 0.911682
O O9 0.558254 0.293114 0.842204
O O10 0.479048 0.221236 0.868171
O O11 0.609611 0.266783 0.042109
O O12 0.315159 0.500000 0.814671
O O13 0.353110 0.279471 0.766230
O O14 0.504081 0.500000 0.682163
O O15 0.578597 0.731358 0.716337
O O16 0.500000 0.764925 0.500000
O O17 0.427961 0.000000 0.358716
O O18 0.388944 0.000000 0.768554
#
# Coordination Sequence:
#
# PCOD8092178 Si02
#       7
#     8   8   8   8   8   8   8
#     4  10  20  36  56  83 117 151 186 230 286 340
#     4  12  25  39  58  84 115 149 191 237 284 337
#     4   9  20  38  60  86 115 151 192 235 281 332
#     4  11  23  40  59  80 115 157 193 232 284 339
#     4  10  19  34  59  89 116 143 187 238 280 326
#     4  11  22  37  60  87 117 149 185 227 280 343
#     4  10  21  36  59  88 116 148 192 239 281 331
#
# _framework density 19.383890000000001
#
# number of rings (size 3 to 8) (size 9 to 14) (size 15 to 20)
#    0.000    1.571    1.429    3.857    0.000    6.286 
#    0.000    0.714    0.000    0.000    0.000    0.000 
#    0.000    0.000    0.000    0.000    0.000    0.000 
#
# Total GULP energy -347362.539667 kJ/mol
# GULP energy per Si atom -12405.804988 kJ/mol
# Density = 1.933977 g / cm^3
# Si number density = 19.383890 Si / 1000 Ang^3
#
#
#
# Elastic Constant Matrix: (Units=GPa)
#
#
# Indices 1 2 3 4 5 6 
#
# 1 98.5294 14.4644 30.8689 0.0000 -2.1046 0.0000
# 2 14.4644 48.2413 12.1583 0.0000 -3.3686 0.0000
# 3 30.8689 12.1583 56.2576 0.0000 6.5087 0.0000
# 4 0.0000 0.0000 0.0000 28.7093 0.0000 0.8222
# 5 -2.1046 -3.3686 6.5087 0.0000 22.8219 0.0000
# 6 0.0000 0.0000 0.0000 0.8222 0.0000 36.5126
#
#
#
# Elastic Compliance Matrix: (Units=1/GPa)
#
#
# Indices 1 2 3 4 5 6 
#
# 1 0.012632 -0.001860 -0.006858 0.000000 0.002846 0.000000
# 2 -0.001860 0.022705 -0.004399 0.000000 0.004435 0.000000
# 3 -0.006858 -0.004399 0.023410 0.000000 -0.007958 0.000000
# 4 0.000000 0.000000 0.000000 0.034854 0.000000 -0.000785
# 5 0.002846 0.004435 -0.007958 0.000000 0.047004 0.000000
# 6 0.000000 0.000000 0.000000 -0.000785 0.000000 0.027405
#
#
# Mechanical properties :
#
#
# Convention : Reuss Voigt Hill
#
# Bulk Modulus (GPa) = 30.75856 35.33462 33.04659
# Shear Modulus (GPa) = 24.38019 27.31122 25.84570
#
# Velocity S-wave (km/s) = 3.55033 3.75769 3.65548
# Velocity P-wave (km/s) = 5.71918 6.09060 5.90781
#
# Compressibility (1/GPa) = 0.03251127
#
# Stress axis : x y z
#
# Youngs Moduli (GPa) = 79.16489 44.04260 42.71645
#
# Poissons Ratio (x) = 0.08193 0.29297
# Poissons Ratio (y) = 0.14726 0.18793
# Poissons Ratio (z) = 0.54295 0.19376
#
# Static dielectric constant tensor:
#      x y z
#    x 3.499940 0.000000 -0.185860 
#    y 0.000000 3.526400 0.000000 
#    z -0.185860 0.000000 3.570540 
# 
# 
# High freq. dielectric constant tensor:
#      x y z
#    x 1.753150 0.000000 -0.013750 
#    y 0.000000 1.763880 0.000000 
#    z -0.013750 0.000000 1.744980 
# 
# From -- ./inp_files/288232.got.cif
#   From: 2010.06.25/outbox.cif.g09.slc.cpg/sg12_145_cif.got.tgz:288232.got - 2010.06.28 00:19:55.
