data_PCOD8092935
_publ_section_title
;
Structure prediction by ZEFSAII (Michael W. Deem and Ramdas Pophale) SiO2 
 PCOD8092935
Probable space group: C 2/M
;
_chemical_formula_sum "Si O2"
_cell_formula_units_Z 64
_cell_length_a 24.787130
_cell_length_b 8.870319
_cell_length_c 15.103507
_cell_angle_alpha 90.000000
_cell_angle_beta 86.779597
_cell_angle_gamma 90.000000
_cell_volume 3315.560173
_symmetry_space_group_name_H-M "C 2/M"
_symmetry_group_IT_number 12
_symmetry_cell_setting 'monoclinic'
loop_
_space_group_symop_operation_xyz
x,y,z
-x,y,-z
-x,-y,-z
x,-y,z
1/2+x,1/2+y,z
1/2-x,1/2+y,-z
1/2-x,1/2-y,-z
1/2+x,1/2-y,z
loop_
_atom_site_type_symbol
_atom_site_label
_atom_site_fract_x
_atom_site_fract_y
_atom_site_fract_z
Si Si1 0.805929 0.163669 0.407157
Si Si2 0.816756 0.337043 0.568028
Si Si3 0.557953 0.677083 0.171930
Si Si4 0.329651 0.822749 0.230705
Si Si5 0.251379 0.320322 0.098543
Si Si6 0.065043 0.175646 0.818577
Si Si7 0.063208 0.665596 0.994708
Si Si8 0.844400 0.677930 0.759539
O O1 0.840343 0.231745 0.486912
O O2 0.745807 0.137324 0.446936
O O3 0.801340 0.274386 0.323963
O O4 0.831070 0.000000 0.378489
O O5 0.846365 0.500000 0.560057
O O6 0.822420 0.270027 0.666109
O O7 0.560143 0.500000 0.153964
O O8 0.496271 0.724169 0.200833
O O9 0.599125 0.730687 0.243004
O O10 0.581700 0.763726 0.084877
O O11 0.303080 0.741817 0.147811
O O12 0.392003 0.771978 0.240969
O O13 0.325286 0.000000 0.217048
O O14 0.256555 0.500000 0.090383
O O15 0.197771 0.274222 0.159359
O O16 0.250000 0.250000 0.000000
O O17 0.079184 0.215710 0.918509
O O18 0.074173 0.000000 0.801404
O O19 0.090932 0.500000 0.978529
O O20 0.000000 0.641974 0.000000
O O21 0.855047 0.500000 0.763628
#
# Coordination Sequence:
#
# PCOD8092935 Si02
#       8
#     8   8   8   8   8   8   8   8
#     4  10  19  35  58  85 115 145 181 231 283 335
#     4   9  18  35  57  84 113 145 183 227 279 335
#     4  10  21  35  54  80 109 145 190 235 282 331
#     4  12  24  38  59  85 114 151 192 235 283 341
#     4  11  24  42  58  81 117 159 197 233 280 337
#     4  10  21  37  55  77 108 146 189 238 284 331
#     4   9  17  31  51  74 101 136 183 233 277 323
#     4  10  21  38  59  81 115 153 189 231 279 337
#
# _framework density 19.302923
#
# number of rings (size 3 to 8) (size 9 to 14) (size 15 to 20)
#    0.000    1.875    1.250    3.000    1.750    5.000 
#    0.000    0.000    0.000    0.750    0.000    5.250 
#    0.000    0.000    0.000    0.000    0.000    0.000 
#
# Total GULP energy -396563.279104 kJ/mol
# GULP energy per Si atom -12392.602472 kJ/mol
# Density = 1.925899 g / cm^3
# Si number density = 19.302923 Si / 1000 Ang^3
#
#
#
# Elastic Constant Matrix: (Units=GPa)
#
#
# Indices 1 2 3 4 5 6 
#
# 1 79.7504 38.0029 28.3978 0.0000 9.1915 0.0000
# 2 38.0029 101.5604 45.4932 0.0000 6.0525 0.0000
# 3 28.3978 45.4932 119.5411 0.0000 16.1292 0.0000
# 4 0.0000 0.0000 0.0000 31.2413 0.0000 -0.1471
# 5 9.1915 6.0525 16.1292 0.0000 18.3656 0.0000
# 6 0.0000 0.0000 0.0000 -0.1471 0.0000 26.1056
#
#
#
# Elastic Compliance Matrix: (Units=1/GPa)
#
#
# Indices 1 2 3 4 5 6 
#
# 1 0.016017 -0.005176 -0.001116 0.000000 -0.005330 0.000000
# 2 -0.005176 0.013542 -0.004165 0.000000 0.001785 0.000000
# 3 -0.001116 -0.004165 0.011293 0.000000 -0.007987 0.000000
# 4 0.000000 0.000000 0.000000 0.032010 0.000000 0.000180
# 5 -0.005330 0.001785 -0.007987 0.000000 0.063543 0.000000
# 6 0.000000 0.000000 0.000000 0.000180 0.000000 0.038307
#
#
# Mechanical properties :
#
#
# Convention : Reuss Voigt Hill
#
# Bulk Modulus (GPa) = 50.15349 58.29330 54.22339
# Shear Modulus (GPa) = 24.71905 27.73970 26.22937
#
# Velocity S-wave (km/s) = 3.58241 3.79499 3.69023
# Velocity P-wave (km/s) = 6.56889 7.03330 6.80506
#
# Compressibility (1/GPa) = 0.01993879
#
# Stress axis : x y z
#
# Youngs Moduli (GPa) = 62.43241 73.84177 88.54917
#
# Poissons Ratio (x) = 0.38220 0.09883
# Poissons Ratio (y) = 0.32315 0.36882
# Poissons Ratio (z) = 0.06968 0.30756
#
# Static dielectric constant tensor:
#      x y z
#    x 3.420490 0.000000 -0.005710 
#    y 0.000000 3.793510 0.000000 
#    z -0.005710 0.000000 3.477330 
# 
# 
# High freq. dielectric constant tensor:
#      x y z
#    x 1.726080 0.000000 0.004570 
#    y 0.000000 1.761470 0.000000 
#    z 0.004570 0.000000 1.740520 
# 
# From -- ./inp_files/238673.got.cif
#   From: 2010.06.25/outbox.cif.g09.slc.cpg/sg12_120_cif.got.tgz:238673.got - 2010.06.28 00:19:55.
