data_PCOD8092523
_publ_section_title
;
Structure prediction by ZEFSAII (Michael W. Deem and Ramdas Pophale) SiO2 
 PCOD8092523
Probable space group: C 2/M
;
_chemical_formula_sum "Si O2"
_cell_formula_units_Z 48
_cell_length_a 30.589539
_cell_length_b 8.897585
_cell_length_c 9.855928
_cell_angle_alpha 90.000000
_cell_angle_beta 93.777493
_cell_angle_gamma 90.000000
_cell_volume 2676.689751
_symmetry_space_group_name_H-M "C 2/M"
_symmetry_group_IT_number 12
_symmetry_cell_setting 'monoclinic'
loop_
_space_group_symop_operation_xyz
x,y,z
-x,y,-z
-x,-y,-z
x,-y,z
1/2+x,1/2+y,z
1/2-x,1/2+y,-z
1/2-x,1/2-y,-z
1/2+x,1/2-y,z
loop_
_atom_site_type_symbol
_atom_site_label
_atom_site_fract_x
_atom_site_fract_y
_atom_site_fract_z
Si Si1 0.104722 0.679175 0.885544
Si Si2 0.717605 0.165199 0.174063
Si Si3 0.623543 0.821867 0.190281
Si Si4 0.299583 0.835294 0.147244
Si Si5 0.947490 0.320150 0.607310
Si Si6 0.960535 0.820701 0.330027
O O1 0.097835 0.500000 0.867269
O O2 0.151311 0.731534 0.830284
O O3 0.066646 0.772703 0.806593
O O4 0.102988 0.728942 0.042651
O O5 0.672969 0.244537 0.221487
O O6 0.762647 0.247191 0.224799
O O7 0.721988 0.000000 0.237817
O O8 0.713495 0.157312 0.011897
O O9 0.592614 0.769468 0.305851
O O10 0.628808 0.000000 0.185550
O O11 0.300040 0.000000 0.211631
O O12 0.952764 0.500000 0.601306
O O13 0.937823 0.252826 0.457305
O O14 0.991086 0.246776 0.677669
O O15 0.962756 0.000000 0.345293
#
# Coordination Sequence:
#
# PCOD8092523 Si02
#       6
#     8   8   8   8   8   8
#     4   9  17  32  51  72  98 127 160 196 233 276
#     4   8  13  24  42  66  96 124 150 186 231 274
#     4   8  16  30  51  76  97 121 159 201 234 274
#     4   8  14  24  41  66  95 125 155 186 223 273
#     4  10  19  35  56  72  89 123 165 196 233 286
#     4  11  22  35  49  70  98 125 157 197 241 285
#
# _framework density 17.932596
#
# number of rings (size 3 to 8) (size 9 to 14) (size 15 to 20)
#    0.000    3.000    0.000    5.000    0.000    1.333 
#    0.000    9.167    0.000    1.000    0.000    0.000 
#    0.000    0.000    0.000    0.000    0.000    0.000 
#
# Total GULP energy -297381.998865 kJ/mol
# GULP energy per Si atom -12390.916619 kJ/mol
# Density = 1.789178 g / cm^3
# Si number density = 17.932596 Si / 1000 Ang^3
#
#
#
# Elastic Constant Matrix: (Units=GPa)
#
#
# Indices 1 2 3 4 5 6 
#
# 1 81.3490 27.8057 29.9318 0.0000 -37.0249 0.0000
# 2 27.8057 70.9642 15.9224 0.0000 -12.1634 0.0000
# 3 29.9318 15.9224 41.2260 0.0000 -23.5523 0.0000
# 4 0.0000 0.0000 0.0000 15.2733 0.0000 3.1330
# 5 -37.0249 -12.1634 -23.5523 0.0000 25.5894 0.0000
# 6 0.0000 0.0000 0.0000 3.1330 0.0000 27.9490
#
#
#
# Elastic Compliance Matrix: (Units=1/GPa)
#
#
# Indices 1 2 3 4 5 6 
#
# 1 0.040101 -0.007019 0.010201 0.000000 0.064074 0.000000
# 2 -0.007019 0.016844 -0.005562 0.000000 -0.007268 0.000000
# 3 0.010201 -0.005562 0.054662 0.000000 0.062427 0.000000
# 4 0.000000 0.000000 0.000000 0.067015 0.000000 -0.007512
# 5 0.064074 -0.007268 0.062427 0.000000 0.185788 0.000000
# 6 0.000000 0.000000 0.000000 -0.007512 0.000000 0.036622
#
#
# Mechanical properties :
#
#
# Convention : Reuss Voigt Hill
#
# Bulk Modulus (GPa) = 9.35910 37.87324 23.61617
# Shear Modulus (GPa) = 11.32742 21.75429 16.54085
#
# Velocity S-wave (km/s) = 2.51602 3.48676 3.04038
# Velocity P-wave (km/s) = 3.69741 6.11356 5.05205
#
# Compressibility (1/GPa) = 0.10684794
#
# Stress axis : x y z
#
# Youngs Moduli (GPa) = 24.93718 59.36836 18.29409
#
# Poissons Ratio (x) = 0.41671 -0.18662
# Poissons Ratio (y) = 0.17504 0.10175
# Poissons Ratio (z) = -0.25439 0.33019
#
# Static dielectric constant tensor:
#      x y z
#    x 3.641930 0.000000 -0.149840 
#    y 0.000000 3.282770 0.000000 
#    z -0.149840 0.000000 3.014290 
# 
# 
# High freq. dielectric constant tensor:
#      x y z
#    x 1.709370 0.000000 -0.006960 
#    y 0.000000 1.674810 0.000000 
#    z -0.006960 0.000000 1.653130 
# 
# From -- ./inp_files/185505.got.cif
#   From: 2010.06.25/outbox.cif.g09.slc.cpg/sg12_93_cif.got.tgz:185505.got - 2010.06.28 00:19:55.
