data_PCOD8092322
_publ_section_title
;
Structure prediction by ZEFSAII (Michael W. Deem and Ramdas Pophale) SiO2 
 PCOD8092322
Probable space group: C 2/M
;
_chemical_formula_sum "Si O2"
_cell_formula_units_Z 44
_cell_length_a 32.573028
_cell_length_b 10.666918
_cell_length_c 20.459990
_cell_angle_alpha 90.000000
_cell_angle_beta 162.208699
_cell_angle_gamma 90.000000
_cell_volume 2172.130185
_symmetry_space_group_name_H-M "C 2/M"
_symmetry_group_IT_number 12
_symmetry_cell_setting 'monoclinic'
loop_
_space_group_symop_operation_xyz
x,y,z
-x,y,-z
-x,-y,-z
x,-y,z
1/2+x,1/2+y,z
1/2-x,1/2+y,-z
1/2-x,1/2-y,-z
1/2+x,1/2-y,z
loop_
_atom_site_type_symbol
_atom_site_label
_atom_site_fract_x
_atom_site_fract_y
_atom_site_fract_z
Si Si1 0.964778 0.274405 0.789369
Si Si2 0.310993 0.363768 0.663765
Si Si3 0.210240 0.750479 0.233084
Si Si4 0.007968 0.230053 0.708767
Si Si5 0.450604 0.000000 0.286604
Si Si6 0.245711 0.500000 0.775718
Si Si7 0.813660 0.000000 0.029277
O O1 0.844538 0.372456 0.595999
O O2 0.908580 0.166729 0.752088
O O3 0.006689 0.212081 0.784568
O O4 0.096890 0.335888 0.025322
O O5 0.348821 0.500000 0.748228
O O6 0.326657 0.264723 0.746307
O O7 0.361354 0.698176 0.455818
O O8 0.197401 0.881564 0.176280
O O9 0.053130 0.373574 0.763005
O O10 0.107537 0.126340 0.829437
O O11 0.584135 0.000000 0.532148
O O12 0.326811 0.000000 0.147463
O O13 0.293916 0.500000 0.922520
#
# Coordination Sequence:
#
# PCOD8092322 Si02
#       7
#     8   8   8   8   4   4   4
#     4  10  21  35  55  84 117 153 198 241 289 344
#     4  10  21  34  57  84 114 155 201 243 287 347
#     4  10  19  37  56  86 121 154 198 240 291 353
#     4  10  23  38  63  90 119 158 197 243 304 357
#     4  10  23  42  63  87 122 156 197 245 310 364
#     4  10  19  34  62  92 110 157 201 248 293 357
#     4  12  21  40  64  94 119 149 198 261 297 351
#
# _framework density 20.256613000000002
#
# number of rings (size 3 to 8) (size 9 to 14) (size 15 to 20)
#    0.000    1.818    2.727    1.364    6.364    0.727 
#    1.636    0.000    0.000    4.364    0.000    0.000 
#    0.000    0.000    0.000    0.000    0.000    0.000 
#
# Total GULP energy -272639.325122 kJ/mol
# GULP energy per Si atom -12392.696596 kJ/mol
# Density = 2.021051 g / cm^3
# Si number density = 20.256613 Si / 1000 Ang^3
#
#
#
# Elastic Constant Matrix: (Units=GPa)
#
#
# Indices 1 2 3 4 5 6 
#
# 1 73.6009 15.1705 25.4044 0.0000 3.0485 0.0000
# 2 15.1705 69.5551 26.7975 0.0000 6.9408 0.0000
# 3 25.4044 26.7975 107.9581 0.0000 -16.8089 0.0000
# 4 0.0000 0.0000 0.0000 10.1821 0.0000 -6.6475
# 5 3.0485 6.9408 -16.8089 0.0000 30.1418 0.0000
# 6 0.0000 0.0000 0.0000 -6.6475 0.0000 13.1311
#
#
#
# Elastic Compliance Matrix: (Units=1/GPa)
#
#
# Indices 1 2 3 4 5 6 
#
# 1 0.015333 -0.001585 -0.003723 0.000000 -0.003262 0.000000
# 2 -0.001585 0.017282 -0.004941 0.000000 -0.006575 0.000000
# 3 -0.003723 -0.004941 0.012704 0.000000 0.008599 0.000000
# 4 0.000000 0.000000 0.000000 0.146694 0.000000 0.074263
# 5 -0.003262 -0.006575 0.008599 0.000000 0.039815 0.000000
# 6 0.000000 0.000000 0.000000 0.074263 0.000000 0.113750
#
#
# Mechanical properties :
#
#
# Convention : Reuss Voigt Hill
#
# Bulk Modulus (GPa) = 40.28379 42.87322 41.57850
# Shear Modulus (GPa) = 13.35648 22.94044 18.14846
#
# Velocity S-wave (km/s) = 2.57059 3.36890 2.99645
# Velocity P-wave (km/s) = 5.36102 6.02857 5.70457
#
# Compressibility (1/GPa) = 0.02482388
#
# Stress axis : x y z
#
# Youngs Moduli (GPa) = 65.21670 57.86290 78.71490
#
# Poissons Ratio (x) = 0.09169 0.29304
# Poissons Ratio (y) = 0.10334 0.38890
# Poissons Ratio (z) = 0.24279 0.28588
#
# Static dielectric constant tensor:
#      x y z
#    x 3.577560 0.000000 -0.013230 
#    y 0.000000 3.344640 0.000000 
#    z -0.013230 0.000000 4.136560 
# 
# 
# High freq. dielectric constant tensor:
#      x y z
#    x 1.786310 0.000000 0.004660 
#    y 0.000000 1.755750 0.000000 
#    z 0.004660 0.000000 1.814520 
# 
# From -- ./inp_files/212002.got.cif
#   From: 2010.06.25/outbox.cif.g09.slc.cpg/sg12_107_cif.got.tgz:212002.got - 2010.06.28 00:19:55.
