data_PCOD8092358
_publ_section_title
;
Structure prediction by ZEFSAII (Michael W. Deem and Ramdas Pophale) SiO2 
 PCOD8092358
Probable space group: C 2/M
;
_chemical_formula_sum "Si O2"
_cell_formula_units_Z 56
_cell_length_a 14.179937
_cell_length_b 29.868649
_cell_length_c 13.972415
_cell_angle_alpha 90.000000
_cell_angle_beta 149.020538
_cell_angle_gamma 90.000000
_cell_volume 3046.081370
_symmetry_space_group_name_H-M "C 2/M"
_symmetry_group_IT_number 12
_symmetry_cell_setting 'monoclinic'
loop_
_space_group_symop_operation_xyz
x,y,z
-x,y,-z
-x,-y,-z
x,-y,z
1/2+x,1/2+y,z
1/2-x,1/2+y,-z
1/2-x,1/2-y,-z
1/2+x,1/2-y,z
loop_
_atom_site_type_symbol
_atom_site_label
_atom_site_fract_x
_atom_site_fract_y
_atom_site_fract_z
Si Si1 0.045493 0.252817 0.281456
Si Si2 0.323278 0.876451 0.575594
Si Si3 0.992754 0.447526 0.382143
Si Si4 0.457212 0.166374 0.073374
Si Si5 0.660677 0.611080 0.069867
Si Si6 0.941309 0.686662 0.345105
Si Si7 0.443070 0.344930 0.207615
O O1 0.250000 0.250000 0.500000
O O2 0.909950 0.270633 0.248639
O O3 0.025951 0.285469 0.172835
O O4 0.982008 0.203735 0.196212
O O5 0.349903 0.924585 0.546899
O O6 0.441425 0.872266 0.776012
O O7 0.392390 0.840467 0.558110
O O8 0.112369 0.864524 0.417271
O O9 0.014677 0.500000 0.387346
O O10 0.796262 0.430719 0.174727
O O11 0.000000 0.433208 0.500000
O O12 0.500000 0.161740 0.000000
O O13 0.240165 0.158403 0.890008
O O14 0.762697 0.655591 0.197173
O O15 0.500000 0.596391 0.000000
O O16 0.575942 0.619841 0.893514
O O17 0.000000 0.704077 0.500000
#
# Coordination Sequence:
#
# PCOD8092358 Si02
#       7
#     8   8   8   8   8   8   8
#     4  11  22  39  54  80 121 155 205 262 296 338
#     4  10  20  41  59  83 119 154 195 240 302 361
#     4  10  20  38  64  94 128 153 185 247 305 372
#     4  11  24  40  59  86 116 159 213 253 294 344
#     4  11  21  33  58  89 118 162 195 230 298 376
#     4  10  19  35  52  77 114 154 200 242 286 345
#     4  12  21  39  60  79 121 162 200 251 298 354
#
# _framework density 18.384276
#
# number of rings (size 3 to 8) (size 9 to 14) (size 15 to 20)
#    0.000    1.286    7.143    3.857    0.000    2.571 
#    0.000    0.714    0.000    0.429    0.000    1.000 
#    0.000    0.000    0.000    0.000    0.000    0.000 
#
# Total GULP energy -347090.909191 kJ/mol
# GULP energy per Si atom -12396.103900 kJ/mol
# Density = 1.834243 g / cm^3
# Si number density = 18.384276 Si / 1000 Ang^3
#
#
#
# Elastic Constant Matrix: (Units=GPa)
#
#
# Indices 1 2 3 4 5 6 
#
# 1 107.6944 35.6906 47.6077 0.0001 -6.9080 0.0001
# 2 35.6906 82.9241 35.2530 0.0000 -4.6487 0.0000
# 3 47.6077 35.2530 103.0718 0.0002 13.3210 0.0002
# 4 0.0001 0.0000 0.0002 14.5535 0.0002 -10.0815
# 5 -6.9080 -4.6487 13.3210 0.0002 40.5719 0.0002
# 6 0.0001 0.0000 0.0002 -10.0815 0.0002 9.6894
#
#
#
# Elastic Compliance Matrix: (Units=1/GPa)
#
#
# Indices 1 2 3 4 5 6 
#
# 1 0.012913 -0.003067 -0.005383 -0.000001 0.003615 -0.000001
# 2 -0.003067 0.015287 -0.004147 0.000000 0.002591 0.000000
# 3 -0.005383 -0.004147 0.014397 0.000000 -0.006119 -0.000001
# 4 -0.000001 0.000000 0.000000 0.246057 -0.000003 0.256015
# 5 0.003615 0.002591 -0.006119 -0.000003 0.027569 -0.000003
# 6 -0.000001 0.000000 -0.000001 0.256015 -0.000003 0.369581
#
#
# Mechanical properties :
#
#
# Convention : Reuss Voigt Hill
#
# Bulk Modulus (GPa) = 57.45508 58.97699 58.21603
# Shear Modulus (GPa) = 6.97545 24.63889 15.80717
#
# Velocity S-wave (km/s) = 1.95000 3.66487 2.93545
# Velocity P-wave (km/s) = 6.03242 7.07518 6.57450
#
# Compressibility (1/GPa) = 0.01740490
#
# Stress axis : x y z
#
# Youngs Moduli (GPa) = 77.43968 65.41312 69.45741
#
# Poissons Ratio (x) = 0.20062 0.37387
# Poissons Ratio (y) = 0.23750 0.28804
# Poissons Ratio (z) = 0.41683 0.27126
#
# Static dielectric constant tensor:
#      x y z
#    x 3.349350 0.000000 0.149210 
#    y 0.000000 3.325390 0.000000 
#    z 0.149210 0.000000 3.598480 
# 
# 
# High freq. dielectric constant tensor:
#      x y z
#    x 1.692650 0.000000 0.007170 
#    y 0.000000 1.684200 0.000000 
#    z 0.007170 0.000000 1.727670 
# 
# From -- ./inp_files/219378.got.cif
#   From: 2010.06.25/outbox.cif.g09.slc.cpg/sg12_110_cif.got.tgz:219378.got - 2010.06.28 00:19:55.
