data_PCOD8092097
_publ_section_title
;
Structure prediction by ZEFSAII (Michael W. Deem and Ramdas Pophale) SiO2 
 PCOD8092097
Probable space group: C 2/M
;
_chemical_formula_sum "Si O2"
_cell_formula_units_Z 64
_cell_length_a 20.568152
_cell_length_b 8.955177
_cell_length_c 19.066830
_cell_angle_alpha 90.000000
_cell_angle_beta 89.758967
_cell_angle_gamma 90.000000
_cell_volume 3511.915831
_symmetry_space_group_name_H-M "C 2/M"
_symmetry_group_IT_number 12
_symmetry_cell_setting 'monoclinic'
loop_
_space_group_symop_operation_xyz
x,y,z
-x,y,-z
-x,-y,-z
x,-y,z
1/2+x,1/2+y,z
1/2-x,1/2+y,-z
1/2-x,1/2-y,-z
1/2+x,1/2-y,z
loop_
_atom_site_type_symbol
_atom_site_label
_atom_site_fract_x
_atom_site_fract_y
_atom_site_fract_z
Si Si1 0.313114 0.825937 0.968664
Si Si2 0.641034 0.323444 0.325091
Si Si3 0.133791 0.325302 0.180424
Si Si4 0.566873 0.328764 0.963005
Si Si5 0.809903 0.322018 0.539346
Si Si6 0.499728 0.670646 0.824523
Si Si7 0.061759 0.323939 0.541167
Si Si8 0.991091 0.829007 0.331520
O O1 0.320184 0.788069 0.886050
O O2 0.305543 0.000000 0.980230
O O3 0.250000 0.750000 0.000000
O O4 0.375816 0.775003 0.011407
O O5 0.652790 0.500000 0.327821
O O6 0.660218 0.264412 0.247780
O O7 0.686238 0.242055 0.381917
O O8 0.566198 0.280549 0.340989
O O9 0.133709 0.500000 0.198246
O O10 0.061018 0.277173 0.159658
O O11 0.584304 0.500000 0.980670
O O12 0.557193 0.303596 0.879870
O O13 0.500000 0.281494 0.000000
O O14 0.803084 0.500000 0.542206
O O15 0.750000 0.250000 0.500000
O O16 0.873034 0.267918 0.496179
O O17 0.473356 0.500000 0.827903
O O18 0.530152 0.702594 0.748207
O O19 0.059329 0.500000 0.542204
O O20 0.000000 0.256967 0.500000
O O21 0.057564 0.266676 0.620709
O O22 0.982086 0.000000 0.352736
#
# Coordination Sequence:
#
# PCOD8092097 Si02
#       8
#     8   8   8   8   8   8   8   8
#     4  11  24  39  57  83 116 152 194 238 284 339
#     4  10  20  35  57  84 112 145 185 229 279 338
#     4  10  20  34  55  83 112 146 187 233 280 332
#     4  10  19  34  59  84 112 149 187 231 286 339
#     4  11  23  39  58  82 114 150 189 232 281 334
#     4   9  18  33  53  83 115 146 184 229 282 336
#     4  10  20  35  55  80 110 142 180 227 275 324
#     4   9  18  31  52  82 113 143 182 229 275 328
#
# _framework density 18.223672000000001
#
# number of rings (size 3 to 8) (size 9 to 14) (size 15 to 20)
#    0.000    2.000    2.500    2.250    0.000    5.500 
#    0.000    1.250    0.000    4.500    0.000    0.000 
#    0.000    0.000    0.000    0.000    0.000    0.000 
#
# Total GULP energy -396845.998126 kJ/mol
# GULP energy per Si atom -12401.437441 kJ/mol
# Density = 1.818219 g / cm^3
# Si number density = 18.223672 Si / 1000 Ang^3
#
#
#
# Elastic Constant Matrix: (Units=GPa)
#
#
# Indices 1 2 3 4 5 6 
#
# 1 102.4580 50.2341 69.6630 0.0000 0.4379 0.0000
# 2 50.2341 72.3286 58.8786 0.0000 -2.6739 0.0000
# 3 69.6630 58.8786 145.8981 0.0000 3.0964 0.0000
# 4 0.0000 0.0000 0.0000 34.6888 0.0000 0.2478
# 5 0.4379 -2.6739 3.0964 0.0000 28.1253 0.0000
# 6 0.0000 0.0000 0.0000 0.2478 0.0000 30.0382
#
#
#
# Elastic Compliance Matrix: (Units=1/GPa)
#
#
# Indices 1 2 3 4 5 6 
#
# 1 0.016920 -0.007743 -0.004945 0.000000 -0.000455 0.000000
# 2 -0.007743 0.024369 -0.006203 0.000000 0.003120 0.000000
# 3 -0.004945 -0.006203 0.011757 0.000000 -0.001807 0.000000
# 4 0.000000 0.000000 0.000000 0.028829 0.000000 -0.000238
# 5 -0.000455 0.003120 -0.001807 0.000000 0.036058 0.000000
# 6 0.000000 0.000000 0.000000 -0.000238 0.000000 0.033293
#
#
# Mechanical properties :
#
#
# Convention : Reuss Voigt Hill
#
# Bulk Modulus (GPa) = 65.51510 75.35957 70.43733
# Shear Modulus (GPa) = 25.76040 28.03106 26.89573
#
# Velocity S-wave (km/s) = 3.76382 3.92620 3.84587
# Velocity P-wave (km/s) = 7.41061 7.87374 7.64568
#
# Compressibility (1/GPa) = 0.01526366
#
# Stress axis : x y z
#
# Youngs Moduli (GPa) = 59.10006 41.03603 85.05804
#
# Poissons Ratio (x) = 0.31776 0.42057
# Poissons Ratio (y) = 0.45764 0.52763
# Poissons Ratio (z) = 0.29222 0.25455
#
# Static dielectric constant tensor:
#      x y z
#    x 3.391350 0.000000 0.138980 
#    y 0.000000 3.346590 0.000000 
#    z 0.138980 0.000000 3.681270 
# 
# 
# High freq. dielectric constant tensor:
#      x y z
#    x 1.674360 0.000000 0.001170 
#    y 0.000000 1.709930 0.000000 
#    z 0.001170 0.000000 1.723860 
# 
# From -- ./inp_files/281417.got.cif
#   From: 2010.06.25/outbox.cif.g09.slc.cpg/sg12_141_cif.got.tgz:281417.got - 2010.06.28 00:19:55.
