data_PCOD8092171
_publ_section_title
;
Structure prediction by ZEFSAII (Michael W. Deem and Ramdas Pophale) SiO2 
 PCOD8092171
Probable space group: C 2/M
;
_chemical_formula_sum "Si O2"
_cell_formula_units_Z 64
_cell_length_a 30.480360
_cell_length_b 9.008669
_cell_length_c 14.134530
_cell_angle_alpha 90.000000
_cell_angle_beta 124.065925
_cell_angle_gamma 90.000000
_cell_volume 3215.132204
_symmetry_space_group_name_H-M "C 2/M"
_symmetry_group_IT_number 12
_symmetry_cell_setting 'monoclinic'
loop_
_space_group_symop_operation_xyz
x,y,z
-x,y,-z
-x,-y,-z
x,-y,z
1/2+x,1/2+y,z
1/2-x,1/2+y,-z
1/2-x,1/2-y,-z
1/2+x,1/2-y,z
loop_
_atom_site_type_symbol
_atom_site_label
_atom_site_fract_x
_atom_site_fract_y
_atom_site_fract_z
Si Si1 0.354968 0.173039 0.386417
Si Si2 0.206303 0.170376 0.008077
Si Si3 0.596970 0.676088 0.377792
Si Si4 0.731316 0.673308 0.245049
Si Si5 0.852921 0.324190 0.738248
Si Si6 0.523210 0.328404 0.792330
Si Si7 0.611124 0.668842 0.758266
Si Si8 0.947370 0.324791 0.987677
O O1 0.387086 0.270499 0.499395
O O2 0.293238 0.210384 0.320915
O O3 0.375675 0.216085 0.307795
O O4 0.366155 0.000000 0.416765
O O5 0.149167 0.196363 0.893838
O O6 0.223415 0.000000 0.031569
O O7 0.250000 0.250000 0.000000
O O8 0.206652 0.230259 0.115972
O O9 0.602402 0.500000 0.377852
O O10 0.635438 0.752464 0.348929
O O11 0.536831 0.729293 0.287285
O O12 0.720347 0.500000 0.248931
O O13 0.703950 0.766298 0.295562
O O14 0.851618 0.500000 0.724189
O O15 0.897114 0.270978 0.866521
O O16 0.524871 0.500000 0.822492
O O17 0.551895 0.302509 0.725859
O O18 0.555486 0.241311 0.911275
O O19 0.617475 0.500000 0.728205
O O20 0.948515 0.500000 0.997900
O O21 0.000000 0.264337 0.000000
#
# Coordination Sequence:
#
# PCOD8092171 Si02
#       8
#     8   8   8   8   8   8   8   8
#     4  11  24  42  63  86 116 156 201 248 297 350
#     4  10  19  34  59  88 121 155 190 237 290 347
#     4  11  24  42  63  86 116 156 201 249 296 346
#     4  10  22  40  61  88 121 156 196 243 293 350
#     4  11  23  39  62  91 121 156 196 240 294 353
#     4  10  22  39  62  90 119 157 200 241 290 351
#     4  10  21  38  61  89 121 155 194 243 295 348
#     4  10  20  36  59  89 126 158 188 237 296 352
#
# _framework density 19.905868999999999
#
# number of rings (size 3 to 8) (size 9 to 14) (size 15 to 20)
#    0.000    1.625    2.500    1.875    0.000    5.750 
#    0.000    2.500    0.000    0.000    0.000    0.000 
#    0.000    0.000    0.000    0.000    0.000    0.000 
#
# Total GULP energy -396955.867904 kJ/mol
# GULP energy per Si atom -12404.870872 kJ/mol
# Density = 1.986056 g / cm^3
# Si number density = 19.905869 Si / 1000 Ang^3
#
#
#
# Elastic Constant Matrix: (Units=GPa)
#
#
# Indices 1 2 3 4 5 6 
#
# 1 107.3574 32.1063 11.5663 0.0000 -2.6672 0.0000
# 2 32.1063 55.6482 25.4407 0.0000 -2.9191 0.0000
# 3 11.5663 25.4407 69.7788 0.0000 -5.1277 0.0000
# 4 0.0000 0.0000 0.0000 32.8606 0.0000 -6.6908
# 5 -2.6672 -2.9191 -5.1277 0.0000 10.7733 0.0000
# 6 0.0000 0.0000 0.0000 -6.6908 0.0000 33.3683
#
#
#
# Elastic Compliance Matrix: (Units=1/GPa)
#
#
# Indices 1 2 3 4 5 6 
#
# 1 0.011295 -0.006764 0.000689 0.000000 0.001291 0.000000
# 2 -0.006764 0.025664 -0.008132 0.000000 0.001409 0.000000
# 3 0.000689 -0.008132 0.017650 0.000000 0.006368 0.000000
# 4 0.000000 0.000000 0.000000 0.031727 0.000000 0.006362
# 5 0.001291 0.001409 0.006368 0.000000 0.096555 0.000000
# 6 0.000000 0.000000 0.000000 0.006362 0.000000 0.031244
#
#
# Mechanical properties :
#
#
# Convention : Reuss Voigt Hill
#
# Bulk Modulus (GPa) = 38.17629 41.22346 39.69987
# Shear Modulus (GPa) = 19.89801 26.31185 23.10493
#
# Velocity S-wave (km/s) = 3.16508 3.63962 3.41061
# Velocity P-wave (km/s) = 5.70763 6.19811 5.95792
#
# Compressibility (1/GPa) = 0.02619427
#
# Stress axis : x y z
#
# Youngs Moduli (GPa) = 88.53154 38.96471 56.65816
#
# Poissons Ratio (x) = 0.26356 -0.03902
# Poissons Ratio (y) = 0.59883 0.46076
# Poissons Ratio (z) = -0.06097 0.31687
#
# Static dielectric constant tensor:
#      x y z
#    x 3.715740 0.000000 0.156680 
#    y 0.000000 3.497530 0.000000 
#    z 0.156680 0.000000 3.758020 
# 
# 
# High freq. dielectric constant tensor:
#      x y z
#    x 1.787360 0.000000 -0.000420 
#    y 0.000000 1.771460 0.000000 
#    z -0.000420 0.000000 1.774500 
# 
# From -- ./inp_files/250074.got.cif
#   From: 2010.06.25/outbox.cif.g09.slc.cpg/sg12_126_cif.got.tgz:250074.got - 2010.06.28 00:19:55.
