data_PCOD8092422
_publ_section_title
;
Structure prediction by ZEFSAII (Michael W. Deem and Ramdas Pophale) SiO2 
 PCOD8092422
Probable space group: C 2/M
;
_chemical_formula_sum "Si O2"
_cell_formula_units_Z 64
_cell_length_a 16.870922
_cell_length_b 22.422217
_cell_length_c 17.889475
_cell_angle_alpha 90.000000
_cell_angle_beta 148.476938
_cell_angle_gamma 90.000000
_cell_volume 3538.222960
_symmetry_space_group_name_H-M "C 2/M"
_symmetry_group_IT_number 12
_symmetry_cell_setting 'monoclinic'
loop_
_space_group_symop_operation_xyz
x,y,z
-x,y,-z
-x,-y,-z
x,-y,z
1/2+x,1/2+y,z
1/2-x,1/2+y,-z
1/2-x,1/2-y,-z
1/2+x,1/2-y,z
loop_
_atom_site_type_symbol
_atom_site_label
_atom_site_fract_x
_atom_site_fract_y
_atom_site_fract_z
Si Si1 0.651257 0.569807 0.162641
Si Si2 0.594716 0.430807 0.650346
Si Si3 0.139196 0.866480 0.450896
Si Si4 0.662035 0.727327 0.592156
Si Si5 0.542164 0.068761 0.672663
Si Si6 0.426595 0.068678 0.737748
Si Si7 0.118208 0.638328 0.158267
Si Si8 0.261204 0.859739 0.388078
O O1 0.643619 0.500000 0.173780
O O2 0.792421 0.586196 0.223189
O O3 0.663261 0.603157 0.250688
O O4 0.500000 0.592062 0.000000
O O5 0.500000 0.413635 0.500000
O O6 0.585422 0.500000 0.661676
O O7 0.526332 0.393681 0.664961
O O8 0.768816 0.413119 0.779527
O O9 0.162073 0.803666 0.511095
O O10 0.256656 0.916113 0.574906
O O11 0.157820 0.854554 0.378419
O O12 0.500000 0.719288 0.500000
O O13 0.789204 0.697579 0.746770
O O14 0.703961 0.795663 0.617370
O O15 0.540094 0.081114 0.759952
O O16 0.420703 0.108411 0.531588
O O17 0.501853 0.000000 0.623406
O O18 0.472990 0.111177 0.843971
O O19 0.431426 0.000000 0.767018
O O20 0.000000 0.656559 0.000000
#
# Coordination Sequence:
#
# PCOD8092422 Si02
#       8
#     8   8   8   8   8   8   8   8
#     4  10  21  38  55  77 113 146 174 225 288 338
#     4  11  19  34  60  83 113 153 185 224 281 338
#     4  10  19  35  54  85 114 137 179 237 280 321
#     4  11  20  38  58  78 109 149 188 233 282 320
#     4   9  18  35  57  83 109 136 178 233 283 330
#     4   9  17  31  54  80 110 143 176 221 277 333
#     4  11  22  36  53  79 118 153 189 229 271 327
#     4  11  22  34  61  86 105 139 194 233 275 333
#
# _framework density 18.088176000000001
#
# number of rings (size 3 to 8) (size 9 to 14) (size 15 to 20)
#    0.000    1.750    3.750    2.625    0.000    4.000 
#    2.250    0.000    0.000    0.750    0.000    0.000 
#    0.000    0.000    0.000    0.000    0.000    0.000 
#
# Total GULP energy -396908.982691 kJ/mol
# GULP energy per Si atom -12403.405709 kJ/mol
# Density = 1.804701 g / cm^3
# Si number density = 18.088176 Si / 1000 Ang^3
#
#
#
# Elastic Constant Matrix: (Units=GPa)
#
#
# Indices 1 2 3 4 5 6 
#
# 1 115.1098 40.5551 63.1681 0.0000 -9.6232 0.0003
# 2 40.5551 89.1139 52.3284 0.0003 -8.1826 0.0001
# 3 63.1681 52.3284 116.2351 0.0092 -11.4614 0.0080
# 4 0.0000 0.0003 0.0092 33.3519 0.0023 18.0378
# 5 -9.6232 -8.1826 -11.4614 0.0023 21.5742 0.0023
# 6 0.0003 0.0001 0.0080 18.0378 0.0023 45.2903
#
#
#
# Elastic Compliance Matrix: (Units=1/GPa)
#
#
# Indices 1 2 3 4 5 6 
#
# 1 0.012797 -0.002283 -0.005750 0.000001 0.001787 0.000000
# 2 -0.002283 0.015766 -0.005665 0.000001 0.001952 0.000000
# 3 -0.005750 -0.005665 0.014577 -0.000003 0.003031 -0.000001
# 4 0.000001 0.000001 -0.000003 0.038215 -0.000003 -0.015220
# 5 0.001787 0.001952 0.003031 -0.000003 0.049499 -0.000002
# 6 0.000000 0.000000 -0.000001 -0.015220 -0.000002 0.028141
#
#
# Mechanical properties :
#
#
# Convention : Reuss Voigt Hill
#
# Bulk Modulus (GPa) = 63.51544 70.28467 66.90005
# Shear Modulus (GPa) = 26.09063 31.00376 28.54719
#
# Velocity S-wave (km/s) = 3.80203 4.14458 3.97700
# Velocity P-wave (km/s) = 7.38001 7.86412 7.62591
#
# Compressibility (1/GPa) = 0.01574420
#
# Stress axis : x y z
#
# Youngs Moduli (GPa) = 78.14530 63.42713 68.59939
#
# Poissons Ratio (x) = 0.14480 0.39447
# Poissons Ratio (y) = 0.17840 0.38860
# Poissons Ratio (z) = 0.44937 0.35930
#
# Static dielectric constant tensor:
#      x y z
#    x 3.649380 0.000000 -0.014700 
#    y 0.000000 3.287790 0.000000 
#    z -0.014700 0.000000 3.078250 
# 
# 
# High freq. dielectric constant tensor:
#      x y z
#    x 1.715900 0.000000 0.000970 
#    y 0.000000 1.702180 0.000000 
#    z 0.000970 0.000000 1.668150 
# 
# From -- ./inp_files/99128.got.cif
#   From: 2010.06.25/outbox.cif.g09.slc.cpg/sg12_50_cif.got.tgz:99128.got - 2010.06.28 00:19:55.
