data_PCOD8092610
_publ_section_title
;
Structure prediction by ZEFSAII (Michael W. Deem and Ramdas Pophale) SiO2 
 PCOD8092610
Probable space group: C 2/M
;
_chemical_formula_sum "Si O2"
_cell_formula_units_Z 56
_cell_length_a 27.854442
_cell_length_b 8.685330
_cell_length_c 12.132952
_cell_angle_alpha 90.000000
_cell_angle_beta 108.483204
_cell_angle_gamma 90.000000
_cell_volume 2783.853824
_symmetry_space_group_name_H-M "C 2/M"
_symmetry_group_IT_number 12
_symmetry_cell_setting 'monoclinic'
loop_
_space_group_symop_operation_xyz
x,y,z
-x,y,-z
-x,-y,-z
x,-y,z
1/2+x,1/2+y,z
1/2-x,1/2+y,-z
1/2-x,1/2-y,-z
1/2+x,1/2-y,z
loop_
_atom_site_type_symbol
_atom_site_label
_atom_site_fract_x
_atom_site_fract_y
_atom_site_fract_z
Si Si1 0.147416 0.170377 0.568118
Si Si2 0.391640 0.177753 0.256563
Si Si3 0.495018 0.682305 0.369676
Si Si4 0.806209 0.681353 0.027886
Si Si5 0.740121 0.826679 0.377287
Si Si6 0.407582 0.680139 0.684891
Si Si7 0.159067 0.180703 0.171012
O O1 0.120247 0.295240 0.624095
O O2 0.205788 0.162506 0.642515
O O3 0.138069 0.218104 0.433963
O O4 0.122628 0.000000 0.570086
O O5 0.444119 0.264710 0.270511
O O6 0.400173 0.000000 0.237614
O O7 0.344623 0.242325 0.150184
O O8 0.500000 0.743947 0.500000
O O9 0.497603 0.500000 0.372860
O O10 0.540660 0.751069 0.327052
O O11 0.799342 0.500000 0.029790
O O12 0.834457 0.724330 0.935559
O O13 0.750000 0.750000 0.000000
O O14 0.750000 0.750000 0.500000
O O15 0.707750 0.711097 0.281066
O O16 0.716863 0.000000 0.370010
O O17 0.414599 0.500000 0.703737
O O18 0.390012 0.740451 0.793514
O O19 0.155875 0.000000 0.141320
#
# Coordination Sequence:
#
# PCOD8092610 Si02
#       7
#     8   8   8   8   8   8   8
#     4  10  19  35  56  81 117 157 196 238 290 357
#     4  11  24  39  58  88 122 153 196 254 308 358
#     4  10  19  36  63  89 118 159 203 245 295 360
#     4  11  25  45  65  88 120 161 207 253 302 360
#     4  11  21  33  53  83 119 157 196 241 298 363
#     4   9  18  35  57  86 119 153 194 242 294 354
#     4  11  22  39  61  86 121 159 201 254 305 358
#
# _framework density 20.116
#
# number of rings (size 3 to 8) (size 9 to 14) (size 15 to 20)
#    0.000    1.571    2.857    2.571    0.000    6.000 
#    0.000    2.143    0.000    4.286    0.000    0.000 
#    0.000    0.000    0.000    0.000    0.000    0.000 
#
# Total GULP energy -347011.360170 kJ/mol
# GULP energy per Si atom -12393.262863 kJ/mol
# Density = 2.007021 g / cm^3
# Si number density = 20.116000 Si / 1000 Ang^3
#
#
#
# Elastic Constant Matrix: (Units=GPa)
#
#
# Indices 1 2 3 4 5 6 
#
# 1 141.3940 24.8694 50.3086 0.0000 -6.0454 0.0000
# 2 24.8694 34.2429 18.9340 0.0000 2.3355 0.0000
# 3 50.3086 18.9340 91.2849 0.0000 -6.2060 0.0000
# 4 0.0000 0.0000 0.0000 30.6276 0.0000 0.2626
# 5 -6.0454 2.3355 -6.2060 0.0000 39.1983 0.0000
# 6 0.0000 0.0000 0.0000 0.2626 0.0000 27.7252
#
#
#
# Elastic Compliance Matrix: (Units=1/GPa)
#
#
# Indices 1 2 3 4 5 6 
#
# 1 0.009407 -0.004607 -0.004156 0.000000 0.001067 0.000000
# 2 -0.004607 0.035615 -0.005096 0.000000 -0.003639 0.000000
# 3 -0.004156 -0.005096 0.014435 0.000000 0.001948 0.000000
# 4 0.000000 0.000000 0.000000 0.032653 0.000000 -0.000309
# 5 0.001067 -0.003639 0.001948 0.000000 0.026201 0.000000
# 6 0.000000 0.000000 0.000000 -0.000309 0.000000 0.036071
#
#
# Mechanical properties :
#
#
# Convention : Reuss Voigt Hill
#
# Bulk Modulus (GPa) = 31.50694 50.57176 41.03935
# Shear Modulus (GPa) = 25.94991 31.03088 28.49040
#
# Velocity S-wave (km/s) = 3.59557 3.93185 3.76747
# Velocity P-wave (km/s) = 5.73883 6.76811 6.27461
#
# Compressibility (1/GPa) = 0.03173904
#
# Stress axis : x y z
#
# Youngs Moduli (GPa) = 106.30167 28.07837 69.27746
#
# Poissons Ratio (x) = 0.12935 0.28794
# Poissons Ratio (y) = 0.48970 0.35301
# Poissons Ratio (z) = 0.44183 0.14308
#
# Static dielectric constant tensor:
#      x y z
#    x 4.085820 0.000000 0.017830 
#    y 0.000000 3.485630 0.000000 
#    z 0.017830 0.000000 3.975840 
# 
# 
# High freq. dielectric constant tensor:
#      x y z
#    x 1.797170 0.000000 -0.005440 
#    y 0.000000 1.766550 0.000000 
#    z -0.005440 0.000000 1.769370 
# 
# From -- ./inp_files/181036.got.cif
#   From: 2010.06.25/outbox.cif.g09.slc.cpg/sg12_91_cif.got.tgz:181036.got - 2010.06.28 00:19:55.
