data_PCOD8092012
_publ_section_title
;
Structure prediction by ZEFSAII (Michael W. Deem and Ramdas Pophale) SiO2 
 PCOD8092012
Probable space group: C 2/M
;
_chemical_formula_sum "Si O2"
_cell_formula_units_Z 48
_cell_length_a 13.945933
_cell_length_b 19.287261
_cell_length_c 11.779581
_cell_angle_alpha 90.000000
_cell_angle_beta 48.603079
_cell_angle_gamma 90.000000
_cell_volume 2376.808127
_symmetry_space_group_name_H-M "C 2/M"
_symmetry_group_IT_number 12
_symmetry_cell_setting 'monoclinic'
loop_
_space_group_symop_operation_xyz
x,y,z
-x,y,-z
-x,-y,-z
x,-y,z
1/2+x,1/2+y,z
1/2-x,1/2+y,-z
1/2-x,1/2-y,-z
1/2+x,1/2-y,z
loop_
_atom_site_type_symbol
_atom_site_label
_atom_site_fract_x
_atom_site_fract_y
_atom_site_fract_z
Si Si1 0.198749 0.918060 0.049255
Si Si2 0.636002 0.203933 0.457268
Si Si3 0.646521 0.842033 0.903350
Si Si4 0.513506 0.579415 0.614664
Si Si5 0.249829 0.348304 0.580230
Si Si6 0.346175 0.312839 0.109776
O O1 0.324620 0.898472 0.022363
O O2 0.082041 0.888445 0.217411
O O3 0.193252 0.000000 0.025966
O O4 0.201209 0.874757 0.932475
O O5 0.500000 0.192386 0.500000
O O6 0.655240 0.282876 0.479617
O O7 0.636241 0.162187 0.577358
O O8 0.762188 0.177579 0.290054
O O9 0.699834 0.869637 0.742322
O O10 0.693403 0.764409 0.902471
O O11 0.500000 0.835654 0.000000
O O12 0.500000 0.614014 0.500000
O O13 0.474629 0.500000 0.637903
O O14 0.659456 0.590534 0.539314
O O15 0.500000 0.319827 0.000000
#
# Coordination Sequence:
#
# PCOD8092012 Si02
#       6
#     8   8   8   8   8   8
#     4  11  23  38  62  89 119 161 204 250 300 357
#     4  10  22  36  61  90 119 157 195 244 300 360
#     4  10  22  37  59  91 120 157 199 248 303 359
#     4  10  19  34  58  87 116 149 195 247 299 349
#     4  10  20  37  59  87 121 150 193 245 303 350
#     4  10  22  41  60  89 124 160 201 251 302 362
#
# _framework density 20.195152
#
# number of rings (size 3 to 8) (size 9 to 14) (size 15 to 20)
#    0.000    1.833    1.667    2.000    4.667    2.000 
#    0.000    0.833    0.000    1.000    0.000    0.000 
#    0.000    0.000    0.000    0.000    0.000    0.000 
#
# Total GULP energy -297338.852614 kJ/mol
# GULP energy per Si atom -12389.118859 kJ/mol
# Density = 2.014919 g / cm^3
# Si number density = 20.195152 Si / 1000 Ang^3
#
#
#
# Elastic Constant Matrix: (Units=GPa)
#
#
# Indices 1 2 3 4 5 6 
#
# 1 106.3830 29.2546 12.4967 -0.0001 5.5580 0.0001
# 2 29.2546 58.9719 32.2848 0.0000 4.0767 0.0000
# 3 12.4967 32.2848 63.1631 -0.0001 7.8431 0.0002
# 4 -0.0001 0.0000 -0.0001 19.0494 0.0001 -4.8565
# 5 5.5580 4.0767 7.8431 0.0001 16.9039 -0.0002
# 6 0.0001 0.0000 0.0002 -4.8565 -0.0002 20.7646
#
#
#
# Elastic Compliance Matrix: (Units=1/GPa)
#
#
# Indices 1 2 3 4 5 6 
#
# 1 0.011036 -0.005938 0.001193 0.000000 -0.002750 0.000000
# 2 -0.005938 0.026741 -0.012665 0.000000 0.001379 0.000000
# 3 0.001193 -0.012665 0.023068 0.000000 -0.008041 0.000000
# 4 0.000000 0.000000 0.000000 0.055824 0.000000 0.013056
# 5 -0.002750 0.001379 -0.008041 0.000000 0.063461 0.000001
# 6 0.000000 0.000000 0.000000 0.013056 0.000001 0.051213
#
#
# Mechanical properties :
#
#
# Convention : Reuss Voigt Hill
#
# Bulk Modulus (GPa) = 38.42303 41.84334 40.13319
# Shear Modulus (GPa) = 18.19264 21.64238 19.91751
#
# Velocity S-wave (km/s) = 3.00466 3.27718 3.14387
# Velocity P-wave (km/s) = 5.57714 5.92320 5.75277
#
# Compressibility (1/GPa) = 0.02602606
#
# Stress axis : x y z
#
# Youngs Moduli (GPa) = 90.60900 37.39585 43.35056
#
# Poissons Ratio (x) = 0.22205 -0.05172
# Poissons Ratio (y) = 0.53803 0.54902
# Poissons Ratio (z) = -0.10810 0.47361
#
# Static dielectric constant tensor:
#      x y z
#    x 3.581890 0.000000 0.084120 
#    y 0.000000 3.527230 0.000000 
#    z 0.084120 0.000000 4.950460 
# 
# 
# High freq. dielectric constant tensor:
#      x y z
#    x 1.781220 0.000000 0.001890 
#    y 0.000000 1.766340 0.000000 
#    z 0.001890 0.000000 1.794140 
# 
# From -- ./inp_files/133717.got.cif
#   From: 2010.06.25/outbox.cif.g09.slc.cpg/sg12_67_cif.got.tgz:133717.got - 2010.06.28 00:19:55.
