data_PCOD8092516
_publ_section_title
;
Structure prediction by ZEFSAII (Michael W. Deem and Ramdas Pophale) SiO2 
 PCOD8092516
Probable space group: C 2/M
;
_chemical_formula_sum "Si O2"
_cell_formula_units_Z 40
_cell_length_a 13.679558
_cell_length_b 21.899695
_cell_length_c 14.389172
_cell_angle_alpha 90.000000
_cell_angle_beta 152.380034
_cell_angle_gamma 90.000000
_cell_volume 1998.452739
_symmetry_space_group_name_H-M "C 2/M"
_symmetry_group_IT_number 12
_symmetry_cell_setting 'monoclinic'
loop_
_space_group_symop_operation_xyz
x,y,z
-x,y,-z
-x,-y,-z
x,-y,z
1/2+x,1/2+y,z
1/2-x,1/2+y,-z
1/2-x,1/2-y,-z
1/2+x,1/2-y,z
loop_
_atom_site_type_symbol
_atom_site_label
_atom_site_fract_x
_atom_site_fract_y
_atom_site_fract_z
Si Si1 0.218156 0.326901 0.430642
Si Si2 0.749084 0.751378 0.715978
Si Si3 0.198244 0.111734 0.222522
Si Si4 0.424013 0.069226 0.579501
Si Si5 0.383665 0.262856 0.203849
O O1 0.166595 0.300796 0.283754
O O2 0.148309 0.397450 0.385572
O O3 0.467094 0.323320 0.669900
O O4 0.067424 0.288680 0.374691
O O5 0.500000 0.752591 0.500000
O O6 0.842435 0.818747 0.775815
O O7 0.791298 0.734731 0.860697
O O8 0.235160 0.069978 0.344441
O O9 0.388552 0.107444 0.309627
O O10 0.000000 0.085863 0.000000
O O11 0.487523 0.000000 0.657009
O O12 0.250000 0.250000 0.000000
#
# Coordination Sequence:
#
# PCOD8092516 Si02
#       5
#     8   8   8   8   8
#     4  10  21  35  53  81 115 148 186 230 282 342
#     4  10  19  35  55  84 122 142 173 237 298 345
#     4  11  21  35  57  85 113 144 185 241 304 348
#     4  11  23  39  54  77 115 157 198 233 272 335
#     4  10  20  33  56  84 115 144 180 233 297 344
#
# _framework density 20.015485000000002
#
# number of rings (size 3 to 8) (size 9 to 14) (size 15 to 20)
#    0.000    1.600    4.000    3.600    5.600    1.600 
#    0.000    0.000    0.000    5.400    0.000    1.400 
#    0.000    0.000    0.000    0.000    0.000    0.200 
#
# Total GULP energy -247777.797594 kJ/mol
# GULP energy per Si atom -12388.889880 kJ/mol
# Density = 1.996993 g / cm^3
# Si number density = 20.015485 Si / 1000 Ang^3
#
#
#
# Elastic Constant Matrix: (Units=GPa)
#
#
# Indices 1 2 3 4 5 6 
#
# 1 123.1166 54.6581 15.2483 -0.0004 -18.2864 0.0000
# 2 54.6581 93.0003 15.4387 -0.0001 -4.2219 0.0000
# 3 15.2483 15.4387 72.5822 -0.0004 -17.1455 0.0000
# 4 -0.0004 -0.0001 -0.0004 7.2817 -0.0004 -4.5001
# 5 -18.2864 -4.2219 -17.1455 -0.0004 21.2996 0.0000
# 6 0.0000 0.0000 0.0000 -4.5001 0.0000 23.0367
#
#
#
# Elastic Compliance Matrix: (Units=1/GPa)
#
#
# Indices 1 2 3 4 5 6 
#
# 1 0.012739 -0.007232 0.001367 0.000001 0.010604 0.000000
# 2 -0.007232 0.015255 -0.003060 -0.000001 -0.005649 0.000000
# 3 0.001367 -0.003060 0.017627 0.000002 0.014756 0.000000
# 4 0.000001 -0.000001 0.000002 0.156185 0.000005 0.030510
# 5 0.010604 -0.005649 0.014756 0.000005 0.066811 0.000001
# 6 0.000000 0.000000 0.000000 0.030510 0.000001 0.049369
#
#
# Mechanical properties :
#
#
# Convention : Reuss Voigt Hill
#
# Bulk Modulus (GPa) = 36.00984 51.04328 43.52656
# Shear Modulus (GPa) = 14.48884 23.88053 19.18468
#
# Velocity S-wave (km/s) = 2.69342 3.45788 3.09931
# Velocity P-wave (km/s) = 5.26334 6.44204 5.88229
#
# Compressibility (1/GPa) = 0.02777018
#
# Stress axis : x y z
#
# Youngs Moduli (GPa) = 78.49967 65.55304 56.73161
#
# Poissons Ratio (x) = 0.47411 -0.07755
# Poissons Ratio (y) = 0.56775 0.17358
# Poissons Ratio (z) = -0.10731 0.20057
#
# Static dielectric constant tensor:
#      x y z
#    x 4.291330 0.000000 -0.102560 
#    y 0.000000 3.261170 0.000000 
#    z -0.102560 0.000000 3.925660 
# 
# 
# High freq. dielectric constant tensor:
#      x y z
#    x 1.778590 0.000000 0.001840 
#    y 0.000000 1.726830 0.000000 
#    z 0.001840 0.000000 1.789790 
# 
# From -- ./inp_files/217497.got.cif
#   From: 2010.06.25/outbox.cif.g09.slc.cpg/sg12_109_cif.got.tgz:217497.got - 2010.06.28 00:19:55.
