data_PCOD8092914
_publ_section_title
;
Structure prediction by ZEFSAII (Michael W. Deem and Ramdas Pophale) SiO2 
 PCOD8092914
Probable space group: C 2/M
;
_chemical_formula_sum "Si O2"
_cell_formula_units_Z 56
_cell_length_a 30.704494
_cell_length_b 8.930900
_cell_length_c 18.272298
_cell_angle_alpha 90.000000
_cell_angle_beta 144.547465
_cell_angle_gamma 90.000000
_cell_volume 2906.293993
_symmetry_space_group_name_H-M "C 2/M"
_symmetry_group_IT_number 12
_symmetry_cell_setting 'monoclinic'
loop_
_space_group_symop_operation_xyz
x,y,z
-x,y,-z
-x,-y,-z
x,-y,z
1/2+x,1/2+y,z
1/2-x,1/2+y,-z
1/2-x,1/2-y,-z
1/2+x,1/2-y,z
loop_
_atom_site_type_symbol
_atom_site_label
_atom_site_fract_x
_atom_site_fract_y
_atom_site_fract_z
Si Si1 0.671320 0.176771 0.872396
Si Si2 0.914260 0.677328 0.390215
Si Si3 0.739386 0.676116 0.564267
Si Si4 0.610301 0.327431 0.495481
Si Si5 0.953532 0.174492 0.208389
Si Si6 0.015676 0.175211 0.909275
Si Si7 0.879431 0.176002 0.817835
O O1 0.637418 0.232308 0.748205
O O2 0.614383 0.225803 0.857149
O O3 0.681321 0.000000 0.886335
O O4 0.750000 0.250000 0.000000
O O5 0.916274 0.500000 0.396600
O O6 0.874534 0.736953 0.409372
O O7 0.000000 0.739182 0.500000
O O8 0.740495 0.500000 0.553476
O O9 0.750000 0.750000 0.500000
O O10 0.662528 0.727016 0.499415
O O11 0.804953 0.727646 0.708075
O O12 0.627737 0.500000 0.535661
O O13 0.524339 0.300646 0.357103
O O14 0.972847 0.241774 0.155222
O O15 0.930071 0.000000 0.172756
O O16 0.939827 0.238750 0.841839
O O17 0.002205 0.000000 0.885432
O O18 0.088845 0.209065 0.058011
O O19 0.862653 0.000000 0.783651
#
# Coordination Sequence:
#
# PCOD8092914 Si02
#       7
#     8   8   8   8   8   8   8
#     4  11  24  41  60  85 117 151 188 238 294 350
#     4  10  21  40  63  86 116 151 194 245 292 347
#     4  11  23  38  55  82 118 152 189 238 288 340
#     4  10  22  37  59  88 117 152 195 240 289 346
#     4  10  19  35  58  84 112 146 190 235 283 344
#     4   8  16  32  57  82 109 148 191 229 278 344
#     4   9  17  34  57  80 109 150 192 233 280 336
#
# _framework density 19.268525
#
# number of rings (size 3 to 8) (size 9 to 14) (size 15 to 20)
#    0.000    2.143    1.429    2.571    0.000    6.000 
#    0.000    8.571    0.000    0.000    0.000    0.000 
#    0.000    0.000    0.000    0.000    0.000    0.000 
#
# Total GULP energy -347176.142985 kJ/mol
# GULP energy per Si atom -12399.147964 kJ/mol
# Density = 1.922467 g / cm^3
# Si number density = 19.268525 Si / 1000 Ang^3
#
#
#
# Elastic Constant Matrix: (Units=GPa)
#
#
# Indices 1 2 3 4 5 6 
#
# 1 117.2186 33.0919 46.1009 0.0000 -9.0775 0.0000
# 2 33.0919 41.4462 35.7734 0.0000 0.8598 0.0000
# 3 46.1009 35.7734 109.5522 0.0000 1.2055 0.0000
# 4 0.0000 0.0000 0.0000 31.1286 0.0000 1.7451
# 5 -9.0775 0.8598 1.2055 0.0000 37.8278 0.0000
# 6 0.0000 0.0000 0.0000 1.7451 0.0000 31.1093
#
#
#
# Elastic Compliance Matrix: (Units=1/GPa)
#
#
# Indices 1 2 3 4 5 6 
#
# 1 0.011861 -0.007236 -0.002662 0.000000 0.003096 0.000000
# 2 -0.007236 0.038018 -0.009344 0.000000 -0.002303 0.000000
# 3 -0.002662 -0.009344 0.013309 0.000000 -0.000851 0.000000
# 4 0.000000 0.000000 0.000000 0.032226 0.000000 -0.001808
# 5 0.003096 -0.002303 -0.000851 0.000000 0.027258 0.000000
# 6 0.000000 0.000000 0.000000 -0.001808 0.000000 0.032246
#
#
# Mechanical properties :
#
#
# Convention : Reuss Voigt Hill
#
# Bulk Modulus (GPa) = 40.48146 55.34991 47.91569
# Shear Modulus (GPa) = 24.79698 30.22987 27.51342
#
# Velocity S-wave (km/s) = 3.59125 3.96520 3.78285
# Velocity P-wave (km/s) = 6.18473 7.05348 6.63334
#
# Compressibility (1/GPa) = 0.02470267
#
# Stress axis : x y z
#
# Youngs Moduli (GPa) = 84.31215 26.30317 75.13731
#
# Poissons Ratio (x) = 0.19034 0.20003
# Poissons Ratio (y) = 0.61011 0.70209
# Poissons Ratio (z) = 0.22446 0.24578
#
# Static dielectric constant tensor:
#      x y z
#    x 3.908490 0.000000 -0.091310 
#    y 0.000000 3.267180 0.000000 
#    z -0.091310 0.000000 3.696450 
# 
# 
# High freq. dielectric constant tensor:
#      x y z
#    x 1.758390 0.000000 -0.005280 
#    y 0.000000 1.725190 0.000000 
#    z -0.005280 0.000000 1.757110 
# 
# From -- ./inp_files/292506.got.cif
#   From: 2010.06.25/outbox.cif.g09.slc.cpg/sg12_147_cif.got.tgz:292506.got - 2010.06.28 00:19:55.
