data_PCOD8092214
_publ_section_title
;
Structure prediction by ZEFSAII (Michael W. Deem and Ramdas Pophale) SiO2 
 PCOD8092214
Probable space group: C 2/M
;
_chemical_formula_sum "Si O2"
_cell_formula_units_Z 56
_cell_length_a 20.401944
_cell_length_b 14.109449
_cell_length_c 9.589971
_cell_angle_alpha 90.000000
_cell_angle_beta 75.737736
_cell_angle_gamma 90.000000
_cell_volume 2675.485093
_symmetry_space_group_name_H-M "C 2/M"
_symmetry_group_IT_number 12
_symmetry_cell_setting 'monoclinic'
loop_
_space_group_symop_operation_xyz
x,y,z
-x,y,-z
-x,-y,-z
x,-y,z
1/2+x,1/2+y,z
1/2-x,1/2+y,-z
1/2-x,1/2-y,-z
1/2+x,1/2-y,z
loop_
_atom_site_type_symbol
_atom_site_label
_atom_site_fract_x
_atom_site_fract_y
_atom_site_fract_z
Si Si1 0.306811 0.107896 0.833486
Si Si2 0.772573 0.105584 0.391571
Si Si3 0.405559 0.293731 0.399801
Si Si4 0.355373 0.106007 0.351603
Si Si5 0.378271 0.287122 0.723967
Si Si6 0.742836 0.108200 0.842085
Si Si7 0.015053 0.111625 0.151757
O O1 0.242752 0.115822 0.764030
O O2 0.369549 0.174835 0.756443
O O3 0.334506 0.000000 0.825700
O O4 0.277334 0.143643 0.995015
O O5 0.828083 0.180325 0.408752
O O6 0.702129 0.124659 0.504284
O O7 0.799259 0.000000 0.414022
O O8 0.414230 0.183732 0.347481
O O9 0.419493 0.303909 0.558266
O O10 0.453693 0.360860 0.285318
O O11 0.323878 0.119966 0.215789
O O12 0.385992 0.000000 0.351314
O O13 0.303490 0.330134 0.748301
O O14 0.417901 0.334895 0.831266
O O15 0.768066 0.000000 0.830109
O O16 0.027560 0.000000 0.155822
O O17 0.000000 0.141494 0.000000
#
# Coordination Sequence:
#
# PCOD8092214 Si02
#       7
#     8   8   8   8   8   8   8
#     4  10  22  37  59  95 130 160 195 244 304 360
#     4  10  19  34  59  92 127 156 193 245 300 360
#     4  12  23  39  64  90 120 164 207 245 296 357
#     4  10  20  36  60  95 130 156 191 246 304 360
#     4  12  23  40  64  88 121 165 206 248 295 354
#     4  10  21  35  58  93 128 160 198 248 304 357
#     4  11  29  49  64  86 116 155 204 255 301 353
#
# _framework density 20.930783000000002
#
# number of rings (size 3 to 8) (size 9 to 14) (size 15 to 20)
#    0.000    1.286    2.857    3.000    4.000    2.286 
#    0.000    0.714    0.000    2.571    0.000    0.000 
#    0.000    0.000    0.000    0.000    0.000    0.000 
#
# Total GULP energy -347267.637683 kJ/mol
# GULP energy per Si atom -12402.415632 kJ/mol
# Density = 2.088314 g / cm^3
# Si number density = 20.930783 Si / 1000 Ang^3
#
#
#
# Elastic Constant Matrix: (Units=GPa)
#
#
# Indices 1 2 3 4 5 6 
#
# 1 38.5752 27.7357 13.7171 0.0000 5.4482 0.0000
# 2 27.7357 113.7455 28.7749 0.0000 5.4608 0.0000
# 3 13.7171 28.7749 138.8357 0.0000 0.9786 0.0000
# 4 0.0000 0.0000 0.0000 30.0919 0.0000 0.8843
# 5 5.4482 5.4608 0.9786 0.0000 25.0035 0.0000
# 6 0.0000 0.0000 0.0000 0.8843 0.0000 28.6770
#
#
#
# Elastic Compliance Matrix: (Units=1/GPa)
#
#
# Indices 1 2 3 4 5 6 
#
# 1 0.032490 -0.007239 -0.001671 0.000000 -0.005433 0.000000
# 2 -0.007239 0.010987 -0.001557 0.000000 -0.000761 0.000000
# 3 -0.001671 -0.001557 0.007688 0.000000 0.000403 0.000000
# 4 0.000000 0.000000 0.000000 0.033262 0.000000 -0.001026
# 5 -0.005433 -0.000761 0.000403 0.000000 0.041329 0.000000
# 6 0.000000 0.000000 0.000000 -0.001026 0.000000 0.034903
#
#
# Mechanical properties :
#
#
# Convention : Reuss Voigt Hill
#
# Bulk Modulus (GPa) = 33.07864 47.95690 40.51777
# Shear Modulus (GPa) = 26.08680 31.48306 28.78493
#
# Velocity S-wave (km/s) = 3.53418 3.88255 3.71245
# Velocity P-wave (km/s) = 5.70018 6.56207 6.14625
#
# Compressibility (1/GPa) = 0.03023099
#
# Stress axis : x y z
#
# Youngs Moduli (GPa) = 30.77900 91.01709 130.07836
#
# Poissons Ratio (x) = 0.65884 0.21742
# Poissons Ratio (y) = 0.22280 0.20248
# Poissons Ratio (z) = 0.05145 0.14168
#
# Static dielectric constant tensor:
#      x y z
#    x 3.301280 0.000000 0.158050 
#    y 0.000000 4.055720 0.000000 
#    z 0.158050 0.000000 4.007870 
# 
# 
# High freq. dielectric constant tensor:
#      x y z
#    x 1.772200 0.000000 0.013420 
#    y 0.000000 1.838470 0.000000 
#    z 0.013420 0.000000 1.837620 
# 
# From -- ./inp_files/86337.got.cif
#   From: 2010.06.25/outbox.cif.g09.slc.cpg/sg12_44_cif.got.tgz:86337.got - 2010.06.28 00:19:55.
