data_PCOD8092913
_publ_section_title
;
Structure prediction by ZEFSAII (Michael W. Deem and Ramdas Pophale) SiO2 
 PCOD8092913
Probable space group: C 2/M
;
_chemical_formula_sum "Si O2"
_cell_formula_units_Z 56
_cell_length_a 29.340111
_cell_length_b 9.005253
_cell_length_c 13.757419
_cell_angle_alpha 90.000000
_cell_angle_beta 53.077088
_cell_angle_gamma 90.000000
_cell_volume 2905.915294
_symmetry_space_group_name_H-M "C 2/M"
_symmetry_group_IT_number 12
_symmetry_cell_setting 'monoclinic'
loop_
_space_group_symop_operation_xyz
x,y,z
-x,y,-z
-x,-y,-z
x,-y,z
1/2+x,1/2+y,z
1/2-x,1/2+y,-z
1/2-x,1/2-y,-z
1/2+x,1/2-y,z
loop_
_atom_site_type_symbol
_atom_site_label
_atom_site_fract_x
_atom_site_fract_y
_atom_site_fract_z
Si Si1 0.398695 0.671170 0.715016
Si Si2 0.806812 0.324268 0.961823
Si Si3 0.169288 0.324464 0.854269
Si Si4 0.000260 0.829285 0.274317
Si Si5 0.115202 0.176034 0.486999
Si Si6 0.042427 0.324005 0.027478
Si Si7 0.263693 0.677243 0.584465
O O1 0.377985 0.500000 0.747317
O O2 0.358923 0.774943 0.829499
O O3 0.462569 0.687067 0.674934
O O4 0.394619 0.732385 0.610349
O O5 0.801097 0.500000 0.965572
O O6 0.750000 0.250000 0.000000
O O7 0.816150 0.263671 0.058229
O O8 0.173558 0.500000 0.848084
O O9 0.214767 0.261312 0.719284
O O10 0.105086 0.272518 0.911962
O O11 0.937018 0.766521 0.379145
O O12 0.027591 0.738294 0.151862
O O13 0.997534 0.000000 0.244918
O O14 0.175090 0.233740 0.453985
O O15 0.114094 0.000000 0.486836
O O16 0.038802 0.500000 0.041397
O O17 0.000000 0.261730 0.000000
O O18 0.262796 0.500000 0.576023
O O19 0.250000 0.750000 0.500000
#
# Coordination Sequence:
#
# PCOD8092913 Si02
#       7
#     8   8   8   8   8   8   8
#     4  10  19  35  58  84 112 146 187 228 278 339
#     4  11  21  35  57  83 114 149 186 229 276 332
#     4   9  19  37  57  78 109 147 183 222 277 334
#     4  10  20  35  58  87 115 145 185 235 282 332
#     4   9  19  36  57  81 114 152 186 222 281 344
#     4  10  21  37  58  82 110 150 191 228 278 342
#     4  10  21  38  58  79 106 144 187 230 275 329
#
# _framework density 19.271037
#
# number of rings (size 3 to 8) (size 9 to 14) (size 15 to 20)
#    0.000    2.143    1.429    1.714    2.000    4.286 
#    0.000    5.000    0.000    1.714    0.000    0.000 
#    0.000    0.000    0.000    0.000    0.000    0.000 
#
# Total GULP energy -347180.582597 kJ/mol
# GULP energy per Si atom -12399.306521 kJ/mol
# Density = 1.922718 g / cm^3
# Si number density = 19.271037 Si / 1000 Ang^3
#
#
#
# Elastic Constant Matrix: (Units=GPa)
#
#
# Indices 1 2 3 4 5 6 
#
# 1 162.4910 25.5021 66.9874 0.0000 -9.5648 0.0000
# 2 25.5021 32.9919 19.6251 0.0000 -2.0070 -0.0001
# 3 66.9874 19.6251 128.1897 0.0000 -16.1907 0.0000
# 4 0.0000 0.0000 0.0000 28.8871 0.0000 3.1058
# 5 -9.5648 -2.0070 -16.1907 0.0000 40.1039 0.0000
# 6 0.0000 -0.0001 0.0000 3.1058 0.0000 23.7578
#
#
#
# Elastic Compliance Matrix: (Units=1/GPa)
#
#
# Indices 1 2 3 4 5 6 
#
# 1 0.008355 -0.004253 -0.003678 0.000000 0.000295 0.000000
# 2 -0.004253 0.035518 -0.003287 0.000000 -0.000564 0.000000
# 3 -0.003678 -0.003287 0.010637 0.000000 0.003253 0.000000
# 4 0.000000 0.000000 0.000000 0.035111 0.000000 -0.004590
# 5 0.000295 -0.000564 0.003253 0.000000 0.026291 0.000000
# 6 0.000000 0.000000 0.000000 -0.004590 0.000000 0.042692
#
#
# Mechanical properties :
#
#
# Convention : Reuss Voigt Hill
#
# Bulk Modulus (GPa) = 31.17566 60.87797 46.02682
# Shear Modulus (GPa) = 26.07840 32.65363 29.36602
#
# Velocity S-wave (km/s) = 3.68264 4.12082 3.90788
# Velocity P-wave (km/s) = 5.85619 7.36889 6.65566
#
# Compressibility (1/GPa) = 0.03207630
#
# Stress axis : x y z
#
# Youngs Moduli (GPa) = 119.68635 28.15445 94.01341
#
# Poissons Ratio (x) = 0.11973 0.34576
# Poissons Ratio (y) = 0.50899 0.30898
# Poissons Ratio (z) = 0.44018 0.09253
#
# Static dielectric constant tensor:
#      x y z
#    x 3.842440 0.000000 -0.076290 
#    y 0.000000 3.161880 0.000000 
#    z -0.076290 0.000000 3.681750 
# 
# 
# High freq. dielectric constant tensor:
#      x y z
#    x 1.768840 0.000000 -0.004510 
#    y 0.000000 1.711650 0.000000 
#    z -0.004510 0.000000 1.760470 
# 
# From -- ./inp_files/187139.got.cif
#   From: 2010.06.25/outbox.cif.g09.slc.cpg/sg12_94_cif.got.tgz:187139.got - 2010.06.28 00:19:55.
