data_PCOD8092750
_publ_section_title
;
Structure prediction by ZEFSAII (Michael W. Deem and Ramdas Pophale) SiO2 
 PCOD8092750
Probable space group: C 2/M
;
_chemical_formula_sum "Si O2"
_cell_formula_units_Z 64
_cell_length_a 23.566591
_cell_length_b 14.713146
_cell_length_c 9.426983
_cell_angle_alpha 90.000000
_cell_angle_beta 94.937846
_cell_angle_gamma 90.000000
_cell_volume 3256.568511
_symmetry_space_group_name_H-M "C 2/M"
_symmetry_group_IT_number 12
_symmetry_cell_setting 'monoclinic'
loop_
_space_group_symop_operation_xyz
x,y,z
-x,y,-z
-x,-y,-z
x,-y,z
1/2+x,1/2+y,z
1/2-x,1/2+y,-z
1/2-x,1/2-y,-z
1/2+x,1/2-y,z
loop_
_atom_site_type_symbol
_atom_site_label
_atom_site_fract_x
_atom_site_fract_y
_atom_site_fract_z
Si Si1 0.951106 0.597583 0.871887
Si Si2 0.748182 0.730964 0.665825
Si Si3 0.022438 0.214186 0.161363
Si Si4 0.337512 0.601215 0.454662
Si Si5 0.820235 0.395969 0.867340
Si Si6 0.537553 0.398722 0.634722
Si Si7 0.635142 0.603475 0.229362
Si Si8 0.253096 0.103287 0.139432
O O1 0.951112 0.500000 0.789061
O O2 0.964975 0.684063 0.774412
O O3 0.887190 0.613732 0.921824
O O4 0.000000 0.591334 0.000000
O O5 0.750000 0.750000 0.500000
O O6 0.698331 0.656921 0.667215
O O7 0.803942 0.680612 0.745501
O O8 0.727340 0.822120 0.741369
O O9 0.079936 0.156918 0.170434
O O10 0.971795 0.167088 0.235287
O O11 0.000000 0.226374 0.000000
O O12 0.311966 0.500000 0.459748
O O13 0.398854 0.600391 0.400677
O O14 0.338947 0.643122 0.616068
O O15 0.807827 0.500000 0.813633
O O16 0.781286 0.373065 0.995565
O O17 0.500000 0.358660 0.500000
O O18 0.516773 0.500000 0.671455
O O19 0.616058 0.500000 0.253615
O O20 0.683755 0.610345 0.118560
O O21 0.270126 0.000000 0.190421
#
# Coordination Sequence:
#
# PCOD8092750 Si02
#       8
#     8   8   8   8   8   8   8   8
#     4   9  20  39  62  84 112 153 198 246 303 355
#     4  12  23  35  59  89 122 162 201 248 292 360
#     4  11  22  34  57  88 115 145 197 250 296 350
#     4  10  21  37  58  83 118 160 201 238 286 357
#     4  10  22  40  62  89 120 154 202 254 300 361
#     4  10  20  36  57  81 113 157 193 230 287 356
#     4  10  19  35  57  82 118 156 192 237 297 360
#     4  10  22  39  60  85 120 160 196 246 303 349
#
# _framework density 19.652588000000002
#
# number of rings (size 3 to 8) (size 9 to 14) (size 15 to 20)
#    0.000    1.750    2.500    1.875    0.000    4.500 
#    0.000    2.500    0.000    0.375    0.000    0.000 
#    0.000    0.000    0.000    0.000    0.000    0.000 
#
# Total GULP energy -396483.617622 kJ/mol
# GULP energy per Si atom -12390.113051 kJ/mol
# Density = 1.960786 g / cm^3
# Si number density = 19.652588 Si / 1000 Ang^3
#
#
#
# Elastic Constant Matrix: (Units=GPa)
#
#
# Indices 1 2 3 4 5 6 
#
# 1 92.0368 31.7226 31.3421 0.0000 9.3869 0.0000
# 2 31.7226 118.2293 50.5418 0.0000 5.7828 0.0000
# 3 31.3421 50.5418 78.8639 0.0000 -4.6477 0.0000
# 4 0.0000 0.0000 0.0000 27.8860 0.0000 20.7138
# 5 9.3869 5.7828 -4.6477 0.0000 31.2621 0.0000
# 6 0.0000 0.0000 0.0000 20.7138 0.0000 -14.8024
#
#
#
# Elastic Compliance Matrix: (Units=1/GPa)
#
#
# Indices 1 2 3 4 5 6 
#
# 1 0.013396 -0.001360 -0.004716 0.000000 -0.004472 0.000000
# 2 -0.001360 0.012134 -0.007409 0.000000 -0.002938 0.000000
# 3 -0.004716 -0.007409 0.019639 0.000000 0.005706 0.000000
# 4 0.000000 0.000000 0.000000 0.017583 0.000000 0.024605
# 5 -0.004472 -0.002938 0.005706 0.000000 0.034722 0.000000
# 6 0.000000 0.000000 0.000000 0.024605 0.000000 -0.033125
#
#
# Mechanical properties :
#
#
# Convention : Reuss Voigt Hill
#
# Bulk Modulus (GPa) = 54.94708 57.37143 56.15925
# Shear Modulus (GPa) = 51.34246 20.57071 35.95659
#
# Velocity S-wave (km/s) = 5.11681 3.23881 4.28204
# Velocity P-wave (km/s) = 7.93277 6.57592 7.28600
#
# Compressibility (1/GPa) = 0.01819933
#
# Stress axis : x y z
#
# Youngs Moduli (GPa) = 74.64963 82.41335 50.91921
#
# Poissons Ratio (x) = 0.11204 0.24014
# Poissons Ratio (y) = 0.10149 0.37727
# Poissons Ratio (z) = 0.35205 0.61061
#
# Static dielectric constant tensor:
#      x y z
#    x 3.665190 0.000000 -0.026440 
#    y 0.000000 4.337340 0.000000 
#    z -0.026440 0.000000 3.444850 
# 
# 
# High freq. dielectric constant tensor:
#      x y z
#    x 1.771050 0.000000 -0.000060 
#    y 0.000000 1.791690 0.000000 
#    z -0.000060 0.000000 1.728720 
# 
# From -- ./inp_files/96870.got.cif
#   From: 2010.06.25/outbox.cif.g09.slc.cpg/sg12_49_cif.got.tgz:96870.got - 2010.06.28 00:19:55.
