data_PCOD8092502
_publ_section_title
;
Structure prediction by ZEFSAII (Michael W. Deem and Ramdas Pophale) SiO2 
 PCOD8092502
Probable space group: C 2/M
;
_chemical_formula_sum "Si O2"
_cell_formula_units_Z 64
_cell_length_a 23.655586
_cell_length_b 11.318775
_cell_length_c 13.146300
_cell_angle_alpha 90.000000
_cell_angle_beta 69.169420
_cell_angle_gamma 90.000000
_cell_volume 3289.873420
_symmetry_space_group_name_H-M "C 2/M"
_symmetry_group_IT_number 12
_symmetry_cell_setting 'monoclinic'
loop_
_space_group_symop_operation_xyz
x,y,z
-x,y,-z
-x,-y,-z
x,-y,z
1/2+x,1/2+y,z
1/2-x,1/2+y,-z
1/2-x,1/2-y,-z
1/2+x,1/2-y,z
loop_
_atom_site_type_symbol
_atom_site_label
_atom_site_fract_x
_atom_site_fract_y
_atom_site_fract_z
Si Si1 0.518807 0.128384 0.373427
Si Si2 0.833029 0.139826 0.965557
Si Si3 0.033802 0.129606 0.678294
Si Si4 0.967445 0.866402 0.924980
Si Si5 0.353110 0.868339 0.639451
Si Si6 0.259823 0.263786 0.827137
Si Si7 0.775054 0.628644 0.354293
Si Si8 0.659294 0.705217 0.539362
O O1 0.500000 0.112543 0.500000
O O2 0.490727 0.249824 0.353034
O O3 0.590865 0.144351 0.319464
O O4 0.501336 0.000000 0.330684
O O5 0.902470 0.187451 0.931687
O O6 0.807413 0.170819 0.870428
O O7 0.828140 0.000000 0.983674
O O8 0.794298 0.204876 0.076191
O O9 0.105377 0.122722 0.613476
O O10 0.017763 0.139964 0.806089
O O11 0.008068 0.000000 0.654733
O O12 0.952659 0.000000 0.966698
O O13 0.000000 0.801033 0.000000
O O14 0.293571 0.835298 0.739881
O O15 0.365381 0.793461 0.530601
O O16 0.344213 0.000000 0.604842
O O17 0.232820 0.354271 0.761854
O O18 0.804537 0.500000 0.350344
O O19 0.711366 0.627148 0.455160
O O20 0.818038 0.726876 0.374878
#
# Coordination Sequence:
#
# PCOD8092502 Si02
#       8
#     8   8   8   8   8   8   8   8
#     4  10  20  35  55  81 117 159 195 228 280 346
#     4  10  20  37  57  81 113 145 186 241 295 345
#     4  11  22  37  59  88 114 148 196 245 290 338
#     4   9  20  37  58  82 112 150 188 238 297 349
#     4  10  19  35  55  81 115 153 192 230 279 348
#     4  10  21  34  57  86 108 144 195 240 291 341
#     4  10  21  37  54  79 115 151 185 234 293 348
#     4  10  21  35  54  82 113 149 188 233 285 348
#
# _framework density 19.453635999999999
#
# number of rings (size 3 to 8) (size 9 to 14) (size 15 to 20)
#    0.000    2.000    1.250    2.250    1.750    0.750 
#    0.000    1.875    0.000    1.125    0.000    0.000 
#    0.000    0.000    0.000    0.000    0.000    0.000 
#
# Total GULP energy -396453.000094 kJ/mol
# GULP energy per Si atom -12389.156253 kJ/mol
# Density = 1.940936 g / cm^3
# Si number density = 19.453636 Si / 1000 Ang^3
#
#
#
# Elastic Constant Matrix: (Units=GPa)
#
#
# Indices 1 2 3 4 5 6 
#
# 1 79.4301 32.8892 38.9787 0.0000 6.8732 0.0000
# 2 32.8892 117.8179 28.7457 0.0000 8.3739 0.0000
# 3 38.9787 28.7457 101.4645 0.0000 3.5828 0.0000
# 4 0.0000 0.0000 0.0000 -1.2158 0.0000 -8.2236
# 5 6.8732 8.3739 3.5828 0.0000 33.8325 0.0000
# 6 0.0000 0.0000 0.0000 -8.2236 0.0000 21.4829
#
#
#
# Elastic Compliance Matrix: (Units=1/GPa)
#
#
# Indices 1 2 3 4 5 6 
#
# 1 0.016774 -0.003205 -0.005464 0.000000 -0.002036 0.000000
# 2 -0.003205 0.009866 -0.001506 0.000000 -0.001631 0.000000
# 3 -0.005464 -0.001506 0.012375 0.000000 0.000172 0.000000
# 4 0.000000 0.000000 0.000000 -0.229157 0.000000 -0.087721
# 5 -0.002036 -0.001631 0.000172 0.000000 0.030357 0.000000
# 6 0.000000 0.000000 0.000000 -0.087721 0.000000 0.012969
#
#
# Mechanical properties :
#
#
# Convention : Reuss Voigt Hill
#
# Bulk Modulus (GPa) = 53.57617 55.54886 54.56252
# Shear Modulus (GPa) = -41.58223 24.02651 -8.77786
#
# Velocity S-wave (km/s) = -4.62833 3.51816 -2.12650
# Velocity P-wave (km/s) = 0.98066 6.71712 4.69883
#
# Compressibility (1/GPa) = 0.01866501
#
# Stress axis : x y z
#
# Youngs Moduli (GPa) = 59.61511 101.36094 80.80500
#
# Poissons Ratio (x) = 0.32483 0.44154
# Poissons Ratio (y) = 0.19105 0.12172
# Poissons Ratio (z) = 0.32575 0.15268
#
# Static dielectric constant tensor:
#      x y z
#    x 3.746030 0.000000 0.021680 
#    y 0.000000 3.781580 0.000000 
#    z 0.021680 0.000000 3.618180 
# 
# 
# High freq. dielectric constant tensor:
#      x y z
#    x 1.754470 0.000000 -0.009500 
#    y 0.000000 1.754200 0.000000 
#    z -0.009500 0.000000 1.754090 
# 
# From -- ./inp_files/175240.got.cif
#   From: 2010.06.25/outbox.cif.g09.slc.cpg/sg12_88_cif.got.tgz:175240.got - 2010.06.28 00:19:55.
