data_PCOD8092708
_publ_section_title
;
Structure prediction by ZEFSAII (Michael W. Deem and Ramdas Pophale) SiO2 
 PCOD8092708
Probable space group: C 2/M
;
_chemical_formula_sum "Si O2"
_cell_formula_units_Z 64
_cell_length_a 20.957482
_cell_length_b 8.636853
_cell_length_c 23.501235
_cell_angle_alpha 90.000000
_cell_angle_beta 49.780322
_cell_angle_gamma 90.000000
_cell_volume 3248.154061
_symmetry_space_group_name_H-M "C 2/M"
_symmetry_group_IT_number 12
_symmetry_cell_setting 'monoclinic'
loop_
_space_group_symop_operation_xyz
x,y,z
-x,y,-z
-x,-y,-z
x,-y,z
1/2+x,1/2+y,z
1/2-x,1/2+y,-z
1/2-x,1/2-y,-z
1/2+x,1/2-y,z
loop_
_atom_site_type_symbol
_atom_site_label
_atom_site_fract_x
_atom_site_fract_y
_atom_site_fract_z
Si Si1 0.041444 0.814847 0.417951
Si Si2 0.630789 0.672336 0.181643
Si Si3 0.267843 0.318110 0.694104
Si Si4 0.465230 0.329577 0.349066
Si Si5 0.468131 0.816467 0.859367
Si Si6 0.624158 0.684588 0.707937
Si Si7 0.417039 0.829197 0.012852
Si Si8 0.776363 0.177956 0.163763
O O1 0.136999 0.754151 0.360487
O O2 0.984705 0.745050 0.398429
O O3 0.000000 0.756363 0.500000
O O4 0.042140 0.000000 0.412695
O O5 0.668140 0.500000 0.149916
O O6 0.553422 0.658107 0.267785
O O7 0.604581 0.748289 0.137733
O O8 0.696968 0.785774 0.171260
O O9 0.266058 0.500000 0.684521
O O10 0.216875 0.238729 0.671713
O O11 0.223693 0.280780 0.779263
O O12 0.429828 0.500000 0.383337
O O13 0.399940 0.249746 0.342033
O O14 0.558655 0.747413 0.791966
O O15 0.473950 0.000000 0.849906
O O16 0.441773 0.762566 0.937185
O O17 0.617440 0.500000 0.710972
O O18 0.357152 0.711049 0.079467
O O19 0.374753 0.000000 0.031699
O O20 0.500000 0.846730 0.000000
O O21 0.775705 0.000000 0.182912
#
# Coordination Sequence:
#
# PCOD8092708 Si02
#       8
#     8   8   8   8   8   8   8   8
#     4   9  17  32  58  88 113 144 189 234 279 337
#     4  10  19  35  57  80 110 149 188 231 285 336
#     4  11  21  36  58  84 115 146 188 240 287 339
#     4   8  15  31  54  81 111 147 186 227 274 327
#     4  10  20  35  56  83 113 146 190 238 286 335
#     4  10  20  34  56  83 115 154 193 234 283 338
#     4  10  22  39  56  75 106 147 186 231 289 343
#     4  12  24  36  56  83 110 143 188 237 285 339
#
# _framework density 19.703499000000001
#
# number of rings (size 3 to 8) (size 9 to 14) (size 15 to 20)
#    0.000    2.000    1.250    4.125    0.000    2.750 
#    0.000    0.625    0.000    1.500    0.000    0.000 
#    0.000    0.000    0.000    0.000    0.000    0.000 
#
# Total GULP energy -396666.761715 kJ/mol
# GULP energy per Si atom -12395.836304 kJ/mol
# Density = 1.965865 g / cm^3
# Si number density = 19.703499 Si / 1000 Ang^3
#
#
#
# Elastic Constant Matrix: (Units=GPa)
#
#
# Indices 1 2 3 4 5 6 
#
# 1 139.8922 16.9918 66.2091 0.0003 18.5840 0.0001
# 2 16.9918 57.6527 21.8907 0.0004 1.6236 -0.0006
# 3 66.2091 21.8907 88.4965 -0.0001 30.8560 -0.0002
# 4 0.0003 0.0004 -0.0001 15.3345 0.0001 -0.6279
# 5 18.5840 1.6236 30.8560 0.0001 26.5381 0.0002
# 6 0.0001 -0.0006 -0.0002 -0.6279 0.0002 30.5575
#
#
#
# Elastic Compliance Matrix: (Units=1/GPa)
#
#
# Indices 1 2 3 4 5 6 
#
# 1 0.011230 0.000247 -0.009612 0.000000 0.003297 0.000000
# 2 0.000247 0.020026 -0.007822 -0.000001 0.007697 0.000000
# 3 -0.009612 -0.007822 0.030125 0.000001 -0.027817 0.000000
# 4 0.000000 -0.000001 0.000001 0.065267 -0.000001 0.001341
# 5 0.003297 0.007697 -0.027817 -0.000001 0.067245 0.000000
# 6 0.000000 0.000000 0.000000 0.001341 0.000000 0.032753
#
#
# Mechanical properties :
#
#
# Convention : Reuss Voigt Hill
#
# Bulk Modulus (GPa) = 37.02871 55.13607 46.08239
# Shear Modulus (GPa) = 18.51698 26.54933 22.53315
#
# Velocity S-wave (km/s) = 3.06891 3.67473 3.38540
# Velocity P-wave (km/s) = 5.60280 6.78591 6.22254
#
# Compressibility (1/GPa) = 0.02700607
#
# Stress axis : x y z
#
# Youngs Moduli (GPa) = 89.04945 49.93579 33.19466
#
# Poissons Ratio (x) = -0.01235 0.31908
# Poissons Ratio (y) = -0.02202 0.25966
# Poissons Ratio (z) = 0.85598 0.39061
#
# Static dielectric constant tensor:
#      x y z
#    x 3.955580 0.000000 0.256770 
#    y 0.000000 3.446040 0.000000 
#    z 0.256770 0.000000 3.379280 
# 
# 
# High freq. dielectric constant tensor:
#      x y z
#    x 1.787760 0.000000 0.012890 
#    y 0.000000 1.744680 0.000000 
#    z 0.012890 0.000000 1.746490 
# 
# From -- ./inp_files/345926.got.cif
#   From: 2010.06.25/outbox.cif.g09.slc.cpg/sg12_173_cif.got.tgz:345926.got - 2010.06.28 00:19:55.
