data_PCOD8092078
_publ_section_title
;
Structure prediction by ZEFSAII (Michael W. Deem and Ramdas Pophale) SiO2 
 PCOD8092078
Probable space group: C 2/M
;
_chemical_formula_sum "Si O2"
_cell_formula_units_Z 64
_cell_length_a 19.399410
_cell_length_b 14.258350
_cell_length_c 16.520735
_cell_angle_alpha 90.000000
_cell_angle_beta 130.631681
_cell_angle_gamma 90.000000
_cell_volume 3467.992967
_symmetry_space_group_name_H-M "C 2/M"
_symmetry_group_IT_number 12
_symmetry_cell_setting 'monoclinic'
loop_
_space_group_symop_operation_xyz
x,y,z
-x,y,-z
-x,-y,-z
x,-y,z
1/2+x,1/2+y,z
1/2-x,1/2+y,-z
1/2-x,1/2-y,-z
1/2+x,1/2-y,z
loop_
_atom_site_type_symbol
_atom_site_label
_atom_site_fract_x
_atom_site_fract_y
_atom_site_fract_z
Si Si1 0.516637 0.390994 0.419613
Si Si2 0.247534 0.759628 0.253687
Si Si3 0.362429 0.892917 0.242140
Si Si4 0.044860 0.394059 0.452758
Si Si5 0.822167 0.888929 0.198264
Si Si6 0.681573 0.257716 0.521372
Si Si7 0.280727 0.392186 0.990266
Si Si8 0.395270 0.391625 0.923142
O O1 0.500000 0.362596 0.500000
O O2 0.539925 0.500000 0.429208
O O3 0.426475 0.364078 0.300399
O O4 0.603336 0.336078 0.450035
O O5 0.328220 0.830774 0.291104
O O6 0.251885 0.666006 0.202026
O O7 0.258888 0.723023 0.353454
O O8 0.153820 0.817584 0.173670
O O9 0.471311 0.886542 0.323173
O O10 0.329904 0.000000 0.232987
O O11 0.315007 0.857034 0.122515
O O12 0.074059 0.500000 0.492874
O O13 0.134517 0.342646 0.493247
O O14 0.000000 0.351131 0.500000
O O15 0.802915 0.846035 0.093870
O O16 0.805144 0.000000 0.195422
O O17 0.750000 0.250000 0.500000
O O18 0.272659 0.500000 0.005804
O O19 0.361255 0.373297 0.988416
O O20 0.377076 0.500000 0.883078
O O21 0.500000 0.366922 0.000000
#
# Coordination Sequence:
#
# PCOD8092078 Si02
#       8
#     8   8   8   8   8   8   8   8
#     4  10  20  38  61  80 104 147 197 238 277 323
#     4  11  20  34  55  76 105 144 181 224 276 328
#     4   9  17  31  54  82 108 132 168 224 281 327
#     4  10  19  34  59  83 105 139 182 225 276 337
#     4  10  20  34  57  82 104 137 188 240 276 316
#     4  12  25  37  51  81 118 147 183 230 281 337
#     4   8  16  31  51  81 109 131 171 225 272 313
#     4   9  19  35  55  78 111 147 175 212 271 341
#
# _framework density 18.454478000000002
#
# number of rings (size 3 to 8) (size 9 to 14) (size 15 to 20)
#    0.000    2.125    2.500    2.250    0.000    4.000 
#    0.000    2.500    0.000    0.375    0.000    0.000 
#    0.000    0.000    0.000    0.000    0.000    0.000 
#
# Total GULP energy -396612.192974 kJ/mol
# GULP energy per Si atom -12394.131030 kJ/mol
# Density = 1.841247 g / cm^3
# Si number density = 18.454478 Si / 1000 Ang^3
#
#
#
# Elastic Constant Matrix: (Units=GPa)
#
#
# Indices 1 2 3 4 5 6 
#
# 1 101.0482 34.2484 55.6099 0.0000 1.8431 0.0000
# 2 34.2484 74.0856 25.3517 0.0000 3.6854 0.0000
# 3 55.6099 25.3517 141.3343 0.0000 -5.7182 0.0000
# 4 0.0000 0.0000 0.0000 19.1980 0.0000 5.5044
# 5 1.8431 3.6854 -5.7182 0.0000 30.3526 0.0000
# 6 0.0000 0.0000 0.0000 5.5044 0.0000 24.5743
#
#
#
# Elastic Compliance Matrix: (Units=1/GPa)
#
#
# Indices 1 2 3 4 5 6 
#
# 1 0.014186 -0.004873 -0.004755 0.000000 -0.001165 0.000000
# 2 -0.004873 0.016208 -0.001066 0.000000 -0.001873 0.000000
# 3 -0.004755 -0.001066 0.009225 0.000000 0.002156 0.000000
# 4 0.000000 0.000000 0.000000 0.055664 0.000000 -0.012468
# 5 -0.001165 -0.001873 0.002156 0.000000 0.033651 0.000000
# 6 0.000000 0.000000 0.000000 -0.012468 0.000000 0.043486
#
#
# Mechanical properties :
#
#
# Convention : Reuss Voigt Hill
#
# Bulk Modulus (GPa) = 54.84839 60.76535 57.80687
# Shear Modulus (GPa) = 25.01469 28.24217 26.62843
#
# Velocity S-wave (km/s) = 3.68568 3.91624 3.80271
# Velocity P-wave (km/s) = 6.92082 7.31080 7.11848
#
# Compressibility (1/GPa) = 0.01823208
#
# Stress axis : x y z
#
# Youngs Moduli (GPa) = 70.49351 61.69641 108.40543
#
# Poissons Ratio (x) = 0.30063 0.51543
# Poissons Ratio (y) = 0.34350 0.11555
# Poissons Ratio (z) = 0.33517 0.06576
#
# Static dielectric constant tensor:
#      x y z
#    x 3.072460 0.000000 0.080250 
#    y 0.000000 3.449510 0.000000 
#    z 0.080250 0.000000 3.729960 
# 
# 
# High freq. dielectric constant tensor:
#      x y z
#    x 1.671470 0.000000 0.011330 
#    y 0.000000 1.722800 0.000000 
#    z 0.011330 0.000000 1.729170 
# 
# From -- ./inp_files/225304.got.cif
#   From: 2010.06.25/outbox.cif.g09.slc.cpg/sg12_113_cif.got.tgz:225304.got - 2010.06.28 00:19:55.
