data_PCOD8092215
_publ_section_title
;
Structure prediction by ZEFSAII (Michael W. Deem and Ramdas Pophale) SiO2 
 PCOD8092215
Probable space group: C 2/M
;
_chemical_formula_sum "Si O2"
_cell_formula_units_Z 56
_cell_length_a 23.630144
_cell_length_b 13.657540
_cell_length_c 7.466273
_cell_angle_alpha 90.000000
_cell_angle_beta 99.111875
_cell_angle_gamma 90.000000
_cell_volume 2379.181003
_symmetry_space_group_name_H-M "C 2/M"
_symmetry_group_IT_number 12
_symmetry_cell_setting 'monoclinic'
loop_
_space_group_symop_operation_xyz
x,y,z
-x,y,-z
-x,-y,-z
x,-y,z
1/2+x,1/2+y,z
1/2-x,1/2+y,-z
1/2-x,1/2-y,-z
1/2+x,1/2-y,z
loop_
_atom_site_type_symbol
_atom_site_label
_atom_site_fract_x
_atom_site_fract_y
_atom_site_fract_z
Si Si1 0.742029 0.110263 0.372627
Si Si2 0.240866 0.689133 0.764515
Si Si3 0.355665 0.389175 0.931996
Si Si4 0.063861 0.804833 0.319681
Si Si5 0.387412 0.895474 0.661513
Si Si6 0.623904 0.892317 0.766368
Si Si7 0.067271 0.802033 0.738591
O O1 0.774240 0.195739 0.277695
O O2 0.752013 0.130346 0.586967
O O3 0.675268 0.120060 0.286005
O O4 0.764564 0.000000 0.338470
O O5 0.299193 0.679287 0.908125
O O6 0.188268 0.642439 0.848433
O O7 0.334195 0.500000 0.917392
O O8 0.395113 0.372398 0.776826
O O9 0.392334 0.373095 0.129322
O O10 0.071322 0.692207 0.259157
O O11 0.081634 0.816263 0.536158
O O12 0.997970 0.832216 0.254172
O O13 0.380070 0.899247 0.446845
O O14 0.413255 0.000000 0.739953
O O15 0.578251 0.810701 0.808228
O O16 0.611497 0.000000 0.846039
#
# Coordination Sequence:
#
# PCOD8092215 Si02
#       7
#     8   8   8   8   8   8   8
#     4   9  16  29  54  90 126 161 203 251 305 370
#     4  10  19  34  59  92 130 165 207 256 310 376
#     4  12  25  42  65  92 123 166 213 263 322 374
#     4  10  21  42  64  90 123 164 209 265 317 365
#     4   8  14  29  57  89 119 156 200 246 305 370
#     4   9  18  36  60  87 126 170 202 249 318 376
#     4  10  24  41  62  92 126 161 214 263 309 377
#
# _framework density 23.537510000000001
#
# number of rings (size 3 to 8) (size 9 to 14) (size 15 to 20)
#    0.000    2.286    1.429    2.571    2.000    2.857 
#    0.000    6.429    0.000    1.714    0.000    0.000 
#    0.000    0.000    0.000    0.000    0.000    0.000 
#
# Total GULP energy -347093.947024 kJ/mol
# GULP energy per Si atom -12396.212394 kJ/mol
# Density = 2.348394 g / cm^3
# Si number density = 23.537510 Si / 1000 Ang^3
#
#
#
# Elastic Constant Matrix: (Units=GPa)
#
#
# Indices 1 2 3 4 5 6 
#
# 1 39.9325 -4.6126 27.1130 0.0000 19.7229 0.0000
# 2 -4.6126 128.5675 21.8538 0.0000 9.0135 0.0000
# 3 27.1130 21.8538 76.5361 0.0000 14.8057 0.0000
# 4 0.0000 0.0000 0.0000 12.1047 0.0000 2.2491
# 5 19.7229 9.0135 14.8057 0.0000 27.7985 0.0000
# 6 0.0000 0.0000 0.0000 2.2491 0.0000 29.7249
#
#
#
# Elastic Compliance Matrix: (Units=1/GPa)
#
#
# Indices 1 2 3 4 5 6 
#
# 1 0.049913 0.006221 -0.013621 0.000000 -0.030176 0.000000
# 2 0.006221 0.009012 -0.003744 0.000000 -0.005342 0.000000
# 3 -0.013621 -0.003744 0.018792 0.000000 0.000869 0.000000
# 4 0.000000 0.000000 0.000000 0.083790 0.000000 -0.006340
# 5 -0.030176 -0.005342 0.000869 0.000000 0.058652 0.000000
# 6 0.000000 0.000000 0.000000 -0.006340 0.000000 0.034121
#
#
# Mechanical properties :
#
#
# Convention : Reuss Voigt Hill
#
# Bulk Modulus (GPa) = 18.04056 37.08273 27.56164
# Shear Modulus (GPa) = 16.94665 27.30443 22.12554
#
# Velocity S-wave (km/s) = 2.68616 3.40963 3.06929
# Velocity P-wave (km/s) = 4.15955 5.59372 4.92908
#
# Compressibility (1/GPa) = 0.05543065
#
# Stress axis : x y z
#
# Youngs Moduli (GPa) = 20.03485 110.96167 53.21475
#
# Poissons Ratio (x) = -0.69035 0.72483
# Poissons Ratio (y) = -0.12465 0.19923
# Poissons Ratio (z) = 0.27289 0.41542
#
# Static dielectric constant tensor:
#      x y z
#    x 4.029770 0.000000 0.071660 
#    y 0.000000 4.508260 0.000000 
#    z 0.071660 0.000000 3.968100 
# 
# 
# High freq. dielectric constant tensor:
#      x y z
#    x 1.910750 0.000000 0.006270 
#    y 0.000000 1.935250 0.000000 
#    z 0.006270 0.000000 1.916140 
# 
# From -- ./inp_files/96487.got.cif
#   From: 2010.06.25/outbox.cif.g09.slc.cpg/sg12_49_cif.got.tgz:96487.got - 2010.06.28 00:19:55.
