data_PCOD8092242
_publ_section_title
;
Structure prediction by ZEFSAII (Michael W. Deem and Ramdas Pophale) SiO2 
 PCOD8092242
Probable space group: C 2/M
;
_chemical_formula_sum "Si O2"
_cell_formula_units_Z 64
_cell_length_a 25.433599
_cell_length_b 8.882879
_cell_length_c 14.701554
_cell_angle_alpha 90.000000
_cell_angle_beta 80.610236
_cell_angle_gamma 90.000000
_cell_volume 3276.925014
_symmetry_space_group_name_H-M "C 2/M"
_symmetry_group_IT_number 12
_symmetry_cell_setting 'monoclinic'
loop_
_space_group_symop_operation_xyz
x,y,z
-x,y,-z
-x,-y,-z
x,-y,z
1/2+x,1/2+y,z
1/2-x,1/2+y,-z
1/2-x,1/2-y,-z
1/2+x,1/2-y,z
loop_
_atom_site_type_symbol
_atom_site_label
_atom_site_fract_x
_atom_site_fract_y
_atom_site_fract_z
Si Si1 0.212726 0.178038 0.283713
Si Si2 0.242315 0.170879 0.907181
Si Si3 0.498001 0.820814 0.288264
Si Si4 0.102902 0.326117 0.361642
Si Si5 0.632656 0.666851 0.850221
Si Si6 0.103307 0.326907 0.571579
Si Si7 0.972698 0.323540 0.096854
Si Si8 0.308037 0.324386 0.350400
O O1 0.227133 0.242035 0.180848
O O2 0.152677 0.223215 0.322776
O O3 0.251261 0.243157 0.352012
O O4 0.218580 0.000000 0.280309
O O5 0.179281 0.172231 0.910305
O O6 0.264117 0.000000 0.903058
O O7 0.250000 0.250000 0.000000
O O8 0.552333 0.764096 0.319348
O O9 0.445881 0.758603 0.356105
O O10 0.496920 0.759504 0.184588
O O11 0.495981 0.000000 0.293145
O O12 0.115725 0.500000 0.334221
O O13 0.087895 0.308417 0.471149
O O14 0.607022 0.500000 0.854365
O O15 0.589633 0.789036 0.891347
O O16 0.655401 0.711376 0.746198
O O17 0.113262 0.500000 0.595011
O O18 0.158873 0.238867 0.573436
O O19 0.981751 0.500000 0.092674
O O20 0.000000 0.249551 0.000000
O O21 0.296120 0.500000 0.366635
#
# Coordination Sequence:
#
# PCOD8092242 Si02
#       8
#     8   8   8   8   8   8   8   8
#     4  11  23  39  58  83 117 155 196 240 292 347
#     4  10  21  38  60  87 116 149 193 239 290 350
#     4   9  18  35  57  82 114 150 192 239 287 349
#     4  10  21  37  57  82 116 155 194 240 294 351
#     4   9  19  35  54  78 109 144 181 228 282 337
#     4  10  19  34  60  87 109 147 197 241 292 353
#     4  10  20  33  53  83 113 144 186 232 281 337
#     4  10  20  36  59  84 112 147 189 239 295 349
#
# _framework density 19.530505000000002
#
# number of rings (size 3 to 8) (size 9 to 14) (size 15 to 20)
#    0.000    2.125    1.250    3.000    0.000    6.250 
#    0.000    2.500    0.000    1.500    0.000    0.000 
#    0.000    0.000    0.000    0.000    0.000    0.000 
#
# Total GULP energy -396814.788695 kJ/mol
# GULP energy per Si atom -12400.462147 kJ/mol
# Density = 1.948605 g / cm^3
# Si number density = 19.530505 Si / 1000 Ang^3
#
#
#
# Elastic Constant Matrix: (Units=GPa)
#
#
# Indices 1 2 3 4 5 6 
#
# 1 124.0117 42.5538 53.1244 0.0000 6.2917 0.0000
# 2 42.5538 85.6211 34.7530 0.0000 2.0422 0.0000
# 3 53.1244 34.7530 106.1117 0.0000 9.5528 0.0000
# 4 0.0000 0.0000 0.0000 23.0345 0.0000 0.9370
# 5 6.2917 2.0422 9.5528 0.0000 23.6759 0.0000
# 6 0.0000 0.0000 0.0000 0.9370 0.0000 32.2989
#
#
#
# Elastic Compliance Matrix: (Units=1/GPa)
#
#
# Indices 1 2 3 4 5 6 
#
# 1 0.011269 -0.003832 -0.004303 0.000000 -0.000928 0.000000
# 2 -0.003832 0.014782 -0.003009 0.000000 0.000957 0.000000
# 3 -0.004303 -0.003009 0.012907 0.000000 -0.003804 0.000000
# 4 0.000000 0.000000 0.000000 0.043464 0.000000 -0.001261
# 5 -0.000928 0.000957 -0.003804 0.000000 0.043936 0.000000
# 6 0.000000 0.000000 0.000000 -0.001261 0.000000 0.030997
#
#
# Mechanical properties :
#
#
# Convention : Reuss Voigt Hill
#
# Bulk Modulus (GPa) = 59.99090 64.06744 62.02917
# Shear Modulus (GPa) = 26.99763 28.15607 27.57685
#
# Velocity S-wave (km/s) = 3.72201 3.80102 3.76172
# Velocity P-wave (km/s) = 7.01814 7.22071 7.12015
#
# Compressibility (1/GPa) = 0.01666920
#
# Stress axis : x y z
#
# Youngs Moduli (GPa) = 88.73727 67.64791 77.48024
#
# Poissons Ratio (x) = 0.25923 0.33342
# Poissons Ratio (y) = 0.34004 0.23315
# Poissons Ratio (z) = 0.38187 0.20356
#
# Static dielectric constant tensor:
#      x y z
#    x 3.631180 0.000000 0.125900 
#    y 0.000000 3.388090 0.000000 
#    z 0.125900 0.000000 3.685920 
# 
# 
# High freq. dielectric constant tensor:
#      x y z
#    x 1.763120 0.000000 0.007220 
#    y 0.000000 1.742410 0.000000 
#    z 0.007220 0.000000 1.763470 
# 
# From -- ./inp_files/238641.got.cif
#   From: 2010.06.25/outbox.cif.g09.slc.cpg/sg12_120_cif.got.tgz:238641.got - 2010.06.28 00:19:55.
