data_PCOD8092350
_publ_section_title
;
Structure prediction by ZEFSAII (Michael W. Deem and Ramdas Pophale) SiO2 
 PCOD8092350
Probable space group: C 2/M
;
_chemical_formula_sum "Si O2"
_cell_formula_units_Z 48
_cell_length_a 14.665620
_cell_length_b 17.419771
_cell_length_c 11.721402
_cell_angle_alpha 90.000000
_cell_angle_beta 68.939281
_cell_angle_gamma 90.000000
_cell_volume 2794.455625
_symmetry_space_group_name_H-M "C 2/M"
_symmetry_group_IT_number 12
_symmetry_cell_setting 'monoclinic'
loop_
_space_group_symop_operation_xyz
x,y,z
-x,y,-z
-x,-y,-z
x,-y,z
1/2+x,1/2+y,z
1/2-x,1/2+y,-z
1/2-x,1/2-y,-z
1/2+x,1/2-y,z
loop_
_atom_site_type_symbol
_atom_site_label
_atom_site_fract_x
_atom_site_fract_y
_atom_site_fract_z
Si Si1 0.169132 0.840503 0.018718
Si Si2 0.713739 0.240137 0.208561
Si Si3 0.930711 0.500000 0.788386
Si Si4 0.000000 0.745516 0.000000
Si Si5 0.022556 0.656029 0.358139
Si Si6 0.626216 0.000000 0.818506
Si Si7 0.753768 0.000000 0.985979
Si Si8 0.369050 0.831625 0.246556
O O1 0.218217 0.802946 0.106645
O O2 0.063121 0.802402 0.050895
O O3 0.231765 0.832313 0.873534
O O4 0.169550 0.930260 0.047344
O O5 0.607824 0.217999 0.301016
O O6 0.773785 0.277000 0.287105
O O7 0.947730 0.574067 0.703633
O O8 0.817780 0.500000 0.873756
O O9 0.006605 0.500000 0.862447
O O10 0.935654 0.688725 0.106220
O O11 0.000000 0.647935 0.500000
O O12 0.926950 0.687470 0.336223
O O13 0.661792 0.078389 0.740363
O O14 0.674638 0.000000 0.920230
#
# Coordination Sequence:
#
# PCOD8092350 Si02
#       8
#     8   8   4   4   8   4   4   8
#     4  10  20  32  53  78 110 136 171 216 274 312
#     4  10  19  35  51  79 110 136 172 224 263 311
#     4  10  22  34  49  79 113 136 174 214 264 318
#     4  10  20  34  52  78 110 138 168 226 266 312
#     4  11  22  37  55  77 108 147 179 213 261 314
#     4  10  21  27  50  83 107 134 165 214 272 324
#     4  12  19  32  53  82 106 141 168 214 269 325
#     4  10  21  33  54  80 108 136 176 220 267 311
#
# _framework density 17.176870999999998
#
# number of rings (size 3 to 8) (size 9 to 14) (size 15 to 20)
#    0.000    1.667    5.000    0.500    4.667    1.000 
#    0.000    0.000    0.000    0.000    0.000    2.333 
#    0.000    0.000    0.000    0.000    0.000    0.000 
#
# Total GULP energy -297444.567685 kJ/mol
# GULP energy per Si atom -12393.523654 kJ/mol
# Density = 1.713778 g / cm^3
# Si number density = 17.176871 Si / 1000 Ang^3
#
#
#
# Elastic Constant Matrix: (Units=GPa)
#
#
# Indices 1 2 3 4 5 6 
#
# 1 100.6999 49.9327 34.3812 0.0000 18.5217 0.0000
# 2 49.9327 107.5625 24.6987 0.0000 6.8787 0.0000
# 3 34.3812 24.6987 60.0719 0.0000 12.7622 0.0000
# 4 0.0000 0.0000 0.0000 8.9968 0.0000 3.7585
# 5 18.5217 6.8787 12.7622 0.0000 20.2592 0.0000
# 6 0.0000 0.0000 0.0000 3.7585 0.0000 27.3958
#
#
#
# Elastic Compliance Matrix: (Units=1/GPa)
#
#
# Indices 1 2 3 4 5 6 
#
# 1 0.016278 -0.005817 -0.004829 0.000000 -0.009865 0.000000
# 2 -0.005817 0.012361 -0.002299 0.000000 0.002569 0.000000
# 3 -0.004829 -0.002299 0.022227 0.000000 -0.008806 0.000000
# 4 0.000000 0.000000 0.000000 0.117908 0.000000 -0.016176
# 5 -0.009865 0.002569 -0.008806 0.000000 0.063054 0.000000
# 6 0.000000 0.000000 0.000000 -0.016176 0.000000 0.038721
#
#
# Mechanical properties :
#
#
# Convention : Reuss Voigt Hill
#
# Bulk Modulus (GPa) = 40.03857 54.03992 47.03925
# Shear Modulus (GPa) = 16.40617 21.95182 19.17900
#
# Velocity S-wave (km/s) = 3.09387 3.57877 3.34512
# Velocity P-wave (km/s) = 6.01023 6.97180 6.50880
#
# Compressibility (1/GPa) = 0.02497592
#
# Stress axis : x y z
#
# Youngs Moduli (GPa) = 61.43248 80.90104 44.99122
#
# Poissons Ratio (x) = 0.47059 0.21727
# Poissons Ratio (y) = 0.35734 0.10343
# Poissons Ratio (z) = 0.29666 0.18597
#
# Static dielectric constant tensor:
#      x y z
#    x 3.325090 0.000000 0.190720 
#    y 0.000000 3.253010 0.000000 
#    z 0.190720 0.000000 2.834710 
# 
# 
# High freq. dielectric constant tensor:
#      x y z
#    x 1.668430 0.000000 0.018110 
#    y 0.000000 1.667730 0.000000 
#    z 0.018110 0.000000 1.621560 
# 
# From -- ./inp_files/144827.got.cif
#   From: 2010.06.25/outbox.cif.g09.slc.cpg/sg12_73_cif.got.tgz:144827.got - 2010.06.28 00:19:55.
