data_PCOD8092080
_publ_section_title
;
Structure prediction by ZEFSAII (Michael W. Deem and Ramdas Pophale) SiO2 
 PCOD8092080
Probable space group: C 2/M
;
_chemical_formula_sum "Si O2"
_cell_formula_units_Z 40
_cell_length_a 15.165318
_cell_length_b 23.732438
_cell_length_c 5.274359
_cell_angle_alpha 90.000000
_cell_angle_beta 101.054631
_cell_angle_gamma 90.000000
_cell_volume 1863.071158
_symmetry_space_group_name_H-M "C 2/M"
_symmetry_group_IT_number 12
_symmetry_cell_setting 'monoclinic'
loop_
_space_group_symop_operation_xyz
x,y,z
-x,y,-z
-x,-y,-z
x,-y,z
1/2+x,1/2+y,z
1/2-x,1/2+y,-z
1/2-x,1/2-y,-z
1/2+x,1/2-y,z
loop_
_atom_site_type_symbol
_atom_site_label
_atom_site_fract_x
_atom_site_fract_y
_atom_site_fract_z
Si Si1 0.773416 0.563031 0.557079
Si Si2 0.058782 0.639872 0.284679
Si Si3 0.379272 0.618062 0.773761
Si Si4 0.442658 0.265290 0.716412
Si Si5 0.593317 0.563180 0.709876
O O1 0.801953 0.500000 0.491705
O O2 0.860746 0.596334 0.691481
O O3 0.722146 0.593305 0.292010
O O4 0.702302 0.561789 0.748983
O O5 0.100648 0.703079 0.330976
O O6 0.000000 0.626183 0.500000
O O7 0.000000 0.633296 0.000000
O O8 0.370283 0.684608 0.707275
O O9 0.441137 0.586151 0.589540
O O10 0.426711 0.605967 0.069244
O O11 0.500000 0.278826 0.500000
O O12 0.500000 0.266620 0.000000
O O13 0.556970 0.500000 0.742427
#
# Coordination Sequence:
#
# PCOD8092080 Si02
#       5
#     8   8   8   8   8
#     4   9  21  37  59  83 113 146 184 230 274 325
#     4  10  23  39  56  82 114 148 186 226 274 329
#     4  10  19  34  59  83 106 148 187 224 276 327
#     4  10  21  39  58  80 114 148 182 229 277 326
#     4   9  18  33  54  81 112 141 178 226 270 319
#
# _framework density 21.469926000000001
#
# number of rings (size 3 to 8) (size 9 to 14) (size 15 to 20)
#    1.200    1.200    0.000    2.400    2.800    1.600 
#    0.000    1.000    0.000   20.400    0.000    0.000 
#    0.000    0.000    0.000    0.000    0.000    0.000 
#
# Total GULP energy -247850.267279 kJ/mol
# GULP energy per Si atom -12392.513364 kJ/mol
# Density = 2.142106 g / cm^3
# Si number density = 21.469926 Si / 1000 Ang^3
#
#
#
# Elastic Constant Matrix: (Units=GPa)
#
#
# Indices 1 2 3 4 5 6 
#
# 1 62.4433 57.9341 46.0429 0.0000 2.4033 0.0000
# 2 57.9341 168.5726 44.6680 0.0000 11.1654 0.0000
# 3 46.0429 44.6680 155.6512 0.0000 1.1332 0.0000
# 4 0.0000 0.0000 0.0000 25.6399 0.0000 7.5353
# 5 2.4033 11.1654 1.1332 0.0000 21.2523 0.0000
# 6 0.0000 0.0000 0.0000 7.5353 0.0000 35.4388
#
#
#
# Elastic Compliance Matrix: (Units=1/GPa)
#
#
# Indices 1 2 3 4 5 6 
#
# 1 0.027832 -0.008090 -0.005922 0.000000 0.001419 0.000000
# 2 -0.008090 0.009008 -0.000164 0.000000 -0.003809 0.000000
# 3 -0.005922 -0.000164 0.008221 0.000000 0.000318 0.000000
# 4 0.000000 0.000000 0.000000 0.041601 0.000000 -0.008846
# 5 0.001419 -0.003809 0.000318 0.000000 0.048878 0.000000
# 6 0.000000 0.000000 0.000000 -0.008846 0.000000 0.030098
#
#
# Mechanical properties :
#
#
# Convention : Reuss Voigt Hill
#
# Bulk Modulus (GPa) = 59.84603 75.99522 67.92063
# Shear Modulus (GPa) = 25.05499 32.33434 28.69467
#
# Velocity S-wave (km/s) = 3.41982 3.88497 3.65979
# Velocity P-wave (km/s) = 6.59760 7.45634 7.04008
#
# Compressibility (1/GPa) = 0.01670955
#
# Stress axis : x y z
#
# Youngs Moduli (GPa) = 35.92963 111.00808 121.63751
#
# Poissons Ratio (x) = 0.89806 0.72030
# Poissons Ratio (y) = 0.29067 0.01999
# Poissons Ratio (z) = 0.21276 0.01824
#
# Static dielectric constant tensor:
#      x y z
#    x 3.546880 0.000000 -0.053450 
#    y 0.000000 4.133290 0.000000 
#    z -0.053450 0.000000 3.846950 
# 
# 
# High freq. dielectric constant tensor:
#      x y z
#    x 1.817070 0.000000 -0.001860 
#    y 0.000000 1.851960 0.000000 
#    z -0.001860 0.000000 1.853040 
# 
# From -- ./inp_files/15301.got.cif
#   From: 2010.06.25/outbox.cif.g09.slc.cpg/sg12_8_cif.got.tgz:15301.got - 2010.06.28 00:19:55.
