data_PCOD8092186
_publ_section_title
;
Structure prediction by ZEFSAII (Michael W. Deem and Ramdas Pophale) SiO2 
 PCOD8092186
Probable space group: C 2/M
;
_chemical_formula_sum "Si O2"
_cell_formula_units_Z 64
_cell_length_a 18.539034
_cell_length_b 8.623190
_cell_length_c 29.738378
_cell_angle_alpha 90.000000
_cell_angle_beta 137.343652
_cell_angle_gamma 90.000000
_cell_volume 3221.405908
_symmetry_space_group_name_H-M "C 2/M"
_symmetry_group_IT_number 12
_symmetry_cell_setting 'monoclinic'
loop_
_space_group_symop_operation_xyz
x,y,z
-x,y,-z
-x,-y,-z
x,-y,z
1/2+x,1/2+y,z
1/2-x,1/2+y,-z
1/2-x,1/2-y,-z
1/2+x,1/2-y,z
loop_
_atom_site_type_symbol
_atom_site_label
_atom_site_fract_x
_atom_site_fract_y
_atom_site_fract_z
Si Si1 0.672402 0.318570 0.369444
Si Si2 0.893502 0.818003 0.476398
Si Si3 0.671618 0.677082 0.832161
Si Si4 0.646656 0.825453 0.729041
Si Si5 0.425962 0.820765 0.586684
Si Si6 0.971564 0.322583 0.772295
Si Si7 0.907699 0.318415 0.923957
Si Si8 0.383309 0.323823 0.817659
O O1 0.670765 0.500000 0.378435
O O2 0.790166 0.265631 0.407852
O O3 0.640272 0.229955 0.400132
O O4 0.590598 0.282729 0.291926
O O5 0.894630 0.781582 0.529799
O O6 0.000000 0.756227 0.500000
O O7 0.881451 0.000000 0.463203
O O8 0.650957 0.500000 0.835869
O O9 0.639325 0.701642 0.765488
O O10 0.597430 0.784677 0.828894
O O11 0.795100 0.722665 0.895814
O O12 0.551495 0.793324 0.651156
O O13 0.756816 0.805255 0.753208
O O14 0.637795 0.000000 0.745267
O O15 0.399821 0.000000 0.564710
O O16 0.950745 0.500000 0.750168
O O17 0.935973 0.290978 0.806526
O O18 0.913379 0.500000 0.914847
O O19 0.921363 0.222224 0.884742
O O20 0.000000 0.266316 0.000000
O O21 0.419108 0.500000 0.824770
#
# Coordination Sequence:
#
# PCOD8092186 Si02
#       8
#     8   8   8   8   8   8   8   8
#     4  12  25  42  64  88 116 155 200 246 299 358
#     4  11  26  45  62  86 119 155 198 248 301 358
#     4  10  19  34  59  89 119 154 196 239 285 344
#     4   9  19  35  57  85 116 151 191 240 291 347
#     4  11  22  39  63  89 118 154 197 243 298 357
#     4  12  24  39  59  87 123 158 196 246 302 352
#     4   9  19  38  63  91 124 161 199 240 290 348
#     4  10  21  37  58  89 123 156 199 245 293 346
#
# _framework density 19.867103
#
# number of rings (size 3 to 8) (size 9 to 14) (size 15 to 20)
#    0.000    1.500    1.250    4.125    1.750    2.750 
#    0.000    0.625    0.000    0.000    0.000    0.000 
#    0.000    0.000    0.000    0.000    0.000    0.000 
#
# Total GULP energy -396932.918498 kJ/mol
# GULP energy per Si atom -12404.153703 kJ/mol
# Density = 1.982188 g / cm^3
# Si number density = 19.867103 Si / 1000 Ang^3
#
#
#
# Elastic Constant Matrix: (Units=GPa)
#
#
# Indices 1 2 3 4 5 6 
#
# 1 104.8471 26.2689 39.4666 0.0000 10.6407 0.0000
# 2 26.2689 69.2494 24.9829 0.0000 7.3862 0.0001
# 3 39.4666 24.9829 99.4831 0.0000 16.0757 0.0000
# 4 0.0000 0.0000 0.0000 26.8408 0.0000 -1.0157
# 5 10.6407 7.3862 16.0757 0.0000 22.9575 0.0000
# 6 0.0000 0.0001 0.0000 -1.0157 0.0000 31.6849
#
#
#
# Elastic Compliance Matrix: (Units=1/GPa)
#
#
# Indices 1 2 3 4 5 6 
#
# 1 0.011852 -0.002973 -0.003634 0.000000 -0.001993 0.000000
# 2 -0.002973 0.016765 -0.002686 0.000000 -0.002135 0.000000
# 3 -0.003634 -0.002686 0.013256 0.000000 -0.006734 0.000000
# 4 0.000000 0.000000 0.000000 0.037302 0.000000 0.001196
# 5 -0.001993 -0.002135 -0.006734 0.000000 0.049885 0.000000
# 6 0.000000 0.000000 0.000000 0.001196 0.000000 0.031599
#
#
# Mechanical properties :
#
#
# Convention : Reuss Voigt Hill
#
# Bulk Modulus (GPa) = 42.93769 50.55738 46.74754
# Shear Modulus (GPa) = 26.73701 28.48737 27.61219
#
# Velocity S-wave (km/s) = 3.67249 3.79079 3.73211
# Velocity P-wave (km/s) = 6.29621 6.68305 6.49251
#
# Compressibility (1/GPa) = 0.02328956
#
# Stress axis : x y z
#
# Youngs Moduli (GPa) = 84.37067 59.64840 75.43698
#
# Poissons Ratio (x) = 0.17732 0.27410
# Poissons Ratio (y) = 0.25081 0.20261
# Poissons Ratio (z) = 0.30656 0.16020
#
# Static dielectric constant tensor:
#      x y z
#    x 3.673800 0.000000 0.322920 
#    y 0.000000 3.609560 0.000000 
#    z 0.322920 0.000000 3.597050 
# 
# 
# High freq. dielectric constant tensor:
#      x y z
#    x 1.775630 0.000000 0.017450 
#    y 0.000000 1.781140 0.000000 
#    z 0.017450 0.000000 1.764700 
# 
# From -- ./inp_files/378437.got.cif
#   From: 2010.06.25/outbox.cif.g09.slc.cpg/sg12_190_cif.got.tgz:378437.got - 2010.06.28 00:19:55.
