data_PCOD8092885
_publ_section_title
;
Structure prediction by ZEFSAII (Michael W. Deem and Ramdas Pophale) SiO2 
 PCOD8092885
Probable space group: C 2/M
;
_chemical_formula_sum "Si O2"
_cell_formula_units_Z 40
_cell_length_a 15.841339
_cell_length_b 13.188798
_cell_length_c 7.540415
_cell_angle_alpha 90.000000
_cell_angle_beta 79.548677
_cell_angle_gamma 90.000000
_cell_volume 1549.268524
_symmetry_space_group_name_H-M "C 2/M"
_symmetry_group_IT_number 12
_symmetry_cell_setting 'monoclinic'
loop_
_space_group_symop_operation_xyz
x,y,z
-x,y,-z
-x,-y,-z
x,-y,z
1/2+x,1/2+y,z
1/2-x,1/2+y,-z
1/2-x,1/2-y,-z
1/2+x,1/2-y,z
loop_
_atom_site_type_symbol
_atom_site_label
_atom_site_fract_x
_atom_site_fract_y
_atom_site_fract_z
Si Si1 0.978309 0.678955 0.756720
Si Si2 0.133736 0.612243 0.520110
Si Si3 0.464190 0.611531 0.210787
Si Si4 0.671256 0.881761 0.967469
Si Si5 0.724237 0.302436 0.738484
O O1 0.077944 0.638913 0.719392
O O2 0.980812 0.800144 0.713239
O O3 0.930510 0.619944 0.620235
O O4 0.927571 0.655374 0.958682
O O5 0.171201 0.500000 0.519950
O O6 0.213219 0.689062 0.458901
O O7 0.478190 0.500000 0.293148
O O8 0.364047 0.638784 0.258051
O O9 0.500000 0.608672 0.000000
O O10 0.727640 0.859902 0.120031
O O11 0.675679 0.000000 0.915846
O O12 0.710850 0.816834 0.789160
#
# Coordination Sequence:
#
# PCOD8092885 Si02
#       5
#     8   8   8   8   8
#     4  10  19  36  58  86 111 143 189 231 275 339
#     4  10  20  38  63  84 111 149 187 233 283 331
#     4  11  22  37  55  81 117 155 185 225 282 334
#     4  10  19  35  58  83 110 145 190 238 275 321
#     4  10  20  36  55  83 111 149 189 228 276 339
#
# _framework density 25.818636000000001
#
# number of rings (size 3 to 8) (size 9 to 14) (size 15 to 20)
#    0.000    1.800    2.000    5.400    0.000    0.800 
#    0.000    7.000    0.000    0.000    0.000    0.000 
#    0.000    0.000    0.000    0.000    0.000    0.000 
#
# Total GULP energy -247929.944097 kJ/mol
# GULP energy per Si atom -12396.497205 kJ/mol
# Density = 2.575987 g / cm^3
# Si number density = 25.818636 Si / 1000 Ang^3
#
#
#
# Elastic Constant Matrix: (Units=GPa)
#
#
# Indices 1 2 3 4 5 6 
#
# 1 81.6138 43.3782 46.3022 0.0000 -31.2802 0.0000
# 2 43.3782 257.0276 49.1440 0.0000 -25.8960 0.0000
# 3 46.3022 49.1440 171.6905 0.0000 -49.5981 0.0000
# 4 0.0000 0.0000 0.0000 27.1532 0.0000 -16.0416
# 5 -31.2802 -25.8960 -49.5981 0.0000 37.5969 0.0000
# 6 0.0000 0.0000 0.0000 -16.0416 0.0000 5.0117
#
#
#
# Elastic Compliance Matrix: (Units=1/GPa)
#
#
# Indices 1 2 3 4 5 6 
#
# 1 0.018703 -0.001666 -0.000652 0.000000 0.013553 0.000000
# 2 -0.001666 0.004366 -0.000537 0.000000 0.000913 0.000000
# 3 -0.000652 -0.000537 0.009517 0.000000 0.011644 0.000000
# 4 0.000000 0.000000 0.000000 -0.041334 0.000000 -0.132304
# 5 0.013553 0.000913 0.011644 0.000000 0.053863 0.000000
# 6 0.000000 0.000000 0.000000 -0.132304 0.000000 -0.223948
#
#
# Mechanical properties :
#
#
# Convention : Reuss Voigt Hill
#
# Bulk Modulus (GPa) = 37.20618 87.55341 62.37979
# Shear Modulus (GPa) = -30.45721 38.71954 4.13117
#
# Velocity S-wave (km/s) = -3.43834 3.87676 1.26631
# Velocity P-wave (km/s) = 1.14938 7.35008 5.13335
#
# Compressibility (1/GPa) = 0.02687726
#
# Stress axis : x y z
#
# Youngs Moduli (GPa) = 53.46837 229.01773 105.07083
#
# Poissons Ratio (x) = 0.38162 0.06847
# Poissons Ratio (y) = 0.08910 0.05639
# Poissons Ratio (z) = 0.03484 0.12290
#
# Static dielectric constant tensor:
#      x y z
#    x 4.915180 0.000000 -0.651920 
#    y 0.000000 4.899890 0.000000 
#    z -0.651920 0.000000 5.532100 
# 
# 
# High freq. dielectric constant tensor:
#      x y z
#    x 2.042580 0.000000 -0.008650 
#    y 0.000000 2.037410 0.000000 
#    z -0.008650 0.000000 2.055710 
# 
# From -- ./inp_files/153293.got.cif
#   From: 2010.06.25/outbox.cif.g09.slc.cpg/sg12_77_cif.got.tgz:153293.got - 2010.06.28 00:19:55.
