data_PCOD8092068
_publ_section_title
;
Structure prediction by ZEFSAII (Michael W. Deem and Ramdas Pophale) SiO2 
 PCOD8092068
Probable space group: C 2/M
;
_chemical_formula_sum "Si O2"
_cell_formula_units_Z 56
_cell_length_a 10.096426
_cell_length_b 17.563702
_cell_length_c 29.313969
_cell_angle_alpha 90.000000
_cell_angle_beta 34.707787
_cell_angle_gamma 90.000000
_cell_volume 2959.846190
_symmetry_space_group_name_H-M "C 2/M"
_symmetry_group_IT_number 12
_symmetry_cell_setting 'monoclinic'
loop_
_space_group_symop_operation_xyz
x,y,z
-x,y,-z
-x,-y,-z
x,-y,z
1/2+x,1/2+y,z
1/2-x,1/2+y,-z
1/2-x,1/2-y,-z
1/2+x,1/2-y,z
loop_
_atom_site_type_symbol
_atom_site_label
_atom_site_fract_x
_atom_site_fract_y
_atom_site_fract_z
Si Si1 0.164128 0.408932 0.841280
Si Si2 0.153358 0.320135 0.999264
Si Si3 0.101895 0.087188 0.847700
Si Si4 0.659575 0.090775 0.571203
Si Si5 0.051132 0.409406 0.772398
Si Si6 0.336818 0.412859 0.274635
Si Si7 0.883260 0.090525 0.601084
O O1 0.156352 0.500000 0.848164
O O2 0.423884 0.374755 0.775740
O O3 0.083494 0.379830 0.814530
O O4 0.993979 0.375366 0.926981
O O5 0.368603 0.366223 0.918728
O O6 0.250000 0.250000 0.000000
O O7 0.000000 0.291371 0.000000
O O8 0.301996 0.119652 0.824574
O O9 0.196074 0.095285 0.770032
O O10 0.044870 0.000000 0.875783
O O11 0.397699 0.122995 0.635995
O O12 0.749039 0.121585 0.594649
O O13 0.843639 0.115799 0.479676
O O14 0.644824 0.000000 0.578166
O O15 0.056460 0.500000 0.769157
O O16 0.261054 0.376770 0.681341
O O17 0.355816 0.500000 0.284196
O O18 0.869645 0.000000 0.605460
#
# Coordination Sequence:
#
# PCOD8092068 Si02
#       7
#     8   8   8   8   8   8   8
#     4  10  21  36  56  77 104 139 176 217 260 305
#     4  12  27  42  56  77 106 134 168 216 268 319
#     4  10  19  34  59  79 100 137 180 217 251 301
#     4   8  12  19  37  65 100 139 173 204 245 299
#     4   9  17  29  47  76 107 137 173 214 255 300
#     4   9  15  27  47  74  99 132 178 215 247 295
#     4   8  12  20  36  64 103 140 168 202 251 301
#
# _framework density 18.919902
#
# number of rings (size 3 to 8) (size 9 to 14) (size 15 to 20)
#    0.000    2.571    2.857    1.286    2.000    0.571 
#    0.000    2.857    0.000    4.286    0.000    0.000 
#    0.000    6.857    0.000    0.000    0.000    0.000 
#
# Total GULP energy -346956.450407 kJ/mol
# GULP energy per Si atom -12391.301800 kJ/mol
# Density = 1.887684 g / cm^3
# Si number density = 18.919902 Si / 1000 Ang^3
#
#
#
# Elastic Constant Matrix: (Units=GPa)
#
#
# Indices 1 2 3 4 5 6 
#
# 1 116.7213 20.3169 38.9144 -0.0019 -11.6767 -0.0015
# 2 20.3169 25.9070 20.2796 -0.0238 -4.8576 0.0015
# 3 38.9144 20.2796 120.5044 0.1005 -22.4675 -0.0215
# 4 -0.0019 -0.0238 0.1005 -2.2969 -0.0231 -0.3156
# 5 -11.6767 -4.8576 -22.4675 -0.0231 35.5315 -0.0063
# 6 -0.0015 0.0015 -0.0215 -0.3156 -0.0063 15.8533
#
#
#
# Elastic Compliance Matrix: (Units=1/GPa)
#
#
# Indices 1 2 3 4 5 6 
#
# 1 0.010496 -0.006364 -0.002083 -0.000047 0.001262 -0.000002
# 2 -0.006364 0.048386 -0.005945 -0.000759 0.000764 -0.000028
# 3 -0.002083 -0.005945 0.010987 0.000486 0.005451 0.000027
# 4 -0.000047 -0.000759 0.000486 -0.434152 -0.000096 -0.008643
# 5 0.001262 0.000764 0.005451 -0.000096 0.032110 0.000018
# 6 -0.000002 -0.000028 0.000027 -0.008643 0.000018 0.062906
#
#
# Mechanical properties :
#
#
# Convention : Reuss Voigt Hill
#
# Bulk Modulus (GPa) = 24.33908 46.90607 35.62258
# Shear Modulus (GPa) = -22.04710 22.05904 0.00597
#
# Velocity S-wave (km/s) = -3.41733 3.41826 0.05623
# Velocity P-wave (km/s) = 1.63667 6.35807 4.34433
#
# Compressibility (1/GPa) = 0.04108618
#
# Stress axis : x y z
#
# Youngs Moduli (GPa) = 95.27535 20.66698 91.01310
#
# Poissons Ratio (x) = 0.13152 0.18959
# Poissons Ratio (y) = 0.60633 0.54105
# Poissons Ratio (z) = 0.19847 0.12286
#
# Static dielectric constant tensor:
#      x y z
#    x 3.653510 0.001380 -0.182670 
#    y 0.001380 3.377660 -0.012350 
#    z -0.182670 -0.012350 3.900160 
# 
# 
# High freq. dielectric constant tensor:
#      x y z
#    x 1.732620 0.000000 -0.014150 
#    y 0.000000 1.659780 0.000000 
#    z -0.014150 0.000000 1.757450 
# 
# From -- ./inp_files/356678.got.cif
#   From: 2010.06.25/outbox.cif.g09.slc.cpg/sg12_179_cif.got.tgz:356678.got - 2010.06.28 00:19:55.
