data_PCOD8092607
_publ_section_title
;
Structure prediction by ZEFSAII (Michael W. Deem and Ramdas Pophale) SiO2 
 PCOD8092607
Probable space group: C 2/M
;
_chemical_formula_sum "Si O2"
_cell_formula_units_Z 64
_cell_length_a 19.066005
_cell_length_b 15.205906
_cell_length_c 16.926058
_cell_angle_alpha 90.000000
_cell_angle_beta 139.494607
_cell_angle_gamma 90.000000
_cell_volume 3187.279155
_symmetry_space_group_name_H-M "C 2/M"
_symmetry_group_IT_number 12
_symmetry_cell_setting 'monoclinic'
loop_
_space_group_symop_operation_xyz
x,y,z
-x,y,-z
-x,-y,-z
x,-y,z
1/2+x,1/2+y,z
1/2-x,1/2+y,-z
1/2-x,1/2-y,-z
1/2+x,1/2-y,z
loop_
_atom_site_type_symbol
_atom_site_label
_atom_site_fract_x
_atom_site_fract_y
_atom_site_fract_z
Si Si1 0.291035 0.708752 0.369697
Si Si2 0.970577 0.898210 0.065374
Si Si3 0.197029 0.100973 0.778573
Si Si4 0.383125 0.896416 0.063529
Si Si5 0.601074 0.148622 0.626640
Si Si6 0.494011 0.702238 0.639076
Si Si7 0.060842 0.740680 0.234471
Si Si8 0.267656 0.097341 0.117643
O O1 0.276329 0.653526 0.277648
O O2 0.320479 0.810082 0.372865
O O3 0.385540 0.665816 0.504353
O O4 0.182702 0.708096 0.328060
O O5 0.047867 0.835156 0.181401
O O6 0.983164 0.000000 0.104098
O O7 0.849402 0.858683 0.972198
O O8 0.000000 0.890170 0.000000
O O9 0.083480 0.125466 0.724006
O O10 0.192088 0.000000 0.750983
O O11 0.293147 0.121410 0.921173
O O12 0.486551 0.836185 0.132961
O O13 0.337968 0.858469 0.108786
O O14 0.416202 0.000000 0.095603
O O15 0.500000 0.095470 0.500000
O O16 0.548794 0.228360 0.628888
O O17 0.669782 0.090144 0.745487
O O18 0.463501 0.747537 0.694654
O O19 0.244023 0.000000 0.066797
#
# Coordination Sequence:
#
# PCOD8092607 Si02
#       8
#     8   8   8   8   8   8   8   8
#     4  10  23  38  57  87 120 155 202 251 305 364
#     4  10  23  38  56  87 121 152 196 251 305 366
#     4  10  22  41  63  90 122 158 208 263 313 369
#     4  10  23  38  58  92 125 157 204 250 299 371
#     4   9  18  35  55  80 111 147 199 249 290 353
#     4  10  21  38  60  86 115 155 206 255 296 366
#     4  12  23  37  64  86 124 168 201 245 319 368
#     4  10  19  35  56  81 115 150 194 249 296 351
#
# _framework density 20.079822
#
# number of rings (size 3 to 8) (size 9 to 14) (size 15 to 20)
#    0.000    1.875    1.250    3.000    5.250    4.250 
#    0.000    1.250    0.000    3.000    0.000    0.000 
#    0.000    0.000    0.000    0.000    0.000    0.000 
#
# Total GULP energy -396677.765472 kJ/mol
# GULP energy per Si atom -12396.180171 kJ/mol
# Density = 2.003412 g / cm^3
# Si number density = 20.079822 Si / 1000 Ang^3
#
#
#
# Elastic Constant Matrix: (Units=GPa)
#
#
# Indices 1 2 3 4 5 6 
#
# 1 94.9860 26.9804 29.5800 0.0000 18.6483 0.0000
# 2 26.9804 59.8951 26.6871 0.0000 6.1712 0.0000
# 3 29.5800 26.6871 99.5785 0.0000 5.5502 0.0000
# 4 0.0000 0.0000 0.0000 19.5642 0.0000 -2.7451
# 5 18.6483 6.1712 5.5502 0.0000 32.4674 0.0000
# 6 0.0000 0.0000 0.0000 -2.7451 0.0000 19.6049
#
#
#
# Elastic Compliance Matrix: (Units=1/GPa)
#
#
# Indices 1 2 3 4 5 6 
#
# 1 0.013902 -0.004426 -0.002570 0.000000 -0.006704 0.000000
# 2 -0.004426 0.020618 -0.004174 0.000000 -0.000663 0.000000
# 3 -0.002570 -0.004174 0.011911 0.000000 0.000233 0.000000
# 4 0.000000 0.000000 0.000000 0.052138 0.000000 0.007300
# 5 -0.006704 -0.000663 0.000233 0.000000 0.034737 0.000000
# 6 0.000000 0.000000 0.000000 0.007300 0.000000 0.052030
#
#
# Mechanical properties :
#
#
# Convention : Reuss Voigt Hill
#
# Bulk Modulus (GPa) = 41.50919 46.77272 44.14096
# Shear Modulus (GPa) = 23.17977 25.74143 24.46060
#
# Velocity S-wave (km/s) = 3.40130 3.58432 3.49401
# Velocity P-wave (km/s) = 6.01183 6.36190 6.18934
#
# Compressibility (1/GPa) = 0.02409105
#
# Stress axis : x y z
#
# Youngs Moduli (GPa) = 71.93435 48.50186 83.95470
#
# Poissons Ratio (x) = 0.21469 0.21572
# Poissons Ratio (y) = 0.31842 0.35040
# Poissons Ratio (z) = 0.18484 0.20243
#
# Static dielectric constant tensor:
#      x y z
#    x 3.779820 0.000000 -0.005020 
#    y 0.000000 3.439820 0.000000 
#    z -0.005020 0.000000 4.135380 
# 
# 
# High freq. dielectric constant tensor:
#      x y z
#    x 1.786890 0.000000 0.002300 
#    y 0.000000 1.763810 0.000000 
#    z 0.002300 0.000000 1.793910 
# 
# From -- ./inp_files/226905.got.cif
#   From: 2010.06.25/outbox.cif.g09.slc.cpg/sg12_114_cif.got.tgz:226905.got - 2010.06.28 00:19:55.
