data_PCOD8092696
_publ_section_title
;
Structure prediction by ZEFSAII (Michael W. Deem and Ramdas Pophale) SiO2 
 PCOD8092696
Probable space group: C 2/M
;
_chemical_formula_sum "Si O2"
_cell_formula_units_Z 64
_cell_length_a 28.680108
_cell_length_b 9.015093
_cell_length_c 23.840504
_cell_angle_alpha 90.000000
_cell_angle_beta 33.037871
_cell_angle_gamma 90.000000
_cell_volume 3360.600598
_symmetry_space_group_name_H-M "C 2/M"
_symmetry_group_IT_number 12
_symmetry_cell_setting 'monoclinic'
loop_
_space_group_symop_operation_xyz
x,y,z
-x,y,-z
-x,-y,-z
x,-y,z
1/2+x,1/2+y,z
1/2-x,1/2+y,-z
1/2-x,1/2-y,-z
1/2+x,1/2-y,z
loop_
_atom_site_type_symbol
_atom_site_label
_atom_site_fract_x
_atom_site_fract_y
_atom_site_fract_z
Si Si1 0.089905 0.175931 0.931097
Si Si2 0.752226 0.327841 0.409184
Si Si3 0.122417 0.827615 0.638861
Si Si4 0.592800 0.670136 0.386602
Si Si5 0.741874 0.823904 0.302303
Si Si6 0.339708 0.670230 0.800997
Si Si7 0.430796 0.323571 0.820156
Si Si8 0.661580 0.324315 0.975675
O O1 0.168290 0.234023 0.813933
O O2 0.103792 0.226940 0.981340
O O3 0.086628 0.000000 0.930653
O O4 0.000000 0.244056 0.000000
O O5 0.766017 0.500000 0.382605
O O6 0.838552 0.262532 0.348658
O O7 0.673856 0.299234 0.530099
O O8 0.728770 0.243875 0.376437
O O9 0.027549 0.765108 0.724774
O O10 0.122962 0.000000 0.655309
O O11 0.500000 0.725835 0.500000
O O12 0.608189 0.500000 0.389928
O O13 0.664787 0.772601 0.340827
O O14 0.595919 0.685259 0.316158
O O15 0.740227 0.000000 0.307898
O O16 0.313669 0.500000 0.837534
O O17 0.385794 0.737659 0.809443
O O18 0.255475 0.761644 0.872861
O O19 0.431621 0.500000 0.818375
O O20 0.380370 0.261977 0.925088
O O21 0.668910 0.500000 0.970146
#
# Coordination Sequence:
#
# PCOD8092696 Si02
#       8
#     8   8   8   8   8   8   8   8
#     4   9  19  34  55  82 110 144 188 234 278 331
#     4  10  21  36  57  82 116 149 182 224 278 335
#     4   9  19  37  59  82 109 144 188 232 270 321
#     4  10  22  38  59  82 112 153 192 231 283 341
#     4  11  22  37  60  86 114 147 190 236 281 333
#     4  10  20  36  56  80 111 143 182 229 280 335
#     4   9  19  33  57  84 104 140 190 231 270 329
#     4  10  19  35  57  80 108 141 183 230 278 330
#
# _framework density 19.044215000000001
#
# number of rings (size 3 to 8) (size 9 to 14) (size 15 to 20)
#    0.000    2.250    1.250    1.125    3.500    0.750 
#    0.000    1.250    0.000    1.875    0.000    0.000 
#    0.000    0.000    0.000    0.000    0.000    0.000 
#
# Total GULP energy -396869.840520 kJ/mol
# GULP energy per Si atom -12402.182516 kJ/mol
# Density = 1.900087 g / cm^3
# Si number density = 19.044215 Si / 1000 Ang^3
#
#
#
# Elastic Constant Matrix: (Units=GPa)
#
#
# Indices 1 2 3 4 5 6 
#
# 1 128.2261 30.8066 60.5318 0.0126 1.9994 0.0049
# 2 30.8066 44.2125 25.6564 -0.0068 2.9317 0.0050
# 3 60.5318 25.6564 117.7387 -0.0131 -7.9049 0.0066
# 4 0.0126 -0.0068 -0.0131 17.9538 0.0002 -3.3387
# 5 1.9994 2.9317 -7.9049 0.0002 37.9752 -0.0002
# 6 0.0049 0.0050 0.0066 -3.3387 -0.0002 28.6669
#
#
#
# Elastic Compliance Matrix: (Units=1/GPa)
#
#
# Indices 1 2 3 4 5 6 
#
# 1 0.011280 -0.005000 -0.004791 -0.000014 -0.001205 -0.000002
# 2 -0.005000 0.028502 -0.003824 0.000011 -0.002733 -0.000002
# 3 -0.004791 -0.003824 0.011994 0.000011 0.003044 0.000000
# 4 -0.000014 0.000011 0.000011 0.056932 0.000002 0.006631
# 5 -0.001205 -0.002733 0.003044 0.000002 0.027241 0.000000
# 6 -0.000002 -0.000002 0.000000 0.006631 0.000000 0.035656
#
#
# Mechanical properties :
#
#
# Convention : Reuss Voigt Hill
#
# Bulk Modulus (GPa) = 40.73762 58.24076 49.48919
# Shear Modulus (GPa) = 24.15266 28.46468 26.30867
#
# Velocity S-wave (km/s) = 3.56510 3.87028 3.72082
# Velocity P-wave (km/s) = 6.19549 7.11480 6.67100
#
# Compressibility (1/GPa) = 0.02454733
#
# Stress axis : x y z
#
# Youngs Moduli (GPa) = 88.64954 35.08515 83.37448
#
# Poissons Ratio (x) = 0.17542 0.39943
# Poissons Ratio (y) = 0.44324 0.31881
# Poissons Ratio (z) = 0.42471 0.13416
#
# Static dielectric constant tensor:
#      x y z
#    x 3.715390 -0.000020 0.044920 
#    y -0.000020 3.216750 0.000060 
#    z 0.044920 0.000060 3.640600 
# 
# 
# High freq. dielectric constant tensor:
#      x y z
#    x 1.753620 0.000000 0.004140 
#    y 0.000000 1.709830 0.000000 
#    z 0.004140 0.000000 1.749450 
# 
# From -- ./inp_files/353349.got.cif
#   From: 2010.06.25/outbox.cif.g09.slc.cpg/sg12_177_cif.got.tgz:353349.got - 2010.06.28 00:19:55.
