data_PCOD8092986
_publ_section_title
;
Structure prediction by ZEFSAII (Michael W. Deem and Ramdas Pophale) SiO2 
 PCOD8092986
Probable space group: C 2/M
;
_chemical_formula_sum "Si O2"
_cell_formula_units_Z 56
_cell_length_a 9.573866
_cell_length_b 25.272389
_cell_length_c 15.395048
_cell_angle_alpha 90.000000
_cell_angle_beta 118.593488
_cell_angle_gamma 90.000000
_cell_volume 3270.601961
_symmetry_space_group_name_H-M "C 2/M"
_symmetry_group_IT_number 12
_symmetry_cell_setting 'monoclinic'
loop_
_space_group_symop_operation_xyz
x,y,z
-x,y,-z
-x,-y,-z
x,-y,z
1/2+x,1/2+y,z
1/2-x,1/2+y,-z
1/2-x,1/2-y,-z
1/2+x,1/2-y,z
loop_
_atom_site_type_symbol
_atom_site_label
_atom_site_fract_x
_atom_site_fract_y
_atom_site_fract_z
Si Si1 0.186243 0.939990 0.058127
Si Si2 0.142129 0.651632 0.802994
Si Si3 0.490273 0.808403 0.592220
Si Si4 0.321453 0.251854 0.927427
Si Si5 0.157192 0.799989 0.591752
Si Si6 0.819110 0.440866 0.918900
Si Si7 0.181129 0.345265 0.197681
O O1 0.263446 0.903121 0.155109
O O2 0.248340 0.000000 0.092407
O O3 0.230066 0.918636 0.976399
O O4 0.000000 0.937135 0.000000
O O5 0.071973 0.651925 0.684717
O O6 0.256453 0.701520 0.847639
O O7 0.002787 0.658184 0.831446
O O8 0.500000 0.836445 0.500000
O O9 0.309085 0.794467 0.570651
O O10 0.599135 0.756087 0.613182
O O11 0.288802 0.196993 0.868840
O O12 0.500000 0.265290 0.000000
O O13 0.250000 0.250000 0.000000
O O14 0.205152 0.836770 0.686334
O O15 0.000000 0.825832 0.500000
O O16 0.762609 0.500000 0.876660
O O17 0.780248 0.403600 0.826079
O O18 0.000000 0.440309 0.000000
#
# Coordination Sequence:
#
# PCOD8092986 Si02
#       7
#     8   8   8   8   8   8   8
#     4  10  21  38  55  80 111 141 180 222 260 310
#     4  11  21  35  54  79 105 144 177 214 268 316
#     4  10  20  36  54  75 105 135 181 221 262 320
#     4  12  22  33  47  72 113 141 167 210 260 313
#     4  10  20  36  54  74 105 139 175 224 265 314
#     4  10  19  35  59  79 104 142 182 218 255 309
#     4  11  21  35  53  79 109 137 180 221 257 320
#
# _framework density 17.122230999999999
#
# number of rings (size 3 to 8) (size 9 to 14) (size 15 to 20)
#    0.000    1.429    4.286    3.429    0.000    0.000 
#    7.714    0.000    0.000    0.857    0.000    0.000 
#    0.000    0.000    0.000    0.000    0.000    0.000 
#
# Total GULP energy -347034.148650 kJ/mol
# GULP energy per Si atom -12394.076737 kJ/mol
# Density = 1.708326 g / cm^3
# Si number density = 17.122231 Si / 1000 Ang^3
#
#
#
# Elastic Constant Matrix: (Units=GPa)
#
#
# Indices 1 2 3 4 5 6 
#
# 1 99.6768 20.6699 42.0370 0.0000 -7.3706 0.0000
# 2 20.6699 88.9525 56.1829 0.0000 -1.4847 0.0000
# 3 42.0370 56.1829 118.0856 0.0000 -5.5238 0.0000
# 4 0.0000 0.0000 0.0000 24.8715 0.0000 -0.1427
# 5 -7.3706 -1.4847 -5.5238 0.0000 30.3006 0.0000
# 6 0.0000 0.0000 0.0000 -0.1427 0.0000 22.0841
#
#
#
# Elastic Compliance Matrix: (Units=1/GPa)
#
#
# Indices 1 2 3 4 5 6 
#
# 1 0.011943 -0.000168 -0.004071 0.000000 0.002155 0.000000
# 2 -0.000168 0.016085 -0.007623 0.000000 -0.000642 0.000000
# 3 -0.004071 -0.007623 0.013597 0.000000 0.001115 0.000000
# 4 0.000000 0.000000 0.000000 0.040208 0.000000 0.000260
# 5 0.002155 -0.000642 0.001115 0.000000 0.033699 0.000000
# 6 0.000000 0.000000 0.000000 0.000260 0.000000 0.045283
#
#
# Mechanical properties :
#
#
# Convention : Reuss Voigt Hill
#
# Bulk Modulus (GPa) = 55.86322 60.49938 58.18130
# Shear Modulus (GPa) = 26.24580 27.97292 27.10936
#
# Velocity S-wave (km/s) = 3.91941 4.04631 3.98337
# Velocity P-wave (km/s) = 7.29242 7.56576 7.43035
#
# Compressibility (1/GPa) = 0.01790087
#
# Stress axis : x y z
#
# Youngs Moduli (GPa) = 83.72766 62.16907 73.54690
#
# Poissons Ratio (x) = 0.01045 0.29941
# Poissons Ratio (y) = 0.01408 0.56066
# Poissons Ratio (z) = 0.34085 0.47393
#
# Static dielectric constant tensor:
#      x y z
#    x 3.810230 0.000000 0.132970 
#    y 0.000000 3.361550 0.000000 
#    z 0.132970 0.000000 3.377740 
# 
# 
# High freq. dielectric constant tensor:
#      x y z
#    x 1.677810 0.000000 -0.004480 
#    y 0.000000 1.638760 0.000000 
#    z -0.004480 0.000000 1.658180 
# 
# From -- ./inp_files/198506.got.cif
#   From: 2010.06.25/outbox.cif.g09.slc.cpg/sg12_100_cif.got.tgz:198506.got - 2010.06.28 00:19:55.
