data_PCOD8092300
_publ_section_title
;
Structure prediction by ZEFSAII (Michael W. Deem and Ramdas Pophale) SiO2 
 PCOD8092300
Probable space group: C 2/M
;
_chemical_formula_sum "Si O2"
_cell_formula_units_Z 48
_cell_length_a 20.442278
_cell_length_b 8.814963
_cell_length_c 17.297613
_cell_angle_alpha 90.000000
_cell_angle_beta 53.897162
_cell_angle_gamma 90.000000
_cell_volume 2518.408614
_symmetry_space_group_name_H-M "C 2/M"
_symmetry_group_IT_number 12
_symmetry_cell_setting 'monoclinic'
loop_
_space_group_symop_operation_xyz
x,y,z
-x,y,-z
-x,-y,-z
x,-y,z
1/2+x,1/2+y,z
1/2-x,1/2+y,-z
1/2-x,1/2-y,-z
1/2+x,1/2-y,z
loop_
_atom_site_type_symbol
_atom_site_label
_atom_site_fract_x
_atom_site_fract_y
_atom_site_fract_z
Si Si1 0.407008 0.321849 0.048653
Si Si2 0.289974 0.679668 0.546767
Si Si3 0.620930 0.324884 0.236740
Si Si4 0.269736 0.178682 0.243652
Si Si5 0.837201 0.322136 0.945254
Si Si6 0.967748 0.823720 0.444334
O O1 0.393454 0.500000 0.049994
O O2 0.350017 0.262013 0.157405
O O3 0.500000 0.280720 0.000000
O O4 0.385331 0.243320 0.983716
O O5 0.287976 0.500000 0.540406
O O6 0.250000 0.750000 0.500000
O O7 0.245778 0.729847 0.657103
O O8 0.381211 0.746126 0.482474
O O9 0.633645 0.500000 0.203984
O O10 0.691857 0.275071 0.246237
O O11 0.617104 0.217796 0.165201
O O12 0.532798 0.297685 0.332833
O O13 0.284247 0.000000 0.228140
O O14 0.828804 0.500000 0.962393
O O15 0.750000 0.250000 0.000000
O O16 0.000000 0.744821 0.500000
O O17 0.952869 0.000000 0.472266
#
# Coordination Sequence:
#
# PCOD8092300 Si02
#       6
#     8   8   8   8   8   8
#     4  11  25  43  63  88 120 158 202 249 301 362
#     4  10  21  37  58  87 121 158 197 240 293 352
#     4  10  19  34  61  92 118 151 200 250 294 347
#     4  10  20  36  61  88 117 157 200 245 300 357
#     4  12  24  39  61  89 121 156 198 247 299 355
#     4   9  16  32  59  86 111 147 197 241 280 337
#
# _framework density 19.059656
#
# number of rings (size 3 to 8) (size 9 to 14) (size 15 to 20)
#    0.000    1.667    3.333    2.000    0.000    3.333 
#    0.000    5.833    0.000    1.000    0.000    0.000 
#    0.000    0.000    0.000    0.000    0.000    0.000 
#
# Total GULP energy -297597.653347 kJ/mol
# GULP energy per Si atom -12399.902223 kJ/mol
# Density = 1.901628 g / cm^3
# Si number density = 19.059656 Si / 1000 Ang^3
#
#
#
# Elastic Constant Matrix: (Units=GPa)
#
#
# Indices 1 2 3 4 5 6 
#
# 1 168.9141 64.1972 100.0476 -0.0001 2.2362 0.0003
# 2 64.1972 73.0429 56.5709 -0.0003 0.3489 0.0007
# 3 100.0476 56.5709 138.8232 0.0000 5.4519 0.0001
# 4 -0.0001 -0.0003 0.0000 30.2708 0.0000 4.3868
# 5 2.2362 0.3489 5.4519 0.0000 39.1908 -0.0001
# 6 0.0003 0.0007 0.0001 4.3868 -0.0001 29.5077
#
#
#
# Elastic Compliance Matrix: (Units=1/GPa)
#
#
# Indices 1 2 3 4 5 6 
#
# 1 0.011653 -0.005452 -0.006186 0.000000 0.000244 0.000000
# 2 -0.005452 0.022591 -0.005310 0.000000 0.000849 0.000000
# 3 -0.006186 -0.005310 0.013886 0.000000 -0.001531 0.000000
# 4 0.000000 0.000000 0.000000 0.033763 0.000000 -0.005019
# 5 0.000244 0.000849 -0.001531 0.000000 0.025708 0.000000
# 6 0.000000 0.000000 0.000000 -0.005019 0.000000 0.034636
#
#
# Mechanical properties :
#
#
# Convention : Reuss Voigt Hill
#
# Bulk Modulus (GPa) = 70.25745 91.37908 80.81826
# Shear Modulus (GPa) = 27.64331 30.45815 29.05073
#
# Velocity S-wave (km/s) = 3.81249 4.00189 3.90834
# Velocity P-wave (km/s) = 7.50480 8.33074 7.92853
#
# Compressibility (1/GPa) = 0.01423337
#
# Stress axis : x y z
#
# Youngs Moduli (GPa) = 85.81523 44.26586 72.01730
#
# Poissons Ratio (x) = 0.24133 0.44550
# Poissons Ratio (y) = 0.46786 0.38241
# Poissons Ratio (z) = 0.53085 0.23505
#
# Static dielectric constant tensor:
#      x y z
#    x 3.592930 0.000000 -0.062730 
#    y 0.000000 3.353740 0.000000 
#    z -0.062730 0.000000 3.679940 
# 
# 
# High freq. dielectric constant tensor:
#      x y z
#    x 1.745750 0.000000 -0.000120 
#    y 0.000000 1.718950 0.000000 
#    z -0.000120 0.000000 1.758880 
# 
# From -- ./inp_files/244726.got.cif
#   From: 2010.06.25/outbox.cif.g09.slc.cpg/sg12_123_cif.got.tgz:244726.got - 2010.06.28 00:19:55.
