data_PCOD8092176
_publ_section_title
;
Structure prediction by ZEFSAII (Michael W. Deem and Ramdas Pophale) SiO2 
 PCOD8092176
Probable space group: C 2/M
;
_chemical_formula_sum "Si O2"
_cell_formula_units_Z 64
_cell_length_a 11.709086
_cell_length_b 15.056280
_cell_length_c 18.679930
_cell_angle_alpha 90.000000
_cell_angle_beta 74.877782
_cell_angle_gamma 90.000000
_cell_volume 3179.145571
_symmetry_space_group_name_H-M "C 2/M"
_symmetry_group_IT_number 12
_symmetry_cell_setting 'monoclinic'
loop_
_space_group_symop_operation_xyz
x,y,z
-x,y,-z
-x,-y,-z
x,-y,z
1/2+x,1/2+y,z
1/2-x,1/2+y,-z
1/2-x,1/2-y,-z
1/2+x,1/2-y,z
loop_
_atom_site_type_symbol
_atom_site_label
_atom_site_fract_x
_atom_site_fract_y
_atom_site_fract_z
Si Si1 0.492163 0.103581 0.103518
Si Si2 0.046012 0.231534 0.649913
Si Si3 0.321130 0.099045 0.374706
Si Si4 0.881484 0.100890 0.478045
Si Si5 0.921440 0.902200 0.860218
Si Si6 0.199480 0.342716 0.978636
Si Si7 0.311788 0.332034 0.736997
Si Si8 0.090607 0.755595 0.802756
O O1 0.398146 0.159081 0.069354
O O2 0.481161 0.160994 0.178132
O O3 0.454566 0.000000 0.118067
O O4 0.627405 0.107235 0.053622
O O5 0.072009 0.333817 0.626565
O O6 0.124382 0.166599 0.588169
O O7 0.086503 0.209761 0.723062
O O8 0.905373 0.216141 0.669287
O O9 0.224783 0.117992 0.450854
O O10 0.269321 0.110181 0.302886
O O11 0.371774 0.000000 0.372888
O O12 0.000000 0.124023 0.500000
O O13 0.882833 0.000000 0.449030
O O14 0.814094 0.896415 0.934195
O O15 0.874055 0.891686 0.786790
O O16 0.025377 0.830841 0.861647
O O17 0.977114 0.000000 0.858227
O O18 0.250000 0.250000 0.000000
O O19 0.230544 0.260784 0.794675
#
# Coordination Sequence:
#
# PCOD8092176 Si02
#       8
#     8   8   8   8   8   8   8   8
#     4  11  22  39  62  89 115 150 197 237 283 340
#     4  10  21  35  56  86 119 151 188 238 295 337
#     4  10  20  35  58  88 116 147 192 239 284 337
#     4  10  19  34  59  89 115 146 191 243 290 336
#     4  11  21  36  59  84 113 152 195 235 288 343
#     4  11  21  36  61  90 119 145 183 241 289 340
#     4  10  20  36  57  83 116 152 195 237 285 334
#     4  10  22  36  55  88 117 150 190 242 288 333
#
# _framework density 20.131195000000002
#
# number of rings (size 3 to 8) (size 9 to 14) (size 15 to 20)
#    0.000    1.625    3.750    2.250    0.000    4.000 
#    0.000    0.625    0.000    7.875    0.000    0.000 
#    0.000    0.000    0.000    0.000    0.000    0.000 
#
# Total GULP energy -396448.699433 kJ/mol
# GULP energy per Si atom -12389.021857 kJ/mol
# Density = 2.008538 g / cm^3
# Si number density = 20.131195 Si / 1000 Ang^3
#
#
#
# Elastic Constant Matrix: (Units=GPa)
#
#
# Indices 1 2 3 4 5 6 
#
# 1 34.3888 40.1439 9.6997 0.0000 -15.9720 0.0000
# 2 40.1439 148.4730 37.9730 0.0000 -10.6842 0.0000
# 3 9.6997 37.9730 64.5033 0.0000 -10.3252 0.0000
# 4 0.0000 0.0000 0.0000 28.2041 0.0000 2.3792
# 5 -15.9720 -10.6842 -10.3252 0.0000 26.9461 0.0000
# 6 0.0000 0.0000 0.0000 2.3792 0.0000 28.4861
#
#
#
# Elastic Compliance Matrix: (Units=1/GPa)
#
#
# Indices 1 2 3 4 5 6 
#
# 1 0.060118 -0.015264 0.004987 0.000000 0.031493 0.000000
# 2 -0.015264 0.011858 -0.005732 0.000000 -0.006542 0.000000
# 3 0.004987 -0.005732 0.019429 0.000000 0.008128 0.000000
# 4 0.000000 0.000000 0.000000 0.035707 0.000000 -0.002982
# 5 0.031493 -0.006542 0.008128 0.000000 0.056298 0.000000
# 6 0.000000 0.000000 0.000000 -0.002982 0.000000 0.035354
#
#
# Mechanical properties :
#
#
# Convention : Reuss Voigt Hill
#
# Bulk Modulus (GPa) = 16.83923 46.99981 31.91952
# Shear Modulus (GPa) = 18.47894 27.36382 22.92138
#
# Velocity S-wave (km/s) = 3.03302 3.69083 3.37798
# Velocity P-wave (km/s) = 4.54406 6.44674 5.57714
#
# Compressibility (1/GPa) = 0.05938512
#
# Stress axis : x y z
#
# Youngs Moduli (GPa) = 16.63401 84.33457 51.46959
#
# Poissons Ratio (x) = 1.28726 -0.25666
# Poissons Ratio (y) = 0.25390 0.29505
# Poissons Ratio (z) = -0.08295 0.48345
#
# Static dielectric constant tensor:
#      x y z
#    x 3.734670 0.000000 -0.471100 
#    y 0.000000 3.714240 0.000000 
#    z -0.471100 0.000000 3.985290 
# 
# 
# High freq. dielectric constant tensor:
#      x y z
#    x 1.754650 0.000000 -0.031680 
#    y 0.000000 1.778420 0.000000 
#    z -0.031680 0.000000 1.801480 
# 
# From -- ./inp_files/305414.got.cif
#   From: 2010.06.25/outbox.cif.g09.slc.cpg/sg12_153_cif.got.tgz:305414.got - 2010.06.28 00:19:55.
