data_PCOD8092221
_publ_section_title
;
Structure prediction by ZEFSAII (Michael W. Deem and Ramdas Pophale) SiO2 
 PCOD8092221
Probable space group: C 2/M
;
_chemical_formula_sum "Si O2"
_cell_formula_units_Z 64
_cell_length_a 18.226618
_cell_length_b 19.775613
_cell_length_c 9.248103
_cell_angle_alpha 90.000000
_cell_angle_beta 90.211403
_cell_angle_gamma 90.000000
_cell_volume 3333.387081
_symmetry_space_group_name_H-M "C 2/M"
_symmetry_group_IT_number 12
_symmetry_cell_setting 'monoclinic'
loop_
_space_group_symop_operation_xyz
x,y,z
-x,y,-z
-x,-y,-z
x,-y,z
1/2+x,1/2+y,z
1/2-x,1/2+y,-z
1/2-x,1/2-y,-z
1/2+x,1/2-y,z
loop_
_atom_site_type_symbol
_atom_site_label
_atom_site_fract_x
_atom_site_fract_y
_atom_site_fract_z
Si Si1 0.674223 0.749726 0.833847
Si Si2 0.822331 0.425634 0.309850
Si Si3 0.082819 0.683619 0.252277
Si Si4 0.925091 0.815194 0.938360
Si Si5 0.324222 0.207606 0.472324
Si Si6 0.210857 0.347684 0.071654
Si Si7 0.024642 0.422608 0.835507
Si Si8 0.312700 0.574031 0.897153
O O1 0.642299 0.760642 0.673913
O O2 0.752835 0.712255 0.832716
O O3 0.616717 0.705666 0.918265
O O4 0.689123 0.821630 0.910668
O O5 0.835920 0.500000 0.379287
O O6 0.813542 0.372166 0.440169
O O7 0.888520 0.412356 0.193840
O O8 0.743989 0.425815 0.233187
O O9 0.060894 0.750364 0.162291
O O10 0.115516 0.712218 0.401786
O O11 0.139716 0.634880 0.165141
O O12 0.014259 0.632643 0.271034
O O13 0.877641 0.873299 0.859755
O O14 0.000000 0.846517 0.000000
O O15 0.250000 0.250000 0.500000
O O16 0.267962 0.408526 0.045745
O O17 0.001123 0.500000 0.799399
O O18 0.000000 0.404963 0.000000
O O19 0.347817 0.500000 0.918769
#
# Coordination Sequence:
#
# PCOD8092221 Si02
#       8
#     8   8   8   8   8   8   8   8
#     4   9  18  33  55  77 114 145 180 235 289 329
#     4  10  22  39  58  83 118 156 189 233 289 344
#     4  11  22  33  57  86 117 152 191 234 279 339
#     4  10  22  38  57  85 116 145 184 239 293 338
#     4  12  22  36  57  86 116 153 198 239 279 333
#     4   9  16  33  54  80 109 146 184 235 285 328
#     4  10  22  39  59  86 120 157 196 236 285 350
#     4  10  19  34  60  84 106 144 192 233 285 342
#
# _framework density 19.199688999999999
#
# number of rings (size 3 to 8) (size 9 to 14) (size 15 to 20)
#    0.000    1.875    2.500    2.625    3.500    2.750 
#    0.000    1.250    0.000    0.000    0.000    0.000 
#    0.000    5.250    0.000    0.000    0.000    0.000 
#
# Total GULP energy -396483.928363 kJ/mol
# GULP energy per Si atom -12390.122761 kJ/mol
# Density = 1.915599 g / cm^3
# Si number density = 19.199689 Si / 1000 Ang^3
#
#
#
# Elastic Constant Matrix: (Units=GPa)
#
#
# Indices 1 2 3 4 5 6 
#
# 1 96.2070 49.6681 21.7959 0.0000 15.5693 0.0000
# 2 49.6681 116.2489 21.7223 0.0000 -1.0132 0.0000
# 3 21.7959 21.7223 76.5386 0.0000 17.0827 0.0000
# 4 0.0000 0.0000 0.0000 22.9881 0.0000 3.1280
# 5 15.5693 -1.0132 17.0827 0.0000 20.3470 0.0000
# 6 0.0000 0.0000 0.0000 3.1280 0.0000 30.2624
#
#
#
# Elastic Compliance Matrix: (Units=1/GPa)
#
#
# Indices 1 2 3 4 5 6 
#
# 1 0.016032 -0.007018 0.000298 0.000000 -0.012867 0.000000
# 2 -0.007018 0.012331 -0.003491 0.000000 0.008915 0.000000
# 3 0.000298 -0.003491 0.017303 0.000000 -0.014929 0.000000
# 4 0.000000 0.000000 0.000000 0.044121 0.000000 -0.004560
# 5 -0.012867 0.008915 -0.014929 0.000000 0.071971 0.000000
# 6 0.000000 0.000000 0.000000 -0.004560 0.000000 0.033516
#
#
# Mechanical properties :
#
#
# Convention : Reuss Voigt Hill
#
# Bulk Modulus (GPa) = 39.61165 52.81856 46.21511
# Shear Modulus (GPa) = 22.31054 27.77338 25.04196
#
# Velocity S-wave (km/s) = 3.41255 3.80748 3.61541
# Velocity P-wave (km/s) = 6.01694 6.84829 6.44603
#
# Compressibility (1/GPa) = 0.02524510
#
# Stress axis : x y z
#
# Youngs Moduli (GPa) = 62.37532 81.09944 57.79289
#
# Poissons Ratio (x) = 0.56913 -0.01723
# Poissons Ratio (y) = 0.43773 0.20174
# Poissons Ratio (z) = -0.01859 0.28310
#
# Static dielectric constant tensor:
#      x y z
#    x 3.615390 0.000000 0.020900 
#    y 0.000000 3.845690 0.000000 
#    z 0.020900 0.000000 3.287170 
# 
# 
# High freq. dielectric constant tensor:
#      x y z
#    x 1.744670 0.000000 0.005020 
#    y 0.000000 1.746070 0.000000 
#    z 0.005020 0.000000 1.718940 
# 
# From -- ./inp_files/77495.got.cif
#   From: 2010.06.25/outbox.cif.g09.slc.cpg/sg12_39_cif.got.tgz:77495.got - 2010.06.28 00:19:55.
