data_PCOD8092142
_publ_section_title
;
Structure prediction by ZEFSAII (Michael W. Deem and Ramdas Pophale) SiO2 
 PCOD8092142
Probable space group: C 2/M
;
_chemical_formula_sum "Si O2"
_cell_formula_units_Z 48
_cell_length_a 10.164852
_cell_length_b 29.034638
_cell_length_c 18.131192
_cell_angle_alpha 90.000000
_cell_angle_beta 151.764359
_cell_angle_gamma 90.000000
_cell_volume 2531.603935
_symmetry_space_group_name_H-M "C 2/M"
_symmetry_group_IT_number 12
_symmetry_cell_setting 'monoclinic'
loop_
_space_group_symop_operation_xyz
x,y,z
-x,y,-z
-x,-y,-z
x,-y,z
1/2+x,1/2+y,z
1/2-x,1/2+y,-z
1/2-x,1/2-y,-z
1/2+x,1/2-y,z
loop_
_atom_site_type_symbol
_atom_site_label
_atom_site_fract_x
_atom_site_fract_y
_atom_site_fract_z
Si Si1 0.464330 0.449571 0.567186
Si Si2 0.409161 0.053299 0.373650
Si Si3 0.757276 0.271998 0.818738
Si Si4 0.079421 0.117243 0.852673
Si Si5 0.784894 0.213649 0.685226
Si Si6 0.315574 0.124048 0.814630
O O1 0.500000 0.458764 0.500000
O O2 0.526960 0.500000 0.636850
O O3 0.675748 0.408014 0.685133
O O4 0.153492 0.433887 0.437065
O O5 0.500000 0.069293 0.500000
O O6 0.124735 0.079536 0.212594
O O7 0.333914 0.000000 0.333929
O O8 0.780336 0.236826 0.763113
O O9 0.483632 0.257696 0.728892
O O10 0.725312 0.322618 0.767263
O O11 0.000000 0.270840 0.000000
O O12 0.206788 0.101832 0.837171
O O13 0.907810 0.163749 0.760756
O O14 0.353535 0.122806 0.038307
O O15 0.500000 0.209871 0.500000
#
# Coordination Sequence:
#
# PCOD8092142 Si02
#       6
#     8   8   8   8   8   8
#     4  10  22  40  60  86 122 157 190 240 300 353
#     4  10  19  34  59  87 113 148 194 237 283 345
#     4  11  22  41  62  85 123 160 198 249 301 356
#     4  10  20  36  59  86 120 149 195 248 292 336
#     4  11  23  39  61  88 119 160 200 250 299 354
#     4  10  20  37  60  84 116 160 190 236 298 351
#
# _framework density 18.960311999999998
#
# number of rings (size 3 to 8) (size 9 to 14) (size 15 to 20)
#    0.000    1.667    5.000    1.500    2.333    1.333 
#    3.000    2.500    0.000    3.000    0.000    0.000 
#    0.000    0.000    0.000    0.000    0.000    0.000 
#
# Total GULP energy -297388.568135 kJ/mol
# GULP energy per Si atom -12391.190339 kJ/mol
# Density = 1.891716 g / cm^3
# Si number density = 18.960312 Si / 1000 Ang^3
#
#
#
# Elastic Constant Matrix: (Units=GPa)
#
#
# Indices 1 2 3 4 5 6 
#
# 1 109.4834 45.3594 52.2977 0.0010 19.4347 -0.0004
# 2 45.3594 86.9921 64.5133 0.0005 1.1004 -0.0001
# 3 52.2977 64.5133 120.0010 0.0089 20.9306 -0.0007
# 4 0.0010 0.0005 0.0089 -0.3943 0.0018 13.6748
# 5 19.4347 1.1004 20.9306 0.0018 29.8197 -0.0004
# 6 -0.0004 -0.0001 -0.0007 13.6748 -0.0004 22.8048
#
#
#
# Elastic Compliance Matrix: (Units=1/GPa)
#
#
# Indices 1 2 3 4 5 6 
#
# 1 0.013643 -0.005992 -0.001381 -0.000002 -0.007701 0.000001
# 2 -0.005992 0.023305 -0.011906 -0.000009 0.011403 0.000006
# 3 -0.001381 -0.011906 0.017209 0.000015 -0.010740 -0.000009
# 4 -0.000002 -0.000009 0.000015 -0.116356 -0.000001 0.069772
# 5 -0.007701 0.011403 -0.010740 -0.000001 0.045672 0.000001
# 6 0.000001 0.000006 -0.000009 0.069772 0.000001 0.002012
#
#
# Mechanical properties :
#
#
# Convention : Reuss Voigt Hill
#
# Bulk Modulus (GPa) = 64.10931 71.20192 67.65562
# Shear Modulus (GPa) = 170.97199 20.73311 95.85255
#
# Velocity S-wave (km/s) = 9.50628 3.31040 7.11787
# Velocity P-wave (km/s) = 12.42491 7.22816 10.16427
#
# Compressibility (1/GPa) = 0.01559836
#
# Stress axis : x y z
#
# Youngs Moduli (GPa) = 73.29652 42.90867 58.10765
#
# Poissons Ratio (x) = 0.25711 0.08026
# Poissons Ratio (y) = 0.43920 0.69186
# Poissons Ratio (z) = 0.10124 0.51089
#
# Static dielectric constant tensor:
#      x y z
#    x 3.509270 0.000000 0.301200 
#    y 0.000000 3.419400 0.000000 
#    z 0.301200 0.000000 3.600470 
# 
# 
# High freq. dielectric constant tensor:
#      x y z
#    x 1.730550 0.000000 0.025710 
#    y 0.000000 1.737390 0.000000 
#    z 0.025710 0.000000 1.731840 
# 
# From -- ./inp_files/68375.got.cif
#   From: 2010.06.25/outbox.cif.g09.slc.cpg/sg12_35_cif.got.tgz:68375.got - 2010.06.28 00:19:55.
