data_PCOD8092004
_publ_section_title
;
Structure prediction by ZEFSAII (Michael W. Deem and Ramdas Pophale) SiO2 
 PCOD8092004
Probable space group: C 2/M
;
_chemical_formula_sum "Si O2"
_cell_formula_units_Z 56
_cell_length_a 23.682794
_cell_length_b 13.708908
_cell_length_c 9.927503
_cell_angle_alpha 90.000000
_cell_angle_beta 63.310362
_cell_angle_gamma 90.000000
_cell_volume 2879.700750
_symmetry_space_group_name_H-M "C 2/M"
_symmetry_group_IT_number 12
_symmetry_cell_setting 'monoclinic'
loop_
_space_group_symop_operation_xyz
x,y,z
-x,y,-z
-x,-y,-z
x,-y,z
1/2+x,1/2+y,z
1/2-x,1/2+y,-z
1/2-x,1/2-y,-z
1/2+x,1/2-y,z
loop_
_atom_site_type_symbol
_atom_site_label
_atom_site_fract_x
_atom_site_fract_y
_atom_site_fract_z
Si Si1 0.929859 0.114628 0.562817
Si Si2 0.244340 0.390532 0.434696
Si Si3 0.191926 0.615402 0.770422
Si Si4 0.608190 0.611276 0.690558
Si Si5 0.070251 0.729262 0.940066
Si Si6 0.243364 0.290082 0.169913
Si Si7 0.357571 0.702287 0.888921
O O1 0.900747 0.151152 0.452522
O O2 0.885851 0.139253 0.737420
O O3 0.000000 0.160946 0.500000
O O4 0.934815 0.000000 0.554379
O O5 0.219320 0.500000 0.452337
O O6 0.216273 0.344975 0.600324
O O7 0.319001 0.384174 0.352904
O O8 0.217551 0.335161 0.334506
O O9 0.203601 0.500000 0.781212
O O10 0.117860 0.641712 0.852918
O O11 0.231332 0.678277 0.836204
O O12 0.582404 0.500000 0.731696
O O13 0.572731 0.678919 0.835840
O O14 0.084905 0.762520 0.078134
O O15 0.000000 0.686083 0.000000
O O16 0.183246 0.290365 0.134695
O O17 0.303611 0.350412 0.041590
#
# Coordination Sequence:
#
# PCOD8092004 Si02
#       7
#     8   8   8   8   8   8   8
#     4  10  21  35  52  79 115 153 189 224 268 334
#     4  10  19  34  58  87 112 141 181 231 295 348
#     4  10  21  36  58  86 112 149 196 237 281 332
#     4  10  20  35  57  86 115 148 186 228 283 344
#     4  11  23  39  58  82 114 158 196 232 277 327
#     4  10  20  36  56  82 117 144 179 239 296 335
#     4  10  21  35  54  83 114 144 189 226 286 338
#
# _framework density 19.446465
#
# number of rings (size 3 to 8) (size 9 to 14) (size 15 to 20)
#    0.000    1.857    2.857    2.143    2.000    3.429 
#    0.000    5.714    0.000    0.000    0.000    2.000 
#    0.000    0.000    0.000    0.000    0.000    0.000 
#
# Total GULP energy -346965.329671 kJ/mol
# GULP energy per Si atom -12391.618917 kJ/mol
# Density = 1.940220 g / cm^3
# Si number density = 19.446465 Si / 1000 Ang^3
#
#
#
# Elastic Constant Matrix: (Units=GPa)
#
#
# Indices 1 2 3 4 5 6 
#
# 1 92.2420 4.5467 32.2596 0.0000 14.8017 0.0000
# 2 4.5467 28.5313 27.4070 0.0000 5.1376 0.0000
# 3 32.2596 27.4070 111.6848 0.0000 17.6758 0.0000
# 4 0.0000 0.0000 0.0000 19.8677 0.0000 -1.8145
# 5 14.8017 5.1376 17.6758 0.0000 36.6407 0.0000
# 6 0.0000 0.0000 0.0000 -1.8145 0.0000 15.6299
#
#
#
# Elastic Compliance Matrix: (Units=1/GPa)
#
#
# Indices 1 2 3 4 5 6 
#
# 1 0.012570 0.002076 -0.003563 0.000000 -0.003651 0.000000
# 2 0.002076 0.046242 -0.011680 0.000000 -0.001688 0.000000
# 3 -0.003563 -0.011680 0.013384 0.000000 -0.003380 0.000000
# 4 0.000000 0.000000 0.000000 0.050872 0.000000 0.005906
# 5 -0.003651 -0.001688 -0.003380 0.000000 0.030634 0.000000
# 6 0.000000 0.000000 0.000000 0.005906 0.000000 0.064666
#
#
# Mechanical properties :
#
#
# Convention : Reuss Voigt Hill
#
# Bulk Modulus (GPa) = 21.80372 40.09829 30.95101
# Shear Modulus (GPa) = 19.23154 25.64398 22.43776
#
# Velocity S-wave (km/s) = 3.14817 3.63533 3.40048
# Velocity P-wave (km/s) = 4.94481 6.18752 5.60074
#
# Compressibility (1/GPa) = 0.04586373
#
# Stress axis : x y z
#
# Youngs Moduli (GPa) = 79.55150 21.62520 74.71603
#
# Poissons Ratio (x) = -0.04490 0.26619
# Poissons Ratio (y) = -0.16519 0.87271
# Poissons Ratio (z) = 0.28342 0.25259
#
# Static dielectric constant tensor:
#      x y z
#    x 3.655620 0.000000 0.122560 
#    y 0.000000 3.290870 0.000000 
#    z 0.122560 0.000000 3.841210 
# 
# 
# High freq. dielectric constant tensor:
#      x y z
#    x 1.756760 0.000000 0.013300 
#    y 0.000000 1.717960 0.000000 
#    z 0.013300 0.000000 1.778300 
# 
# From -- ./inp_files/96764.got.cif
#   From: 2010.06.25/outbox.cif.g09.slc.cpg/sg12_49_cif.got.tgz:96764.got - 2010.06.28 00:19:55.
