data_PCOD8092559
_publ_section_title
;
Structure prediction by ZEFSAII (Michael W. Deem and Ramdas Pophale) SiO2 
 PCOD8092559
Probable space group: C 2/M
;
_chemical_formula_sum "Si O2"
_cell_formula_units_Z 48
_cell_length_a 9.671738
_cell_length_b 16.293152
_cell_length_c 21.442322
_cell_angle_alpha 90.000000
_cell_angle_beta 47.473454
_cell_angle_gamma 90.000000
_cell_volume 2490.163509
_symmetry_space_group_name_H-M "C 2/M"
_symmetry_group_IT_number 12
_symmetry_cell_setting 'monoclinic'
loop_
_space_group_symop_operation_xyz
x,y,z
-x,y,-z
-x,-y,-z
x,-y,z
1/2+x,1/2+y,z
1/2-x,1/2+y,-z
1/2-x,1/2-y,-z
1/2+x,1/2-y,z
loop_
_atom_site_type_symbol
_atom_site_label
_atom_site_fract_x
_atom_site_fract_y
_atom_site_fract_z
Si Si1 0.174962 0.759437 0.807686
Si Si2 0.214576 0.592890 0.441920
Si Si3 0.795570 0.177067 0.533433
Si Si4 0.610640 0.175536 0.030634
Si Si5 0.528900 0.407274 0.062854
Si Si6 0.094861 0.233896 0.693068
O O1 0.203637 0.764268 0.725115
O O2 0.376141 0.739034 0.775747
O O3 0.042936 0.682260 0.867265
O O4 0.093982 0.845636 0.857926
O O5 0.240822 0.500000 0.410365
O O6 0.267559 0.595858 0.499891
O O7 0.349781 0.650258 0.359597
O O8 0.000000 0.622575 0.500000
O O9 0.750000 0.250000 0.500000
O O10 0.652487 0.185841 0.635039
O O11 0.000000 0.182280 0.500000
O O12 0.500000 0.182043 0.000000
O O13 0.750000 0.250000 0.000000
O O14 0.745911 0.096200 0.991320
O O15 0.461292 0.500000 0.097223
O O16 0.500000 0.382706 0.000000
#
# Coordination Sequence:
#
# PCOD8092559 Si02
#       6
#     8   8   8   8   8   8
#     4  11  20  33  55  82 110 138 176 229 279 320
#     4  10  21  38  57  78 109 148 186 221 263 323
#     4  10  19  35  56  78 105 142 186 220 260 322
#     4  10  19  35  56  79 108 146 189 222 261 324
#     4  10  21  38  57  77 107 148 189 224 265 324
#     4  11  20  33  55  82 109 137 176 228 276 319
#
# _framework density 19.275842999999998
#
# number of rings (size 3 to 8) (size 9 to 14) (size 15 to 20)
#    0.000    1.667    0.000   10.000    0.000    1.333 
#    0.000    1.667    0.000    4.000    0.000    0.000 
#    0.000    0.000    0.000    0.000    0.000    0.000 
#
# Total GULP energy -297449.830819 kJ/mol
# GULP energy per Si atom -12393.742951 kJ/mol
# Density = 1.923197 g / cm^3
# Si number density = 19.275843 Si / 1000 Ang^3
#
#
#
# Elastic Constant Matrix: (Units=GPa)
#
#
# Indices 1 2 3 4 5 6 
#
# 1 136.3980 20.2149 29.7290 -0.0007 -0.4677 0.0006
# 2 20.2149 66.6236 30.5168 0.0000 -0.4509 0.0005
# 3 29.7290 30.5168 102.2451 0.0007 -0.5260 0.0015
# 4 -0.0007 0.0000 0.0007 26.3981 0.0001 -0.1911
# 5 -0.4677 -0.4509 -0.5260 0.0001 48.2809 -0.0006
# 6 0.0006 0.0005 0.0015 -0.1911 -0.0006 18.4986
#
#
#
# Elastic Compliance Matrix: (Units=1/GPa)
#
#
# Indices 1 2 3 4 5 6 
#
# 1 0.007967 -0.001571 -0.001847 0.000000 0.000042 0.000000
# 2 -0.001571 0.017697 -0.004825 0.000000 0.000097 0.000000
# 3 -0.001847 -0.004825 0.011758 0.000000 0.000065 -0.000001
# 4 0.000000 0.000000 0.000000 0.037884 0.000000 0.000391
# 5 0.000042 0.000097 0.000065 0.000000 0.020714 0.000001
# 6 0.000000 0.000000 -0.000001 0.000391 0.000001 0.054062
#
#
# Mechanical properties :
#
#
# Convention : Reuss Voigt Hill
#
# Bulk Modulus (GPa) = 47.76480 51.79868 49.78174
# Shear Modulus (GPa) = 28.81060 33.62260 31.21660
#
# Velocity S-wave (km/s) = 3.87026 4.18100 4.02863
# Velocity P-wave (km/s) = 6.69368 7.08790 6.89361
#
# Compressibility (1/GPa) = 0.02093592
#
# Stress axis : x y z
#
# Youngs Moduli (GPa) = 125.51604 56.50699 85.04893
#
# Poissons Ratio (x) = 0.08876 0.15712
# Poissons Ratio (y) = 0.19717 0.41034
# Poissons Ratio (z) = 0.23189 0.27263
#
# Static dielectric constant tensor:
#      x y z
#    x 4.022990 0.000000 0.004230 
#    y 0.000000 3.558470 0.000000 
#    z 0.004230 0.000000 3.697330 
# 
# 
# High freq. dielectric constant tensor:
#      x y z
#    x 1.772660 0.000000 0.000520 
#    y 0.000000 1.719380 0.000000 
#    z 0.000520 0.000000 1.751230 
# 
# From -- ./inp_files/300617.got.cif
#   From: 2010.06.25/outbox.cif.g09.slc.cpg/sg12_151_cif.got.tgz:300617.got - 2010.06.28 00:19:55.
