data_PCOD8092854
_publ_section_title
;
Structure prediction by ZEFSAII (Michael W. Deem and Ramdas Pophale) SiO2 
 PCOD8092854
Probable space group: C 2/M
;
_chemical_formula_sum "Si O2"
_cell_formula_units_Z 56
_cell_length_a 30.621684
_cell_length_b 8.927993
_cell_length_c 11.625965
_cell_angle_alpha 90.000000
_cell_angle_beta 115.579076
_cell_angle_gamma 90.000000
_cell_volume 2866.908096
_symmetry_space_group_name_H-M "C 2/M"
_symmetry_group_IT_number 12
_symmetry_cell_setting 'monoclinic'
loop_
_space_group_symop_operation_xyz
x,y,z
-x,y,-z
-x,-y,-z
x,-y,z
1/2+x,1/2+y,z
1/2-x,1/2+y,-z
1/2-x,1/2-y,-z
1/2+x,1/2-y,z
loop_
_atom_site_type_symbol
_atom_site_label
_atom_site_fract_x
_atom_site_fract_y
_atom_site_fract_z
Si Si1 0.018551 0.323992 0.821283
Si Si2 0.362266 0.673387 0.425287
Si Si3 0.813123 0.324011 0.974332
Si Si4 0.716962 0.175183 0.805255
Si Si5 0.597448 0.326969 0.044417
Si Si6 0.416725 0.328234 0.712575
Si Si7 0.546730 0.673137 0.627557
O O1 0.021697 0.500000 0.843005
O O2 0.047573 0.277544 0.739966
O O3 0.963102 0.275647 0.749723
O O4 0.044802 0.243561 0.958410
O O5 0.348162 0.500000 0.397785
O O6 0.316279 0.771944 0.337880
O O7 0.376667 0.715174 0.572217
O O8 0.406676 0.714449 0.393502
O O9 0.813737 0.500000 0.955765
O O10 0.808435 0.280933 0.103242
O O11 0.768480 0.256164 0.852512
O O12 0.862565 0.256512 0.984375
O O13 0.726437 0.000000 0.806647
O O14 0.597349 0.500000 0.008989
O O15 0.607811 0.305471 0.191408
O O16 0.433689 0.500000 0.712932
O O17 0.500000 0.712381 0.500000
O O18 0.546292 0.500000 0.665397
#
# Coordination Sequence:
#
# PCOD8092854 Si02
#       7
#     8   8   8   8   8   8   8
#     4  12  24  36  55  84 118 152 191 239 288 339
#     4  10  20  36  59  84 113 149 190 234 284 336
#     4  10  21  39  62  88 117 145 182 234 286 336
#     4  10  21  37  60  89 118 147 182 226 282 344
#     4  11  23  39  61  83 110 150 196 240 283 337
#     4  10  22  41  59  79 111 154 199 238 279 335
#     4  10  19  35  58  81 111 150 190 232 279 336
#
# _framework density 19.533238999999998
#
# number of rings (size 3 to 8) (size 9 to 14) (size 15 to 20)
#    0.000    1.571    1.429    3.857    0.000    8.286 
#    0.000    0.714    0.000    0.000    0.000    0.000 
#    0.000    0.000    0.000    0.000    0.000    0.000 
#
# Total GULP energy -347366.783870 kJ/mol
# GULP energy per Si atom -12405.956567 kJ/mol
# Density = 1.948878 g / cm^3
# Si number density = 19.533239 Si / 1000 Ang^3
#
#
#
# Elastic Constant Matrix: (Units=GPa)
#
#
# Indices 1 2 3 4 5 6 
#
# 1 47.0838 29.7872 26.7750 0.0000 6.9493 0.0000
# 2 29.7872 93.9001 46.7394 0.0000 6.9171 0.0000
# 3 26.7750 46.7394 122.6325 0.0000 12.0015 0.0000
# 4 0.0000 0.0000 0.0000 29.9348 0.0000 8.6241
# 5 6.9493 6.9171 12.0015 0.0000 29.4857 0.0000
# 6 0.0000 0.0000 0.0000 8.6241 0.0000 25.8647
#
#
#
# Elastic Compliance Matrix: (Units=1/GPa)
#
#
# Indices 1 2 3 4 5 6 
#
# 1 0.028006 -0.007094 -0.003049 0.000000 -0.003695 0.000000
# 2 -0.007094 0.014974 -0.004143 0.000000 -0.000154 0.000000
# 3 -0.003049 -0.004143 0.010658 0.000000 -0.002648 0.000000
# 4 0.000000 0.000000 0.000000 0.036956 0.000000 -0.012322
# 5 -0.003695 -0.000154 -0.002648 0.000000 0.035900 0.000000
# 6 0.000000 0.000000 0.000000 -0.012322 0.000000 0.042771
#
#
# Mechanical properties :
#
#
# Convention : Reuss Voigt Hill
#
# Bulk Modulus (GPa) = 39.89565 52.24663 46.07114
# Shear Modulus (GPa) = 24.24912 27.74468 25.99690
#
# Velocity S-wave (km/s) = 3.52721 3.77289 3.65212
# Velocity P-wave (km/s) = 6.08746 6.76647 6.43593
#
# Compressibility (1/GPa) = 0.02506539
#
# Stress axis : x y z
#
# Youngs Moduli (GPa) = 35.70628 66.78421 93.82340
#
# Poissons Ratio (x) = 0.47378 0.28609
# Poissons Ratio (y) = 0.25331 0.38870
# Poissons Ratio (z) = 0.10888 0.27668
#
# Static dielectric constant tensor:
#      x y z
#    x 3.400850 0.000000 0.009610 
#    y 0.000000 3.494750 0.000000 
#    z 0.009610 0.000000 3.744490 
# 
# 
# High freq. dielectric constant tensor:
#      x y z
#    x 1.747820 0.000000 0.004130 
#    y 0.000000 1.760670 0.000000 
#    z 0.004130 0.000000 1.769610 
# 
# From -- ./inp_files/181117.got.cif
#   From: 2010.06.25/outbox.cif.g09.slc.cpg/sg12_91_cif.got.tgz:181117.got - 2010.06.28 00:19:55.
