data_PCOD8092477
_publ_section_title
;
Structure prediction by ZEFSAII (Michael W. Deem and Ramdas Pophale) SiO2 
 PCOD8092477
Probable space group: C 2/M
;
_chemical_formula_sum "Si O2"
_cell_formula_units_Z 48
_cell_length_a 11.875523
_cell_length_b 16.811371
_cell_length_c 20.188502
_cell_angle_alpha 90.000000
_cell_angle_beta 140.803013
_cell_angle_gamma 90.000000
_cell_volume 2547.235993
_symmetry_space_group_name_H-M "C 2/M"
_symmetry_group_IT_number 12
_symmetry_cell_setting 'monoclinic'
loop_
_space_group_symop_operation_xyz
x,y,z
-x,y,-z
-x,-y,-z
x,-y,z
1/2+x,1/2+y,z
1/2-x,1/2+y,-z
1/2-x,1/2-y,-z
1/2+x,1/2-y,z
loop_
_atom_site_type_symbol
_atom_site_label
_atom_site_fract_x
_atom_site_fract_y
_atom_site_fract_z
Si Si1 0.582768 0.326598 0.855306
Si Si2 0.037591 0.350466 0.792972
Si Si3 0.876399 0.093589 0.880389
Si Si4 0.826699 0.091090 0.228126
Si Si5 0.165528 0.905519 0.618650
Si Si6 0.577541 0.087829 0.948682
O O1 0.549777 0.233492 0.836028
O O2 0.454683 0.366676 0.850474
O O3 0.547775 0.362286 0.766054
O O4 0.787259 0.343597 0.968025
O O5 0.186950 0.363651 0.805415
O O6 0.061816 0.415761 0.861750
O O7 0.843971 0.363750 0.671425
O O8 0.853007 0.000000 0.857510
O O9 0.000000 0.110872 0.000000
O O10 0.861060 0.123515 0.317701
O O11 0.619464 0.103166 0.111106
O O12 0.882671 0.000000 0.250880
O O13 0.000000 0.874837 0.500000
O O14 0.186690 0.000000 0.623633
O O15 0.648435 0.000000 0.002705
#
# Coordination Sequence:
#
# PCOD8092477 Si02
#       6
#     8   8   8   8   8   8
#     4  12  23  33  54  81 122 156 189 227 286 340
#     4  11  23  35  56  87 117 147 194 244 279 333
#     4  11  23  37  55  79 120 169 199 220 269 351
#     4   9  19  34  57  83 112 146 194 243 281 334
#     4   9  19  40  68  86 102 139 192 247 295 339
#     4  10  19  35  55  78 114 157 196 232 270 331
#
# _framework density 18.843955000000001
#
# number of rings (size 3 to 8) (size 9 to 14) (size 15 to 20)
#    0.000    1.667    1.667    5.000    4.667    1.333 
#    0.000    0.833    0.000    0.000    0.000    4.667 
#    0.000    0.000    0.000    0.000    0.000    0.000 
#
# Total GULP energy -297608.956282 kJ/mol
# GULP energy per Si atom -12400.373178 kJ/mol
# Density = 1.880107 g / cm^3
# Si number density = 18.843955 Si / 1000 Ang^3
#
#
#
# Elastic Constant Matrix: (Units=GPa)
#
#
# Indices 1 2 3 4 5 6 
#
# 1 148.5593 46.4749 44.4526 0.0000 4.7194 0.0000
# 2 46.4749 83.7740 42.6125 0.0001 9.0670 0.0000
# 3 44.4526 42.6125 113.3361 0.0005 15.0482 0.0003
# 4 0.0000 0.0001 0.0005 16.0590 0.0001 -2.5029
# 5 4.7194 9.0670 15.0482 0.0001 17.1139 0.0000
# 6 0.0000 0.0000 0.0003 -2.5029 0.0000 28.4757
#
#
#
# Elastic Compliance Matrix: (Units=1/GPa)
#
#
# Indices 1 2 3 4 5 6 
#
# 1 0.008506 -0.003813 -0.002105 0.000000 0.001525 0.000000
# 2 -0.003813 0.016638 -0.004222 0.000000 -0.004051 0.000000
# 3 -0.002105 -0.004222 0.012298 0.000000 -0.007996 0.000000
# 4 0.000000 0.000000 0.000000 0.063135 0.000000 0.005549
# 5 0.001525 -0.004051 -0.007996 0.000000 0.067188 0.000000
# 6 0.000000 0.000000 0.000000 0.005549 0.000000 0.035605
#
#
# Mechanical properties :
#
#
# Convention : Reuss Voigt Hill
#
# Bulk Modulus (GPa) = 58.27020 68.08327 63.17673
# Shear Modulus (GPa) = 21.79863 26.47168 24.13515
#
# Velocity S-wave (km/s) = 3.40486 3.75211 3.58270
# Velocity P-wave (km/s) = 6.81521 7.41482 7.12133
#
# Compressibility (1/GPa) = 0.01716143
#
# Stress axis : x y z
#
# Youngs Moduli (GPa) = 117.57015 60.10200 81.31287
#
# Poissons Ratio (x) = 0.22917 0.17116
# Poissons Ratio (y) = 0.44829 0.34333
# Poissons Ratio (z) = 0.24748 0.25377
#
# Static dielectric constant tensor:
#      x y z
#    x 3.640780 0.000000 -0.031850 
#    y 0.000000 3.326680 0.000000 
#    z -0.031850 0.000000 3.310960 
# 
# 
# High freq. dielectric constant tensor:
#      x y z
#    x 1.743290 0.000000 -0.006230 
#    y 0.000000 1.727780 0.000000 
#    z -0.006230 0.000000 1.692690 
# 
# From -- ./inp_files/204290.got.cif
#   From: 2010.06.25/outbox.cif.g09.slc.cpg/sg12_103_cif.got.tgz:204290.got - 2010.06.28 00:19:55.
