data_PCOD8092615
_publ_section_title
;
Structure prediction by ZEFSAII (Michael W. Deem and Ramdas Pophale) SiO2 
 PCOD8092615
Probable space group: C 2/M
;
_chemical_formula_sum "Si O2"
_cell_formula_units_Z 48
_cell_length_a 20.226413
_cell_length_b 13.323802
_cell_length_c 12.914254
_cell_angle_alpha 90.000000
_cell_angle_beta 44.590259
_cell_angle_gamma 90.000000
_cell_volume 2443.280152
_symmetry_space_group_name_H-M "C 2/M"
_symmetry_group_IT_number 12
_symmetry_cell_setting 'monoclinic'
loop_
_space_group_symop_operation_xyz
x,y,z
-x,y,-z
-x,-y,-z
x,-y,z
1/2+x,1/2+y,z
1/2-x,1/2+y,-z
1/2-x,1/2-y,-z
1/2+x,1/2-y,z
loop_
_atom_site_type_symbol
_atom_site_label
_atom_site_fract_x
_atom_site_fract_y
_atom_site_fract_z
Si Si1 0.040370 0.750005 0.351391
Si Si2 0.790313 0.614325 0.758008
Si Si3 0.157106 0.778677 0.042704
Si Si4 0.263236 0.886312 0.382633
Si Si5 0.349430 0.191723 0.486445
Si Si6 0.092834 0.615637 0.958199
O O1 0.125090 0.677776 0.288475
O O2 0.000000 0.807460 0.500000
O O3 0.957725 0.680796 0.397707
O O4 0.081479 0.820959 0.212982
O O5 0.814057 0.500000 0.752650
O O6 0.688221 0.639329 0.923002
O O7 0.781918 0.637066 0.645084
O O8 0.108991 0.682661 0.041684
O O9 0.250000 0.750000 0.000000
O O10 0.337739 0.862687 0.390136
O O11 0.175739 0.810442 0.489981
O O12 0.315319 0.871347 0.215750
O O13 0.225271 0.000000 0.435277
O O14 0.080866 0.500000 0.006478
O O15 0.000000 0.651657 0.000000
#
# Coordination Sequence:
#
# PCOD8092615 Si02
#       6
#     8   8   8   8   8   8
#     4   9  20  35  57  80 109 146 186 234 285 331
#     4  10  20  35  57  84 112 147 189 231 286 341
#     4  10  20  36  56  82 118 152 186 237 291 344
#     4  10  20  33  54  82 113 150 187 226 282 344
#     4  10  19  35  56  82 114 150 182 237 281 332
#     4  10  20  35  58  87 115 148 192 241 291 342
#
# _framework density 19.645721000000002
#
# number of rings (size 3 to 8) (size 9 to 14) (size 15 to 20)
#    0.000    2.167    1.667    1.500    0.000    6.333 
#    0.000    0.833    0.000    6.500    0.000    0.000 
#    0.000    0.000    0.000    0.000    0.000    0.000 
#
# Total GULP energy -297415.592755 kJ/mol
# GULP energy per Si atom -12392.316365 kJ/mol
# Density = 1.960101 g / cm^3
# Si number density = 19.645721 Si / 1000 Ang^3
#
#
#
# Elastic Constant Matrix: (Units=GPa)
#
#
# Indices 1 2 3 4 5 6 
#
# 1 75.8576 11.3322 17.7652 0.0000 9.7999 0.0000
# 2 11.3322 63.4298 18.6899 0.0000 -2.1780 0.0000
# 3 17.7652 18.6899 142.5029 0.0000 6.9085 0.0000
# 4 0.0000 0.0000 0.0000 13.3043 0.0000 0.2725
# 5 9.7999 -2.1780 6.9085 0.0000 22.9115 0.0000
# 6 0.0000 0.0000 0.0000 0.2725 0.0000 17.5608
#
#
#
# Elastic Compliance Matrix: (Units=1/GPa)
#
#
# Indices 1 2 3 4 5 6 
#
# 1 0.014625 -0.002469 -0.001202 0.000000 -0.006128 0.000000
# 2 -0.002469 0.016930 -0.002072 0.000000 0.003290 0.000000
# 3 -0.001202 -0.002072 0.007534 0.000000 -0.001954 0.000000
# 4 0.000000 0.000000 0.000000 0.075188 0.000000 -0.001167
# 5 -0.006128 0.003290 -0.001954 0.000000 0.047169 0.000000
# 6 0.000000 0.000000 0.000000 -0.001167 0.000000 0.056963
#
#
# Mechanical properties :
#
#
# Convention : Reuss Voigt Hill
#
# Bulk Modulus (GPa) = 36.22970 41.92943 39.07956
# Shear Modulus (GPa) = 20.91212 26.35552 23.63382
#
# Velocity S-wave (km/s) = 3.26615 3.66668 3.47219
# Velocity P-wave (km/s) = 5.71885 6.27018 6.00085
#
# Compressibility (1/GPa) = 0.02760167
#
# Stress axis : x y z
#
# Youngs Moduli (GPa) = 68.37793 59.06637 132.73492
#
# Poissons Ratio (x) = 0.14583 0.15959
# Poissons Ratio (y) = 0.16882 0.27505
# Poissons Ratio (z) = 0.08221 0.12240
#
# Static dielectric constant tensor:
#      x y z
#    x 3.506120 0.000000 0.241070 
#    y 0.000000 3.262820 0.000000 
#    z 0.241070 0.000000 4.170880 
# 
# 
# High freq. dielectric constant tensor:
#      x y z
#    x 1.763480 0.000000 0.014090 
#    y 0.000000 1.722150 0.000000 
#    z 0.014090 0.000000 1.788130 
# 
# From -- ./inp_files/165471.got.cif
#   From: 2010.06.25/outbox.cif.g09.slc.cpg/sg12_83_cif.got.tgz:165471.got - 2010.06.28 00:19:55.
