data_PCOD8092315
_publ_section_title
;
Structure prediction by ZEFSAII (Michael W. Deem and Ramdas Pophale) SiO2 
 PCOD8092315
Probable space group: C 2/M
;
_chemical_formula_sum "Si O2"
_cell_formula_units_Z 48
_cell_length_a 15.634246
_cell_length_b 21.663282
_cell_length_c 12.513024
_cell_angle_alpha 90.000000
_cell_angle_beta 145.943877
_cell_angle_gamma 90.000000
_cell_volume 2373.313700
_symmetry_space_group_name_H-M "C 2/M"
_symmetry_group_IT_number 12
_symmetry_cell_setting 'monoclinic'
loop_
_space_group_symop_operation_xyz
x,y,z
-x,y,-z
-x,-y,-z
x,-y,z
1/2+x,1/2+y,z
1/2-x,1/2+y,-z
1/2-x,1/2-y,-z
1/2+x,1/2-y,z
loop_
_atom_site_type_symbol
_atom_site_label
_atom_site_fract_x
_atom_site_fract_y
_atom_site_fract_z
Si Si1 0.620322 0.889636 0.900777
Si Si2 0.665477 0.688216 0.284799
Si Si3 0.028699 0.500000 0.364040
Si Si4 0.164430 0.328890 0.325657
Si Si5 0.818539 0.567835 0.818040
Si Si6 0.257938 0.500000 0.779433
Si Si7 0.834390 0.130165 0.926191
O O1 0.494374 0.939944 0.733162
O O2 0.517656 0.835167 0.844131
O O3 0.724502 0.863616 0.913959
O O4 0.728000 0.916364 0.107145
O O5 0.751409 0.661896 0.475491
O O6 0.683354 0.761571 0.295532
O O7 0.744126 0.662733 0.257852
O O8 0.492114 0.664301 0.113945
O O9 0.197973 0.500000 0.593757
O O10 0.896242 0.500000 0.313425
O O11 0.239157 0.379327 0.322670
O O12 0.750654 0.500000 0.717805
O O13 0.000000 0.565711 0.000000
O O14 0.360179 0.558845 0.918208
#
# Coordination Sequence:
#
# PCOD8092315 Si02
#       7
#     8   8   4   8   8   4   8
#     4  10  19  34  62  88 109 145 192 237 284 334
#     4  10  23  41  54  81 121 155 190 230 292 343
#     4   9  16  30  55  89 117 136 179 243 283 329
#     4  10  22  39  59  82 116 153 189 241 283 341
#     4   9  18  34  59  90 112 142 188 237 288 336
#     4   9  18  33  54  83 117 146 183 231 288 328
#     4  10  22  38  59  84 113 151 189 237 286 347
#
# _framework density 20.224888
#
# number of rings (size 3 to 8) (size 9 to 14) (size 15 to 20)
#    0.000    2.333    0.833    1.000    8.167    4.000 
#    3.000    0.833    0.000    1.000    0.000    0.000 
#    0.000    0.000    0.000    0.000    0.000    0.000 
#
# Total GULP energy -297469.904536 kJ/mol
# GULP energy per Si atom -12394.579356 kJ/mol
# Density = 2.017885 g / cm^3
# Si number density = 20.224888 Si / 1000 Ang^3
#
#
#
# Elastic Constant Matrix: (Units=GPa)
#
#
# Indices 1 2 3 4 5 6 
#
# 1 110.0214 46.9605 31.7240 0.0000 -36.6909 0.0000
# 2 46.9605 121.4693 49.1276 0.0000 -30.8443 0.0000
# 3 31.7240 49.1276 72.0659 0.0000 -22.4024 0.0000
# 4 0.0000 0.0000 0.0000 4.1311 0.0000 -18.2606
# 5 -36.6909 -30.8443 -22.4024 0.0000 29.0944 0.0000
# 6 0.0000 0.0000 0.0000 -18.2606 0.0000 19.2023
#
#
#
# Elastic Compliance Matrix: (Units=1/GPa)
#
#
# Indices 1 2 3 4 5 6 
#
# 1 0.015876 -0.001331 -0.000390 0.000000 0.018310 0.000000
# 2 -0.001331 0.013095 -0.005978 0.000000 0.007601 0.000000
# 3 -0.000390 -0.005978 0.021035 0.000000 0.009368 0.000000
# 4 0.000000 0.000000 0.000000 -0.075563 0.000000 -0.071857
# 5 0.018310 0.007601 0.009368 0.000000 0.072734 0.000000
# 6 0.000000 0.000000 0.000000 -0.071857 0.000000 -0.016256
#
#
# Mechanical properties :
#
#
# Convention : Reuss Voigt Hill
#
# Bulk Modulus (GPa) = 28.89419 62.13121 45.51270
# Shear Modulus (GPa) = 86.42590 22.20185 54.31388
#
# Velocity S-wave (km/s) = 6.54410 3.31682 5.18780
# Velocity P-wave (km/s) = 8.45090 6.74205 7.64438
#
# Compressibility (1/GPa) = 0.03460904
#
# Stress axis : x y z
#
# Youngs Moduli (GPa) = 62.98949 76.36506 47.53954
#
# Poissons Ratio (x) = 0.10161 0.01852
# Poissons Ratio (y) = 0.08381 0.28420
# Poissons Ratio (z) = 0.02454 0.45653
#
# Static dielectric constant tensor:
#      x y z
#    x 3.679780 0.000000 -0.522730 
#    y 0.000000 3.884460 0.000000 
#    z -0.522730 0.000000 3.621060 
# 
# 
# High freq. dielectric constant tensor:
#      x y z
#    x 1.778520 0.000000 -0.037530 
#    y 0.000000 1.799900 0.000000 
#    z -0.037530 0.000000 1.769870 
# 
# From -- ./inp_files/148040.got.cif
#   From: 2010.06.25/outbox.cif.g09.slc.cpg/sg12_75_cif.got.tgz:148040.got - 2010.06.28 00:19:55.
