data_PCOD8092612
_publ_section_title
;
Structure prediction by ZEFSAII (Michael W. Deem and Ramdas Pophale) SiO2 
 PCOD8092612
Probable space group: C 2/M
;
_chemical_formula_sum "Si O2"
_cell_formula_units_Z 64
_cell_length_a 16.107130
_cell_length_b 18.205757
_cell_length_c 11.723857
_cell_angle_alpha 90.000000
_cell_angle_beta 91.119195
_cell_angle_gamma 90.000000
_cell_volume 3437.277202
_symmetry_space_group_name_H-M "C 2/M"
_symmetry_group_IT_number 12
_symmetry_cell_setting 'monoclinic'
loop_
_space_group_symop_operation_xyz
x,y,z
-x,y,-z
-x,-y,-z
x,-y,z
1/2+x,1/2+y,z
1/2-x,1/2+y,-z
1/2-x,1/2-y,-z
1/2+x,1/2-y,z
loop_
_atom_site_type_symbol
_atom_site_label
_atom_site_fract_x
_atom_site_fract_y
_atom_site_fract_z
Si Si1 0.263606 0.417436 0.397688
Si Si2 0.584941 0.670872 0.539447
Si Si3 0.957110 0.799104 0.209120
Si Si4 0.853261 0.213180 0.829170
Si Si5 0.408991 0.180879 0.033934
Si Si6 0.742864 0.915028 0.926471
Si Si7 0.319825 0.776367 0.590336
Si Si8 0.159825 0.920338 0.845938
O O1 0.240892 0.500000 0.434741
O O2 0.341227 0.387901 0.474962
O O3 0.182834 0.365455 0.413453
O O4 0.289550 0.410898 0.268210
O O5 0.500000 0.630652 0.500000
O O6 0.580308 0.701887 0.666126
O O7 0.595294 0.741460 0.455383
O O8 0.916870 0.866087 0.138414
O O9 0.055476 0.810671 0.208851
O O10 0.925547 0.725896 0.148979
O O11 0.862325 0.268975 0.936800
O O12 0.800558 0.139763 0.854279
O O13 0.806125 0.251998 0.721703
O O14 0.500000 0.151396 0.000000
O O15 0.352199 0.112814 0.071136
O O16 0.746242 0.000000 0.880788
O O17 0.772447 0.910134 0.055950
O O18 0.250000 0.750000 0.500000
O O19 0.117683 0.000000 0.849736
#
# Coordination Sequence:
#
# PCOD8092612 Si02
#       8
#     8   8   8   8   8   8   8   8
#     4   9  19  34  55  82 110 144 189 235 283 328
#     4  10  19  35  56  82 109 150 190 233 279 338
#     4  10  20  35  57  83 116 149 190 236 283 340
#     4  11  21  36  58  88 112 144 195 236 286 334
#     4  10  22  37  59  86 111 151 191 237 277 330
#     4  11  23  36  56  84 120 152 182 230 291 344
#     4  10  21  35  58  82 110 152 191 233 275 328
#     4   9  18  33  54  83 116 153 185 226 285 349
#
# _framework density 18.619389000000002
#
# number of rings (size 3 to 8) (size 9 to 14) (size 15 to 20)
#    0.000    2.000    2.500    1.125    5.250    1.000 
#    0.000    3.750    0.000    1.125    0.000    0.000 
#    0.000    0.000    0.000    0.000    0.000    0.000 
#
# Total GULP energy -396501.680095 kJ/mol
# GULP energy per Si atom -12390.677503 kJ/mol
# Density = 1.857701 g / cm^3
# Si number density = 18.619389 Si / 1000 Ang^3
#
#
#
# Elastic Constant Matrix: (Units=GPa)
#
#
# Indices 1 2 3 4 5 6 
#
# 1 71.2462 58.9218 18.1452 0.0000 3.4786 0.0000
# 2 58.9218 140.9431 28.1384 0.0000 -5.2753 0.0000
# 3 18.1452 28.1384 59.6951 0.0000 9.6161 0.0000
# 4 0.0000 0.0000 0.0000 22.0874 0.0000 -0.8393
# 5 3.4786 -5.2753 9.6161 0.0000 21.6618 0.0000
# 6 0.0000 0.0000 0.0000 -0.8393 0.0000 24.1682
#
#
#
# Elastic Compliance Matrix: (Units=1/GPa)
#
#
# Indices 1 2 3 4 5 6 
#
# 1 0.022297 -0.009187 -0.001626 0.000000 -0.005096 0.000000
# 2 -0.009187 0.011923 -0.003805 0.000000 0.006068 0.000000
# 3 -0.001626 -0.003805 0.020621 0.000000 -0.009820 0.000000
# 4 0.000000 0.000000 0.000000 0.045335 0.000000 0.001574
# 5 -0.005096 0.006068 -0.009820 0.000000 0.052820 0.000000
# 6 0.000000 0.000000 0.000000 0.001574 0.000000 0.041431
#
#
# Mechanical properties :
#
#
# Convention : Reuss Voigt Hill
#
# Bulk Modulus (GPa) = 39.05536 53.58836 46.32186
# Shear Modulus (GPa) = 21.53340 24.69540 23.11440
#
# Velocity S-wave (km/s) = 3.40443 3.64583 3.52720
# Velocity P-wave (km/s) = 6.03943 6.82394 6.44364
#
# Compressibility (1/GPa) = 0.02560468
#
# Stress axis : x y z
#
# Youngs Moduli (GPa) = 44.84923 83.87411 48.49358
#
# Poissons Ratio (x) = 0.77059 0.07884
# Poissons Ratio (y) = 0.41205 0.18451
# Poissons Ratio (z) = 0.07292 0.31912
#
# Static dielectric constant tensor:
#      x y z
#    x 3.560170 0.000000 0.019830 
#    y 0.000000 3.610780 0.000000 
#    z 0.019830 0.000000 3.554400 
# 
# 
# High freq. dielectric constant tensor:
#      x y z
#    x 1.716150 0.000000 0.009660 
#    y 0.000000 1.709640 0.000000 
#    z 0.009660 0.000000 1.726730 
# 
# From -- ./inp_files/157831.got.cif
#   From: 2010.06.25/outbox.cif.g09.slc.cpg/sg12_79_cif.got.tgz:157831.got - 2010.06.28 00:19:55.
