data_PCOD8092514
_publ_section_title
;
Structure prediction by ZEFSAII (Michael W. Deem and Ramdas Pophale) SiO2 
 PCOD8092514
Probable space group: C 2/M
;
_chemical_formula_sum "Si O2"
_cell_formula_units_Z 48
_cell_length_a 14.291010
_cell_length_b 18.572611
_cell_length_c 14.655426
_cell_angle_alpha 90.000000
_cell_angle_beta 138.891996
_cell_angle_gamma 90.000000
_cell_volume 2557.509264
_symmetry_space_group_name_H-M "C 2/M"
_symmetry_group_IT_number 12
_symmetry_cell_setting 'monoclinic'
loop_
_space_group_symop_operation_xyz
x,y,z
-x,y,-z
-x,-y,-z
x,-y,z
1/2+x,1/2+y,z
1/2-x,1/2+y,-z
1/2-x,1/2-y,-z
1/2+x,1/2-y,z
loop_
_atom_site_type_symbol
_atom_site_label
_atom_site_fract_x
_atom_site_fract_y
_atom_site_fract_z
Si Si1 0.292062 0.582079 0.379401
Si Si2 0.999035 0.581718 0.253137
Si Si3 0.262135 0.361937 0.036293
Si Si4 0.042986 0.136917 0.665499
Si Si5 0.440934 0.203356 0.355627
Si Si6 0.651157 0.273434 0.064317
O O1 0.297575 0.500000 0.349847
O O2 0.133930 0.604722 0.291214
O O3 0.399160 0.592117 0.543646
O O4 0.346686 0.632576 0.338154
O O5 0.017593 0.500000 0.303550
O O6 0.992303 0.636675 0.332032
O O7 0.859934 0.583484 0.086374
O O8 0.380796 0.397212 0.189450
O O9 0.185540 0.300321 0.038449
O O10 0.348141 0.335020 0.011580
O O11 0.002642 0.221628 0.646868
O O12 0.500000 0.191163 0.500000
O O13 0.268906 0.207268 0.227740
O O14 0.500000 0.268913 0.000000
#
# Coordination Sequence:
#
# PCOD8092514 Si02
#       6
#     8   8   8   8   8   8
#     4  10  21  36  54  81 116 148 177 225 283 337
#     4  10  23  38  53  79 115 150 186 226 274 334
#     4   9  20  34  53  82 107 146 183 223 278 326
#     4  10  19  35  55  84 110 138 188 231 276 329
#     4  10  20  36  56  83 107 145 189 228 278 318
#     4   9  19  34  55  81 114 137 178 237 278 320
#
# _framework density 18.768260999999999
#
# number of rings (size 3 to 8) (size 9 to 14) (size 15 to 20)
#    0.000    2.333    1.667    2.000    4.667    3.667 
#    0.000    1.667    0.000    8.000    0.000    0.000 
#    0.000    0.000    0.000    0.000    0.000    0.000 
#
# Total GULP energy -297499.132111 kJ/mol
# GULP energy per Si atom -12395.797171 kJ/mol
# Density = 1.872554 g / cm^3
# Si number density = 18.768261 Si / 1000 Ang^3
#
#
#
# Elastic Constant Matrix: (Units=GPa)
#
#
# Indices 1 2 3 4 5 6 
#
# 1 54.9958 17.6323 12.3882 0.0000 -3.9137 0.0000
# 2 17.6323 68.6214 4.5303 0.0000 -6.0840 0.0000
# 3 12.3882 4.5303 104.2854 0.0000 -29.2709 0.0000
# 4 0.0000 0.0000 0.0000 25.2929 0.0000 1.9212
# 5 -3.9137 -6.0840 -29.2709 0.0000 15.8792 0.0000
# 6 0.0000 0.0000 0.0000 1.9212 0.0000 18.7638
#
#
#
# Elastic Compliance Matrix: (Units=1/GPa)
#
#
# Indices 1 2 3 4 5 6 
#
# 1 0.020336 -0.005230 -0.002785 0.000000 -0.002126 0.000000
# 2 -0.005230 0.016635 0.002747 0.000000 0.010148 0.000000
# 3 -0.002785 0.002747 0.020521 0.000000 0.038193 0.000000
# 4 0.000000 0.000000 0.000000 0.039847 0.000000 -0.004080
# 5 -0.002126 0.010148 0.038193 0.000000 0.136742 0.000000
# 6 0.000000 0.000000 0.000000 -0.004080 0.000000 0.053712
#
#
# Mechanical properties :
#
#
# Convention : Reuss Voigt Hill
#
# Bulk Modulus (GPa) = 21.29679 33.00046 27.14862
# Shear Modulus (GPa) = 15.92457 24.87730 20.40094
#
# Velocity S-wave (km/s) = 2.91604 3.64469 3.30053
# Velocity P-wave (km/s) = 4.76545 5.94415 5.38714
#
# Compressibility (1/GPa) = 0.04695543
#
# Stress axis : x y z
#
# Youngs Moduli (GPa) = 49.17363 60.11439 48.73172
#
# Poissons Ratio (x) = 0.31440 0.13573
# Poissons Ratio (y) = 0.25718 -0.13387
# Poissons Ratio (z) = 0.13696 -0.16514
#
# Static dielectric constant tensor:
#      x y z
#    x 3.160400 0.000000 0.022140 
#    y 0.000000 3.290550 0.000000 
#    z 0.022140 0.000000 3.814470 
# 
# 
# High freq. dielectric constant tensor:
#      x y z
#    x 1.703190 0.000000 0.003810 
#    y 0.000000 1.717760 0.000000 
#    z 0.003810 0.000000 1.746860 
# 
# From -- ./inp_files/216478.got.cif
#   From: 2010.06.25/outbox.cif.g09.slc.cpg/sg12_109_cif.got.tgz:216478.got - 2010.06.28 00:19:55.
