data_PCOD8092710
_publ_section_title
;
Structure prediction by ZEFSAII (Michael W. Deem and Ramdas Pophale) SiO2 
 PCOD8092710
Probable space group: C 2/M
;
_chemical_formula_sum "Si O2"
_cell_formula_units_Z 64
_cell_length_a 32.527622
_cell_length_b 9.086623
_cell_length_c 20.607363
_cell_angle_alpha 90.000000
_cell_angle_beta 144.477547
_cell_angle_gamma 90.000000
_cell_volume 3538.912150
_symmetry_space_group_name_H-M "C 2/M"
_symmetry_group_IT_number 12
_symmetry_cell_setting 'monoclinic'
loop_
_space_group_symop_operation_xyz
x,y,z
-x,y,-z
-x,-y,-z
x,-y,z
1/2+x,1/2+y,z
1/2-x,1/2+y,-z
1/2-x,1/2-y,-z
1/2+x,1/2-y,z
loop_
_atom_site_type_symbol
_atom_site_label
_atom_site_fract_x
_atom_site_fract_y
_atom_site_fract_z
Si Si1 0.166236 0.668332 0.573539
Si Si2 0.678255 0.170367 0.094237
Si Si3 0.471923 0.832066 0.154963
Si Si4 0.465577 0.327040 0.643335
Si Si5 0.673660 0.671501 0.222852
Si Si6 0.050027 0.328008 0.123651
Si Si7 0.181228 0.673525 0.741809
Si Si8 0.049168 0.827390 0.623252
O O1 0.143586 0.500000 0.535899
O O2 0.113743 0.765088 0.463125
O O3 0.245742 0.695760 0.650278
O O4 0.161161 0.714711 0.642311
O O5 0.658205 0.242660 0.136771
O O6 0.744057 0.251608 0.144739
O O7 0.696788 0.000000 0.130303
O O8 0.611913 0.187379 0.961264
O O9 0.496210 0.727674 0.243490
O O10 0.511998 0.784004 0.141211
O O11 0.490651 0.000000 0.196464
O O12 0.459410 0.500000 0.638211
O O13 0.510606 0.275826 0.639042
O O14 0.658886 0.500000 0.191423
O O15 0.622613 0.735619 0.212765
O O16 0.068181 0.500000 0.143728
O O17 0.000000 0.281535 0.000000
O O18 0.188826 0.500000 0.761541
O O19 0.122113 0.737838 0.713548
O O20 0.000000 0.782606 0.500000
O O21 0.066425 0.000000 0.644895
#
# Coordination Sequence:
#
# PCOD8092710 Si02
#       8
#     8   8   8   8   8   8   8   8
#     4   9  19  35  53  78 114 147 179 221 277 333
#     4  10  19  35  57  80 111 151 186 223 276 334
#     4  10  22  39  58  80 112 151 185 224 278 335
#     4  11  23  37  57  83 111 146 187 229 275 331
#     4  10  20  33  54  87 116 142 181 234 282 320
#     4  10  19  36  58  83 111 144 190 230 272 332
#     4  10  20  33  55  87 114 141 182 235 281 322
#     4  10  20  36  56  82 113 144 185 232 277 330
#
# _framework density 18.084652999999999
#
# number of rings (size 3 to 8) (size 9 to 14) (size 15 to 20)
#    0.000    2.000    2.500    2.250    0.000    5.500 
#    0.000    1.250    0.000    0.000    0.000    0.000 
#    0.000    0.000    0.000    0.000    0.000    0.000 
#
# Total GULP energy -396922.740945 kJ/mol
# GULP energy per Si atom -12403.835655 kJ/mol
# Density = 1.804349 g / cm^3
# Si number density = 18.084653 Si / 1000 Ang^3
#
#
#
# Elastic Constant Matrix: (Units=GPa)
#
#
# Indices 1 2 3 4 5 6 
#
# 1 109.8892 51.2286 57.9612 0.0000 12.2849 0.0000
# 2 51.2286 84.7005 52.0173 0.0000 10.1549 0.0000
# 3 57.9612 52.0173 97.3878 0.0000 6.5112 0.0000
# 4 0.0000 0.0000 0.0000 32.7453 0.0000 3.1230
# 5 12.2849 10.1549 6.5112 0.0000 29.6861 0.0000
# 6 0.0000 0.0000 0.0000 3.1230 0.0000 32.1940
#
#
#
# Elastic Compliance Matrix: (Units=1/GPa)
#
#
# Indices 1 2 3 4 5 6 
#
# 1 0.014949 -0.004952 -0.006040 0.000000 -0.003167 0.000000
# 2 -0.004952 0.019694 -0.007366 0.000000 -0.003072 0.000000
# 3 -0.006040 -0.007366 0.017722 0.000000 0.001132 0.000000
# 4 0.000000 0.000000 0.000000 0.030824 0.000000 -0.002990
# 5 -0.003167 -0.003072 0.001132 0.000000 0.035799 0.000000
# 6 0.000000 0.000000 0.000000 -0.002990 0.000000 0.031352
#
#
# Mechanical properties :
#
#
# Convention : Reuss Voigt Hill
#
# Bulk Modulus (GPa) = 63.90862 68.26576 66.08719
# Shear Modulus (GPa) = 26.00501 27.64309 26.82405
#
# Velocity S-wave (km/s) = 3.79616 3.91389 3.85548
# Velocity P-wave (km/s) = 7.39119 7.63247 7.51280
#
# Compressibility (1/GPa) = 0.01564734
#
# Stress axis : x y z
#
# Youngs Moduli (GPa) = 66.89621 50.77809 56.42805
#
# Poissons Ratio (x) = 0.25146 0.34082
# Poissons Ratio (y) = 0.33128 0.41566
# Poissons Ratio (z) = 0.40405 0.37404
#
# Static dielectric constant tensor:
#      x y z
#    x 3.357270 0.000000 0.189070 
#    y 0.000000 3.337320 0.000000 
#    z 0.189070 0.000000 3.177730 
# 
# 
# High freq. dielectric constant tensor:
#      x y z
#    x 1.696920 0.000000 0.021730 
#    y 0.000000 1.707300 0.000000 
#    z 0.021730 0.000000 1.686980 
# 
# From -- ./inp_files/295745.got.cif
#   From: 2010.06.25/outbox.cif.g09.slc.cpg/sg12_148_cif.got.tgz:295745.got - 2010.06.28 00:19:55.
