data_PCOD8092741
_publ_section_title
;
Structure prediction by ZEFSAII (Michael W. Deem and Ramdas Pophale) SiO2 
 PCOD8092741
Probable space group: C 2/M
;
_chemical_formula_sum "Si O2"
_cell_formula_units_Z 64
_cell_length_a 28.847118
_cell_length_b 9.128503
_cell_length_c 23.381375
_cell_angle_alpha 90.000000
_cell_angle_beta 148.338574
_cell_angle_gamma 90.000000
_cell_volume 3231.822962
_symmetry_space_group_name_H-M "C 2/M"
_symmetry_group_IT_number 12
_symmetry_cell_setting 'monoclinic'
loop_
_space_group_symop_operation_xyz
x,y,z
-x,y,-z
-x,-y,-z
x,-y,z
1/2+x,1/2+y,z
1/2-x,1/2+y,-z
1/2-x,1/2-y,-z
1/2+x,1/2-y,z
loop_
_atom_site_type_symbol
_atom_site_label
_atom_site_fract_x
_atom_site_fract_y
_atom_site_fract_z
Si Si1 0.494496 0.827677 0.168905
Si Si2 0.881867 0.673460 0.499360
Si Si3 0.197069 0.671850 0.995004
Si Si4 0.774196 0.169681 0.742701
Si Si5 0.950033 0.664360 0.388126
Si Si6 0.658701 0.825954 0.417665
Si Si7 0.464384 0.668961 0.902171
Si Si8 0.270871 0.327565 0.194833
O O1 0.407134 0.785941 0.113962
O O2 0.581558 0.773802 0.293817
O O3 0.491314 0.755044 0.103319
O O4 0.496229 0.000000 0.160446
O O5 0.871958 0.500000 0.486902
O O6 0.808910 0.737731 0.378979
O O7 0.867056 0.732942 0.547081
O O8 0.980442 0.720915 0.585949
O O9 0.210067 0.500000 0.999418
O O10 0.250000 0.750000 0.000000
O O11 0.235981 0.723469 0.096615
O O12 0.858829 0.190250 0.790907
O O13 0.787296 0.253744 0.816325
O O14 0.758971 0.000000 0.742085
O O15 0.915377 0.500000 0.337416
O O16 0.871486 0.778516 0.307086
O O17 0.000000 0.661128 0.500000
O O18 0.750000 0.750000 0.500000
O O19 0.670327 0.000000 0.427963
O O20 0.491543 0.500000 0.923705
O O21 0.500000 0.730079 0.000000
O O22 0.263405 0.500000 0.194360
#
# Coordination Sequence:
#
# PCOD8092741 Si02
#       8
#     8   8   8   8   8   8   8   8
#     4  10  22  40  61  86 119 157 197 237 290 356
#     4   9  18  33  55  81 107 143 192 234 271 330
#     4  10  24  43  61  85 116 155 200 244 290 347
#     4  10  19  35  57  82 113 150 191 232 278 345
#     4  10  19  35  59  84 110 149 197 235 279 347
#     4  10  21  38  60  86 117 153 194 239 286 341
#     4  10  21  36  59  89 116 145 189 241 289 337
#     4  11  23  37  55  84 121 150 185 242 301 343
#
# _framework density 19.803065
#
# number of rings (size 3 to 8) (size 9 to 14) (size 15 to 20)
#    0.000    2.000    1.250    1.875    1.750    4.000 
#    0.000    1.250    0.000    0.000    0.000    0.000 
#    0.000    0.000    0.000    0.000    0.000    0.000 
#
# Total GULP energy -396813.546721 kJ/mol
# GULP energy per Si atom -12400.423335 kJ/mol
# Density = 1.975799 g / cm^3
# Si number density = 19.803065 Si / 1000 Ang^3
#
#
#
# Elastic Constant Matrix: (Units=GPa)
#
#
# Indices 1 2 3 4 5 6 
#
# 1 153.8538 41.4521 44.1649 0.0000 -4.9300 0.0000
# 2 41.4521 44.7338 29.7701 0.0000 -4.7754 0.0000
# 3 44.1649 29.7701 100.5947 0.0000 -2.4599 0.0000
# 4 0.0000 0.0000 0.0000 19.7190 0.0000 -2.4990
# 5 -4.9300 -4.7754 -2.4599 0.0000 35.2292 0.0000
# 6 0.0000 0.0000 0.0000 -2.4990 0.0000 31.7871
#
#
#
# Elastic Compliance Matrix: (Units=1/GPa)
#
#
# Indices 1 2 3 4 5 6 
#
# 1 0.008926 -0.007033 -0.001833 0.000000 0.000168 0.000000
# 2 -0.007033 0.033744 -0.006822 0.000000 0.003113 0.000000
# 3 -0.001833 -0.006822 0.012758 0.000000 -0.000291 0.000000
# 4 0.000000 0.000000 0.000000 0.051223 0.000000 0.004027
# 5 0.000168 0.003113 -0.000291 0.000000 0.028811 0.000000
# 6 0.000000 0.000000 0.000000 0.004027 0.000000 0.031776
#
#
# Mechanical properties :
#
#
# Convention : Reuss Voigt Hill
#
# Bulk Modulus (GPa) = 41.57968 58.88405 50.23186
# Shear Modulus (GPa) = 24.19749 29.60008 26.89879
#
# Velocity S-wave (km/s) = 3.49937 3.87036 3.68953
# Velocity P-wave (km/s) = 6.11307 7.05495 6.60083
#
# Compressibility (1/GPa) = 0.02405021
#
# Stress axis : x y z
#
# Youngs Moduli (GPa) = 112.02807 29.63450 78.38394
#
# Poissons Ratio (x) = 0.20843 0.14371
# Poissons Ratio (y) = 0.78794 0.53476
# Poissons Ratio (z) = 0.20539 0.20217
#
# Static dielectric constant tensor:
#      x y z
#    x 4.051650 0.000000 0.117500 
#    y 0.000000 3.345080 0.000000 
#    z 0.117500 0.000000 3.933330 
# 
# 
# High freq. dielectric constant tensor:
#      x y z
#    x 1.786860 0.000000 0.004540 
#    y 0.000000 1.742260 0.000000 
#    z 0.004540 0.000000 1.782380 
# 
# From -- ./inp_files/353470.got.cif
#   From: 2010.06.25/outbox.cif.g09.slc.cpg/sg12_177_cif.got.tgz:353470.got - 2010.06.28 00:19:55.
