data_PCOD8092202
_publ_section_title
;
Structure prediction by ZEFSAII (Michael W. Deem and Ramdas Pophale) SiO2 
 PCOD8092202
Probable space group: C 2/M
;
_chemical_formula_sum "Si O2"
_cell_formula_units_Z 48
_cell_length_a 20.060277
_cell_length_b 18.453250
_cell_length_c 9.946818
_cell_angle_alpha 90.000000
_cell_angle_beta 139.755854
_cell_angle_gamma 90.000000
_cell_volume 2378.797107
_symmetry_space_group_name_H-M "C 2/M"
_symmetry_group_IT_number 12
_symmetry_cell_setting 'monoclinic'
loop_
_space_group_symop_operation_xyz
x,y,z
-x,y,-z
-x,-y,-z
x,-y,z
1/2+x,1/2+y,z
1/2-x,1/2+y,-z
1/2-x,1/2-y,-z
1/2+x,1/2-y,z
loop_
_atom_site_type_symbol
_atom_site_label
_atom_site_fract_x
_atom_site_fract_y
_atom_site_fract_z
Si Si1 0.965278 0.340799 0.090496
Si Si2 0.781294 0.582868 0.146323
Si Si3 0.110884 0.131335 0.681401
Si Si4 0.133934 0.276694 0.824589
Si Si5 0.264165 0.083297 0.700728
Si Si6 0.831559 0.416889 0.520201
O O1 0.915316 0.276512 0.101978
O O2 0.062511 0.372194 0.321285
O O3 0.878613 0.402506 0.934627
O O4 0.000000 0.308551 0.000000
O O5 0.817346 0.500000 0.171824
O O6 0.869838 0.640067 0.235844
O O7 0.766223 0.594445 0.283226
O O8 0.673810 0.597965 0.904279
O O9 0.078167 0.215755 0.650899
O O10 0.177663 0.127679 0.648107
O O11 0.000000 0.090235 0.500000
O O12 0.250000 0.250000 0.000000
O O13 0.260427 0.106594 0.537807
O O14 0.237216 0.000000 0.681893
O O15 0.863650 0.500000 0.590787
#
# Coordination Sequence:
#
# PCOD8092202 Si02
#       6
#     8   8   8   8   8   8
#     4  10  19  34  59  90 122 160 195 236 305 372
#     4  10  21  39  61  89 120 152 200 254 305 354
#     4  11  24  40  61  83 118 167 211 249 289 350
#     4  10  21  39  58  84 125 158 197 252 297 349
#     4  10  19  37  60  88 123 158 203 249 293 360
#     4   9  20  35  58  93 126 153 187 248 318 364
#
# _framework density 20.178266000000001
#
# number of rings (size 3 to 8) (size 9 to 14) (size 15 to 20)
#    0.000    2.000    3.333    1.000    2.333    4.000 
#    0.000    6.667    0.000    3.000    0.000    0.000 
#    0.000    0.000    0.000    0.000    0.000    0.000 
#
# Total GULP energy -297360.709646 kJ/mol
# GULP energy per Si atom -12390.029569 kJ/mol
# Density = 2.013234 g / cm^3
# Si number density = 20.178266 Si / 1000 Ang^3
#
#
#
# Elastic Constant Matrix: (Units=GPa)
#
#
# Indices 1 2 3 4 5 6 
#
# 1 173.0189 49.9933 66.3346 0.0000 -17.5558 0.0000
# 2 49.9933 100.4507 16.8069 0.0000 -16.5304 0.0000
# 3 66.3346 16.8069 95.7495 0.0000 -8.6658 0.0000
# 4 0.0000 0.0000 0.0000 12.5983 0.0000 -9.4445
# 5 -17.5558 -16.5304 -8.6658 0.0000 30.0261 0.0000
# 6 0.0000 0.0000 0.0000 -9.4445 0.0000 24.7912
#
#
#
# Elastic Compliance Matrix: (Units=1/GPa)
#
#
# Indices 1 2 3 4 5 6 
#
# 1 0.009026 -0.003259 -0.005510 0.000000 0.001893 0.000000
# 2 -0.003259 0.012313 0.000552 0.000000 0.005033 0.000000
# 3 -0.005510 0.000552 0.014273 0.000000 0.001202 0.000000
# 4 0.000000 0.000000 0.000000 0.111108 0.000000 0.042328
# 5 0.001893 0.005033 0.001202 0.000000 0.037529 0.000000
# 6 0.000000 0.000000 0.000000 0.042328 0.000000 0.056462
#
#
# Mechanical properties :
#
#
# Convention : Reuss Voigt Hill
#
# Bulk Modulus (GPa) = 52.14214 70.60987 61.37600
# Shear Modulus (GPa) = 18.97277 29.22208 24.09742
#
# Velocity S-wave (km/s) = 3.06969 3.80965 3.45951
# Velocity P-wave (km/s) = 6.20168 7.37700 6.81473
#
# Compressibility (1/GPa) = 0.01917835
#
# Stress axis : x y z
#
# Youngs Moduli (GPa) = 110.79397 81.21650 70.06297
#
# Poissons Ratio (x) = 0.26466 0.38602
# Poissons Ratio (y) = 0.36104 -0.03866
# Poissons Ratio (z) = 0.61044 -0.04481
#
# Static dielectric constant tensor:
#      x y z
#    x 3.792380 0.000000 -0.204540 
#    y 0.000000 4.122370 0.000000 
#    z -0.204540 0.000000 3.720540 
# 
# 
# High freq. dielectric constant tensor:
#      x y z
#    x 1.789510 0.000000 -0.012090 
#    y 0.000000 1.773940 0.000000 
#    z -0.012090 0.000000 1.782310 
# 
# From -- ./inp_files/77700.got.cif
#   From: 2010.06.25/outbox.cif.g09.slc.cpg/sg12_39_cif.got.tgz:77700.got - 2010.06.28 00:19:55.
