data_PCOD8092363
_publ_section_title
;
Structure prediction by ZEFSAII (Michael W. Deem and Ramdas Pophale) SiO2 
 PCOD8092363
Probable space group: C 2/M
;
_chemical_formula_sum "Si O2"
_cell_formula_units_Z 52
_cell_length_a 31.489463
_cell_length_b 18.329708
_cell_length_c 4.965224
_cell_angle_alpha 90.000000
_cell_angle_beta 106.783083
_cell_angle_gamma 90.000000
_cell_volume 2743.817648
_symmetry_space_group_name_H-M "C 2/M"
_symmetry_group_IT_number 12
_symmetry_cell_setting 'monoclinic'
loop_
_space_group_symop_operation_xyz
x,y,z
-x,y,-z
-x,-y,-z
x,-y,z
1/2+x,1/2+y,z
1/2-x,1/2+y,-z
1/2-x,1/2-y,-z
1/2+x,1/2-y,z
loop_
_atom_site_type_symbol
_atom_site_label
_atom_site_fract_x
_atom_site_fract_y
_atom_site_fract_z
Si Si1 0.695201 0.581911 0.817979
Si Si2 0.642121 0.281567 0.853693
Si Si3 0.548921 0.226765 0.631354
Si Si4 0.834256 0.692350 0.621409
Si Si5 0.254255 0.082756 0.425455
Si Si6 0.531515 0.000000 0.301068
Si Si7 0.927178 0.357672 0.827777
O O1 0.676450 0.500000 0.820733
O O2 0.654609 0.636453 0.796692
O O3 0.713264 0.594598 0.551780
O O4 0.736328 0.595822 0.092894
O O5 0.588432 0.280199 0.805994
O O6 0.658109 0.223195 0.662170
O O7 0.668451 0.259674 0.173997
O O8 0.500000 0.262481 0.500000
O O9 0.562588 0.207577 0.354871
O O10 0.546184 0.158145 0.841435
O O11 0.791081 0.642650 0.554932
O O12 0.874873 0.640986 0.794346
O O13 0.273229 0.000000 0.490643
O O14 0.500000 0.000000 0.500000
O O15 0.561904 0.070416 0.322140
O O16 0.500000 0.000000 0.000000
#
# Coordination Sequence:
#
# PCOD8092363 Si02
#       7
#     8   8   8   8   8   4   8
#     4  10  21  37  54  78 105 136 169 211 266 317
#     4  10  21  35  54  79 104 132 175 216 262 310
#     4  10  19  35  53  72  99 132 168 211 258 310
#     4  10  21  35  52  78 104 137 178 216 258 296
#     4  10  21  35  54  76 106 144 176 207 254 314
#     4  12  22  32  48  70  96 136 180 214 260 300
#     4  10  21  33  49  72 100 134 170 219 255 295
#
# _framework density 18.951696999999999
#
# number of rings (size 3 to 8) (size 9 to 14) (size 15 to 20)
#    0.000    1.846    0.000    4.615    1.077    3.692 
#    0.000    0.000    0.000    0.462    0.000    0.000 
#    0.000   11.077    0.000    0.000    0.000    2.462 
#
# Total GULP energy -322238.601811 kJ/mol
# GULP energy per Si atom -12393.792377 kJ/mol
# Density = 1.890856 g / cm^3
# Si number density = 18.951697 Si / 1000 Ang^3
#
#
#
# Elastic Constant Matrix: (Units=GPa)
#
#
# Indices 1 2 3 4 5 6 
#
# 1 86.6427 55.1651 12.0363 0.0000 5.2561 0.0000
# 2 55.1651 85.9800 7.1154 0.0000 6.8289 0.0000
# 3 12.0363 7.1154 76.0029 0.0000 -9.5167 0.0000
# 4 0.0000 0.0000 0.0000 21.9171 0.0000 -4.8790
# 5 5.2561 6.8289 -9.5167 0.0000 29.1851 0.0000
# 6 0.0000 0.0000 0.0000 -4.8790 0.0000 21.4451
#
#
#
# Elastic Compliance Matrix: (Units=1/GPa)
#
#
# Indices 1 2 3 4 5 6 
#
# 1 0.019849 -0.012449 -0.002149 0.000000 -0.001362 0.000000
# 2 -0.012449 0.019830 -0.000193 0.000000 -0.002461 0.000000
# 3 -0.002149 -0.000193 0.014147 0.000000 0.005045 0.000000
# 4 0.000000 0.000000 0.000000 0.048061 0.000000 0.010934
# 5 -0.001362 -0.002461 0.005045 0.000000 0.036730 0.000000
# 6 0.000000 0.000000 0.000000 0.010934 0.000000 0.049118
#
#
# Mechanical properties :
#
#
# Convention : Reuss Voigt Hill
#
# Bulk Modulus (GPa) = 41.24645 44.13992 42.69319
# Shear Modulus (GPa) = 22.18290 26.13004 24.15647
#
# Velocity S-wave (km/s) = 3.42496 3.71721 3.57407
# Velocity P-wave (km/s) = 6.11978 6.46257 6.29351
#
# Compressibility (1/GPa) = 0.02424451
#
# Stress axis : x y z
#
# Youngs Moduli (GPa) = 50.37978 50.42974 70.68406
#
# Poissons Ratio (x) = 0.62782 0.15187
# Poissons Ratio (y) = 0.62719 0.01364
# Poissons Ratio (z) = 0.10824 0.00973
#
# Static dielectric constant tensor:
#      x y z
#    x 3.489110 0.000000 -0.026840 
#    y 0.000000 3.191050 0.000000 
#    z -0.026840 0.000000 3.708010 
# 
# 
# High freq. dielectric constant tensor:
#      x y z
#    x 1.730430 0.000000 -0.010490 
#    y 0.000000 1.703160 0.000000 
#    z -0.010490 0.000000 1.759360 
# 
# From -- ./inp_files/28572.got.cif
#   From: 2010.06.25/outbox.cif.g09.slc.cpg/sg12_15_cif.got.tgz:28572.got - 2010.06.28 00:19:55.
