data_PCOD8092117
_publ_section_title
;
Structure prediction by ZEFSAII (Michael W. Deem and Ramdas Pophale) SiO2 
 PCOD8092117
Probable space group: C 2/M
;
_chemical_formula_sum "Si O2"
_cell_formula_units_Z 56
_cell_length_a 29.851401
_cell_length_b 17.038318
_cell_length_c 9.362689
_cell_angle_alpha 90.000000
_cell_angle_beta 36.832763
_cell_angle_gamma 90.000000
_cell_volume 2854.747699
_symmetry_space_group_name_H-M "C 2/M"
_symmetry_group_IT_number 12
_symmetry_cell_setting 'monoclinic'
loop_
_space_group_symop_operation_xyz
x,y,z
-x,y,-z
-x,-y,-z
x,-y,z
1/2+x,1/2+y,z
1/2-x,1/2+y,-z
1/2-x,1/2-y,-z
1/2+x,1/2-y,z
loop_
_atom_site_type_symbol
_atom_site_label
_atom_site_fract_x
_atom_site_fract_y
_atom_site_fract_z
Si Si1 0.272970 0.337999 0.796590
Si Si2 0.137544 0.088269 0.681750
Si Si3 0.361800 0.747911 0.976984
Si Si4 0.298582 0.413299 0.187642
Si Si5 0.826865 0.411556 0.706945
Si Si6 0.403891 0.763125 0.570429
Si Si7 0.964951 0.775791 0.952294
O O1 0.327624 0.388673 0.558556
O O2 0.321898 0.275446 0.760280
O O3 0.216788 0.292254 0.833865
O O4 0.229226 0.393283 0.018365
O O5 0.106465 0.000000 0.749644
O O6 0.202357 0.094104 0.637551
O O7 0.067147 0.142650 0.904103
O O8 0.353149 0.653601 0.988141
O O9 0.417654 0.770030 0.705236
O O10 0.400207 0.771073 0.031363
O O11 0.329167 0.500000 0.064464
O O12 0.215685 0.402325 0.335700
O O13 0.857205 0.500000 0.648687
O O14 0.897288 0.352008 0.525556
O O15 0.467649 0.711847 0.332378
O O16 0.000000 0.729305 0.000000
#
# Coordination Sequence:
#
# PCOD8092117 Si02
#       7
#     8   8   8   8   8   8   8
#     4  11  19  35  59  86 109 143 186 232 277 323
#     4  10  22  37  53  79 117 149 184 224 275 330
#     4  10  20  36  57  80 112 145 186 236 273 321
#     4   9  17  31  51  79 110 142 177 225 274 320
#     4  10  19  34  59  85 112 140 181 233 282 323
#     4  11  20  37  55  85 113 145 185 230 272 329
#     4  11  23  37  54  81 113 154 188 220 273 330
#
# _framework density 19.616443
#
# number of rings (size 3 to 8) (size 9 to 14) (size 15 to 20)
#    0.000    1.714    4.286    1.714    0.000    3.714 
#    0.000    0.714    0.000   11.571    0.000    0.000 
#    0.000    0.000    0.000    0.000    0.000    0.000 
#
# Total GULP energy -346972.773859 kJ/mol
# GULP energy per Si atom -12391.884781 kJ/mol
# Density = 1.957180 g / cm^3
# Si number density = 19.616443 Si / 1000 Ang^3
#
#
#
# Elastic Constant Matrix: (Units=GPa)
#
#
# Indices 1 2 3 4 5 6 
#
# 1 106.3679 21.2255 0.2954 0.0000 10.6017 0.0000
# 2 21.2255 71.0152 15.3762 0.0000 4.1796 0.0000
# 3 0.2954 15.3762 72.1109 0.0000 0.9328 0.0000
# 4 0.0000 0.0000 0.0000 19.7429 0.0000 1.2826
# 5 10.6017 4.1796 0.9328 0.0000 23.8567 0.0000
# 6 0.0000 0.0000 0.0000 1.2826 0.0000 19.8770
#
#
#
# Elastic Compliance Matrix: (Units=1/GPa)
#
#
# Indices 1 2 3 4 5 6 
#
# 1 0.010411 -0.003010 0.000653 0.000000 -0.004125 0.000000
# 2 -0.003010 0.015780 -0.003336 0.000000 -0.001296 0.000000
# 3 0.000653 -0.003336 0.014580 0.000000 -0.000276 0.000000
# 4 0.000000 0.000000 0.000000 0.050864 0.000000 -0.003282
# 5 -0.004125 -0.001296 -0.000276 0.000000 0.043988 0.000000
# 6 0.000000 0.000000 0.000000 -0.003282 0.000000 0.050521
#
#
# Mechanical properties :
#
#
# Convention : Reuss Voigt Hill
#
# Bulk Modulus (GPa) = 34.03205 35.92091 34.97648
# Shear Modulus (GPa) = 24.11665 26.86845 25.49255
#
# Velocity S-wave (km/s) = 3.51010 3.70495 3.60884
# Velocity P-wave (km/s) = 5.81499 6.05422 5.93581
#
# Compressibility (1/GPa) = 0.02938407
#
# Stress axis : x y z
#
# Youngs Moduli (GPa) = 96.04897 63.37227 68.58862
#
# Poissons Ratio (x) = 0.19077 -0.04476
# Poissons Ratio (y) = 0.28914 0.22879
# Poissons Ratio (z) = -0.06268 0.21139
#
# Static dielectric constant tensor:
#      x y z
#    x 3.970180 0.000000 0.170760 
#    y 0.000000 3.529730 0.000000 
#    z 0.170760 0.000000 3.209820 
# 
# 
# High freq. dielectric constant tensor:
#      x y z
#    x 1.783050 0.000000 0.017250 
#    y 0.000000 1.745870 0.000000 
#    z 0.017250 0.000000 1.733680 
# 
# From -- ./inp_files/75823.got.cif
#   From: 2010.06.25/outbox.cif.g09.slc.cpg/sg12_38_cif.got.tgz:75823.got - 2010.06.28 00:19:55.
