data_PCOD8092544
_publ_section_title
;
Structure prediction by ZEFSAII (Michael W. Deem and Ramdas Pophale) SiO2 
 PCOD8092544
Probable space group: C 2/M
;
_chemical_formula_sum "Si O2"
_cell_formula_units_Z 64
_cell_length_a 14.642534
_cell_length_b 9.066032
_cell_length_c 27.028265
_cell_angle_alpha 90.000000
_cell_angle_beta 105.437307
_cell_angle_gamma 90.000000
_cell_volume 3458.546981
_symmetry_space_group_name_H-M "C 2/M"
_symmetry_group_IT_number 12
_symmetry_cell_setting 'monoclinic'
loop_
_space_group_symop_operation_xyz
x,y,z
-x,y,-z
-x,-y,-z
x,-y,z
1/2+x,1/2+y,z
1/2-x,1/2+y,-z
1/2-x,1/2-y,-z
1/2+x,1/2-y,z
loop_
_atom_site_type_symbol
_atom_site_label
_atom_site_fract_x
_atom_site_fract_y
_atom_site_fract_z
Si Si1 0.945460 0.330843 0.136490
Si Si2 0.461737 0.825388 0.421789
Si Si3 0.443820 0.174373 0.944428
Si Si4 0.348249 0.174794 0.499558
Si Si5 0.925772 0.324054 0.306622
Si Si6 0.736180 0.674015 0.227896
Si Si7 0.035626 0.825780 0.239969
Si Si8 0.268418 0.331053 0.883730
O O1 0.970820 0.500000 0.153389
O O2 0.967748 0.230333 0.186649
O O3 0.835066 0.316345 0.107416
O O4 0.002789 0.273367 0.097435
O O5 0.568135 0.773211 0.451069
O O6 0.382413 0.772431 0.449838
O O7 0.434246 0.764959 0.363848
O O8 0.461614 0.000000 0.422651
O O9 0.338920 0.241386 0.929140
O O10 0.435907 0.000000 0.946101
O O11 0.500000 0.235956 0.000000
O O12 0.250000 0.250000 0.500000
O O13 0.333115 0.000000 0.499361
O O14 0.933855 0.500000 0.305011
O O15 0.826833 0.263814 0.270252
O O16 0.010540 0.252449 0.287708
O O17 0.746901 0.500000 0.225272
O O18 0.643058 0.721138 0.244085
O O19 0.731513 0.738300 0.171628
O O20 0.023750 0.000000 0.243257
O O21 0.302492 0.500000 0.886867
#
# Coordination Sequence:
#
# PCOD8092544 Si02
#       8
#     8   8   8   8   8   8   8   8
#     4  10  20  36  57  76 101 140 177 208 253 320
#     4   8  17  33  54  76 106 144 182 216 257 318
#     4  10  22  38  55  80 110 135 167 218 269 309
#     4   9  17  33  55  81 106 139 183 223 263 312
#     4  10  19  36  56  75 104 146 182 213 257 316
#     4   9  18  32  51  74 102 134 172 211 255 309
#     4  11  21  33  51  79 108 134 169 220 265 305
#     4  10  19  35  56  77 100 135 177 212 249 311
#
# _framework density 18.504881000000001
#
# number of rings (size 3 to 8) (size 9 to 14) (size 15 to 20)
#    0.000    2.375    2.500    1.125    0.000    2.250 
#    0.000    5.000    0.000    0.000    0.000    0.000 
#    0.000    0.000    0.000    0.000    0.000    0.000 
#
# Total GULP energy -396789.476425 kJ/mol
# GULP energy per Si atom -12399.671138 kJ/mol
# Density = 1.846276 g / cm^3
# Si number density = 18.504881 Si / 1000 Ang^3
#
#
#
# Elastic Constant Matrix: (Units=GPa)
#
#
# Indices 1 2 3 4 5 6 
#
# 1 100.4032 21.8399 21.2164 0.0000 3.0506 0.0000
# 2 21.8399 28.7542 17.1630 0.0000 -1.1806 0.0000
# 3 21.2164 17.1630 91.7373 0.0000 4.1226 0.0000
# 4 0.0000 0.0000 0.0000 17.8957 0.0000 -0.1637
# 5 3.0506 -1.1806 4.1226 0.0000 27.1738 0.0000
# 6 0.0000 0.0000 0.0000 -0.1637 0.0000 29.2001
#
#
#
# Elastic Compliance Matrix: (Units=1/GPa)
#
#
# Indices 1 2 3 4 5 6 
#
# 1 0.012114 -0.008595 -0.001123 0.000000 -0.001563 0.000000
# 2 -0.008595 0.045465 -0.006696 0.000000 0.003956 0.000000
# 3 -0.001123 -0.006696 0.012506 0.000000 -0.002062 0.000000
# 4 0.000000 0.000000 0.000000 0.055882 0.000000 0.000313
# 5 -0.001563 0.003956 -0.002062 0.000000 0.037460 0.000000
# 6 0.000000 0.000000 0.000000 0.000313 0.000000 0.034248
#
#
# Mechanical properties :
#
#
# Convention : Reuss Voigt Hill
#
# Bulk Modulus (GPa) = 26.84100 37.92593 32.38346
# Shear Modulus (GPa) = 20.58263 25.56560 23.07411
#
# Velocity S-wave (km/s) = 3.33871 3.72097 3.53501
# Velocity P-wave (km/s) = 5.42208 6.24503 5.84805
#
# Compressibility (1/GPa) = 0.03725644
#
# Stress axis : x y z
#
# Youngs Moduli (GPa) = 82.54702 21.99505 79.96214
#
# Poissons Ratio (x) = 0.18904 0.08984
# Poissons Ratio (y) = 0.70948 0.53542
# Poissons Ratio (z) = 0.09274 0.14728
#
# Static dielectric constant tensor:
#      x y z
#    x 3.498230 0.000000 -0.036870 
#    y 0.000000 3.066190 0.000000 
#    z -0.036870 0.000000 3.642040 
# 
# 
# High freq. dielectric constant tensor:
#      x y z
#    x 1.728840 0.000000 -0.000730 
#    y 0.000000 1.684820 0.000000 
#    z -0.000730 0.000000 1.717520 
# 
# From -- ./inp_files/359960.got.cif
#   From: 2010.06.25/outbox.cif.g09.slc.cpg/sg12_180_cif.got.tgz:359960.got - 2010.06.28 00:19:55.
