data_PCOD8092082
_publ_section_title
;
Structure prediction by ZEFSAII (Michael W. Deem and Ramdas Pophale) SiO2 
 PCOD8092082
Probable space group: C 2/M
;
_chemical_formula_sum "Si O2"
_cell_formula_units_Z 48
_cell_length_a 18.826734
_cell_length_b 9.011227
_cell_length_c 29.830157
_cell_angle_alpha 90.000000
_cell_angle_beta 29.819443
_cell_angle_gamma 90.000000
_cell_volume 2516.548594
_symmetry_space_group_name_H-M "C 2/M"
_symmetry_group_IT_number 12
_symmetry_cell_setting 'monoclinic'
loop_
_space_group_symop_operation_xyz
x,y,z
-x,y,-z
-x,-y,-z
x,-y,z
1/2+x,1/2+y,z
1/2-x,1/2+y,-z
1/2-x,1/2-y,-z
1/2+x,1/2-y,z
loop_
_atom_site_type_symbol
_atom_site_label
_atom_site_fract_x
_atom_site_fract_y
_atom_site_fract_z
Si Si1 0.837859 0.323626 0.085810
Si Si2 0.805931 0.824065 0.744548
Si Si3 0.880310 0.166592 0.449502
Si Si4 0.181745 0.823660 0.080480
Si Si5 0.146532 0.832706 0.432170
Si Si6 0.618964 0.823930 0.762254
O O1 0.840544 0.500000 0.086180
O O2 0.747632 0.263125 0.177951
O O3 0.764428 0.268977 0.080014
O O4 0.000000 0.261923 0.000000
O O5 0.691748 0.776360 0.769317
O O6 0.964477 0.759851 0.646113
O O7 0.816302 0.000000 0.738656
O O8 0.750000 0.250000 0.500000
O O9 0.836182 0.170622 0.524939
O O10 0.882781 0.000000 0.429414
O O11 0.020610 0.770536 0.170301
O O12 0.190969 0.000000 0.071141
O O13 0.250000 0.750000 0.000000
O O14 0.281295 0.764645 0.332800
O O15 0.000000 0.746994 0.500000
O O16 0.135024 0.000000 0.418873
O O17 0.584870 0.000000 0.779656
#
# Coordination Sequence:
#
# PCOD8092082 Si02
#       6
#     8   8   8   8   8   8
#     4   9  18  33  54  79 104 133 175 219 260 314
#     4   9  17  32  55  79 104 143 187 222 259 315
#     4  10  20  33  52  78 110 146 186 226 265 314
#     4  11  23  38  58  83 110 138 176 224 272 324
#     4   9  16  31  54  81 108 143 189 226 258 310
#     4  10  19  34  59  83 108 142 182 226 270 317
#
# _framework density 19.073741999999999
#
# number of rings (size 3 to 8) (size 9 to 14) (size 15 to 20)
#    0.000    2.333    1.667    1.500    2.333    2.667 
#    0.000    0.833    0.000   10.000    0.000    0.000 
#    0.000    0.000    0.000    0.000    0.000    0.000 
#
# Total GULP energy -297445.790422 kJ/mol
# GULP energy per Si atom -12393.574601 kJ/mol
# Density = 1.903033 g / cm^3
# Si number density = 19.073742 Si / 1000 Ang^3
#
#
#
# Elastic Constant Matrix: (Units=GPa)
#
#
# Indices 1 2 3 4 5 6 
#
# 1 150.2427 34.9109 90.8358 -0.0006 -11.4487 0.0044
# 2 34.9109 32.8680 27.9263 -0.0015 -4.5102 0.0043
# 3 90.8358 27.9263 180.6411 -0.0002 -0.4264 0.0017
# 4 -0.0006 -0.0015 -0.0002 24.3981 -0.0001 -6.4157
# 5 -11.4487 -4.5102 -0.4264 -0.0001 43.9634 -0.0011
# 6 0.0044 0.0043 0.0017 -6.4157 -0.0011 23.4111
#
#
#
# Elastic Compliance Matrix: (Units=1/GPa)
#
#
# Indices 1 2 3 4 5 6 
#
# 1 0.011384 -0.007994 -0.004484 0.000000 0.002101 0.000000
# 2 -0.007994 0.041199 -0.002344 0.000001 0.002122 -0.000006
# 3 -0.004484 -0.002344 0.008150 0.000000 -0.001329 0.000001
# 4 0.000000 0.000001 0.000000 0.044170 0.000000 0.012104
# 5 0.002101 0.002122 -0.001329 0.000000 0.023498 0.000000
# 6 0.000000 -0.000006 0.000001 0.012104 0.000000 0.046032
#
#
# Mechanical properties :
#
#
# Convention : Reuss Voigt Hill
#
# Bulk Modulus (GPa) = 32.16623 74.56641 53.36632
# Shear Modulus (GPa) = 23.31654 32.35977 27.83815
#
# Velocity S-wave (km/s) = 3.50014 4.12340 3.82449
# Velocity P-wave (km/s) = 5.76501 7.86438 6.89507
#
# Compressibility (1/GPa) = 0.03108851
#
# Stress axis : x y z
#
# Youngs Moduli (GPa) = 87.83900 24.27267 122.70147
#
# Poissons Ratio (x) = 0.19404 0.55018
# Poissons Ratio (y) = 0.70219 0.28765
# Poissons Ratio (z) = 0.39386 0.05690
#
# Static dielectric constant tensor:
#      x y z
#    x 3.666900 0.000010 0.450100 
#    y 0.000010 3.008520 0.000020 
#    z 0.450100 0.000020 5.320390 
# 
# 
# High freq. dielectric constant tensor:
#      x y z
#    x 1.754180 0.000000 0.001180 
#    y 0.000000 1.678110 0.000000 
#    z 0.001180 0.000000 1.767840 
# 
# From -- ./inp_files/212558.got.cif
#   From: 2010.06.25/outbox.cif.g09.slc.cpg/sg12_107_cif.got.tgz:212558.got - 2010.06.28 00:19:55.
