data_PCOD8092010
_publ_section_title
;
Structure prediction by ZEFSAII (Michael W. Deem and Ramdas Pophale) SiO2 
 PCOD8092010
Probable space group: C 2/M
;
_chemical_formula_sum "Si O2"
_cell_formula_units_Z 64
_cell_length_a 20.686211
_cell_length_b 8.932631
_cell_length_c 23.288299
_cell_angle_alpha 90.000000
_cell_angle_beta 50.532599
_cell_angle_gamma 90.000000
_cell_volume 3322.062053
_symmetry_space_group_name_H-M "C 2/M"
_symmetry_group_IT_number 12
_symmetry_cell_setting 'monoclinic'
loop_
_space_group_symop_operation_xyz
x,y,z
-x,y,-z
-x,-y,-z
x,-y,z
1/2+x,1/2+y,z
1/2-x,1/2+y,-z
1/2-x,1/2-y,-z
1/2+x,1/2-y,z
loop_
_atom_site_type_symbol
_atom_site_label
_atom_site_fract_x
_atom_site_fract_y
_atom_site_fract_z
Si Si1 0.106295 0.330436 0.705878
Si Si2 0.041712 0.173459 0.152358
Si Si3 0.579084 0.837066 0.493300
Si Si4 0.041416 0.825166 0.916812
Si Si5 0.985138 0.669388 0.354132
Si Si6 0.778176 0.321987 0.187632
Si Si7 0.859443 0.321245 0.807507
Si Si8 0.219224 0.174331 0.344192
O O1 0.088444 0.500000 0.739112
O O2 0.046997 0.211665 0.769639
O O3 0.092208 0.324277 0.645916
O O4 0.200015 0.279976 0.664840
O O5 0.028628 0.213073 0.092339
O O6 0.116063 0.266624 0.141751
O O7 0.062888 0.000000 0.149141
O O8 0.500000 0.865738 0.500000
O O9 0.548223 0.750412 0.568959
O O10 0.641582 0.743075 0.420073
O O11 0.619176 0.000000 0.486126
O O12 0.126184 0.731101 0.861631
O O13 0.065300 0.000000 0.900849
O O14 0.000000 0.779377 0.000000
O O15 0.008705 0.500000 0.357786
O O16 0.068653 0.738828 0.277369
O O17 0.777646 0.500000 0.180476
O O18 0.729832 0.246461 0.161171
O O19 0.730107 0.269410 0.272585
O O20 0.854904 0.500000 0.811418
O O21 0.204419 0.000000 0.351777
#
# Coordination Sequence:
#
# PCOD8092010 Si02
#       8
#     8   8   8   8   8   8   8   8
#     4   9  17  33  53  74 105 144 184 225 279 334
#     4  10  19  34  58  87 116 145 185 230 273 329
#     4  10  20  33  48  69 100 139 186 235 281 331
#     4  10  22  40  62  88 118 150 183 224 277 336
#     4   8  16  31  51  73 101 142 187 229 273 330
#     4  11  22  37  58  86 116 145 189 238 279 331
#     4  10  20  36  60  84 113 153 191 231 283 334
#     4  10  21  34  51  76 107 142 180 231 284 330
#
# _framework density 19.265142999999998
#
# number of rings (size 3 to 8) (size 9 to 14) (size 15 to 20)
#    0.000    2.250    1.250    2.625    0.000    4.000 
#    0.000    3.750    0.000    0.000    0.000    0.000 
#    0.000    0.000    0.000    0.000    0.000    0.000 
#
# Total GULP energy -396598.228521 kJ/mol
# GULP energy per Si atom -12393.694641 kJ/mol
# Density = 1.922129 g / cm^3
# Si number density = 19.265143 Si / 1000 Ang^3
#
#
#
# Elastic Constant Matrix: (Units=GPa)
#
#
# Indices 1 2 3 4 5 6 
#
# 1 115.5202 39.4231 24.7535 0.0006 13.9320 -0.0007
# 2 39.4231 54.9646 20.8057 0.0012 6.4566 -0.0019
# 3 24.7535 20.8057 60.6420 0.0002 24.4638 -0.0002
# 4 0.0006 0.0012 0.0002 46.7586 -0.0002 -34.4262
# 5 13.9320 6.4566 24.4638 -0.0002 28.3469 0.0002
# 6 -0.0007 -0.0019 -0.0002 -34.4262 0.0002 72.1326
#
#
#
# Elastic Compliance Matrix: (Units=1/GPa)
#
#
# Indices 1 2 3 4 5 6 
#
# 1 0.011913 -0.007841 -0.000815 0.000000 -0.003366 0.000000
# 2 -0.007841 0.026158 -0.007556 0.000000 0.004416 0.000001
# 3 -0.000815 -0.007556 0.028472 0.000000 -0.022450 0.000000
# 4 0.000000 0.000000 0.000000 0.032972 0.000000 0.015737
# 5 -0.003366 0.004416 -0.022450 0.000000 0.055301 0.000000
# 6 0.000000 0.000001 0.000000 0.015737 0.000000 0.021374
#
#
# Mechanical properties :
#
#
# Convention : Reuss Voigt Hill
#
# Bulk Modulus (GPa) = 29.30770 44.56570 36.93670
# Shear Modulus (GPa) = 22.72875 39.19060 30.95967
#
# Velocity S-wave (km/s) = 3.43853 4.51519 4.01313
# Velocity P-wave (km/s) = 5.56870 7.09687 6.37872
#
# Compressibility (1/GPa) = 0.03412072
#
# Stress axis : x y z
#
# Youngs Moduli (GPa) = 83.94386 38.22863 35.12232
#
# Poissons Ratio (x) = 0.29973 0.02862
# Poissons Ratio (y) = 0.65816 0.26538
# Poissons Ratio (z) = 0.06840 0.28885
#
# Static dielectric constant tensor:
#      x y z
#    x 3.787440 0.000000 0.239150 
#    y 0.000000 3.371620 0.000000 
#    z 0.239150 0.000000 3.459550 
# 
# 
# High freq. dielectric constant tensor:
#      x y z
#    x 1.763900 0.000000 0.013830 
#    y 0.000000 1.733930 0.000000 
#    z 0.013830 0.000000 1.729920 
# 
# From -- ./inp_files/346013.got.cif
#   From: 2010.06.25/outbox.cif.g09.slc.cpg/sg12_174_cif.got.tgz:346013.got - 2010.06.28 00:19:55.
