data_PCOD8092968
_publ_section_title
;
Structure prediction by ZEFSAII (Michael W. Deem and Ramdas Pophale) SiO2 
 PCOD8092968
Probable space group: C 2/M
;
_chemical_formula_sum "Si O2"
_cell_formula_units_Z 64
_cell_length_a 28.386324
_cell_length_b 9.167045
_cell_length_c 14.179549
_cell_angle_alpha 90.000000
_cell_angle_beta 122.000770
_cell_angle_gamma 90.000000
_cell_volume 3129.087970
_symmetry_space_group_name_H-M "C 2/M"
_symmetry_group_IT_number 12
_symmetry_cell_setting 'monoclinic'
loop_
_space_group_symop_operation_xyz
x,y,z
-x,y,-z
-x,-y,-z
x,-y,z
1/2+x,1/2+y,z
1/2-x,1/2+y,-z
1/2-x,1/2-y,-z
1/2+x,1/2-y,z
loop_
_atom_site_type_symbol
_atom_site_label
_atom_site_fract_x
_atom_site_fract_y
_atom_site_fract_z
Si Si1 0.448817 0.671007 0.002950
Si Si2 0.752616 0.174667 0.402180
Si Si3 0.962857 0.832242 0.552565
Si Si4 0.946896 0.831852 0.209193
Si Si5 0.832512 0.741032 0.170355
Si Si6 0.649659 0.164808 0.601111
Si Si7 0.215123 0.347769 0.068512
Si Si8 0.828290 0.830878 0.815140
O O1 0.458631 0.500000 0.025895
O O2 0.443584 0.742785 0.101888
O O3 0.500000 0.742182 0.000000
O O4 0.393735 0.699395 0.883840
O O5 0.750000 0.250000 0.500000
O O6 0.804921 0.231862 0.398743
O O7 0.697039 0.224968 0.289812
O O8 0.755195 0.000000 0.414349
O O9 0.909883 0.729681 0.487681
O O10 0.000000 0.822142 0.500000
O O11 0.000543 0.768004 0.677760
O O12 0.943946 0.000000 0.549268
O O13 0.890243 0.818937 0.207613
O O14 0.959325 0.000000 0.209084
O O15 0.840881 0.654838 0.276670
O O16 0.781696 0.853262 0.127389
O O17 0.815098 0.639536 0.064560
O O18 0.654103 0.000000 0.565967
O O19 0.200000 0.500000 0.105611
O O20 0.195733 0.207247 0.106748
O O21 0.813815 0.000000 0.779337
#
# Coordination Sequence:
#
# PCOD8092968 Si02
#       8
#     8   8   8   8   8   8   8   8
#     4   9  19  36  60  90 123 162 209 258 310 368
#     4  12  27  48  72  96 128 168 214 265 321 383
#     4  10  21  37  60  89 124 169 224 271 319 386
#     4  10  19  35  58  87 122 166 216 269 320 381
#     4  11  22  36  59  91 130 170 214 261 324 386
#     4  12  25  42  64  94 132 171 216 268 328 390
#     4  11  23  36  58  93 132 172 210 257 320 390
#     4  11  22  39  66  98 129 164 211 264 316 378
#
# _framework density 20.453244000000002
#
# number of rings (size 3 to 8) (size 9 to 14) (size 15 to 20)
#    0.000    1.250    3.750    2.625    0.000    4.250 
#    0.000    2.500    0.000    1.500    0.000    0.000 
#    0.000    0.000    0.000    0.000    0.000    0.000 
#
# Total GULP energy -396628.773427 kJ/mol
# GULP energy per Si atom -12394.649170 kJ/mol
# Density = 2.040669 g / cm^3
# Si number density = 20.453244 Si / 1000 Ang^3
#
#
#
# Elastic Constant Matrix: (Units=GPa)
#
#
# Indices 1 2 3 4 5 6 
#
# 1 116.9396 38.4957 62.2502 0.0000 4.1220 0.0000
# 2 38.4957 111.6365 53.7316 0.0000 5.7218 0.0000
# 3 62.2502 53.7316 139.8952 0.0000 11.2232 0.0000
# 4 0.0000 0.0000 0.0000 55.6312 0.0000 -3.8951
# 5 4.1220 5.7218 11.2232 0.0000 37.4852 0.0000
# 6 0.0000 0.0000 0.0000 -3.8951 0.0000 22.7807
#
#
#
# Elastic Compliance Matrix: (Units=1/GPa)
#
#
# Indices 1 2 3 4 5 6 
#
# 1 0.011512 -0.001851 -0.004439 0.000000 0.000346 0.000000
# 2 -0.001851 0.011293 -0.003476 0.000000 -0.000480 0.000000
# 3 -0.004439 -0.003476 0.010632 0.000000 -0.002165 0.000000
# 4 0.000000 0.000000 0.000000 0.018193 0.000000 0.003111
# 5 0.000346 -0.000480 -0.002165 0.000000 0.027360 0.000000
# 6 0.000000 0.000000 0.000000 0.003111 0.000000 0.044429
#
#
# Mechanical properties :
#
#
# Convention : Reuss Voigt Hill
#
# Bulk Modulus (GPa) = 71.91169 75.26960 73.59065
# Shear Modulus (GPa) = 33.87853 37.44567 35.66210
#
# Velocity S-wave (km/s) = 4.07429 4.28342 4.18016
# Velocity P-wave (km/s) = 7.57420 7.83226 7.70431
#
# Compressibility (1/GPa) = 0.01390594
#
# Stress axis : x y z
#
# Youngs Moduli (GPa) = 86.86855 88.54883 94.05377
#
# Poissons Ratio (x) = 0.16387 0.41754
# Poissons Ratio (y) = 0.16076 0.32689
# Poissons Ratio (z) = 0.38564 0.30776
#
# Static dielectric constant tensor:
#      x y z
#    x 3.639270 0.000000 -0.375200 
#    y 0.000000 3.452090 0.000000 
#    z -0.375200 0.000000 3.164170 
# 
# 
# High freq. dielectric constant tensor:
#      x y z
#    x 1.795410 0.000000 0.007070 
#    y 0.000000 1.774830 0.000000 
#    z 0.007070 0.000000 1.817500 
# 
# From -- ./inp_files/249902.got.cif
#   From: 2010.06.25/outbox.cif.g09.slc.cpg/sg12_125_cif.got.tgz:249902.got - 2010.06.28 00:19:55.
