data_PCOD8092125
_publ_section_title
;
Structure prediction by ZEFSAII (Michael W. Deem and Ramdas Pophale) SiO2 
 PCOD8092125
Probable space group: C 2/M
;
_chemical_formula_sum "Si O2"
_cell_formula_units_Z 48
_cell_length_a 7.203092
_cell_length_b 24.878103
_cell_length_c 13.626399
_cell_angle_alpha 90.000000
_cell_angle_beta 96.475839
_cell_angle_gamma 90.000000
_cell_volume 2426.260526
_symmetry_space_group_name_H-M "C 2/M"
_symmetry_group_IT_number 12
_symmetry_cell_setting 'monoclinic'
loop_
_space_group_symop_operation_xyz
x,y,z
-x,y,-z
-x,-y,-z
x,-y,z
1/2+x,1/2+y,z
1/2-x,1/2+y,-z
1/2-x,1/2-y,-z
1/2+x,1/2-y,z
loop_
_atom_site_type_symbol
_atom_site_label
_atom_site_fract_x
_atom_site_fract_y
_atom_site_fract_z
Si Si1 0.937323 0.863524 0.890302
Si Si2 0.149627 0.198040 0.300476
Si Si3 0.087132 0.438727 0.901289
Si Si4 0.115595 0.877976 0.598714
Si Si5 0.702626 0.439352 0.789654
Si Si6 0.046023 0.303634 0.395108
O O1 0.901547 0.812663 0.816672
O O2 0.752869 0.899323 0.883456
O O3 0.104640 0.900187 0.860852
O O4 0.000000 0.841026 0.000000
O O5 0.143211 0.261003 0.327321
O O6 0.356681 0.175500 0.333042
O O7 0.001766 0.169689 0.360907
O O8 0.162699 0.500000 0.909048
O O9 0.925654 0.432144 0.810263
O O10 0.000000 0.422372 0.000000
O O11 0.141263 0.926884 0.675197
O O12 0.316612 0.854013 0.580394
O O13 0.000000 0.901198 0.500000
O O14 0.643226 0.500000 0.812100
O O15 0.000000 0.278390 0.500000
#
# Coordination Sequence:
#
# PCOD8092125 Si02
#       6
#     8   8   8   8   8   8
#     4  11  22  38  58  85 120 154 194 236 287 342
#     4  11  23  36  59  87 114 148 194 243 288 334
#     4  10  19  34  59  86 111 150 196 239 282 331
#     4  11  22  38  60  88 117 152 191 235 292 345
#     4  10  22  38  60  88 119 153 192 236 283 340
#     4  12  21  38  64  86 112 148 195 244 286 338
#
# _framework density 19.783531
#
# number of rings (size 3 to 8) (size 9 to 14) (size 15 to 20)
#    0.000    1.167    5.000    2.500    0.000    1.000 
#    0.000    0.833    0.000    0.500    0.000    0.000 
#    0.000    0.000    0.000    0.000    0.000    0.000 
#
# Total GULP energy -297643.542296 kJ/mol
# GULP energy per Si atom -12401.814262 kJ/mol
# Density = 1.973850 g / cm^3
# Si number density = 19.783531 Si / 1000 Ang^3
#
#
#
# Elastic Constant Matrix: (Units=GPa)
#
#
# Indices 1 2 3 4 5 6 
#
# 1 97.0544 14.6129 30.1575 0.0000 10.3815 0.0000
# 2 14.6129 42.0529 28.0697 0.0000 3.8383 0.0000
# 3 30.1575 28.0697 147.0973 0.0000 20.9025 0.0000
# 4 0.0000 0.0000 0.0000 3.0377 0.0000 9.8130
# 5 10.3815 3.8383 20.9025 0.0000 32.8534 0.0000
# 6 0.0000 0.0000 0.0000 9.8130 0.0000 18.1239
#
#
#
# Elastic Compliance Matrix: (Units=1/GPa)
#
#
# Indices 1 2 3 4 5 6 
#
# 1 0.011432 -0.002769 -0.001482 0.000000 -0.002346 0.000000
# 2 -0.002769 0.027922 -0.004861 0.000000 0.000705 0.000000
# 3 -0.001482 -0.004861 0.008666 0.000000 -0.004477 0.000000
# 4 0.000000 0.000000 0.000000 -0.439475 0.000000 0.237948
# 5 -0.002346 0.000705 -0.004477 0.000000 0.033946 0.000000
# 6 0.000000 0.000000 0.000000 0.237948 0.000000 -0.073658
#
#
# Mechanical properties :
#
#
# Convention : Reuss Voigt Hill
#
# Bulk Modulus (GPa) = 33.56152 47.98721 40.77436
# Shear Modulus (GPa) = -12.40656 25.02729 6.31037
#
# Velocity S-wave (km/s) = -2.50694 3.56062 1.78791
# Velocity P-wave (km/s) = 2.93624 6.41972 4.99171
#
# Compressibility (1/GPa) = 0.02979603
#
# Stress axis : x y z
#
# Youngs Moduli (GPa) = 87.47484 35.81417 115.39602
#
# Poissons Ratio (x) = 0.09917 0.17101
# Poissons Ratio (y) = 0.24223 0.56090
# Poissons Ratio (z) = 0.12963 0.17408
#
# Static dielectric constant tensor:
#      x y z
#    x 3.794790 0.000000 0.172730 
#    y 0.000000 3.225610 0.000000 
#    z 0.172730 0.000000 3.768680 
# 
# 
# High freq. dielectric constant tensor:
#      x y z
#    x 1.790710 0.000000 0.010820 
#    y 0.000000 1.736050 0.000000 
#    z 0.010820 0.000000 1.775320 
# 
# From -- ./inp_files/192066.got.cif
#   From: 2010.06.25/outbox.cif.g09.slc.cpg/sg12_97_cif.got.tgz:192066.got - 2010.06.28 00:19:55.
