data_PCOD8092184
_publ_section_title
;
Structure prediction by ZEFSAII (Michael W. Deem and Ramdas Pophale) SiO2 
 PCOD8092184
Probable space group: C 2/M
;
_chemical_formula_sum "Si O2"
_cell_formula_units_Z 64
_cell_length_a 21.967142
_cell_length_b 12.810200
_cell_length_c 12.758983
_cell_angle_alpha 90.000000
_cell_angle_beta 115.191410
_cell_angle_gamma 90.000000
_cell_volume 3248.940336
_symmetry_space_group_name_H-M "C 2/M"
_symmetry_group_IT_number 12
_symmetry_cell_setting 'monoclinic'
loop_
_space_group_symop_operation_xyz
x,y,z
-x,y,-z
-x,-y,-z
x,-y,z
1/2+x,1/2+y,z
1/2-x,1/2+y,-z
1/2-x,1/2-y,-z
1/2+x,1/2-y,z
loop_
_atom_site_type_symbol
_atom_site_label
_atom_site_fract_x
_atom_site_fract_y
_atom_site_fract_z
Si Si1 0.569630 0.798782 0.033309
Si Si2 0.309177 0.382197 0.045709
Si Si3 0.305092 0.778973 0.393591
Si Si4 0.433143 0.880667 0.383403
Si Si5 0.561400 0.620449 0.190422
Si Si6 0.813132 0.880891 0.575636
Si Si7 0.286305 0.208139 0.863430
Si Si8 0.062070 0.777298 0.802550
O O1 0.556172 0.687902 0.081145
O O2 0.642310 0.842700 0.125901
O O3 0.500000 0.866309 0.000000
O O4 0.577614 0.790140 0.915899
O O5 0.314702 0.500000 0.011047
O O6 0.244869 0.369489 0.073788
O O7 0.373747 0.352659 0.164247
O O8 0.302521 0.317616 0.933148
O O9 0.368347 0.845295 0.401392
O O10 0.259693 0.855362 0.430313
O O11 0.330860 0.685406 0.485709
O O12 0.263748 0.728116 0.268296
O O13 0.500000 0.873276 0.500000
O O14 0.444497 0.803653 0.295659
O O15 0.421721 0.000000 0.336799
O O16 0.551416 0.500000 0.152427
O O17 0.633225 0.642224 0.294650
O O18 0.505220 0.654487 0.234205
O O19 0.815105 0.000000 0.540519
#
# Coordination Sequence:
#
# PCOD8092184 Si02
#       8
#     8   8   8   8   8   8   8   8
#     4   9  19  34  57  83 118 151 185 235 289 347
#     4  10  21  36  57  86 122 156 190 238 295 354
#     4  11  21  40  61  83 119 153 198 253 287 348
#     4  11  24  42  64  86 113 158 206 243 288 342
#     4  10  19  34  59  89 119 153 190 232 293 358
#     4  10  22  37  59  88 115 152 195 244 301 351
#     4  10  20  37  56  88 116 156 198 238 292 346
#     4  10  20  37  57  90 121 148 188 243 293 346
#
# _framework density 19.698730000000001
#
# number of rings (size 3 to 8) (size 9 to 14) (size 15 to 20)
#    0.000    1.875    2.500    1.500    0.000    5.750 
#    0.000    0.000    0.000    9.375    0.000    0.000 
#    0.000    0.000    0.000    0.000    0.000    0.000 
#
# Total GULP energy -396617.809639 kJ/mol
# GULP energy per Si atom -12394.306551 kJ/mol
# Density = 1.965390 g / cm^3
# Si number density = 19.698730 Si / 1000 Ang^3
#
#
#
# Elastic Constant Matrix: (Units=GPa)
#
#
# Indices 1 2 3 4 5 6 
#
# 1 119.4954 2.9675 5.8728 0.0000 6.2421 0.0000
# 2 2.9675 51.2277 23.8116 0.0000 -3.4738 0.0000
# 3 5.8728 23.8116 73.1708 0.0000 -2.3090 0.0000
# 4 0.0000 0.0000 0.0000 17.7686 0.0000 -2.9872
# 5 6.2421 -3.4738 -2.3090 0.0000 30.9769 0.0000
# 6 0.0000 0.0000 0.0000 -2.9872 0.0000 18.5415
#
#
#
# Elastic Compliance Matrix: (Units=1/GPa)
#
#
# Indices 1 2 3 4 5 6 
#
# 1 0.008501 -0.000319 -0.000635 0.000000 -0.001796 0.000000
# 2 -0.000319 0.023139 -0.007438 0.000000 0.002105 0.000000
# 3 -0.000635 -0.007438 0.016154 0.000000 0.000498 0.000000
# 4 0.000000 0.000000 0.000000 0.057846 0.000000 0.009319
# 5 -0.001796 0.002105 0.000498 0.000000 0.032917 0.000000
# 6 0.000000 0.000000 0.000000 0.009319 0.000000 0.055434
#
#
# Mechanical properties :
#
#
# Convention : Reuss Voigt Hill
#
# Bulk Modulus (GPa) = 32.24762 34.35529 33.30145
# Shear Modulus (GPa) = 22.61286 27.54022 25.07654
#
# Velocity S-wave (km/s) = 3.39179 3.74313 3.57179
# Velocity P-wave (km/s) = 5.63427 6.01329 5.82686
#
# Compressibility (1/GPa) = 0.03101004
#
# Stress axis : x y z
#
# Youngs Moduli (GPa) = 117.62636 43.21666 61.90463
#
# Poissons Ratio (x) = 0.01379 0.03932
# Poissons Ratio (y) = 0.03752 0.46045
# Poissons Ratio (z) = 0.07472 0.32145
#
# Static dielectric constant tensor:
#      x y z
#    x 4.155700 0.000000 0.233330 
#    y 0.000000 3.311980 0.000000 
#    z 0.233330 0.000000 3.502420 
# 
# 
# High freq. dielectric constant tensor:
#      x y z
#    x 1.794900 0.000000 0.010430 
#    y 0.000000 1.738330 0.000000 
#    z 0.010430 0.000000 1.765520 
# 
# From -- ./inp_files/175324.got.cif
#   From: 2010.06.25/outbox.cif.g09.slc.cpg/sg12_88_cif.got.tgz:175324.got - 2010.06.28 00:19:55.
