data_PCOD8092992
_publ_section_title
;
Structure prediction by ZEFSAII (Michael W. Deem and Ramdas Pophale) SiO2 
 PCOD8092992
Probable space group: C 2/M
;
_chemical_formula_sum "Si O2"
_cell_formula_units_Z 56
_cell_length_a 19.996488
_cell_length_b 9.162853
_cell_length_c 18.791647
_cell_angle_alpha 90.000000
_cell_angle_beta 120.505358
_cell_angle_gamma 90.000000
_cell_volume 2966.509578
_symmetry_space_group_name_H-M "C 2/M"
_symmetry_group_IT_number 12
_symmetry_cell_setting 'monoclinic'
loop_
_space_group_symop_operation_xyz
x,y,z
-x,y,-z
-x,-y,-z
x,-y,z
1/2+x,1/2+y,z
1/2-x,1/2+y,-z
1/2-x,1/2-y,-z
1/2+x,1/2-y,z
loop_
_atom_site_type_symbol
_atom_site_label
_atom_site_fract_x
_atom_site_fract_y
_atom_site_fract_z
Si Si1 0.526245 0.330153 0.812335
Si Si2 0.852452 0.168054 0.739027
Si Si3 0.910524 0.170974 0.436433
Si Si4 0.131900 0.826848 0.743641
Si Si5 0.061582 0.668753 0.975297
Si Si6 0.695061 0.831462 0.150520
Si Si7 0.722993 0.173915 0.556983
O O1 0.544500 0.500000 0.831311
O O2 0.435640 0.302240 0.747717
O O3 0.572673 0.263237 0.770275
O O4 0.555434 0.255545 0.899510
O O5 0.851005 0.254731 0.811345
O O6 0.785243 0.221042 0.650102
O O7 0.841304 0.000000 0.752205
O O8 0.891347 0.229418 0.347040
O O9 0.860465 0.263110 0.465645
O O10 0.000000 0.202289 0.500000
O O11 0.890635 0.000000 0.434549
O O12 0.217840 0.769191 0.809926
O O13 0.127069 0.000000 0.741985
O O14 0.044131 0.500000 0.949983
O O15 0.148571 0.693108 0.052221
O O16 0.000000 0.727953 0.000000
O O17 0.698451 0.000000 0.173341
O O18 0.750000 0.250000 0.500000
O O19 0.718779 0.000000 0.544449
#
# Coordination Sequence:
#
# PCOD8092992 Si02
#       7
#     8   8   8   8   8   8   8
#     4  10  21  36  56  82 112 146 188 234 281 335
#     4  10  21  36  57  83 112 145 187 237 279 328
#     4  10  21  38  64  89 115 154 194 233 288 352
#     4   9  19  36  57  82 111 147 187 228 278 339
#     4  10  20  34  53  81 114 146 185 233 283 336
#     4  10  19  35  59  80 108 149 190 228 277 342
#     4  11  24  40  60  88 121 152 192 242 290 343
#
# _framework density 18.877403999999999
#
# number of rings (size 3 to 8) (size 9 to 14) (size 15 to 20)
#    0.000    2.000    2.857    0.429    2.000    2.286 
#    0.000    1.429    0.000    0.000    0.000    0.000 
#    0.000    0.000    0.000    0.000    0.000    0.000 
#
# Total GULP energy -347258.522241 kJ/mol
# GULP energy per Si atom -12402.090080 kJ/mol
# Density = 1.883444 g / cm^3
# Si number density = 18.877404 Si / 1000 Ang^3
#
#
#
# Elastic Constant Matrix: (Units=GPa)
#
#
# Indices 1 2 3 4 5 6 
#
# 1 144.1058 41.7302 56.3887 0.0000 -5.3046 0.0000
# 2 41.7302 49.7734 35.7641 0.0000 -3.7095 0.0000
# 3 56.3887 35.7641 95.3653 0.0000 2.4325 0.0000
# 4 0.0000 0.0000 0.0000 27.0461 0.0000 -2.9806
# 5 -5.3046 -3.7095 2.4325 0.0000 39.4299 0.0000
# 6 0.0000 0.0000 0.0000 -2.9806 0.0000 25.0204
#
#
#
# Elastic Compliance Matrix: (Units=1/GPa)
#
#
# Indices 1 2 3 4 5 6 
#
# 1 0.010135 -0.005600 -0.003920 0.000000 0.001078 0.000000
# 2 -0.005600 0.031013 -0.008388 0.000000 0.002682 0.000000
# 3 -0.003920 -0.008388 0.016008 0.000000 -0.002304 0.000000
# 4 0.000000 0.000000 0.000000 0.037466 0.000000 0.004463
# 5 0.001078 0.002682 -0.002304 0.000000 0.025901 0.000000
# 6 0.000000 0.000000 0.000000 0.004463 0.000000 0.040499
#
#
# Mechanical properties :
#
#
# Convention : Reuss Voigt Hill
#
# Bulk Modulus (GPa) = 46.85929 61.89005 54.37467
# Shear Modulus (GPa) = 24.51584 28.65671 26.58627
#
# Velocity S-wave (km/s) = 3.60764 3.90043 3.75689
# Velocity P-wave (km/s) = 6.49848 7.28978 6.90548
#
# Compressibility (1/GPa) = 0.02134049
#
# Stress axis : x y z
#
# Youngs Moduli (GPa) = 98.67280 32.24473 62.46815
#
# Poissons Ratio (x) = 0.18057 0.24487
# Poissons Ratio (y) = 0.55255 0.52397
# Poissons Ratio (z) = 0.38679 0.27046
#
# Static dielectric constant tensor:
#      x y z
#    x 3.700650 0.000000 0.122840 
#    y 0.000000 3.243570 0.000000 
#    z 0.122840 0.000000 3.558660 
# 
# 
# High freq. dielectric constant tensor:
#      x y z
#    x 1.743490 0.000000 0.008330 
#    y 0.000000 1.710610 0.000000 
#    z 0.008330 0.000000 1.740640 
# 
# From -- ./inp_files/275648.got.cif
#   From: 2010.06.25/outbox.cif.g09.slc.cpg/sg12_138_cif.got.tgz:275648.got - 2010.06.28 00:19:55.
