data_PCOD8092582
_publ_section_title
;
Structure prediction by ZEFSAII (Michael W. Deem and Ramdas Pophale) SiO2 
 PCOD8092582
Probable space group: C 2/M
;
_chemical_formula_sum "Si O2"
_cell_formula_units_Z 64
_cell_length_a 31.985025
_cell_length_b 14.288577
_cell_length_c 9.093145
_cell_angle_alpha 90.000000
_cell_angle_beta 125.367423
_cell_angle_gamma 90.000000
_cell_volume 3388.838491
_symmetry_space_group_name_H-M "C 2/M"
_symmetry_group_IT_number 12
_symmetry_cell_setting 'monoclinic'
loop_
_space_group_symop_operation_xyz
x,y,z
-x,y,-z
-x,-y,-z
x,-y,z
1/2+x,1/2+y,z
1/2-x,1/2+y,-z
1/2-x,1/2-y,-z
1/2+x,1/2-y,z
loop_
_atom_site_type_symbol
_atom_site_label
_atom_site_fract_x
_atom_site_fract_y
_atom_site_fract_z
Si Si1 0.447488 0.790803 0.968639
Si Si2 0.013745 0.285785 0.359819
Si Si3 0.710385 0.602405 0.172536
Si Si4 0.637039 0.345968 0.263051
Si Si5 0.696108 0.234745 0.601279
Si Si6 0.574245 0.602350 0.415440
Si Si7 0.674105 0.606984 0.777183
Si Si8 0.600116 0.891746 0.396525
O O1 0.408164 0.707255 0.912874
O O2 0.420417 0.869279 0.810871
O O3 0.500000 0.755755 0.000000
O O4 0.463866 0.822183 0.166804
O O5 0.033070 0.185743 0.332242
O O6 0.057141 0.364182 0.428236
O O7 0.000000 0.273419 0.500000
O O8 0.736314 0.500000 0.211004
O O9 0.664985 0.590506 0.199772
O O10 0.751654 0.678019 0.306919
O O11 0.686237 0.633740 0.969076
O O12 0.681497 0.277073 0.413616
O O13 0.610888 0.399445 0.346040
O O14 0.703510 0.318159 0.734638
O O15 0.649792 0.165326 0.549281
O O16 0.546910 0.500000 0.368671
O O17 0.612687 0.616254 0.631186
O O18 0.691737 0.500000 0.775604
O O19 0.613252 0.000000 0.432701
#
# Coordination Sequence:
#
# PCOD8092582 Si02
#       8
#     8   8   8   8   8   8   8   8
#     4   9  18  36  56  79 108 145 185 223 277 335
#     4  11  22  36  57  83 113 143 186 235 280 334
#     4  11  22  33  54  89 117 145 193 237 274 327
#     4  10  19  35  56  79 113 147 187 233 279 320
#     4  10  19  38  58  82 113 154 185 229 279 337
#     4  10  19  37  56  76 112 155 188 220 279 335
#     4   9  19  35  56  80 111 154 190 224 279 334
#     4  10  20  38  62  81 109 148 185 229 284 337
#
# _framework density 18.885528000000001
#
# number of rings (size 3 to 8) (size 9 to 14) (size 15 to 20)
#    0.000    2.000    5.000    1.500    1.750    3.250 
#    0.000    1.875    0.000    0.750    0.000    0.000 
#    0.000    0.000    0.000    0.000    0.000    0.000 
#
# Total GULP energy -396504.014313 kJ/mol
# GULP energy per Si atom -12390.750447 kJ/mol
# Density = 1.884254 g / cm^3
# Si number density = 18.885528 Si / 1000 Ang^3
#
#
#
# Elastic Constant Matrix: (Units=GPa)
#
#
# Indices 1 2 3 4 5 6 
#
# 1 70.6124 26.7525 41.8519 0.0000 -10.7052 0.0000
# 2 26.7525 97.9535 23.9619 0.0000 0.6642 0.0000
# 3 41.8519 23.9619 83.8213 0.0000 -7.4358 0.0000
# 4 0.0000 0.0000 0.0000 16.5307 0.0000 1.2891
# 5 -10.7052 0.6642 -7.4358 0.0000 17.8349 0.0000
# 6 0.0000 0.0000 0.0000 1.2891 0.0000 13.0327
#
#
#
# Elastic Compliance Matrix: (Units=1/GPa)
#
#
# Indices 1 2 3 4 5 6 
#
# 1 0.022690 -0.003986 -0.009313 0.000000 0.009885 0.000000
# 2 -0.003986 0.011732 -0.001677 0.000000 -0.003528 0.000000
# 3 -0.009313 -0.001677 0.017205 0.000000 0.001646 0.000000
# 4 0.000000 0.000000 0.000000 0.060964 0.000000 -0.006030
# 5 0.009885 -0.003528 0.001646 0.000000 0.062821 0.000000
# 6 0.000000 0.000000 0.000000 -0.006030 0.000000 0.077327
#
#
# Mechanical properties :
#
#
# Convention : Reuss Voigt Hill
#
# Bulk Modulus (GPa) = 46.13277 48.61332 47.37304
# Shear Modulus (GPa) = 17.24645 20.13438 18.69041
#
# Velocity S-wave (km/s) = 3.02521 3.26870 3.14931
# Velocity P-wave (km/s) = 6.05666 6.32794 6.19379
#
# Compressibility (1/GPa) = 0.02167657
#
# Stress axis : x y z
#
# Youngs Moduli (GPa) = 44.07168 85.24004 58.12147
#
# Poissons Ratio (x) = 0.33976 0.54128
# Poissons Ratio (y) = 0.17566 0.09744
# Poissons Ratio (z) = 0.41044 0.14291
#
# Static dielectric constant tensor:
#      x y z
#    x 3.142830 0.000000 -0.005710 
#    y 0.000000 3.369070 0.000000 
#    z -0.005710 0.000000 3.708460 
# 
# 
# High freq. dielectric constant tensor:
#      x y z
#    x 1.706290 0.000000 0.000790 
#    y 0.000000 1.727660 0.000000 
#    z 0.000790 0.000000 1.742880 
# 
# From -- ./inp_files/112017.got.cif
#   From: 2010.06.25/outbox.cif.g09.slc.cpg/sg12_57_cif.got.tgz:112017.got - 2010.06.28 00:19:55.
