data_PCOD8092346
_publ_section_title
;
Structure prediction by ZEFSAII (Michael W. Deem and Ramdas Pophale) SiO2 
 PCOD8092346
Probable space group: C 2/M
;
_chemical_formula_sum "Si O2"
_cell_formula_units_Z 56
_cell_length_a 19.032503
_cell_length_b 26.254965
_cell_length_c 9.297809
_cell_angle_alpha 90.000000
_cell_angle_beta 135.375703
_cell_angle_gamma 90.000000
_cell_volume 3263.671493
_symmetry_space_group_name_H-M "C 2/M"
_symmetry_group_IT_number 12
_symmetry_cell_setting 'monoclinic'
loop_
_space_group_symop_operation_xyz
x,y,z
-x,y,-z
-x,-y,-z
x,-y,z
1/2+x,1/2+y,z
1/2-x,1/2+y,-z
1/2-x,1/2-y,-z
1/2+x,1/2-y,z
loop_
_atom_site_type_symbol
_atom_site_label
_atom_site_fract_x
_atom_site_fract_y
_atom_site_fract_z
Si Si1 0.687391 0.787865 0.683416
Si Si2 0.381528 0.849741 0.928245
Si Si3 0.768910 0.367998 0.030536
Si Si4 0.086328 0.766663 0.019464
Si Si5 0.093285 0.634914 0.346709
Si Si6 0.593752 0.303204 0.722206
Si Si7 0.885889 0.558996 0.379388
O O1 0.668856 0.825996 0.789662
O O2 0.619123 0.809139 0.452913
O O3 0.657686 0.732641 0.704897
O O4 0.802357 0.790101 0.795335
O O5 0.357736 0.873855 0.738405
O O6 0.287004 0.861801 0.887470
O O7 0.405581 0.791804 0.928649
O O8 0.475138 0.872624 0.152638
O O9 0.803789 0.423050 0.140298
O O10 0.652001 0.353008 0.868010
O O11 0.056335 0.772313 0.807953
O O12 0.000000 0.790567 0.000000
O O13 0.136691 0.589940 0.508494
O O14 0.500000 0.324710 0.500000
O O15 0.866867 0.500000 0.380489
O O16 0.000000 0.569930 0.500000
#
# Coordination Sequence:
#
# PCOD8092346 Si02
#       7
#     8   8   8   8   8   8   8
#     4  10  20  32  49  70 101 148 177 204 237 293
#     4  11  18  31  45  72 102 139 157 208 250 296
#     4  10  19  35  51  70 105 130 174 205 254 297
#     4  11  20  32  45  70 107 140 182 207 240 288
#     4  10  21  30  47  71 102 131 166 198 259 293
#     4  11  21  32  50  74 103 143 178 209 238 289
#     4  10  20  35  56  75  92 126 170 210 258 320
#
# _framework density 17.15859
#
# number of rings (size 3 to 8) (size 9 to 14) (size 15 to 20)
#    0.000    1.571    5.714    1.714    0.000    1.714 
#    0.000    2.143    0.000    0.429    0.000    0.000 
#    0.000   47.429    0.000    0.000    0.000    0.000 
#
# Total GULP energy -346897.618961 kJ/mol
# GULP energy per Si atom -12389.200677 kJ/mol
# Density = 1.711954 g / cm^3
# Si number density = 17.158590 Si / 1000 Ang^3
#
#
#
# Elastic Constant Matrix: (Units=GPa)
#
#
# Indices 1 2 3 4 5 6 
#
# 1 99.3013 24.5416 34.8083 0.0000 -13.2013 0.0000
# 2 24.5416 74.4386 35.9529 0.0000 -0.9024 0.0000
# 3 34.8083 35.9529 105.5841 0.0000 -7.0348 0.0000
# 4 0.0000 0.0000 0.0000 6.6856 0.0000 36.2959
# 5 -13.2013 -0.9024 -7.0348 0.0000 21.4088 0.0000
# 6 0.0000 0.0000 0.0000 36.2959 0.0000 -71.1226
#
#
#
# Elastic Compliance Matrix: (Units=1/GPa)
#
#
# Indices 1 2 3 4 5 6 
#
# 1 0.012618 -0.002736 -0.002778 0.000000 0.006752 0.000000
# 2 -0.002736 0.016699 -0.004958 0.000000 -0.002613 0.000000
# 3 -0.002778 -0.004958 0.012215 0.000000 0.002092 0.000000
# 4 0.000000 0.000000 0.000000 0.039669 0.000000 0.020244
# 5 0.006752 -0.002613 0.002092 0.000000 0.051451 0.000000
# 6 0.000000 0.000000 0.000000 0.020244 0.000000 -0.003729
#
#
# Mechanical properties :
#
#
# Convention : Reuss Voigt Hill
#
# Bulk Modulus (GPa) = 48.57584 52.21442 50.39513
# Shear Modulus (GPa) = 31.90185 3.66246 17.78215
#
# Velocity S-wave (km/s) = 4.31656 1.46257 3.22272
# Velocity P-wave (km/s) = 7.29486 5.77483 6.57889
#
# Compressibility (1/GPa) = 0.02058637
#
# Stress axis : x y z
#
# Youngs Moduli (GPa) = 79.25078 59.88332 81.86826
#
# Poissons Ratio (x) = 0.16386 0.22745
# Poissons Ratio (y) = 0.21686 0.40593
# Poissons Ratio (z) = 0.22018 0.29692
#
# Static dielectric constant tensor:
#      x y z
#    x 3.300180 0.000000 -0.093160 
#    y 0.000000 2.837560 0.000000 
#    z -0.093160 0.000000 3.318980 
# 
# 
# High freq. dielectric constant tensor:
#      x y z
#    x 1.659410 0.000000 -0.015570 
#    y 0.000000 1.608900 0.000000 
#    z -0.015570 0.000000 1.668000 
# 
# From -- ./inp_files/79712.got.cif
#   From: 2010.06.25/outbox.cif.g09.slc.cpg/sg12_40_cif.got.tgz:79712.got - 2010.06.28 00:19:55.
