data_PCOD8092647
_publ_section_title
;
Structure prediction by ZEFSAII (Michael W. Deem and Ramdas Pophale) SiO2 
 PCOD8092647
Probable space group: C 2/M
;
_chemical_formula_sum "Si O2"
_cell_formula_units_Z 56
_cell_length_a 19.402802
_cell_length_b 9.220807
_cell_length_c 20.164406
_cell_angle_alpha 90.000000
_cell_angle_beta 56.320710
_cell_angle_gamma 90.000000
_cell_volume 3002.084042
_symmetry_space_group_name_H-M "C 2/M"
_symmetry_group_IT_number 12
_symmetry_cell_setting 'monoclinic'
loop_
_space_group_symop_operation_xyz
x,y,z
-x,y,-z
-x,-y,-z
x,-y,z
1/2+x,1/2+y,z
1/2-x,1/2+y,-z
1/2-x,1/2-y,-z
1/2+x,1/2-y,z
loop_
_atom_site_type_symbol
_atom_site_label
_atom_site_fract_x
_atom_site_fract_y
_atom_site_fract_z
Si Si1 0.331496 0.666180 0.437950
Si Si2 0.061739 0.170558 0.132747
Si Si3 0.383476 0.329054 0.268775
Si Si4 0.686992 0.664798 0.184180
Si Si5 0.314640 0.832495 0.010496
Si Si6 0.591689 0.666432 0.465603
Si Si7 0.790021 0.328808 0.695710
O O1 0.305949 0.500000 0.439519
O O2 0.250000 0.750000 0.500000
O O3 0.370389 0.732960 0.350054
O O4 0.397670 0.682006 0.461256
O O5 0.116967 0.207242 0.167921
O O6 0.096869 0.255120 0.049080
O O7 0.969121 0.232160 0.193222
O O8 0.064280 0.000000 0.115864
O O9 0.393470 0.500000 0.268397
O O10 0.306168 0.285040 0.263617
O O11 0.672641 0.500000 0.215477
O O12 0.677652 0.768570 0.251887
O O13 0.779869 0.681567 0.104030
O O14 0.319851 0.000000 0.986299
O O15 0.250000 0.750000 0.000000
O O16 0.500000 0.724021 0.500000
O O17 0.602877 0.500000 0.436466
O O18 0.657922 0.763963 0.392418
O O19 0.801976 0.500000 0.688692
#
# Coordination Sequence:
#
# PCOD8092647 Si02
#       7
#     8   8   8   8   8   8   8
#     4  10  19  35  57  77 103 139 177 217 259 311
#     4   9  18  34  58  81 104 138 178 221 259 307
#     4   9  19  35  54  77 106 140 177 214 261 312
#     4   9  19  34  55  79 106 140 175 213 262 315
#     4   9  17  32  54  80 109 139 173 217 263 311
#     4  10  22  37  57  80 103 138 180 219 262 315
#     4  11  22  36  54  77 109 142 173 219 267 312
#
# _framework density 18.653707000000001
#
# number of rings (size 3 to 8) (size 9 to 14) (size 15 to 20)
#    0.000    2.429    1.429    1.714    2.000    3.143 
#    0.000    2.857    0.000    4.286    0.000    0.000 
#    0.000    0.000    0.000    0.000    0.000    0.000 
#
# Total GULP energy -347123.155191 kJ/mol
# GULP energy per Si atom -12397.255543 kJ/mol
# Density = 1.861125 g / cm^3
# Si number density = 18.653707 Si / 1000 Ang^3
#
#
#
# Elastic Constant Matrix: (Units=GPa)
#
#
# Indices 1 2 3 4 5 6 
#
# 1 70.1260 20.5044 13.2185 0.0000 -17.3682 0.0000
# 2 20.5044 63.0795 23.8669 0.0001 -5.0890 -0.0003
# 3 13.2185 23.8669 57.7441 0.0000 -20.1004 0.0000
# 4 0.0000 0.0001 0.0000 34.0735 0.0000 -2.0260
# 5 -17.3682 -5.0890 -20.1004 0.0000 36.6043 0.0000
# 6 0.0000 -0.0003 0.0000 -2.0260 0.0000 19.5328
#
#
#
# Elastic Compliance Matrix: (Units=1/GPa)
#
#
# Indices 1 2 3 4 5 6 
#
# 1 0.017703 -0.005501 0.001087 0.000000 0.008232 0.000000
# 2 -0.005501 0.020626 -0.008872 0.000000 -0.004615 0.000000
# 3 0.001087 -0.008872 0.025327 0.000000 0.013190 0.000000
# 4 0.000000 0.000000 0.000000 0.029530 0.000000 0.003063
# 5 0.008232 -0.004615 0.013190 0.000000 0.037826 0.000000
# 6 0.000000 0.000000 0.000000 0.003063 0.000000 0.051514
#
#
# Mechanical properties :
#
#
# Convention : Reuss Voigt Hill
#
# Bulk Modulus (GPa) = 26.96697 34.01435 30.49066
# Shear Modulus (GPa) = 22.57740 26.93279 24.75510
#
# Velocity S-wave (km/s) = 3.48277 3.80390 3.64687
# Velocity P-wave (km/s) = 5.53723 6.12920 5.84072
#
# Compressibility (1/GPa) = 0.03708241
#
# Stress axis : x y z
#
# Youngs Moduli (GPa) = 56.48919 48.48278 39.48285
#
# Poissons Ratio (x) = 0.26673 -0.04291
# Poissons Ratio (y) = 0.31077 0.35030
# Poissons Ratio (z) = -0.06140 0.43015
#
# Static dielectric constant tensor:
#      x y z
#    x 3.467700 0.000000 -0.192880 
#    y 0.000000 3.370670 0.000000 
#    z -0.192880 0.000000 3.906990 
# 
# 
# High freq. dielectric constant tensor:
#      x y z
#    x 1.710090 0.000000 -0.008090 
#    y 0.000000 1.709010 0.000000 
#    z -0.008090 0.000000 1.731970 
# 
# From -- ./inp_files/313760.got.cif
#   From: 2010.06.25/outbox.cif.g09.slc.cpg/sg12_157_cif.got.tgz:313760.got - 2010.06.28 00:19:55.
