data_PCOD8092748
_publ_section_title
;
Structure prediction by ZEFSAII (Michael W. Deem and Ramdas Pophale) SiO2 
 PCOD8092748
Probable space group: C 2/M
;
_chemical_formula_sum "Si O2"
_cell_formula_units_Z 56
_cell_length_a 27.863793
_cell_length_b 8.876610
_cell_length_c 11.999362
_cell_angle_alpha 90.000000
_cell_angle_beta 109.013934
_cell_angle_gamma 90.000000
_cell_volume 2805.945385
_symmetry_space_group_name_H-M "C 2/M"
_symmetry_group_IT_number 12
_symmetry_cell_setting 'monoclinic'
loop_
_space_group_symop_operation_xyz
x,y,z
-x,y,-z
-x,-y,-z
x,-y,z
1/2+x,1/2+y,z
1/2-x,1/2+y,-z
1/2-x,1/2-y,-z
1/2+x,1/2-y,z
loop_
_atom_site_type_symbol
_atom_site_label
_atom_site_fract_x
_atom_site_fract_y
_atom_site_fract_z
Si Si1 0.144455 0.165419 0.562788
Si Si2 0.388431 0.175564 0.258313
Si Si3 0.491780 0.320956 0.364258
Si Si4 0.806187 0.821309 0.040097
Si Si5 0.757613 0.332904 0.620312
Si Si6 0.411655 0.673618 0.694518
Si Si7 0.159273 0.177584 0.174955
O O1 0.117682 0.294409 0.614587
O O2 0.203136 0.157270 0.637564
O O3 0.135566 0.201170 0.425581
O O4 0.119250 0.000000 0.569765
O O5 0.442811 0.246076 0.268803
O O6 0.341328 0.257846 0.164073
O O7 0.387332 0.000000 0.229226
O O8 0.500000 0.272519 0.500000
O O9 0.487068 0.500000 0.352497
O O10 0.537962 0.255208 0.322838
O O11 0.799864 0.000000 0.047308
O O12 0.750000 0.750000 0.000000
O O13 0.837575 0.777344 0.951907
O O14 0.780015 0.500000 0.616960
O O15 0.750000 0.250000 0.500000
O O16 0.791081 0.242146 0.730979
O O17 0.424074 0.500000 0.721474
O O18 0.391849 0.739484 0.799526
O O19 0.161398 0.000000 0.192929
#
# Coordination Sequence:
#
# PCOD8092748 Si02
#       7
#     8   8   8   8   8   8   8
#     4  10  19  35  57  82 116 156 197 242 293 355
#     4  12  25  39  59  88 124 159 201 251 300 359
#     4  10  19  36  63  90 118 157 201 245 302 362
#     4  11  24  43  67  90 119 158 206 253 299 357
#     4  11  21  32  52  82 118 155 190 235 291 357
#     4   9  17  34  59  86 116 149 190 242 297 355
#     4  10  21  39  60  85 116 153 199 251 299 351
#
# _framework density 19.957623000000002
#
# number of rings (size 3 to 8) (size 9 to 14) (size 15 to 20)
#    0.000    1.571    2.857    3.000    0.000    4.857 
#    0.000    1.429    0.000    4.286    0.000    0.000 
#    0.000    0.000    0.000    0.000    0.000    0.000 
#
# Total GULP energy -346985.368856 kJ/mol
# GULP energy per Si atom -12392.334602 kJ/mol
# Density = 1.991220 g / cm^3
# Si number density = 19.957623 Si / 1000 Ang^3
#
#
#
# Elastic Constant Matrix: (Units=GPa)
#
#
# Indices 1 2 3 4 5 6 
#
# 1 135.9456 32.8031 40.4993 0.0000 -8.6356 0.0000
# 2 32.8031 41.0067 35.3794 0.0000 -9.9866 0.0000
# 3 40.4993 35.3794 66.8373 0.0000 -4.1724 0.0000
# 4 0.0000 0.0000 0.0000 24.4184 0.0000 4.3551
# 5 -8.6356 -9.9866 -4.1724 0.0000 37.7801 0.0000
# 6 0.0000 0.0000 0.0000 4.3551 0.0000 27.2907
#
#
#
# Elastic Compliance Matrix: (Units=1/GPa)
#
#
# Indices 1 2 3 4 5 6 
#
# 1 0.009481 -0.004633 -0.003256 0.000000 0.000583 0.000000
# 2 -0.004633 0.050651 -0.023396 0.000000 0.009746 0.000000
# 3 -0.003256 -0.023396 0.029087 0.000000 -0.003716 0.000000
# 4 0.000000 0.000000 0.000000 0.042153 0.000000 -0.006727
# 5 0.000583 0.009746 -0.003716 0.000000 0.028768 0.000000
# 6 0.000000 0.000000 0.000000 -0.006727 0.000000 0.037716
#
#
# Mechanical properties :
#
#
# Convention : Reuss Voigt Hill
#
# Bulk Modulus (GPa) = 37.52445 51.23926 44.38186
# Shear Modulus (GPa) = 18.56615 26.90503 22.73559
#
# Velocity S-wave (km/s) = 3.05336 3.67564 3.37886
# Velocity P-wave (km/s) = 5.59227 6.61389 6.12442
#
# Compressibility (1/GPa) = 0.02664929
#
# Stress axis : x y z
#
# Youngs Moduli (GPa) = 105.47611 19.74298 34.37994
#
# Poissons Ratio (x) = 0.09147 0.11194
# Poissons Ratio (y) = 0.48868 0.80434
# Poissons Ratio (z) = 0.34343 0.46190
#
# Static dielectric constant tensor:
#      x y z
#    x 4.050890 0.000000 -0.184510 
#    y 0.000000 3.462460 0.000000 
#    z -0.184510 0.000000 3.543380 
# 
# 
# High freq. dielectric constant tensor:
#      x y z
#    x 1.793340 0.000000 -0.008030 
#    y 0.000000 1.755670 0.000000 
#    z -0.008030 0.000000 1.762700 
# 
# From -- ./inp_files/181034.got.cif
#   From: 2010.06.25/outbox.cif.g09.slc.cpg/sg12_91_cif.got.tgz:181034.got - 2010.06.28 00:19:55.
