data_PCOD8092680
_publ_section_title
;
Structure prediction by ZEFSAII (Michael W. Deem and Ramdas Pophale) SiO2 
 PCOD8092680
Probable space group: C 2/M
;
_chemical_formula_sum "Si O2"
_cell_formula_units_Z 56
_cell_length_a 19.475765
_cell_length_b 9.142553
_cell_length_c 24.307141
_cell_angle_alpha 90.000000
_cell_angle_beta 135.709772
_cell_angle_gamma 90.000000
_cell_volume 3022.273147
_symmetry_space_group_name_H-M "C 2/M"
_symmetry_group_IT_number 12
_symmetry_cell_setting 'monoclinic'
loop_
_space_group_symop_operation_xyz
x,y,z
-x,y,-z
-x,-y,-z
x,-y,z
1/2+x,1/2+y,z
1/2-x,1/2+y,-z
1/2-x,1/2-y,-z
1/2+x,1/2-y,z
loop_
_atom_site_type_symbol
_atom_site_label
_atom_site_fract_x
_atom_site_fract_y
_atom_site_fract_z
Si Si1 0.238091 0.337611 0.047560
Si Si2 0.512464 0.165026 0.946453
Si Si3 0.183129 0.173749 0.507818
Si Si4 0.186937 0.328392 0.624735
Si Si5 0.656586 0.330590 0.193995
Si Si6 0.300052 0.670526 0.198023
Si Si7 0.544246 0.668976 0.623653
O O1 0.273054 0.500000 0.054089
O O2 0.304835 0.278796 0.136913
O O3 0.250000 0.250000 0.000000
O O4 0.125480 0.329346 0.998105
O O5 0.451410 0.258267 0.866264
O O6 0.471282 0.000000 0.921333
O O7 0.500000 0.233190 0.000000
O O8 0.250000 0.250000 0.500000
O O9 0.208609 0.242447 0.581265
O O10 0.068829 0.209524 0.430946
O O11 0.203243 0.000000 0.519466
O O12 0.168505 0.500000 0.603031
O O13 0.285110 0.301107 0.716266
O O14 0.091224 0.265046 0.601533
O O15 0.645133 0.500000 0.175761
O O16 0.713427 0.260236 0.175885
O O17 0.271306 0.500000 0.184361
O O18 0.402604 0.702064 0.287769
O O19 0.556778 0.500000 0.613285
#
# Coordination Sequence:
#
# PCOD8092680 Si02
#       7
#     8   8   8   8   8   8   8
#     4  10  21  36  54  77 108 146 183 223 270 324
#     4  10  19  35  57  79 107 144 186 223 267 328
#     4  11  23  39  58  83 115 149 185 225 275 332
#     4  10  21  37  58  85 115 145 183 228 274 328
#     4  10  20  33  54  86 113 138 179 232 276 313
#     4   9  17  35  58  78 106 145 182 221 273 327
#     4   9  19  36  61  86 107 140 186 229 273 330
#
# _framework density 18.529098999999999
#
# number of rings (size 3 to 8) (size 9 to 14) (size 15 to 20)
#    0.000    2.143    1.429    1.714    0.000    6.000 
#    2.571    0.000    0.000    0.000    0.000    0.000 
#    0.000    0.000    0.000    0.000    0.000    0.000 
#
# Total GULP energy -347140.366348 kJ/mol
# GULP energy per Si atom -12397.870227 kJ/mol
# Density = 1.848693 g / cm^3
# Si number density = 18.529099 Si / 1000 Ang^3
#
#
#
# Elastic Constant Matrix: (Units=GPa)
#
#
# Indices 1 2 3 4 5 6 
#
# 1 95.7024 52.4302 57.0356 0.0000 -24.0569 0.0000
# 2 52.4302 95.3718 62.2282 0.0000 -13.8244 0.0000
# 3 57.0356 62.2282 120.6430 0.0000 -18.6870 0.0000
# 4 0.0000 0.0000 0.0000 31.2690 0.0000 -2.5187
# 5 -24.0569 -13.8244 -18.6870 0.0000 31.6017 0.0000
# 6 0.0000 0.0000 0.0000 -2.5187 0.0000 31.1661
#
#
#
# Elastic Compliance Matrix: (Units=1/GPa)
#
#
# Indices 1 2 3 4 5 6 
#
# 1 0.018599 -0.006171 -0.004222 0.000000 0.008962 0.000000
# 2 -0.006171 0.018006 -0.006470 0.000000 -0.000647 0.000000
# 3 -0.004222 -0.006470 0.013965 0.000000 0.002214 0.000000
# 4 0.000000 0.000000 0.000000 0.032190 0.000000 0.002601
# 5 0.008962 -0.000647 0.002214 0.000000 0.039493 0.000000
# 6 0.000000 0.000000 0.000000 0.002601 0.000000 0.032296
#
#
# Mechanical properties :
#
#
# Convention : Reuss Voigt Hill
#
# Bulk Modulus (GPa) = 59.36871 72.78947 66.07909
# Shear Modulus (GPa) = 25.78808 28.14224 26.96516
#
# Velocity S-wave (km/s) = 3.73468 3.90142 3.81896
# Velocity P-wave (km/s) = 7.12092 7.72424 7.42871
#
# Compressibility (1/GPa) = 0.01684389
#
# Stress axis : x y z
#
# Youngs Moduli (GPa) = 53.76763 55.53823 71.60773
#
# Poissons Ratio (x) = 0.34272 0.30229
# Poissons Ratio (y) = 0.33179 0.46332
# Poissons Ratio (z) = 0.22698 0.35934
#
# Static dielectric constant tensor:
#      x y z
#    x 3.093700 0.000000 0.060780 
#    y 0.000000 3.609890 0.000000 
#    z 0.060780 0.000000 3.753360 
# 
# 
# High freq. dielectric constant tensor:
#      x y z
#    x 1.696360 0.000000 -0.000260 
#    y 0.000000 1.720440 0.000000 
#    z -0.000260 0.000000 1.737740 
# 
# From -- ./inp_files/342223.got.cif
#   From: 2010.06.25/outbox.cif.g09.slc.cpg/sg12_172_cif.got.tgz:342223.got - 2010.06.28 00:19:55.
