data_PCOD8092870
_publ_section_title
;
Structure prediction by ZEFSAII (Michael W. Deem and Ramdas Pophale) SiO2 
 PCOD8092870
Probable space group: C 2/M
;
_chemical_formula_sum "Si O2"
_cell_formula_units_Z 64
_cell_length_a 14.709556
_cell_length_b 8.594857
_cell_length_c 30.012361
_cell_angle_alpha 90.000000
_cell_angle_beta 59.605598
_cell_angle_gamma 90.000000
_cell_volume 3272.873800
_symmetry_space_group_name_H-M "C 2/M"
_symmetry_group_IT_number 12
_symmetry_cell_setting 'monoclinic'
loop_
_space_group_symop_operation_xyz
x,y,z
-x,y,-z
-x,-y,-z
x,-y,z
1/2+x,1/2+y,z
1/2-x,1/2+y,-z
1/2-x,1/2-y,-z
1/2+x,1/2-y,z
loop_
_atom_site_type_symbol
_atom_site_label
_atom_site_fract_x
_atom_site_fract_y
_atom_site_fract_z
Si Si1 0.423769 0.182602 0.573765
Si Si2 0.147283 0.814721 0.500061
Si Si3 0.401897 0.178574 0.236460
Si Si4 0.457091 0.184088 0.124076
Si Si5 0.176684 0.816784 0.056099
Si Si6 0.839036 0.820354 0.682135
Si Si7 0.759507 0.185138 0.863301
Si Si8 0.425826 0.317804 0.751641
O O1 0.540084 0.256493 0.550232
O O2 0.356685 0.257021 0.550039
O O3 0.359572 0.213551 0.634538
O O4 0.435307 0.000000 0.562104
O O5 0.250000 0.750000 0.500000
O O6 0.151481 0.000000 0.500219
O O7 0.440417 0.240375 0.178970
O O8 0.278537 0.203099 0.271378
O O9 0.457102 0.277010 0.261601
O O10 0.433560 0.000000 0.234791
O O11 0.556969 0.266194 0.077122
O O12 0.357521 0.239851 0.119984
O O13 0.471046 0.000000 0.118464
O O14 0.213141 0.748476 0.094769
O O15 0.186209 0.000000 0.052982
O O16 0.250000 0.750000 0.000000
O O17 0.911459 0.757492 0.704700
O O18 0.861958 0.000000 0.664079
O O19 0.841432 0.256511 0.807032
O O20 0.767990 0.000000 0.860595
O O21 0.406165 0.500000 0.755246
#
# Coordination Sequence:
#
# PCOD8092870 Si02
#       8
#     8   8   8   8   8   8   8   8
#     4  11  23  40  61  91 128 164 205 253 302 358
#     4  11  22  41  68  94 122 161 208 254 307 362
#     4  10  20  34  56  84 113 146 187 237 289 341
#     4  10  19  36  60  83 107 142 187 230 280 343
#     4  11  23  39  58  82 112 144 184 235 289 344
#     4  10  21  38  58  83 120 161 198 241 293 350
#     4   9  18  35  59  81 106 145 187 224 277 349
#     4  10  19  35  58  82 110 149 195 235 280 346
#
# _framework density 19.554680999999999
#
# number of rings (size 3 to 8) (size 9 to 14) (size 15 to 20)
#    0.000    1.750    2.500    3.375    0.000    2.500 
#    0.000    6.875    0.000    0.000    0.000    0.000 
#    0.000    0.000    0.000    0.000    0.000    0.000 
#
# Total GULP energy -396848.230614 kJ/mol
# GULP energy per Si atom -12401.507207 kJ/mol
# Density = 1.951017 g / cm^3
# Si number density = 19.554681 Si / 1000 Ang^3
#
#
#
# Elastic Constant Matrix: (Units=GPa)
#
#
# Indices 1 2 3 4 5 6 
#
# 1 115.3183 30.1481 10.0229 0.0000 7.8583 0.0000
# 2 30.1481 75.5046 25.2765 0.0000 2.7234 -0.0001
# 3 10.0229 25.2765 77.2709 0.0000 11.4767 0.0000
# 4 0.0000 0.0000 0.0000 28.3562 0.0000 -1.9614
# 5 7.8583 2.7234 11.4767 0.0000 25.9584 0.0000
# 6 0.0000 -0.0001 0.0000 -1.9614 0.0000 32.2202
#
#
#
# Elastic Compliance Matrix: (Units=1/GPa)
#
#
# Indices 1 2 3 4 5 6 
#
# 1 0.009864 -0.003984 0.000434 0.000000 -0.002760 0.000000
# 2 -0.003984 0.016492 -0.005137 0.000000 0.001747 0.000000
# 3 0.000434 -0.005137 0.015525 0.000000 -0.006456 0.000000
# 4 0.000000 0.000000 0.000000 0.035415 0.000000 0.002156
# 5 -0.002760 0.001747 -0.006456 0.000000 0.042030 0.000000
# 6 0.000000 0.000000 0.000000 0.002156 0.000000 0.031168
#
#
# Mechanical properties :
#
#
# Convention : Reuss Voigt Hill
#
# Bulk Modulus (GPa) = 40.80886 44.33209 42.57048
# Shear Modulus (GPa) = 28.40326 30.81670 29.60998
#
# Velocity S-wave (km/s) = 3.81531 3.97410 3.89551
# Velocity P-wave (km/s) = 6.35005 6.61649 6.48464
#
# Compressibility (1/GPa) = 0.02450448
#
# Stress axis : x y z
#
# Youngs Moduli (GPa) = 101.38297 60.63593 64.41363
#
# Poissons Ratio (x) = 0.24158 -0.02794
# Poissons Ratio (y) = 0.40392 0.33092
# Poissons Ratio (z) = -0.04397 0.31152
#
# Static dielectric constant tensor:
#      x y z
#    x 3.707810 0.000000 0.081300 
#    y 0.000000 3.401860 0.000000 
#    z 0.081300 0.000000 3.536660 
# 
# 
# High freq. dielectric constant tensor:
#      x y z
#    x 1.773850 0.000000 0.002530 
#    y 0.000000 1.745350 0.000000 
#    z 0.002530 0.000000 1.761540 
# 
# From -- ./inp_files/375448.got.cif
#   From: 2010.06.25/outbox.cif.g09.slc.cpg/sg12_188_cif.got.tgz:375448.got - 2010.06.28 00:19:55.
