data_PCOD8092209
_publ_section_title
;
Structure prediction by ZEFSAII (Michael W. Deem and Ramdas Pophale) SiO2 
 PCOD8092209
Probable space group: C 2/M
;
_chemical_formula_sum "Si O2"
_cell_formula_units_Z 56
_cell_length_a 19.928244
_cell_length_b 14.779071
_cell_length_c 19.301800
_cell_angle_alpha 90.000000
_cell_angle_beta 151.493945
_cell_angle_gamma 90.000000
_cell_volume 2713.072503
_symmetry_space_group_name_H-M "C 2/M"
_symmetry_group_IT_number 12
_symmetry_cell_setting 'monoclinic'
loop_
_space_group_symop_operation_xyz
x,y,z
-x,y,-z
-x,-y,-z
x,-y,z
1/2+x,1/2+y,z
1/2-x,1/2+y,-z
1/2-x,1/2-y,-z
1/2+x,1/2-y,z
loop_
_atom_site_type_symbol
_atom_site_label
_atom_site_fract_x
_atom_site_fract_y
_atom_site_fract_z
Si Si1 0.743670 0.598718 0.415802
Si Si2 0.938748 0.603127 0.293111
Si Si3 0.357609 0.753427 0.326606
Si Si4 0.675960 0.772363 0.285903
Si Si5 0.064895 0.607037 0.870086
Si Si6 0.856241 0.098929 0.528204
Si Si7 0.834853 0.897933 0.198534
O O1 0.682997 0.500000 0.338664
O O2 0.645943 0.678218 0.298106
O O3 0.752167 0.605250 0.506654
O O4 0.902803 0.609053 0.533657
O O5 0.882104 0.500000 0.246228
O O6 0.845613 0.666936 0.258087
O O7 0.934881 0.637680 0.209942
O O8 0.500000 0.763543 0.500000
O O9 0.213779 0.755596 0.241688
O O10 0.347174 0.657263 0.280216
O O11 0.546893 0.839835 0.182821
O O12 0.819354 0.821267 0.441949
O O13 0.032464 0.500000 0.846687
O O14 0.216632 0.634897 0.037792
O O15 0.013487 0.111043 0.701305
O O16 0.841816 0.000000 0.479052
O O17 0.801549 0.000000 0.191228
#
# Coordination Sequence:
#
# PCOD8092209 Si02
#       7
#     8   8   8   8   8   8   8
#     4  10  20  34  58  91 121 158 207 258 307 354
#     4  10  21  40  65  93 124 160 208 261 306 359
#     4  12  24  38  57  93 128 162 205 245 308 368
#     4  12  22  36  61  90 124 160 204 256 303 370
#     4  10  23  43  67  92 119 161 211 258 311 364
#     4  10  19  34  59  91 121 152 204 262 309 354
#     4  10  23  41  61  89 126 162 201 252 311 372
#
# _framework density 20.640805
#
# number of rings (size 3 to 8) (size 9 to 14) (size 15 to 20)
#    0.000    1.429    4.286    0.857    2.000    3.429 
#    0.000    1.429    0.000    0.000    0.000    2.000 
#    0.000    0.000    0.000    0.000    0.000    0.000 
#
# Total GULP energy -347069.763551 kJ/mol
# GULP energy per Si atom -12395.348698 kJ/mol
# Density = 2.059383 g / cm^3
# Si number density = 20.640805 Si / 1000 Ang^3
#
#
#
# Elastic Constant Matrix: (Units=GPa)
#
#
# Indices 1 2 3 4 5 6 
#
# 1 116.8823 52.2109 27.7903 0.0044 -4.4463 0.0016
# 2 52.2109 110.8712 31.5456 0.0092 -0.3839 0.0046
# 3 27.7903 31.5456 79.1439 0.0097 6.8543 0.0048
# 4 0.0044 0.0092 0.0097 23.0890 0.0062 -4.8181
# 5 -4.4463 -0.3839 6.8543 0.0062 20.4064 0.0026
# 6 0.0016 0.0046 0.0048 -4.8181 0.0026 28.1624
#
#
#
# Elastic Compliance Matrix: (Units=1/GPa)
#
#
# Indices 1 2 3 4 5 6 
#
# 1 0.011319 -0.004636 -0.002403 0.000000 0.003186 0.000000
# 2 -0.004636 0.012123 -0.003230 -0.000003 0.000303 -0.000002
# 3 -0.002403 -0.003230 0.015261 -0.000004 -0.005710 -0.000002
# 4 0.000000 -0.000003 -0.000004 0.044914 -0.000013 0.007684
# 5 0.003186 0.000303 -0.005710 -0.000013 0.051622 -0.000006
# 6 0.000000 -0.000002 -0.000002 0.007684 -0.000006 0.036823
#
#
# Mechanical properties :
#
#
# Convention : Reuss Voigt Hill
#
# Bulk Modulus (GPa) = 55.05070 58.88788 56.96929
# Shear Modulus (GPa) = 25.16938 27.35492 26.26215
#
# Velocity S-wave (km/s) = 3.49578 3.64439 3.57086
# Velocity P-wave (km/s) = 6.55917 6.80445 6.68294
#
# Compressibility (1/GPa) = 0.01816507
#
# Stress axis : x y z
#
# Youngs Moduli (GPa) = 88.34889 82.49057 65.52636
#
# Poissons Ratio (x) = 0.38239 0.15744
# Poissons Ratio (y) = 0.40954 0.21168
# Poissons Ratio (z) = 0.21228 0.26648
#
# Static dielectric constant tensor:
#      x y z
#    x 3.689230 0.000000 0.055290 
#    y 0.000000 3.891840 -0.000010 
#    z 0.055290 -0.000010 3.491050 
# 
# 
# High freq. dielectric constant tensor:
#      x y z
#    x 1.801290 0.000000 0.004910 
#    y 0.000000 1.822070 0.000000 
#    z 0.004910 0.000000 1.771560 
# 
# From -- ./inp_files/96775.got.cif
#   From: 2010.06.25/outbox.cif.g09.slc.cpg/sg12_49_cif.got.tgz:96775.got - 2010.06.28 00:19:55.
