data_PCOD8092446
_publ_section_title
;
Structure prediction by ZEFSAII (Michael W. Deem and Ramdas Pophale) SiO2 
 PCOD8092446
Probable space group: C 2/M
;
_chemical_formula_sum "Si O2"
_cell_formula_units_Z 48
_cell_length_a 10.156647
_cell_length_b 18.606241
_cell_length_c 14.609387
_cell_angle_alpha 90.000000
_cell_angle_beta 79.811840
_cell_angle_gamma 90.000000
_cell_volume 2717.306045
_symmetry_space_group_name_H-M "C 2/M"
_symmetry_group_IT_number 12
_symmetry_cell_setting 'monoclinic'
loop_
_space_group_symop_operation_xyz
x,y,z
-x,y,-z
-x,-y,-z
x,-y,z
1/2+x,1/2+y,z
1/2-x,1/2+y,-z
1/2-x,1/2-y,-z
1/2+x,1/2-y,z
loop_
_atom_site_type_symbol
_atom_site_label
_atom_site_fract_x
_atom_site_fract_y
_atom_site_fract_z
Si Si1 0.717815 0.417870 0.730429
Si Si2 0.358296 0.837022 0.556662
Si Si3 0.675399 0.689607 0.891834
Si Si4 0.137522 0.170451 0.435333
Si Si5 0.374150 0.685840 0.895598
Si Si6 0.912863 0.917632 0.732558
O O1 0.754969 0.500000 0.745423
O O2 0.825859 0.385103 0.648241
O O3 0.724184 0.377688 0.826569
O O4 0.572298 0.410213 0.702581
O O5 0.500000 0.861107 0.500000
O O6 0.254975 0.851320 0.488508
O O7 0.358186 0.754555 0.589679
O O8 0.526907 0.715216 0.879718
O O9 0.778946 0.754131 0.863181
O O10 0.676034 0.664535 0.997253
O O11 0.157118 0.125868 0.340303
O O12 0.000000 0.148668 0.500000
O O13 0.364856 0.614585 0.835211
O O14 0.866249 0.000000 0.734469
#
# Coordination Sequence:
#
# PCOD8092446 Si02
#       6
#     8   8   8   8   8   8
#     4  10  20  34  52  77 108 139 170 210 260 309
#     4  10  21  35  54  77 103 135 174 219 257 300
#     4   9  18  34  57  80 103 135 172 213 257 302
#     4  10  19  35  55  76 100 135 177 214 257 301
#     4   9  18  34  56  81 105 132 172 215 255 302
#     4  10  20  33  53  79 106 137 173 212 254 306
#
# _framework density 17.664553999999999
#
# number of rings (size 3 to 8) (size 9 to 14) (size 15 to 20)
#    0.000    2.333    1.667    1.000    0.000    2.000 
#    3.000    3.333    0.000    0.000    0.000    4.667 
#    0.000    0.000    0.000    0.000    0.000    0.000 
#
# Total GULP energy -297660.196287 kJ/mol
# GULP energy per Si atom -12402.508179 kJ/mol
# Density = 1.762435 g / cm^3
# Si number density = 17.664554 Si / 1000 Ang^3
#
#
#
# Elastic Constant Matrix: (Units=GPa)
#
#
# Indices 1 2 3 4 5 6 
#
# 1 96.2249 54.0102 52.9141 0.0000 -6.3119 0.0000
# 2 54.0102 121.4815 79.9453 0.0000 -2.4213 0.0000
# 3 52.9141 79.9453 113.7358 0.0000 -6.0512 0.0000
# 4 0.0000 0.0000 0.0000 22.4192 0.0000 -2.9572
# 5 -6.3119 -2.4213 -6.0512 0.0000 21.6601 0.0000
# 6 0.0000 0.0000 0.0000 -2.9572 0.0000 35.1708
#
#
#
# Elastic Compliance Matrix: (Units=1/GPa)
#
#
# Indices 1 2 3 4 5 6 
#
# 1 0.015029 -0.003950 -0.004067 0.000000 0.002802 0.000000
# 2 -0.003950 0.016392 -0.009794 0.000000 -0.002055 0.000000
# 3 -0.004067 -0.009794 0.017710 0.000000 0.002668 0.000000
# 4 0.000000 0.000000 0.000000 0.045105 0.000000 0.003793
# 5 0.002802 -0.002055 0.002668 0.000000 0.047500 0.000000
# 6 0.000000 0.000000 0.000000 0.003793 0.000000 0.028752
#
#
# Mechanical properties :
#
#
# Convention : Reuss Voigt Hill
#
# Bulk Modulus (GPa) = 74.01367 78.35350 76.18359
# Shear Modulus (GPa) = 23.74031 25.48821 24.61426
#
# Velocity S-wave (km/s) = 3.66997 3.80267 3.73691
# Velocity P-wave (km/s) = 7.74266 7.98330 7.86390
#
# Compressibility (1/GPa) = 0.01351102
#
# Stress axis : x y z
#
# Youngs Moduli (GPa) = 66.53582 61.00572 56.46449
#
# Poissons Ratio (x) = 0.24097 0.22963
# Poissons Ratio (y) = 0.26281 0.55299
# Poissons Ratio (z) = 0.27059 0.59747
#
# Static dielectric constant tensor:
#      x y z
#    x 3.209750 0.000000 0.000960 
#    y 0.000000 3.162640 0.000000 
#    z 0.000960 0.000000 3.266980 
# 
# 
# High freq. dielectric constant tensor:
#      x y z
#    x 1.674910 0.000000 -0.000900 
#    y 0.000000 1.670890 0.000000 
#    z -0.000900 0.000000 1.693810 
# 
# From -- ./inp_files/131792.got.cif
#   From: 2010.06.25/outbox.cif.g09.slc.cpg/sg12_66_cif.got.tgz:131792.got - 2010.06.28 00:19:55.
