data_PCOD8092726
_publ_section_title
;
Structure prediction by ZEFSAII (Michael W. Deem and Ramdas Pophale) SiO2 
 PCOD8092726
Probable space group: C 2/M
;
_chemical_formula_sum "Si O2"
_cell_formula_units_Z 56
_cell_length_a 14.100576
_cell_length_b 17.899352
_cell_length_c 11.847211
_cell_angle_alpha 90.000000
_cell_angle_beta 58.608316
_cell_angle_gamma 90.000000
_cell_volume 2552.455199
_symmetry_space_group_name_H-M "C 2/M"
_symmetry_group_IT_number 12
_symmetry_cell_setting 'monoclinic'
loop_
_space_group_symop_operation_xyz
x,y,z
-x,y,-z
-x,-y,-z
x,-y,z
1/2+x,1/2+y,z
1/2-x,1/2+y,-z
1/2-x,1/2-y,-z
1/2+x,1/2-y,z
loop_
_atom_site_type_symbol
_atom_site_label
_atom_site_fract_x
_atom_site_fract_y
_atom_site_fract_z
Si Si1 0.237495 0.585366 0.440300
Si Si2 0.184811 0.176876 0.805039
Si Si3 0.017756 0.652015 0.623100
Si Si4 0.020046 0.208551 0.209242
Si Si5 0.376737 0.193620 0.027436
Si Si6 0.812524 0.412522 0.888842
Si Si7 0.978854 0.915638 0.385862
O O1 0.233254 0.500000 0.396167
O O2 0.232367 0.646644 0.342503
O O3 0.127836 0.602591 0.581280
O O4 0.348008 0.597474 0.444681
O O5 0.060185 0.173725 0.836690
O O6 0.202998 0.264612 0.831192
O O7 0.201095 0.123177 0.903534
O O8 0.037431 0.732502 0.669059
O O9 0.000000 0.659719 0.500000
O O10 0.916388 0.609413 0.745487
O O11 0.056772 0.137292 0.260625
O O12 0.119663 0.249073 0.082211
O O13 0.500000 0.178014 0.000000
O O14 0.326958 0.117107 0.009083
O O15 0.797906 0.500000 0.905398
O O16 0.000000 0.893175 0.500000
O O17 0.015167 0.000000 0.337371
#
# Coordination Sequence:
#
# PCOD8092726 Si02
#       7
#     8   8   8   8   8   8   8
#     4  10  20  34  55  86 120 152 190 235 289 343
#     4  10  19  35  57  81 111 147 188 236 280 335
#     4  11  21  35  54  87 120 155 189 231 281 346
#     4   9  20  36  55  82 110 146 192 238 286 335
#     4   9  20  39  58  80 110 145 192 240 286 339
#     4  11  22  36  59  86 115 151 189 234 292 346
#     4   9  18  34  54  77 112 155 192 236 286 336
#
# _framework density 21.93966
#
# number of rings (size 3 to 8) (size 9 to 14) (size 15 to 20)
#    0.000    2.143    1.429    1.714    0.000    3.714 
#    5.143    1.429    0.000    8.143    0.000    0.000 
#    0.000    0.000    0.000    0.000    0.000    0.000 
#
# Total GULP energy -346910.707179 kJ/mol
# GULP energy per Si atom -12389.668114 kJ/mol
# Density = 2.188972 g / cm^3
# Si number density = 21.939660 Si / 1000 Ang^3
#
#
#
# Elastic Constant Matrix: (Units=GPa)
#
#
# Indices 1 2 3 4 5 6 
#
# 1 69.8492 52.2655 22.9542 0.0000 21.4171 0.0000
# 2 52.2655 116.1873 33.5991 0.0000 17.7488 0.0000
# 3 22.9542 33.5991 51.8157 0.0000 13.9117 0.0000
# 4 0.0000 0.0000 0.0000 35.1968 0.0000 6.8608
# 5 21.4171 17.7488 13.9117 0.0000 31.0195 0.0000
# 6 0.0000 0.0000 0.0000 6.8608 0.0000 28.9526
#
#
#
# Elastic Compliance Matrix: (Units=1/GPa)
#
#
# Indices 1 2 3 4 5 6 
#
# 1 0.025239 -0.008955 -0.002355 0.000000 -0.011246 0.000000
# 2 -0.008955 0.014093 -0.005305 0.000000 0.000498 0.000000
# 3 -0.002355 -0.005305 0.025615 0.000000 -0.006826 0.000000
# 4 0.000000 0.000000 0.000000 0.029788 0.000000 -0.007059
# 5 -0.011246 0.000498 -0.006826 0.000000 0.042779 0.000000
# 6 0.000000 0.000000 0.000000 -0.007059 0.000000 0.036212
#
#
# Mechanical properties :
#
#
# Convention : Reuss Voigt Hill
#
# Bulk Modulus (GPa) = 31.52798 50.60999 41.06899
# Shear Modulus (GPa) = 22.98552 27.63602 25.31077
#
# Velocity S-wave (km/s) = 3.24028 3.55299 3.40023
# Velocity P-wave (km/s) = 5.32924 6.32056 5.84595
#
# Compressibility (1/GPa) = 0.03171786
#
# Stress axis : x y z
#
# Youngs Moduli (GPa) = 39.62106 70.95747 39.03908
#
# Poissons Ratio (x) = 0.63539 0.09194
# Poissons Ratio (y) = 0.35479 0.20711
# Poissons Ratio (z) = 0.09331 0.37645
#
# Static dielectric constant tensor:
#      x y z
#    x 4.029450 0.000000 0.253910 
#    y 0.000000 4.086050 0.000000 
#    z 0.253910 0.000000 3.966740 
# 
# 
# High freq. dielectric constant tensor:
#      x y z
#    x 1.869400 0.000000 0.018790 
#    y 0.000000 1.858250 0.000000 
#    z 0.018790 0.000000 1.841770 
# 
# From -- ./inp_files/146031.got.cif
#   From: 2010.06.25/outbox.cif.g09.slc.cpg/sg12_74_cif.got.tgz:146031.got - 2010.06.28 00:19:55.
