data_PCOD8092686
_publ_section_title
;
Structure prediction by ZEFSAII (Michael W. Deem and Ramdas Pophale) SiO2 
 PCOD8092686
Probable space group: C 2/M
;
_chemical_formula_sum "Si O2"
_cell_formula_units_Z 64
_cell_length_a 19.767119
_cell_length_b 8.752553
_cell_length_c 31.430110
_cell_angle_alpha 90.000000
_cell_angle_beta 142.406960
_cell_angle_gamma 90.000000
_cell_volume 3317.330081
_symmetry_space_group_name_H-M "C 2/M"
_symmetry_group_IT_number 12
_symmetry_cell_setting 'monoclinic'
loop_
_space_group_symop_operation_xyz
x,y,z
-x,y,-z
-x,-y,-z
x,-y,z
1/2+x,1/2+y,z
1/2-x,1/2+y,-z
1/2-x,1/2-y,-z
1/2+x,1/2-y,z
loop_
_atom_site_type_symbol
_atom_site_label
_atom_site_fract_x
_atom_site_fract_y
_atom_site_fract_z
Si Si1 0.507532 0.680073 0.796686
Si Si2 0.983051 0.680367 0.286902
Si Si3 0.968541 0.181981 0.937397
Si Si4 0.874673 0.320006 0.444801
Si Si5 0.370385 0.680510 0.057317
Si Si6 0.258890 0.817701 0.216695
Si Si7 0.228832 0.819781 0.295047
Si Si8 0.721553 0.818346 0.439955
O O1 0.514881 0.500000 0.792830
O O2 0.550147 0.765459 0.776504
O O3 0.573652 0.732314 0.871034
O O4 0.383745 0.740742 0.740968
O O5 0.988658 0.500000 0.290673
O O6 0.878843 0.742746 0.261833
O O7 0.100759 0.743971 0.363672
O O8 0.058015 0.242799 0.947194
O O9 0.844690 0.240784 0.863638
O O10 0.970587 0.000000 0.938196
O O11 0.000000 0.245215 0.000000
O O12 0.862379 0.500000 0.447851
O O13 0.823765 0.270032 0.374545
O O14 0.817114 0.232111 0.454881
O O15 0.000000 0.268950 0.500000
O O16 0.362037 0.500000 0.049743
O O17 0.250000 0.750000 0.000000
O O18 0.246381 0.747097 0.257513
O O19 0.257012 0.000000 0.215875
O O20 0.222441 0.000000 0.285960
O O21 0.750000 0.750000 0.500000
O O22 0.720262 0.000000 0.442898
#
# Coordination Sequence:
#
# PCOD8092686 Si02
#       8
#     8   8   8   8   8   8   8   8
#     4  10  19  35  57  79 108 145 184 224 275 337
#     4  10  22  36  57  86 111 140 182 233 278 325
#     4   9  17  30  49  76 107 138 177 223 268 316
#     4  10  21  36  60  87 110 146 192 233 282 340
#     4  10  21  35  54  81 110 144 184 226 275 331
#     4   9  17  31  52  79 107 136 179 230 273 314
#     4   9  16  31  55  78 104 138 178 229 275 321
#     4  11  24  40  57  82 119 154 189 233 285 343
#
# _framework density 19.292622000000001
#
# number of rings (size 3 to 8) (size 9 to 14) (size 15 to 20)
#    0.000    2.250    2.500    0.375    3.500    1.250 
#    0.000    0.000    0.000    1.875    0.000    0.000 
#    0.000    0.000    0.000    0.000    0.000    0.000 
#
# Total GULP energy -396642.057059 kJ/mol
# GULP energy per Si atom -12395.064283 kJ/mol
# Density = 1.924871 g / cm^3
# Si number density = 19.292622 Si / 1000 Ang^3
#
#
#
# Elastic Constant Matrix: (Units=GPa)
#
#
# Indices 1 2 3 4 5 6 
#
# 1 128.3337 17.4877 64.4753 0.0000 -4.0740 -0.0001
# 2 17.4877 16.3857 21.9684 0.0003 -1.1884 -0.0006
# 3 64.4753 21.9684 141.2989 0.0000 5.6195 -0.0001
# 4 0.0000 0.0003 0.0000 20.5562 0.0000 -1.1981
# 5 -4.0740 -1.1884 5.6195 0.0000 39.9081 0.0000
# 6 -0.0001 -0.0006 -0.0001 -1.1981 0.0000 27.1758
#
#
#
# Elastic Compliance Matrix: (Units=1/GPa)
#
#
# Indices 1 2 3 4 5 6 
#
# 1 0.010654 -0.005896 -0.004003 0.000000 0.001476 0.000000
# 2 -0.005896 0.081005 -0.010032 -0.000001 0.003223 0.000002
# 3 -0.004003 -0.010032 0.010551 0.000000 -0.002193 0.000000
# 4 0.000000 -0.000001 0.000000 0.048773 0.000000 0.002150
# 5 0.001476 0.003223 -0.002193 0.000000 0.025613 0.000000
# 6 0.000000 0.000002 0.000000 0.002150 0.000000 0.036892
#
#
# Mechanical properties :
#
#
# Convention : Reuss Voigt Hill
#
# Bulk Modulus (GPa) = 16.03921 54.87568 35.45745
# Shear Modulus (GPa) = 18.23932 29.66714 23.95323
#
# Velocity S-wave (km/s) = 3.07808 3.92566 3.52742
# Velocity P-wave (km/s) = 4.57870 7.00381 5.91683
#
# Compressibility (1/GPa) = 0.06234720
#
# Stress axis : x y z
#
# Youngs Moduli (GPa) = 93.86359 12.34487 94.77838
#
# Poissons Ratio (x) = 0.07278 0.37943
# Poissons Ratio (y) = 0.55341 0.95083
# Poissons Ratio (z) = 0.37577 0.12385
#
# Static dielectric constant tensor:
#      x y z
#    x 3.752760 0.000000 -0.054480 
#    y 0.000000 3.014840 0.000000 
#    z -0.054480 0.000000 3.803690 
# 
# 
# High freq. dielectric constant tensor:
#      x y z
#    x 1.766700 0.000000 -0.001320 
#    y 0.000000 1.699050 0.000000 
#    z -0.001320 0.000000 1.768220 
# 
# From -- ./inp_files/378365.got.cif
#   From: 2010.06.25/outbox.cif.g09.slc.cpg/sg12_190_cif.got.tgz:378365.got - 2010.06.28 00:19:55.
