data_PCOD8092981
_publ_section_title
;
Structure prediction by ZEFSAII (Michael W. Deem and Ramdas Pophale) SiO2 
 PCOD8092981
Probable space group: C 2/M
;
_chemical_formula_sum "Si O2"
_cell_formula_units_Z 56
_cell_length_a 15.008043
_cell_length_b 19.346586
_cell_length_c 20.380920
_cell_angle_alpha 90.000000
_cell_angle_beta 151.632731
_cell_angle_gamma 90.000000
_cell_volume 2811.622312
_symmetry_space_group_name_H-M "C 2/M"
_symmetry_group_IT_number 12
_symmetry_cell_setting 'monoclinic'
loop_
_space_group_symop_operation_xyz
x,y,z
-x,y,-z
-x,-y,-z
x,-y,z
1/2+x,1/2+y,z
1/2-x,1/2+y,-z
1/2-x,1/2-y,-z
1/2+x,1/2-y,z
loop_
_atom_site_type_symbol
_atom_site_label
_atom_site_fract_x
_atom_site_fract_y
_atom_site_fract_z
Si Si1 0.634651 0.078684 0.903674
Si Si2 0.046801 0.689099 0.131377
Si Si3 0.700552 0.294786 0.827768
Si Si4 0.310595 0.281130 0.411940
Si Si5 0.631347 0.874341 0.525222
Si Si6 0.963678 0.077124 0.209076
Si Si7 0.027212 0.343731 0.318988
O O1 0.500083 0.112842 0.871468
O O2 0.613988 0.115397 0.820054
O O3 0.570256 0.000000 0.854994
O O4 0.850082 0.086154 0.067186
O O5 0.194622 0.682071 0.169538
O O6 0.142551 0.733221 0.251131
O O7 0.854121 0.725909 0.982927
O O8 0.586641 0.363257 0.772282
O O9 0.562584 0.231412 0.724779
O O10 0.500000 0.311300 0.500000
O O11 0.348471 0.207721 0.467983
O O12 0.231990 0.333191 0.416984
O O13 0.500000 0.896331 0.500000
O O14 0.549544 0.890276 0.399296
O O15 0.816760 0.916497 0.662245
O O16 0.921342 0.000000 0.210036
#
# Coordination Sequence:
#
# PCOD8092981 Si02
#       7
#     8   8   8   8   8   8   8
#     4   9  21  41  61  85 117 158 200 241 302 355
#     4   9  20  33  58  89 119 155 189 248 290 354
#     4  10  19  35  58  91 120 149 204 240 300 343
#     4  10  20  33  56  86 123 149 187 236 301 354
#     4  11  23  37  57  85 116 154 196 245 298 346
#     4  10  22  38  59  82 116 158 197 243 292 354
#     4  11  22  37  63  88 118 157 193 254 292 349
#
# _framework density 19.917325999999999
#
# number of rings (size 3 to 8) (size 9 to 14) (size 15 to 20)
#    0.000    2.000    1.429    2.143    4.000    3.143 
#    0.000    2.857    0.000    3.429    0.000    0.000 
#    0.000    0.000    0.000    0.000    0.000    0.000 
#
# Total GULP energy -347061.689000 kJ/mol
# GULP energy per Si atom -12395.060321 kJ/mol
# Density = 1.987199 g / cm^3
# Si number density = 19.917326 Si / 1000 Ang^3
#
#
#
# Elastic Constant Matrix: (Units=GPa)
#
#
# Indices 1 2 3 4 5 6 
#
# 1 110.5308 27.3346 56.9513 0.0076 -4.5130 0.0005
# 2 27.3346 75.7520 35.7063 0.0068 2.6388 0.0008
# 3 56.9513 35.7063 109.8423 -0.0090 -1.1585 0.0002
# 4 0.0076 0.0068 -0.0090 19.3596 0.0003 -1.9493
# 5 -4.5130 2.6388 -1.1585 0.0003 30.1274 -0.0011
# 6 0.0005 0.0008 0.0002 -1.9493 -0.0011 8.4448
#
#
#
# Elastic Compliance Matrix: (Units=1/GPa)
#
#
# Indices 1 2 3 4 5 6 
#
# 1 0.012632 -0.001823 -0.005938 -0.000007 0.001824 -0.000002
# 2 -0.001823 0.015926 -0.004251 -0.000007 -0.001832 -0.000003
# 3 -0.005938 -0.004251 0.013565 0.000010 0.000005 0.000003
# 4 -0.000007 -0.000007 0.000010 0.052883 0.000000 0.012207
# 5 0.001824 -0.001832 0.000005 0.000000 0.033626 0.000005
# 6 -0.000002 -0.000003 0.000003 0.012207 0.000005 0.121233
#
#
# Mechanical properties :
#
#
# Convention : Reuss Voigt Hill
#
# Bulk Modulus (GPa) = 55.25128 59.56771 57.40949
# Shear Modulus (GPa) = 17.86209 23.32856 20.59533
#
# Velocity S-wave (km/s) = 2.99793 3.42609 3.21914
# Velocity P-wave (km/s) = 6.30745 6.75450 6.53480
#
# Compressibility (1/GPa) = 0.01809913
#
# Stress axis : x y z
#
# Youngs Moduli (GPa) = 79.16470 62.78854 73.72160
#
# Poissons Ratio (x) = 0.11446 0.43773
# Poissons Ratio (y) = 0.14431 0.31342
# Poissons Ratio (z) = 0.47005 0.26694
#
# Static dielectric constant tensor:
#      x y z
#    x 3.662070 -0.000010 -0.035240 
#    y -0.000010 3.353300 -0.000030 
#    z -0.035240 -0.000030 3.961480 
# 
# 
# High freq. dielectric constant tensor:
#      x y z
#    x 1.772270 0.000000 -0.006570 
#    y 0.000000 1.747560 0.000000 
#    z -0.006570 0.000000 1.795640 
# 
# From -- ./inp_files/217656.got.cif
#   From: 2010.06.25/outbox.cif.g09.slc.cpg/sg12_109_cif.got.tgz:217656.got - 2010.06.28 00:19:55.
