data_PCOD8092580
_publ_section_title
;
Structure prediction by ZEFSAII (Michael W. Deem and Ramdas Pophale) SiO2 
 PCOD8092580
Probable space group: C 2/M
;
_chemical_formula_sum "Si O2"
_cell_formula_units_Z 48
_cell_length_a 22.688921
_cell_length_b 13.649543
_cell_length_c 14.081134
_cell_angle_alpha 90.000000
_cell_angle_beta 145.175845
_cell_angle_gamma 90.000000
_cell_volume 2490.296732
_symmetry_space_group_name_H-M "C 2/M"
_symmetry_group_IT_number 12
_symmetry_cell_setting 'monoclinic'
loop_
_space_group_symop_operation_xyz
x,y,z
-x,y,-z
-x,-y,-z
x,-y,z
1/2+x,1/2+y,z
1/2-x,1/2+y,-z
1/2-x,1/2-y,-z
1/2+x,1/2-y,z
loop_
_atom_site_type_symbol
_atom_site_label
_atom_site_fract_x
_atom_site_fract_y
_atom_site_fract_z
Si Si1 0.057212 0.614594 0.449104
Si Si2 0.102901 0.110560 0.181022
Si Si3 0.291246 0.224848 0.451463
Si Si4 0.072182 0.106821 0.364071
Si Si5 0.156966 0.113282 0.874179
Si Si6 0.347838 0.808153 0.234347
O O1 0.056369 0.500000 0.468190
O O2 0.118067 0.641190 0.431750
O O3 0.122096 0.669661 0.617691
O O4 0.940638 0.653637 0.289437
O O5 0.194262 0.181755 0.264921
O O6 0.092955 0.111121 0.280215
O O7 0.123660 0.000000 0.171176
O O8 0.000000 0.154458 0.000000
O O9 0.250000 0.250000 0.500000
O O10 0.346135 0.320105 0.477272
O O11 0.953800 0.134176 0.225173
O O12 0.096650 0.000000 0.438177
O O13 0.168722 0.190728 0.802848
O O14 0.165581 0.000000 0.850065
O O15 0.244170 0.134004 0.068617
#
# Coordination Sequence:
#
# PCOD8092580 Si02
#       6
#     8   8   8   8   8   8
#     4  11  21  36  56  84 113 142 180 231 285 329
#     4   9  18  31  51  81 106 131 174 228 280 324
#     4  10  20  35  53  77 109 144 181 220 273 326
#     4   9  18  33  52  74 104 142 183 220 268 327
#     4  10  19  35  56  79 111 149 184 223 274 331
#     4  10  21  35  55  84 116 145 183 229 278 334
#
# _framework density 19.274812000000001
#
# number of rings (size 3 to 8) (size 9 to 14) (size 15 to 20)
#    0.000    2.167    1.667    2.500    2.333    0.667 
#    0.000    2.500    0.000    0.500    0.000    0.000 
#    0.000    0.000    0.000    0.000    0.000    0.000 
#
# Total GULP energy -297327.091688 kJ/mol
# GULP energy per Si atom -12388.628820 kJ/mol
# Density = 1.923094 g / cm^3
# Si number density = 19.274812 Si / 1000 Ang^3
#
#
#
# Elastic Constant Matrix: (Units=GPa)
#
#
# Indices 1 2 3 4 5 6 
#
# 1 62.1669 31.7521 27.7790 0.0000 26.6613 0.0000
# 2 31.7521 148.9364 71.6130 0.0000 20.3850 0.0000
# 3 27.7790 71.6130 112.0171 0.0000 37.6970 0.0000
# 4 0.0000 0.0000 0.0000 34.9887 0.0000 9.5084
# 5 26.6613 20.3850 37.6970 0.0000 32.3542 0.0000
# 6 0.0000 0.0000 0.0000 9.5084 0.0000 24.0857
#
#
#
# Elastic Compliance Matrix: (Units=1/GPa)
#
#
# Indices 1 2 3 4 5 6 
#
# 1 0.026933 -0.004538 0.004489 0.000000 -0.024565 0.000000
# 2 -0.004538 0.010525 -0.007617 0.000000 0.005983 0.000000
# 3 0.004489 -0.007617 0.020255 0.000000 -0.022500 0.000000
# 4 0.000000 0.000000 0.000000 0.032015 0.000000 -0.012639
# 5 -0.024565 0.005983 -0.022500 0.000000 0.073597 0.000000
# 6 0.000000 0.000000 0.000000 -0.012639 0.000000 0.046508
#
#
# Mechanical properties :
#
#
# Convention : Reuss Voigt Hill
#
# Bulk Modulus (GPa) = 23.59521 65.04541 44.32031
# Shear Modulus (GPa) = 20.89493 31.08415 25.98954
#
# Velocity S-wave (km/s) = 3.29607 4.02018 3.67600
# Velocity P-wave (km/s) = 5.17238 7.44101 6.40789
#
# Compressibility (1/GPa) = 0.04238148
#
# Stress axis : x y z
#
# Youngs Moduli (GPa) = 37.12970 95.00926 49.36932
#
# Poissons Ratio (x) = 0.43116 -0.22161
# Poissons Ratio (y) = 0.16850 0.37604
# Poissons Ratio (z) = -0.16667 0.72367
#
# Static dielectric constant tensor:
#      x y z
#    x 3.498900 0.000000 0.435830 
#    y 0.000000 4.041700 0.000000 
#    z 0.435830 0.000000 3.648720 
# 
# 
# High freq. dielectric constant tensor:
#      x y z
#    x 1.739610 0.000000 0.036860 
#    y 0.000000 1.760960 0.000000 
#    z 0.036860 0.000000 1.735890 
# 
# From -- ./inp_files/215004.got.cif
#   From: 2010.06.25/outbox.cif.g09.slc.cpg/sg12_108_cif.got.tgz:215004.got - 2010.06.28 00:19:55.
