data_PCOD8092040
_publ_section_title
;
Structure prediction by ZEFSAII (Michael W. Deem and Ramdas Pophale) SiO2 
 PCOD8092040
Probable space group: C 2/M
;
_chemical_formula_sum "Si O2"
_cell_formula_units_Z 48
_cell_length_a 10.380433
_cell_length_b 14.030283
_cell_length_c 29.548061
_cell_angle_alpha 90.000000
_cell_angle_beta 34.305078
_cell_angle_gamma 90.000000
_cell_volume 2425.388441
_symmetry_space_group_name_H-M "C 2/M"
_symmetry_group_IT_number 12
_symmetry_cell_setting 'monoclinic'
loop_
_space_group_symop_operation_xyz
x,y,z
-x,y,-z
-x,-y,-z
x,-y,z
1/2+x,1/2+y,z
1/2-x,1/2+y,-z
1/2-x,1/2-y,-z
1/2+x,1/2-y,z
loop_
_atom_site_type_symbol
_atom_site_label
_atom_site_fract_x
_atom_site_fract_y
_atom_site_fract_z
Si Si1 0.060208 0.233865 0.870489
Si Si2 0.030431 0.796272 0.618273
Si Si3 0.639043 0.395627 0.674983
Si Si4 0.036777 0.749575 0.770590
Si Si5 0.371007 0.111454 0.990542
Si Si6 0.655926 0.894705 0.541910
O O1 0.998270 0.331884 0.913911
O O2 0.047795 0.256069 0.821142
O O3 0.309829 0.200342 0.815743
O O4 0.889035 0.147946 0.931487
O O5 0.038621 0.822643 0.668134
O O6 0.156102 0.873689 0.550842
O O7 0.150710 0.691540 0.579626
O O8 0.762785 0.797833 0.682488
O O9 0.533731 0.500000 0.698308
O O10 0.553079 0.360038 0.749298
O O11 0.910424 0.398367 0.589508
O O12 0.370899 0.000000 0.978666
O O13 0.500000 0.132918 0.000000
O O14 0.708585 0.000000 0.548139
#
# Coordination Sequence:
#
# PCOD8092040 Si02
#       6
#     8   8   8   8   8   8
#     4  11  22  42  64  93 127 157 194 254 298 360
#     4  10  19  34  58  88 120 157 208 257 305 350
#     4  10  20  35  61  89 116 160 215 254 293 360
#     4  11  22  38  60  90 126 163 193 245 314 355
#     4  10  22  41  69  94 117 162 207 238 291 368
#     4   9  19  35  57  84 116 162 213 257 302 361
#
# _framework density 19.790645000000001
#
# number of rings (size 3 to 8) (size 9 to 14) (size 15 to 20)
#    0.000    1.833    3.333    1.000    0.000    2.667 
#    0.000    3.333    0.000   23.000    0.000    0.000 
#    0.000    0.000    0.000    0.000    0.000    0.000 
#
# Total GULP energy -297469.771179 kJ/mol
# GULP energy per Si atom -12394.573799 kJ/mol
# Density = 1.974560 g / cm^3
# Si number density = 19.790645 Si / 1000 Ang^3
#
#
#
# Elastic Constant Matrix: (Units=GPa)
#
#
# Indices 1 2 3 4 5 6 
#
# 1 116.6027 50.7097 52.7345 0.0010 7.1527 -0.0003
# 2 50.7097 141.4515 45.3070 -0.0019 8.1201 -0.0001
# 3 52.7345 45.3070 111.0788 -0.0092 -5.6429 -0.0011
# 4 0.0010 -0.0019 -0.0092 17.0780 -0.0013 3.6828
# 5 7.1527 8.1201 -5.6429 -0.0013 35.1141 0.0010
# 6 -0.0003 -0.0001 -0.0011 3.6828 0.0010 25.5761
#
#
#
# Elastic Compliance Matrix: (Units=1/GPa)
#
#
# Indices 1 2 3 4 5 6 
#
# 1 0.012043 -0.002638 -0.004774 -0.000004 -0.002610 0.000001
# 2 -0.002638 0.008922 -0.002484 0.000000 -0.001925 0.000000
# 3 -0.004774 -0.002484 0.012462 0.000007 0.003550 -0.000001
# 4 -0.000004 0.000000 0.000007 0.060431 0.000005 -0.008702
# 5 -0.002610 -0.001925 0.003550 0.000005 0.030026 -0.000002
# 6 0.000001 0.000000 -0.000001 -0.008702 -0.000002 0.040352
#
#
# Mechanical properties :
#
#
# Convention : Reuss Voigt Hill
#
# Bulk Modulus (GPa) = 73.34470 74.07058 73.70764
# Shear Modulus (GPa) = 26.51497 30.24577 28.38037
#
# Velocity S-wave (km/s) = 3.66426 3.91357 3.79097
# Velocity P-wave (km/s) = 7.41911 7.61116 7.51575
#
# Compressibility (1/GPa) = 0.01363425
#
# Stress axis : x y z
#
# Youngs Moduli (GPa) = 83.03880 112.08773 80.24089
#
# Poissons Ratio (x) = 0.29573 0.38304
# Poissons Ratio (y) = 0.21909 0.19933
# Poissons Ratio (z) = 0.39640 0.27845
#
# Static dielectric constant tensor:
#      x y z
#    x 3.553180 0.000000 -0.157120 
#    y 0.000000 3.665250 0.000000 
#    z -0.157120 0.000000 3.833590 
# 
# 
# High freq. dielectric constant tensor:
#      x y z
#    x 1.758970 0.000000 -0.007000 
#    y 0.000000 1.759880 0.000000 
#    z -0.007000 0.000000 1.788960 
# 
# From -- ./inp_files/356291.got.cif
#   From: 2010.06.25/outbox.cif.g09.slc.cpg/sg12_179_cif.got.tgz:356291.got - 2010.06.28 00:19:55.
