data_PCOD8092100
_publ_section_title
;
Structure prediction by ZEFSAII (Michael W. Deem and Ramdas Pophale) SiO2 
 PCOD8092100
Probable space group: C 2/M
;
_chemical_formula_sum "Si O2"
_cell_formula_units_Z 48
_cell_length_a 20.397764
_cell_length_b 8.940010
_cell_length_c 13.977401
_cell_angle_alpha 90.000000
_cell_angle_beta 90.156259
_cell_angle_gamma 90.000000
_cell_volume 2548.856451
_symmetry_space_group_name_H-M "C 2/M"
_symmetry_group_IT_number 12
_symmetry_cell_setting 'monoclinic'
loop_
_space_group_symop_operation_xyz
x,y,z
-x,y,-z
-x,-y,-z
x,-y,z
1/2+x,1/2+y,z
1/2-x,1/2+y,-z
1/2-x,1/2-y,-z
1/2+x,1/2-y,z
loop_
_atom_site_type_symbol
_atom_site_label
_atom_site_fract_x
_atom_site_fract_y
_atom_site_fract_z
Si Si1 0.258498 0.172947 0.263163
Si Si2 0.934599 0.677489 0.952890
Si Si3 0.570659 0.172811 0.458664
Si Si4 0.307105 0.171043 0.054640
Si Si5 0.308804 0.676599 0.443233
Si Si6 0.882143 0.674133 0.749552
O O1 0.298835 0.193391 0.166619
O O2 0.303309 0.266120 0.335462
O O3 0.184980 0.234311 0.256456
O O4 0.253989 0.000000 0.294289
O O5 0.939569 0.500000 0.956847
O O6 0.923586 0.728159 0.842415
O O7 0.875833 0.738724 0.018999
O O8 0.000000 0.748458 0.000000
O O9 0.500000 0.216627 0.500000
O O10 0.622231 0.276794 0.512291
O O11 0.573867 0.203406 0.344589
O O12 0.587097 0.000000 0.480781
O O13 0.303751 0.000000 0.023775
O O14 0.250000 0.250000 0.000000
O O15 0.301413 0.500000 0.447187
O O16 0.250000 0.750000 0.500000
O O17 0.863283 0.500000 0.758587
#
# Coordination Sequence:
#
# PCOD8092100 Si02
#       6
#     8   8   8   8   8   8
#     4  11  22  35  57  88 119 154 195 245 298 351
#     4   9  18  33  55  84 115 150 195 239 283 341
#     4  10  22  39  60  89 123 158 198 245 296 355
#     4  10  20  34  56  85 114 148 191 240 290 340
#     4  12  24  39  61  88 118 154 200 249 298 353
#     4  10  19  34  59  84 113 157 197 238 293 351
#
# _framework density 18.831973000000001
#
# number of rings (size 3 to 8) (size 9 to 14) (size 15 to 20)
#    0.000    1.667    3.333    2.000    0.000    2.333 
#    0.000    5.000    0.000    2.000    0.000    0.000 
#    0.000    0.000    0.000    0.000    0.000    0.000 
#
# Total GULP energy -297603.029291 kJ/mol
# GULP energy per Si atom -12400.126220 kJ/mol
# Density = 1.878911 g / cm^3
# Si number density = 18.831973 Si / 1000 Ang^3
#
#
#
# Elastic Constant Matrix: (Units=GPa)
#
#
# Indices 1 2 3 4 5 6 
#
# 1 151.6650 53.0798 88.8820 0.0000 -4.2504 0.0000
# 2 53.0798 92.7948 57.9972 0.0000 4.5353 0.0000
# 3 88.8820 57.9972 143.8196 0.0000 5.5192 0.0000
# 4 0.0000 0.0000 0.0000 23.7000 0.0000 5.5316
# 5 -4.2504 4.5353 5.5192 0.0000 36.0036 0.0000
# 6 0.0000 0.0000 0.0000 5.5316 0.0000 27.0981
#
#
#
# Elastic Compliance Matrix: (Units=1/GPa)
#
#
# Indices 1 2 3 4 5 6 
#
# 1 0.011043 -0.002827 -0.005782 0.000000 0.002546 0.000000
# 2 -0.002827 0.015163 -0.004307 0.000000 -0.001584 0.000000
# 3 -0.005782 -0.004307 0.012341 0.000000 -0.002032 0.000000
# 4 0.000000 0.000000 0.000000 0.044305 0.000000 -0.009044
# 5 0.002546 -0.001584 -0.002032 0.000000 0.028587 0.000000
# 6 0.000000 0.000000 0.000000 -0.009044 0.000000 0.038749
#
#
# Mechanical properties :
#
#
# Convention : Reuss Voigt Hill
#
# Bulk Modulus (GPa) = 78.64782 87.57749 83.11265
# Shear Modulus (GPa) = 27.73803 29.91504 28.82653
#
# Velocity S-wave (km/s) = 3.84203 3.98995 3.91669
# Velocity P-wave (km/s) = 7.84444 8.23601 8.04261
#
# Compressibility (1/GPa) = 0.01271491
#
# Stress axis : x y z
#
# Youngs Moduli (GPa) = 90.55555 65.95151 81.02870
#
# Poissons Ratio (x) = 0.18646 0.46853
# Poissons Ratio (y) = 0.25602 0.34895
# Poissons Ratio (z) = 0.52362 0.28402
#
# Static dielectric constant tensor:
#      x y z
#    x 3.388180 0.000000 -0.019830 
#    y 0.000000 3.365920 0.000000 
#    z -0.019830 0.000000 3.846340 
# 
# 
# High freq. dielectric constant tensor:
#      x y z
#    x 1.729610 0.000000 -0.002030 
#    y 0.000000 1.713600 0.000000 
#    z -0.002030 0.000000 1.751030 
# 
# From -- ./inp_files/221684.got.cif
#   From: 2010.06.25/outbox.cif.g09.slc.cpg/sg12_111_cif.got.tgz:221684.got - 2010.06.28 00:19:55.
