data_PCOD8092236
_publ_section_title
;
Structure prediction by ZEFSAII (Michael W. Deem and Ramdas Pophale) SiO2 
 PCOD8092236
Probable space group: C 2/M
;
_chemical_formula_sum "Si O2"
_cell_formula_units_Z 56
_cell_length_a 13.577663
_cell_length_b 13.169352
_cell_length_c 15.366033
_cell_angle_alpha 90.000000
_cell_angle_beta 83.276203
_cell_angle_gamma 90.000000
_cell_volume 2728.687754
_symmetry_space_group_name_H-M "C 2/M"
_symmetry_group_IT_number 12
_symmetry_cell_setting 'monoclinic'
loop_
_space_group_symop_operation_xyz
x,y,z
-x,y,-z
-x,-y,-z
x,-y,z
1/2+x,1/2+y,z
1/2-x,1/2+y,-z
1/2-x,1/2-y,-z
1/2+x,1/2-y,z
loop_
_atom_site_type_symbol
_atom_site_label
_atom_site_fract_x
_atom_site_fract_y
_atom_site_fract_z
Si Si1 0.609734 0.707252 0.459983
Si Si2 0.933940 0.737231 0.084662
Si Si3 0.732173 0.883220 0.991542
Si Si4 0.244124 0.881888 0.592124
Si Si5 0.378298 0.614171 0.229008
Si Si6 0.861911 0.258888 0.872390
Si Si7 0.401034 0.614629 0.723751
O O1 0.500000 0.734138 0.500000
O O2 0.659141 0.815826 0.436727
O O3 0.660577 0.643233 0.530443
O O4 0.614259 0.636203 0.375452
O O5 0.867234 0.818182 0.143626
O O6 0.023279 0.703722 0.141029
O O7 0.863161 0.645841 0.059892
O O8 0.000000 0.785495 0.000000
O O9 0.704179 0.858114 0.096356
O O10 0.757082 0.000000 0.976886
O O11 0.830524 0.818543 0.956093
O O12 0.204027 0.853607 0.692017
O O13 0.272605 0.000000 0.582924
O O14 0.360931 0.500000 0.199400
O O15 0.484720 0.625054 0.263306
O O16 0.837448 0.197244 0.786489
O O17 0.362835 0.500000 0.747469
#
# Coordination Sequence:
#
# PCOD8092236 Si02
#       7
#     8   8   8   8   8   8   8
#     4  11  22  37  62  88 112 149 190 238 285 344
#     4   9  19  34  55  83 115 150 187 236 278 334
#     4  10  20  37  61  82 111 155 195 234 279 336
#     4  10  22  39  58  85 117 150 188 235 288 342
#     4   9  18  34  56  82 115 150 188 236 284 334
#     4   9  20  36  53  84 118 146 185 240 283 332
#     4  10  19  34  60  86 114 148 189 236 285 336
#
# _framework density 20.522684999999999
#
# number of rings (size 3 to 8) (size 9 to 14) (size 15 to 20)
#    0.000    2.286    1.429    0.857    2.000    4.286 
#    0.000    8.571    0.000    0.857    0.000    0.000 
#    0.000    0.000    0.000    0.000    0.000    0.000 
#
# Total GULP energy -346886.983248 kJ/mol
# GULP energy per Si atom -12388.820830 kJ/mol
# Density = 2.047597 g / cm^3
# Si number density = 20.522685 Si / 1000 Ang^3
#
#
#
# Elastic Constant Matrix: (Units=GPa)
#
#
# Indices 1 2 3 4 5 6 
#
# 1 73.3328 13.9941 -3.4713 0.0000 -5.9783 0.0000
# 2 13.9941 77.3805 15.0139 0.0000 -0.8878 0.0000
# 3 -3.4713 15.0139 74.2413 0.0000 -14.4963 0.0000
# 4 0.0000 0.0000 0.0000 33.5322 0.0000 1.8738
# 5 -5.9783 -0.8878 -14.4963 0.0000 19.6431 0.0000
# 6 0.0000 0.0000 0.0000 1.8738 0.0000 18.5318
#
#
#
# Elastic Compliance Matrix: (Units=1/GPa)
#
#
# Indices 1 2 3 4 5 6 
#
# 1 0.014861 -0.003110 0.002546 0.000000 0.006261 0.000000
# 2 -0.003110 0.014147 -0.003583 0.000000 -0.002951 0.000000
# 3 0.002546 -0.003583 0.016863 0.000000 0.013058 0.000000
# 4 0.000000 0.000000 0.000000 0.029992 0.000000 -0.003032
# 5 0.006261 -0.002951 0.013058 0.000000 0.062317 0.000000
# 6 0.000000 0.000000 0.000000 -0.003032 0.000000 0.054268
#
#
# Mechanical properties :
#
#
# Convention : Reuss Voigt Hill
#
# Bulk Modulus (GPa) = 26.61093 30.66977 28.64035
# Shear Modulus (GPa) = 23.44500 27.63595 25.54048
#
# Velocity S-wave (km/s) = 3.38360 3.67359 3.53157
# Velocity P-wave (km/s) = 5.31599 5.74199 5.53309
#
# Compressibility (1/GPa) = 0.03757854
#
# Stress axis : x y z
#
# Youngs Moduli (GPa) = 67.29070 70.68734 59.30233
#
# Poissons Ratio (x) = 0.21982 -0.15101
# Poissons Ratio (y) = 0.20926 0.21245
# Poissons Ratio (z) = -0.17135 0.25324
#
# Static dielectric constant tensor:
#      x y z
#    x 3.844360 0.000000 -0.055760 
#    y 0.000000 3.523240 0.000000 
#    z -0.055760 0.000000 3.911590 
# 
# 
# High freq. dielectric constant tensor:
#      x y z
#    x 1.808890 0.000000 -0.001470 
#    y 0.000000 1.780180 0.000000 
#    z -0.001470 0.000000 1.806920 
# 
# From -- ./inp_files/214171.got.cif
#   From: 2010.06.25/outbox.cif.g09.slc.cpg/sg12_108_cif.got.tgz:214171.got - 2010.06.28 00:19:55.
