data_PCOD8092456
_publ_section_title
;
Structure prediction by ZEFSAII (Michael W. Deem and Ramdas Pophale) SiO2 
 PCOD8092456
Probable space group: C 2/M
;
_chemical_formula_sum "Si O2"
_cell_formula_units_Z 56
_cell_length_a 18.992868
_cell_length_b 9.108816
_cell_length_c 20.716121
_cell_angle_alpha 90.000000
_cell_angle_beta 57.106398
_cell_angle_gamma 90.000000
_cell_volume 3009.365881
_symmetry_space_group_name_H-M "C 2/M"
_symmetry_group_IT_number 12
_symmetry_cell_setting 'monoclinic'
loop_
_space_group_symop_operation_xyz
x,y,z
-x,y,-z
-x,-y,-z
x,-y,z
1/2+x,1/2+y,z
1/2-x,1/2+y,-z
1/2-x,1/2-y,-z
1/2+x,1/2-y,z
loop_
_atom_site_type_symbol
_atom_site_label
_atom_site_fract_x
_atom_site_fract_y
_atom_site_fract_z
Si Si1 0.535285 0.661534 0.169104
Si Si2 0.524868 0.828204 0.917593
Si Si3 0.208533 0.328561 0.777706
Si Si4 0.517663 0.669122 0.566387
Si Si5 0.163276 0.673715 0.557364
Si Si6 0.886402 0.827052 0.739426
Si Si7 0.850288 0.838207 0.308428
O O1 0.574575 0.500000 0.135729
O O2 0.539693 0.760001 0.102567
O O3 0.580842 0.738446 0.208292
O O4 0.437935 0.641480 0.230566
O O5 0.622994 0.790444 0.858005
O O6 0.509295 0.000000 0.921339
O O7 0.500000 0.765603 0.000000
O O8 0.213023 0.500000 0.757581
O O9 0.289270 0.281310 0.779586
O O10 0.214785 0.237212 0.708292
O O11 0.500000 0.685781 0.500000
O O12 0.539562 0.500000 0.572590
O O13 0.596868 0.773458 0.537694
O O14 0.441069 0.725289 0.650193
O O15 0.172479 0.500000 0.551578
O O16 0.250000 0.750000 0.500000
O O17 0.132454 0.728999 0.641709
O O18 0.897197 0.000000 0.739370
O O19 0.815989 0.000000 0.346604
#
# Coordination Sequence:
#
# PCOD8092456 Si02
#       7
#     8   8   8   8   8   8   8
#     4   9  17  32  55  77 102 136 176 218 265 323
#     4   9  18  33  52  77 110 142 177 223 268 313
#     4   9  18  32  54  80 105 142 186 217 262 329
#     4  10  21  38  58  80 110 146 181 226 282 334
#     4  12  25  39  56  78 107 142 185 231 276 327
#     4   9  17  33  54  78 107 140 179 221 268 326
#     4  10  19  35  55  77 105 137 176 227 276 320
#
# _framework density 18.608571999999999
#
# number of rings (size 3 to 8) (size 9 to 14) (size 15 to 20)
#    0.000    2.286    1.429    1.714    2.000    1.143 
#    0.000    2.143    0.000    0.000    0.000    0.000 
#    0.000    0.000    0.000    0.000    0.000    0.000 
#
# Total GULP energy -347058.120320 kJ/mol
# GULP energy per Si atom -12394.932869 kJ/mol
# Density = 1.856622 g / cm^3
# Si number density = 18.608572 Si / 1000 Ang^3
#
#
#
# Elastic Constant Matrix: (Units=GPa)
#
#
# Indices 1 2 3 4 5 6 
#
# 1 135.4253 47.2115 47.2445 0.0000 19.5719 -0.0002
# 2 47.2115 91.1691 36.8010 -0.0001 7.8699 -0.0005
# 3 47.2445 36.8010 83.8475 0.0000 22.9202 0.0000
# 4 0.0000 -0.0001 0.0000 20.8304 0.0000 5.4399
# 5 19.5719 7.8699 22.9202 0.0000 32.1402 0.0000
# 6 -0.0002 -0.0005 0.0000 5.4399 0.0000 27.6497
#
#
#
# Elastic Compliance Matrix: (Units=1/GPa)
#
#
# Indices 1 2 3 4 5 6 
#
# 1 0.010275 -0.003713 -0.003352 0.000000 -0.002958 0.000000
# 2 -0.003713 0.014705 -0.004963 0.000000 0.002200 0.000000
# 3 -0.003352 -0.004963 0.018760 0.000000 -0.010122 0.000000
# 4 0.000000 0.000000 0.000000 0.050607 0.000000 -0.009957
# 5 -0.002958 0.002200 -0.010122 0.000000 0.039595 0.000000
# 6 0.000000 0.000000 0.000000 -0.009957 0.000000 0.038126
#
#
# Mechanical properties :
#
#
# Convention : Reuss Voigt Hill
#
# Bulk Modulus (GPa) = 50.80001 63.66178 57.23090
# Shear Modulus (GPa) = 24.66886 28.06972 26.36929
#
# Velocity S-wave (km/s) = 3.64493 3.88806 3.76846
# Velocity P-wave (km/s) = 6.71361 7.37844 7.05386
#
# Compressibility (1/GPa) = 0.01968504
#
# Stress axis : x y z
#
# Youngs Moduli (GPa) = 97.32203 68.00466 53.30409
#
# Poissons Ratio (x) = 0.25248 0.17865
# Poissons Ratio (y) = 0.36133 0.26457
# Poissons Ratio (z) = 0.32618 0.33753
#
# Static dielectric constant tensor:
#      x y z
#    x 3.509660 0.000000 0.136630 
#    y 0.000000 3.433410 0.000000 
#    z 0.136630 0.000000 3.320350 
# 
# 
# High freq. dielectric constant tensor:
#      x y z
#    x 1.725430 0.000000 0.013520 
#    y 0.000000 1.705310 0.000000 
#    z 0.013520 0.000000 1.708950 
# 
# From -- ./inp_files/275320.got.cif
#   From: 2010.06.25/outbox.cif.g09.slc.cpg/sg12_138_cif.got.tgz:275320.got - 2010.06.28 00:19:55.
