data_PCOD8092743
_publ_section_title
;
Structure prediction by ZEFSAII (Michael W. Deem and Ramdas Pophale) SiO2 
 PCOD8092743
Probable space group: C 2/M
;
_chemical_formula_sum "Si O2"
_cell_formula_units_Z 64
_cell_length_a 30.575483
_cell_length_b 8.806563
_cell_length_c 23.396441
_cell_angle_alpha 90.000000
_cell_angle_beta 149.595778
_cell_angle_gamma 90.000000
_cell_volume 3188.332517
_symmetry_space_group_name_H-M "C 2/M"
_symmetry_group_IT_number 12
_symmetry_cell_setting 'monoclinic'
loop_
_space_group_symop_operation_xyz
x,y,z
-x,y,-z
-x,-y,-z
x,-y,z
1/2+x,1/2+y,z
1/2-x,1/2+y,-z
1/2-x,1/2-y,-z
1/2+x,1/2-y,z
loop_
_atom_site_type_symbol
_atom_site_label
_atom_site_fract_x
_atom_site_fract_y
_atom_site_fract_z
Si Si1 0.225510 0.675904 0.723948
Si Si2 0.682750 0.826502 0.270076
Si Si3 0.049096 0.178234 0.500412
Si Si4 0.347292 0.321315 0.959029
Si Si5 0.337563 0.680706 0.075423
Si Si6 0.806921 0.826729 0.515014
Si Si7 0.485631 0.318870 0.665649
Si Si8 0.487785 0.322254 0.920036
O O1 0.198147 0.500000 0.688346
O O2 0.301639 0.712655 0.765278
O O3 0.148941 0.787781 0.621747
O O4 0.259423 0.716651 0.825617
O O5 0.758888 0.808466 0.401069
O O6 0.593204 0.770435 0.196728
O O7 0.675907 0.000000 0.241359
O O8 0.018611 0.244997 0.404545
O O9 0.000000 0.251665 0.500000
O O10 0.033336 0.000000 0.482058
O O11 0.359865 0.500000 0.975307
O O12 0.343282 0.254352 0.017807
O O13 0.430172 0.253259 0.020505
O O14 0.331308 0.500000 0.070753
O O15 0.423178 0.737345 0.205507
O O16 0.250000 0.750000 0.000000
O O17 0.750000 0.750000 0.500000
O O18 0.904175 0.759640 0.612746
O O19 0.815299 0.000000 0.543589
O O20 0.479723 0.500000 0.657640
O O21 0.474000 0.500000 0.892800
O O22 0.500000 0.286179 0.000000
#
# Coordination Sequence:
#
# PCOD8092743 Si02
#       8
#     8   8   8   8   8   8   8   8
#     4  11  21  37  59  85 117 152 193 239 291 351
#     4  11  22  37  56  83 121 154 189 242 296 344
#     4  10  21  38  61  87 116 149 188 239 298 357
#     4   9  20  37  57  83 116 153 192 238 287 345
#     4  10  22  41  63  84 112 153 198 244 293 343
#     4  10  22  39  59  84 117 154 195 241 288 350
#     4   9  19  39  61  84 116 153 192 234 290 353
#     4  10  19  35  57  82 114 152 194 232 279 350
#
# _framework density 20.073188999999999
#
# number of rings (size 3 to 8) (size 9 to 14) (size 15 to 20)
#    0.000    2.000    2.500    0.750    3.500    1.500 
#    0.000    2.500    0.000    0.000    0.000    0.000 
#    0.000    0.000    0.000    0.000    0.000    0.000 
#
# Total GULP energy -396679.689364 kJ/mol
# GULP energy per Si atom -12396.240293 kJ/mol
# Density = 2.002750 g / cm^3
# Si number density = 20.073189 Si / 1000 Ang^3
#
#
#
# Elastic Constant Matrix: (Units=GPa)
#
#
# Indices 1 2 3 4 5 6 
#
# 1 163.1406 22.8270 73.4108 0.0000 -0.5336 0.0000
# 2 22.8270 25.9904 22.6961 0.0000 -2.1148 0.0000
# 3 73.4108 22.6961 142.6796 0.0000 5.9508 0.0000
# 4 0.0000 0.0000 0.0000 28.7984 0.0000 5.1800
# 5 -0.5336 -2.1148 5.9508 0.0000 32.9008 0.0000
# 6 0.0000 0.0000 0.0000 5.1800 0.0000 24.6408
#
#
#
# Elastic Compliance Matrix: (Units=1/GPa)
#
#
# Indices 1 2 3 4 5 6 
#
# 1 0.008355 -0.004089 -0.003671 0.000000 0.000537 0.000000
# 2 -0.004089 0.047264 -0.005580 0.000000 0.003981 0.000000
# 3 -0.003671 -0.005580 0.009877 0.000000 -0.002205 0.000000
# 4 0.000000 0.000000 0.000000 0.036089 0.000000 -0.007587
# 5 0.000537 0.003981 -0.002205 0.000000 0.031058 0.000000
# 6 0.000000 0.000000 0.000000 -0.007587 0.000000 0.042178
#
#
# Mechanical properties :
#
#
# Convention : Reuss Voigt Hill
#
# Bulk Modulus (GPa) = 25.76278 63.29761 44.53020
# Shear Modulus (GPa) = 23.31645 31.45978 27.38811
#
# Velocity S-wave (km/s) = 3.41188 3.96315 3.69780
# Velocity P-wave (km/s) = 5.32762 7.24872 6.36111
#
# Compressibility (1/GPa) = 0.03881569
#
# Stress axis : x y z
#
# Youngs Moduli (GPa) = 119.68219 21.15765 101.24428
#
# Poissons Ratio (x) = 0.08652 0.37166
# Poissons Ratio (y) = 0.48940 0.56499
# Poissons Ratio (z) = 0.43934 0.11807
#
# Static dielectric constant tensor:
#      x y z
#    x 4.104810 0.000000 -0.069920 
#    y 0.000000 3.242950 0.000000 
#    z -0.069920 0.000000 3.786990 
# 
# 
# High freq. dielectric constant tensor:
#      x y z
#    x 1.791830 0.000000 0.003550 
#    y 0.000000 1.743620 0.000000 
#    z 0.003550 0.000000 1.795740 
# 
# From -- ./inp_files/353564.got.cif
#   From: 2010.06.25/outbox.cif.g09.slc.cpg/sg12_177_cif.got.tgz:353564.got - 2010.06.28 00:19:55.
