data_PCOD8092379
_publ_section_title
;
Structure prediction by ZEFSAII (Michael W. Deem and Ramdas Pophale) SiO2 
 PCOD8092379
Probable space group: C 2/M
;
_chemical_formula_sum "Si O2"
_cell_formula_units_Z 56
_cell_length_a 14.610502
_cell_length_b 17.859186
_cell_length_c 16.586014
_cell_angle_alpha 90.000000
_cell_angle_beta 36.471005
_cell_angle_gamma 90.000000
_cell_volume 2572.522920
_symmetry_space_group_name_H-M "C 2/M"
_symmetry_group_IT_number 12
_symmetry_cell_setting 'monoclinic'
loop_
_space_group_symop_operation_xyz
x,y,z
-x,y,-z
-x,-y,-z
x,-y,z
1/2+x,1/2+y,z
1/2-x,1/2+y,-z
1/2-x,1/2-y,-z
1/2+x,1/2-y,z
loop_
_atom_site_type_symbol
_atom_site_label
_atom_site_fract_x
_atom_site_fract_y
_atom_site_fract_z
Si Si1 0.954278 0.583486 0.785454
Si Si2 0.787929 0.181086 0.812842
Si Si3 0.598944 0.084303 0.848571
Si Si4 0.079329 0.232173 0.529889
Si Si5 0.235505 0.631725 0.493210
Si Si6 0.034660 0.086017 0.191704
Si Si7 0.688296 0.694189 0.976240
O O1 0.887223 0.500000 0.839952
O O2 0.005640 0.612474 0.837531
O O3 0.095437 0.580131 0.621941
O O4 0.819413 0.637408 0.851655
O O5 0.742418 0.140151 0.761556
O O6 0.822945 0.115413 0.853905
O O7 0.657064 0.244065 0.927889
O O8 0.945590 0.227519 0.691598
O O9 0.659466 0.000000 0.791130
O O10 0.500000 0.090286 0.000000
O O11 0.169108 0.309995 0.474780
O O12 0.200748 0.167735 0.468607
O O13 0.000000 0.221356 0.500000
O O14 0.369521 0.586513 0.352571
O O15 0.068596 0.000000 0.142768
O O16 0.042139 0.143191 0.108733
O O17 0.750000 0.750000 0.000000
#
# Coordination Sequence:
#
# PCOD8092379 Si02
#       7
#     8   8   8   8   8   8   8
#     4  11  21  36  59  86 118 153 192 239 292 352
#     4  10  19  35  53  82 117 149 189 235 286 353
#     4  10  20  33  52  85 123 155 186 232 295 356
#     4  10  20  36  58  84 118 152 191 244 297 343
#     4  10  21  37  59  87 117 150 199 242 289 355
#     4  10  20  35  57  83 113 151 190 238 293 347
#     4  10  20  34  55  81 115 151 192 234 279 343
#
# _framework density 21.768512999999999
#
# number of rings (size 3 to 8) (size 9 to 14) (size 15 to 20)
#    0.000    1.857    1.429    3.857    2.000    1.143 
#    2.571    0.000    0.000    8.571    0.000    1.000 
#    0.000    0.000    0.000    0.000    0.000    0.000 
#
# Total GULP energy -346866.271501 kJ/mol
# GULP energy per Si atom -12388.081125 kJ/mol
# Density = 2.171897 g / cm^3
# Si number density = 21.768513 Si / 1000 Ang^3
#
#
#
# Elastic Constant Matrix: (Units=GPa)
#
#
# Indices 1 2 3 4 5 6 
#
# 1 54.7037 17.9816 -0.7678 -0.0047 -2.7759 -0.0001
# 2 17.9816 109.0215 22.6030 -0.0072 -1.8804 0.0002
# 3 -0.7678 22.6030 92.3643 -0.0252 -3.6393 0.0020
# 4 -0.0047 -0.0072 -0.0252 25.9983 0.0036 -5.2068
# 5 -2.7759 -1.8804 -3.6393 0.0036 18.4298 0.0015
# 6 -0.0001 0.0002 0.0020 -5.2068 0.0015 17.0581
#
#
#
# Elastic Compliance Matrix: (Units=1/GPa)
#
#
# Indices 1 2 3 4 5 6 
#
# 1 0.019559 -0.003407 0.001107 0.000003 0.002817 0.000001
# 2 -0.003407 0.010261 -0.002538 0.000000 0.000033 0.000000
# 3 0.001107 -0.002538 0.011543 0.000011 0.002187 0.000002
# 4 0.000003 0.000000 0.000011 0.040969 -0.000006 0.012505
# 5 0.002817 0.000033 0.002187 -0.000006 0.055120 -0.000007
# 6 0.000001 0.000000 0.000002 0.012505 -0.000007 0.062440
#
#
# Mechanical properties :
#
#
# Convention : Reuss Voigt Hill
#
# Bulk Modulus (GPa) = 31.55807 37.30257 34.43032
# Shear Modulus (GPa) = 22.71392 26.71542 24.71467
#
# Velocity S-wave (km/s) = 3.23372 3.50701 3.37314
# Velocity P-wave (km/s) = 5.33584 5.79414 5.56971
#
# Compressibility (1/GPa) = 0.03168762
#
# Stress axis : x y z
#
# Youngs Moduli (GPa) = 51.12825 97.45447 86.63107
#
# Poissons Ratio (x) = 0.33202 -0.09593
# Poissons Ratio (y) = 0.17419 0.21988
# Poissons Ratio (z) = -0.05661 0.24735
#
# Static dielectric constant tensor:
#      x y z
#    x 3.535970 0.000000 0.031450 
#    y 0.000000 4.039800 0.000000 
#    z 0.031450 0.000000 4.008870 
# 
# 
# High freq. dielectric constant tensor:
#      x y z
#    x 1.807450 0.000000 -0.001750 
#    y 0.000000 1.862730 0.000000 
#    z -0.001750 0.000000 1.861260 
# 
# From -- ./inp_files/271365.got.cif
#   From: 2010.06.25/outbox.cif.g09.slc.cpg/sg12_136_cif.got.tgz:271365.got - 2010.06.28 00:19:55.
