data_PCOD8092784
_publ_section_title
;
Structure prediction by ZEFSAII (Michael W. Deem and Ramdas Pophale) SiO2 
 PCOD8092784
Probable space group: C 2/M
;
_chemical_formula_sum "Si O2"
_cell_formula_units_Z 64
_cell_length_a 22.304823
_cell_length_b 8.813556
_cell_length_c 21.981325
_cell_angle_alpha 90.000000
_cell_angle_beta 131.141392
_cell_angle_gamma 90.000000
_cell_volume 3254.240996
_symmetry_space_group_name_H-M "C 2/M"
_symmetry_group_IT_number 12
_symmetry_cell_setting 'monoclinic'
loop_
_space_group_symop_operation_xyz
x,y,z
-x,y,-z
-x,-y,-z
x,-y,z
1/2+x,1/2+y,z
1/2-x,1/2+y,-z
1/2-x,1/2-y,-z
1/2+x,1/2-y,z
loop_
_atom_site_type_symbol
_atom_site_label
_atom_site_fract_x
_atom_site_fract_y
_atom_site_fract_z
Si Si1 0.458471 0.674663 0.649193
Si Si2 0.085047 0.679879 0.034744
Si Si3 0.745413 0.826632 0.675283
Si Si4 0.687914 0.180111 0.505897
Si Si5 0.118825 0.680628 0.793965
Si Si6 0.750201 0.822123 0.198555
Si Si7 0.075714 0.168569 0.236659
Si Si8 0.423803 0.823956 0.103603
O O1 0.466313 0.500000 0.634258
O O2 0.401865 0.763759 0.564797
O O3 0.545616 0.749328 0.707190
O O4 0.415928 0.691578 0.685719
O O5 0.075659 0.500000 0.024411
O O6 0.157278 0.724904 0.127782
O O7 0.106793 0.743213 0.981273
O O8 0.000000 0.749468 0.000000
O O9 0.708258 0.765398 0.587865
O O10 0.717075 0.726486 0.713496
O O11 0.839629 0.808974 0.736667
O O12 0.719562 0.000000 0.669422
O O13 0.750000 0.250000 0.500000
O O14 0.694288 0.000000 0.504531
O O15 0.111319 0.500000 0.787049
O O16 0.201076 0.734572 0.820496
O O17 0.116915 0.744859 0.862608
O O18 0.762859 0.000000 0.198038
O O19 0.018293 0.293418 0.169314
O O20 0.041625 0.000000 0.200707
O O21 0.407343 0.000000 0.093886
#
# Coordination Sequence:
#
# PCOD8092784 Si02
#       8
#     8   8   8   8   8   8   8   8
#     4  10  19  35  57  84 116 148 185 234 281 334
#     4   9  18  34  56  84 118 146 180 233 287 336
#     4  10  21  37  54  78 115 152 184 228 286 339
#     4  11  21  35  56  86 120 152 186 230 285 340
#     4  10  21  38  58  81 111 151 195 238 282 334
#     4  11  23  38  58  82 108 149 195 237 284 338
#     4   9  17  31  51  79 114 147 178 223 282 334
#     4   9  18  33  55  82 109 147 193 232 274 332
#
# _framework density 19.666644000000002
#
# number of rings (size 3 to 8) (size 9 to 14) (size 15 to 20)
#    0.000    2.125    1.250    2.250    0.000    4.000 
#    0.000    1.875    0.000    7.125    0.000    0.000 
#    0.000    0.000    0.000    0.000    0.000    0.000 
#
# Total GULP energy -396707.542348 kJ/mol
# GULP energy per Si atom -12397.110698 kJ/mol
# Density = 1.962188 g / cm^3
# Si number density = 19.666644 Si / 1000 Ang^3
#
#
#
# Elastic Constant Matrix: (Units=GPa)
#
#
# Indices 1 2 3 4 5 6 
#
# 1 89.9061 26.0794 46.3230 0.0000 -5.7963 0.0000
# 2 26.0794 52.8975 30.7654 0.0000 -5.5130 0.0000
# 3 46.3230 30.7654 123.1399 0.0000 -16.9409 0.0000
# 4 0.0000 0.0000 0.0000 23.1749 0.0000 3.1917
# 5 -5.7963 -5.5130 -16.9409 0.0000 25.7429 0.0000
# 6 0.0000 0.0000 0.0000 3.1917 0.0000 29.9512
#
#
#
# Elastic Compliance Matrix: (Units=1/GPa)
#
#
# Indices 1 2 3 4 5 6 
#
# 1 0.014753 -0.004751 -0.004448 0.000000 -0.000623 0.000000
# 2 -0.004751 0.023683 -0.003935 0.000000 0.001412 0.000000
# 3 -0.004448 -0.003935 0.011571 0.000000 0.005770 0.000000
# 4 0.000000 0.000000 0.000000 0.043793 0.000000 -0.004667
# 5 -0.000623 0.001412 0.005770 0.000000 0.042805 0.000000
# 6 0.000000 0.000000 0.000000 -0.004667 0.000000 0.033885
#
#
# Mechanical properties :
#
#
# Convention : Reuss Voigt Hill
#
# Bulk Modulus (GPa) = 42.12805 52.47545 47.30175
# Shear Modulus (GPa) = 24.42935 26.62554 25.52745
#
# Velocity S-wave (km/s) = 3.52827 3.68345 3.60670
# Velocity P-wave (km/s) = 6.16975 6.69558 6.43804
#
# Compressibility (1/GPa) = 0.02373715
#
# Stress axis : x y z
#
# Youngs Moduli (GPa) = 67.78428 42.22464 86.42032
#
# Poissons Ratio (x) = 0.20061 0.38443
# Poissons Ratio (y) = 0.32205 0.34010
# Poissons Ratio (z) = 0.30153 0.16617
#
# Static dielectric constant tensor:
#      x y z
#    x 3.494880 0.000000 -0.141990 
#    y 0.000000 3.449930 0.000000 
#    z -0.141990 0.000000 3.727650 
# 
# 
# High freq. dielectric constant tensor:
#      x y z
#    x 1.755230 0.000000 -0.007040 
#    y 0.000000 1.752360 0.000000 
#    z -0.007040 0.000000 1.769470 
# 
# From -- ./inp_files/324334.got.cif
#   From: 2010.06.25/outbox.cif.g09.slc.cpg/sg12_163_cif.got.tgz:324334.got - 2010.06.28 00:19:55.
