data_PCOD8092770
_publ_section_title
;
Structure prediction by ZEFSAII (Michael W. Deem and Ramdas Pophale) SiO2 
 PCOD8092770
Probable space group: C 2/M
;
_chemical_formula_sum "Si O2"
_cell_formula_units_Z 56
_cell_length_a 30.375046
_cell_length_b 8.729761
_cell_length_c 11.846879
_cell_angle_alpha 90.000000
_cell_angle_beta 119.192558
_cell_angle_gamma 90.000000
_cell_volume 2742.396524
_symmetry_space_group_name_H-M "C 2/M"
_symmetry_group_IT_number 12
_symmetry_cell_setting 'monoclinic'
loop_
_space_group_symop_operation_xyz
x,y,z
-x,y,-z
-x,-y,-z
x,-y,z
1/2+x,1/2+y,z
1/2-x,1/2+y,-z
1/2-x,1/2-y,-z
1/2+x,1/2-y,z
loop_
_atom_site_type_symbol
_atom_site_label
_atom_site_fract_x
_atom_site_fract_y
_atom_site_fract_z
Si Si1 0.158303 0.681137 0.134513
Si Si2 0.993633 0.172811 0.124345
Si Si3 0.243676 0.181217 0.616887
Si Si4 0.642425 0.829028 0.537624
Si Si5 0.907707 0.322285 0.146675
Si Si6 0.558312 0.680090 0.581933
Si Si7 0.591172 0.828771 0.247537
O O1 0.157410 0.500000 0.148137
O O2 0.212588 0.742495 0.243184
O O3 0.115196 0.746353 0.164797
O O4 0.143758 0.724341 0.986358
O O5 0.952948 0.292824 0.116730
O O6 0.047546 0.220040 0.242920
O O7 0.979982 0.000000 0.145316
O O8 0.000000 0.190757 0.000000
O O9 0.250000 0.250000 0.500000
O O10 0.192765 0.230306 0.618352
O O11 0.244661 0.000000 0.605123
O O12 0.592570 0.757608 0.530345
O O13 0.635262 0.836120 0.394555
O O14 0.650335 0.000000 0.596902
O O15 0.906769 0.500000 0.180896
O O16 0.915982 0.218988 0.266341
O O17 0.500000 0.739461 0.500000
O O18 0.559312 0.500000 0.564680
O O19 0.569782 0.000000 0.198093
#
# Coordination Sequence:
#
# PCOD8092770 Si02
#       7
#     8   8   8   8   8   8   8
#     4   9  19  36  58  87 121 156 196 245 301 358
#     4  11  22  33  49  82 122 155 193 242 299 362
#     4  11  21  38  62  92 128 164 204 253 309 362
#     4  11  23  40  63  92 122 159 209 253 300 363
#     4  11  22  39  63  86 116 160 206 251 301 361
#     4  11  25  45  66  90 123 160 203 255 309 363
#     4  10  19  35  57  83 118 157 198 244 295 359
#
# _framework density 20.420096999999998
#
# number of rings (size 3 to 8) (size 9 to 14) (size 15 to 20)
#    0.000    1.429    2.857    3.000    0.000    5.143 
#    0.000    3.571    0.000    0.000    0.000    0.000 
#    0.000    0.000    0.000    0.000    0.000    0.000 
#
# Total GULP energy -347084.179111 kJ/mol
# GULP energy per Si atom -12395.863540 kJ/mol
# Density = 2.037362 g / cm^3
# Si number density = 20.420097 Si / 1000 Ang^3
#
#
#
# Elastic Constant Matrix: (Units=GPa)
#
#
# Indices 1 2 3 4 5 6 
#
# 1 94.9967 24.0580 34.2217 0.0000 14.0266 0.0000
# 2 24.0580 63.9727 24.1279 0.0000 1.9334 0.0000
# 3 34.2217 24.1279 116.2825 0.0000 13.5124 0.0000
# 4 0.0000 0.0000 0.0000 27.0766 0.0000 -2.3303
# 5 14.0266 1.9334 13.5124 0.0000 32.3039 0.0000
# 6 0.0000 0.0000 0.0000 -2.3303 0.0000 31.4649
#
#
#
# Elastic Compliance Matrix: (Units=1/GPa)
#
#
# Indices 1 2 3 4 5 6 
#
# 1 0.013056 -0.003819 -0.002541 0.000000 -0.004377 0.000000
# 2 -0.003819 0.018083 -0.002833 0.000000 0.001761 0.000000
# 3 -0.002541 -0.002833 0.010288 0.000000 -0.003030 0.000000
# 4 0.000000 0.000000 0.000000 0.037169 0.000000 0.002753
# 5 -0.004377 0.001761 -0.003030 0.000000 0.034019 0.000000
# 6 0.000000 0.000000 0.000000 0.002753 0.000000 0.031985
#
#
# Mechanical properties :
#
#
# Convention : Reuss Voigt Hill
#
# Bulk Modulus (GPa) = 43.40246 48.89634 46.14940
# Shear Modulus (GPa) = 29.29706 31.02538 30.16122
#
# Velocity S-wave (km/s) = 3.79187 3.90212 3.84739
# Velocity P-wave (km/s) = 6.36176 6.65577 6.51042
#
# Compressibility (1/GPa) = 0.02304017
#
# Stress axis : x y z
#
# Youngs Moduli (GPa) = 76.59546 55.30027 97.20519
#
# Poissons Ratio (x) = 0.21120 0.24701
# Poissons Ratio (y) = 0.29252 0.27536
# Poissons Ratio (z) = 0.19464 0.15666
#
# Static dielectric constant tensor:
#      x y z
#    x 3.635100 0.000000 0.184690 
#    y 0.000000 3.608010 0.000000 
#    z 0.184690 0.000000 3.964520 
# 
# 
# High freq. dielectric constant tensor:
#      x y z
#    x 1.784610 0.000000 0.010390 
#    y 0.000000 1.787880 0.000000 
#    z 0.010390 0.000000 1.804830 
# 
# From -- ./inp_files/187714.got.cif
#   From: 2010.06.25/outbox.cif.g09.slc.cpg/sg12_94_cif.got.tgz:187714.got - 2010.06.28 00:19:55.
