data_PCOD8092158
_publ_section_title
;
Structure prediction by ZEFSAII (Michael W. Deem and Ramdas Pophale) SiO2 
 PCOD8092158
Probable space group: C 2/M
;
_chemical_formula_sum "Si O2"
_cell_formula_units_Z 64
_cell_length_a 15.396609
_cell_length_b 8.694342
_cell_length_c 28.326885
_cell_angle_alpha 90.000000
_cell_angle_beta 57.589533
_cell_angle_gamma 90.000000
_cell_volume 3201.263430
_symmetry_space_group_name_H-M "C 2/M"
_symmetry_group_IT_number 12
_symmetry_cell_setting 'monoclinic'
loop_
_space_group_symop_operation_xyz
x,y,z
-x,y,-z
-x,-y,-z
x,-y,z
1/2+x,1/2+y,z
1/2-x,1/2+y,-z
1/2-x,1/2-y,-z
1/2+x,1/2-y,z
loop_
_atom_site_type_symbol
_atom_site_label
_atom_site_fract_x
_atom_site_fract_y
_atom_site_fract_z
Si Si1 0.783458 0.322417 0.864372
Si Si2 0.445173 0.681209 0.064689
Si Si3 0.313498 0.319597 0.439133
Si Si4 0.076809 0.322792 0.260439
Si Si5 0.762913 0.823592 0.633860
Si Si6 0.101176 0.819531 0.745180
Si Si7 0.979235 0.682581 0.863102
Si Si8 0.545371 0.676794 0.364449
O O1 0.771614 0.500000 0.880061
O O2 0.670606 0.248186 0.903722
O O3 0.819649 0.294990 0.799925
O O4 0.869306 0.254454 0.875309
O O5 0.444692 0.500000 0.075565
O O6 0.509768 0.765491 0.086386
O O7 0.500000 0.721169 0.000000
O O8 0.309785 0.500000 0.445808
O O9 0.250000 0.250000 0.500000
O O10 0.263900 0.275006 0.403932
O O11 0.431086 0.260490 0.408446
O O12 0.041903 0.500000 0.265720
O O13 0.097623 0.278418 0.308198
O O14 0.986740 0.214247 0.267527
O O15 0.704018 0.763160 0.697293
O O16 0.884580 0.806051 0.609275
O O17 0.733140 0.000000 0.632724
O O18 0.070971 0.754678 0.805305
O O19 0.121215 0.000000 0.743329
O O20 0.985103 0.500000 0.856373
O O21 0.541468 0.500000 0.348772
#
# Coordination Sequence:
#
# PCOD8092158 Si02
#       8
#     8   8   8   8   8   8   8   8
#     4   8  18  36  55  81 116 154 192 238 295 352
#     4  10  21  38  59  84 116 156 200 244 295 358
#     4  11  24  44  66  89 121 164 204 252 299 350
#     4  10  19  34  59  87 120 158 199 244 299 356
#     4  11  23  40  62  92 124 160 202 248 299 356
#     4  11  21  36  59  88 123 158 196 245 305 364
#     4  10  21  38  58  83 115 154 197 246 299 354
#     4  10  23  40  60  89 125 159 199 245 299 354
#
# _framework density 19.992107000000001
#
# number of rings (size 3 to 8) (size 9 to 14) (size 15 to 20)
#    0.000    1.875    1.250    3.375    1.750    2.750 
#    0.000    5.625    0.000    0.000    0.000    0.000 
#    0.000    0.000    0.000    0.000    0.000    0.000 
#
# Total GULP energy -396839.900455 kJ/mol
# GULP energy per Si atom -12401.246889 kJ/mol
# Density = 1.994660 g / cm^3
# Si number density = 19.992107 Si / 1000 Ang^3
#
#
#
# Elastic Constant Matrix: (Units=GPa)
#
#
# Indices 1 2 3 4 5 6 
#
# 1 111.9646 21.1225 64.0415 0.0000 -10.8099 -0.0001
# 2 21.1225 49.6407 26.7696 0.0000 -2.5248 0.0000
# 3 64.0415 26.7696 128.7050 0.0000 -8.3813 0.0000
# 4 0.0000 0.0000 0.0000 29.9165 0.0000 7.1990
# 5 -10.8099 -2.5248 -8.3813 0.0000 24.8811 0.0000
# 6 -0.0001 0.0000 0.0000 7.1990 0.0000 28.7112
#
#
#
# Elastic Compliance Matrix: (Units=1/GPa)
#
#
# Indices 1 2 3 4 5 6 
#
# 1 0.012990 -0.002238 -0.005772 0.000000 0.003472 0.000000
# 2 -0.002238 0.023088 -0.003680 0.000000 0.000131 0.000000
# 3 -0.005772 -0.003680 0.011471 0.000000 0.000983 0.000000
# 4 0.000000 0.000000 0.000000 0.035573 0.000000 -0.008919
# 5 0.003472 0.000131 0.000983 0.000000 0.042044 0.000000
# 6 0.000000 0.000000 0.000000 -0.008919 0.000000 0.037066
#
#
# Mechanical properties :
#
#
# Convention : Reuss Voigt Hill
#
# Bulk Modulus (GPa) = 41.37482 57.13084 49.25283
# Shear Modulus (GPa) = 25.81711 28.59353 27.20532
#
# Velocity S-wave (km/s) = 3.59746 3.78596 3.69291
# Velocity P-wave (km/s) = 6.16410 6.91014 6.54775
#
# Compressibility (1/GPa) = 0.02416929
#
# Stress axis : x y z
#
# Youngs Moduli (GPa) = 76.97950 43.31206 87.17422
#
# Poissons Ratio (x) = 0.09694 0.50319
# Poissons Ratio (y) = 0.17229 0.32080
# Poissons Ratio (z) = 0.44434 0.15939
#
# Static dielectric constant tensor:
#      x y z
#    x 3.686320 0.000000 -0.208710 
#    y 0.000000 3.495720 0.000000 
#    z -0.208710 0.000000 3.641280 
# 
# 
# High freq. dielectric constant tensor:
#      x y z
#    x 1.784460 0.000000 -0.003800 
#    y 0.000000 1.770460 0.000000 
#    z -0.003800 0.000000 1.776780 
# 
# From -- ./inp_files/375395.got.cif
#   From: 2010.06.25/outbox.cif.g09.slc.cpg/sg12_188_cif.got.tgz:375395.got - 2010.06.28 00:19:55.
