data_PCOD8092441
_publ_section_title
;
Structure prediction by ZEFSAII (Michael W. Deem and Ramdas Pophale) SiO2 
 PCOD8092441
Probable space group: C 2/M
;
_chemical_formula_sum "Si O2"
_cell_formula_units_Z 56
_cell_length_a 14.462019
_cell_length_b 9.057815
_cell_length_c 29.408416
_cell_angle_alpha 90.000000
_cell_angle_beta 53.575179
_cell_angle_gamma 90.000000
_cell_volume 3099.729640
_symmetry_space_group_name_H-M "C 2/M"
_symmetry_group_IT_number 12
_symmetry_cell_setting 'monoclinic'
loop_
_space_group_symop_operation_xyz
x,y,z
-x,y,-z
-x,-y,-z
x,-y,z
1/2+x,1/2+y,z
1/2-x,1/2+y,-z
1/2-x,1/2-y,-z
1/2+x,1/2-y,z
loop_
_atom_site_type_symbol
_atom_site_label
_atom_site_fract_x
_atom_site_fract_y
_atom_site_fract_z
Si Si1 0.428626 0.326788 0.638684
Si Si2 0.540528 0.169965 0.936778
Si Si3 0.033494 0.173294 0.269111
Si Si4 0.663754 0.172951 0.559198
Si Si5 0.800316 0.825466 0.856901
Si Si6 0.700347 0.828109 0.652660
Si Si7 0.348730 0.673827 0.942544
O O1 0.449749 0.500000 0.624388
O O2 0.416381 0.289323 0.695691
O O3 0.537503 0.239159 0.587358
O O4 0.314823 0.272509 0.645247
O O5 0.669333 0.226223 0.891645
O O6 0.471234 0.280668 0.925568
O O7 0.523500 0.000000 0.926711
O O8 0.500000 0.190005 0.000000
O O9 0.123633 0.240194 0.206404
O O10 0.910189 0.245285 0.295186
O O11 0.016918 0.000000 0.267715
O O12 0.750000 0.250000 0.500000
O O13 0.710363 0.206196 0.596195
O O14 0.658927 0.000000 0.550500
O O15 0.847909 0.769029 0.891082
O O16 0.805385 0.000000 0.853159
O O17 0.681780 0.000000 0.667336
O O18 0.328058 0.500000 0.951500
O O19 0.250000 0.750000 0.000000
#
# Coordination Sequence:
#
# PCOD8092441 Si02
#       7
#     8   8   8   8   8   8   8
#     4   9  18  34  55  76 101 136 176 213 257 308
#     4  10  19  35  55  75 101 136 169 208 263 317
#     4   9  18  34  55  76  99 134 175 214 256 312
#     4  10  20  34  52  77 110 142 174 212 256 301
#     4   9  19  35  53  74 105 137 167 209 266 317
#     4   9  19  35  54  77 106 138 170 217 266 300
#     4  11  21  35  53  75 102 134 171 210 256 312
#
# _framework density 18.066092000000001
#
# number of rings (size 3 to 8) (size 9 to 14) (size 15 to 20)
#    0.000    2.429    1.429    0.857    0.000    3.143 
#    0.000    6.429    0.000    0.000    0.000    0.000 
#    0.000    0.000    0.000    0.000    0.000    0.000 
#
# Total GULP energy -347200.098701 kJ/mol
# GULP energy per Si atom -12400.003525 kJ/mol
# Density = 1.802497 g / cm^3
# Si number density = 18.066092 Si / 1000 Ang^3
#
#
#
# Elastic Constant Matrix: (Units=GPa)
#
#
# Indices 1 2 3 4 5 6 
#
# 1 156.6426 43.7136 78.3431 0.0000 -15.6702 0.0000
# 2 43.7136 49.7871 49.9412 0.0000 -5.7145 0.0001
# 3 78.3431 49.9412 165.8866 0.0000 -18.4814 0.0000
# 4 0.0000 0.0000 0.0000 21.2349 0.0000 -4.9643
# 5 -15.6702 -5.7145 -18.4814 0.0000 23.5253 0.0000
# 6 0.0000 0.0001 0.0000 -4.9643 0.0000 32.3023
#
#
#
# Elastic Compliance Matrix: (Units=1/GPa)
#
#
# Indices 1 2 3 4 5 6 
#
# 1 0.009452 -0.005461 -0.002483 0.000000 0.003018 0.000000
# 2 -0.005461 0.031932 -0.007206 0.000000 -0.001542 0.000000
# 3 -0.002483 -0.007206 0.009854 0.000000 0.004336 0.000000
# 4 0.000000 0.000000 0.000000 0.048847 0.000000 0.007507
# 5 0.003018 -0.001542 0.004336 0.000000 0.047550 0.000000
# 6 0.000000 0.000000 0.000000 0.007507 0.000000 0.032111
#
#
# Mechanical properties :
#
#
# Convention : Reuss Voigt Hill
#
# Bulk Modulus (GPa) = 47.76451 79.59024 63.67738
# Shear Modulus (GPa) = 23.03868 28.76704 25.90286
#
# Velocity S-wave (km/s) = 3.57493 3.99472 3.79064
# Velocity P-wave (km/s) = 6.59821 8.08874 7.38119
#
# Compressibility (1/GPa) = 0.02093605
#
# Stress axis : x y z
#
# Youngs Moduli (GPa) = 105.79673 31.31667 101.48636
#
# Poissons Ratio (x) = 0.17103 0.25204
# Poissons Ratio (y) = 0.57780 0.73129
# Poissons Ratio (z) = 0.26274 0.22566
#
# Static dielectric constant tensor:
#      x y z
#    x 3.479150 0.000000 0.000450 
#    y 0.000000 3.220070 0.000000 
#    z 0.000450 0.000000 3.530450 
# 
# 
# High freq. dielectric constant tensor:
#      x y z
#    x 1.707070 0.000000 -0.002930 
#    y 0.000000 1.684960 0.000000 
#    z -0.002930 0.000000 1.703420 
# 
# From -- ./inp_files/374942.got.cif
#   From: 2010.06.25/outbox.cif.g09.slc.cpg/sg12_188_cif.got.tgz:374942.got - 2010.06.28 00:19:55.
