data_PCOD8092028
_publ_section_title
;
Structure prediction by ZEFSAII (Michael W. Deem and Ramdas Pophale) SiO2 
 PCOD8092028
Probable space group: C 2/M
;
_chemical_formula_sum "Si O2"
_cell_formula_units_Z 40
_cell_length_a 28.798158
_cell_length_b 8.787664
_cell_length_c 7.735135
_cell_angle_alpha 90.000000
_cell_angle_beta 88.329050
_cell_angle_gamma 90.000000
_cell_volume 1956.686903
_symmetry_space_group_name_H-M "C 2/M"
_symmetry_group_IT_number 12
_symmetry_cell_setting 'monoclinic'
loop_
_space_group_symop_operation_xyz
x,y,z
-x,y,-z
-x,-y,-z
x,-y,z
1/2+x,1/2+y,z
1/2-x,1/2+y,-z
1/2-x,1/2-y,-z
1/2+x,1/2-y,z
loop_
_atom_site_type_symbol
_atom_site_label
_atom_site_fract_x
_atom_site_fract_y
_atom_site_fract_z
Si Si1 0.699877 0.179631 0.982947
Si Si2 0.351666 0.323792 0.328970
Si Si3 0.542574 0.177929 0.193967
Si Si4 0.141124 0.321713 0.318423
Si Si5 0.950565 0.176465 0.174496
O O1 0.667606 0.235317 0.144397
O O2 0.704081 0.000000 0.980200
O O3 0.750000 0.250000 0.000000
O O4 0.678073 0.232478 0.805964
O O5 0.339190 0.500000 0.310664
O O6 0.337787 0.267401 0.520973
O O7 0.406370 0.291780 0.298928
O O8 0.586630 0.218195 0.307579
O O9 0.497348 0.268843 0.268474
O O10 0.531555 0.000000 0.198943
O O11 0.554681 0.225335 0.997687
O O12 0.148890 0.500000 0.346294
O O13 0.954768 0.000000 0.123939
#
# Coordination Sequence:
#
# PCOD8092028 Si02
#       5
#     8   8   8   8   8
#     4  11  24  45  69  92 121 156 200 254 310 366
#     4  11  24  40  63  93 125 163 204 248 303 363
#     4  10  19  34  58  87 119 162 208 247 295 354
#     4  10  23  41  63  91 123 161 204 251 301 359
#     4  10  20  34  55  87 124 162 202 247 298 353
#
# _framework density 20.442719
#
# number of rings (size 3 to 8) (size 9 to 14) (size 15 to 20)
#    0.000    1.600    2.000    3.600    0.000    7.200 
#    0.000    4.000    0.000    0.000    0.000    0.000 
#    0.000    0.000    0.000    0.000    0.000    0.000 
#
# Total GULP energy -248060.456817 kJ/mol
# GULP energy per Si atom -12403.022841 kJ/mol
# Density = 2.039619 g / cm^3
# Si number density = 20.442719 Si / 1000 Ang^3
#
#
#
# Elastic Constant Matrix: (Units=GPa)
#
#
# Indices 1 2 3 4 5 6 
#
# 1 107.4011 48.0059 46.6766 0.0000 17.9077 0.0000
# 2 48.0059 63.9108 37.5654 0.0000 9.3260 0.0000
# 3 46.6766 37.5654 120.7304 0.0000 16.7964 0.0000
# 4 0.0000 0.0000 0.0000 29.2744 0.0000 3.2740
# 5 17.9077 9.3260 16.7964 0.0000 13.3062 0.0000
# 6 0.0000 0.0000 0.0000 3.2740 0.0000 36.3785
#
#
#
# Elastic Compliance Matrix: (Units=1/GPa)
#
#
# Indices 1 2 3 4 5 6 
#
# 1 0.016491 -0.009505 -0.001525 0.000000 -0.013607 0.000000
# 2 -0.009505 0.025206 -0.004233 0.000000 0.000469 0.000000
# 3 -0.001525 -0.004233 0.011513 0.000000 -0.009513 0.000000
# 4 0.000000 0.000000 0.000000 0.034507 0.000000 -0.003106
# 5 -0.013607 0.000469 -0.009513 0.000000 0.105145 0.000000
# 6 0.000000 0.000000 0.000000 -0.003106 0.000000 0.027768
#
#
# Mechanical properties :
#
#
# Convention : Reuss Voigt Hill
#
# Bulk Modulus (GPa) = 44.08537 61.83755 52.96146
# Shear Modulus (GPa) = 19.32600 26.44480 22.88540
#
# Velocity S-wave (km/s) = 3.07803 3.60057 3.34951
# Velocity P-wave (km/s) = 5.85188 6.89930 6.39706
#
# Compressibility (1/GPa) = 0.02268326
#
# Stress axis : x y z
#
# Youngs Moduli (GPa) = 60.63915 39.67278 86.85552
#
# Poissons Ratio (x) = 0.37709 0.13247
# Poissons Ratio (y) = 0.57638 0.36770
# Poissons Ratio (z) = 0.09249 0.16795
#
# Static dielectric constant tensor:
#      x y z
#    x 3.775190 0.000000 -0.056150 
#    y 0.000000 3.795200 0.000000 
#    z -0.056150 0.000000 3.512000 
# 
# 
# High freq. dielectric constant tensor:
#      x y z
#    x 1.803890 0.000000 0.004170 
#    y 0.000000 1.805610 0.000000 
#    z 0.004170 0.000000 1.792400 
# 
# From -- ./inp_files/101197.got.cif
#   From: 2010.06.25/outbox.cif.g09.slc.cpg/sg12_51_cif.got.tgz:101197.got - 2010.06.28 00:19:55.
