data_PCOD8092668
_publ_section_title
;
Structure prediction by ZEFSAII (Michael W. Deem and Ramdas Pophale) SiO2 
 PCOD8092668
Probable space group: C 2/M
;
_chemical_formula_sum "Si O2"
_cell_formula_units_Z 56
_cell_length_a 23.234047
_cell_length_b 9.138379
_cell_length_c 14.641942
_cell_angle_alpha 90.000000
_cell_angle_beta 71.218162
_cell_angle_gamma 90.000000
_cell_volume 2943.260162
_symmetry_space_group_name_H-M "C 2/M"
_symmetry_group_IT_number 12
_symmetry_cell_setting 'monoclinic'
loop_
_space_group_symop_operation_xyz
x,y,z
-x,y,-z
-x,-y,-z
x,-y,z
1/2+x,1/2+y,z
1/2-x,1/2+y,-z
1/2-x,1/2-y,-z
1/2+x,1/2-y,z
loop_
_atom_site_type_symbol
_atom_site_label
_atom_site_fract_x
_atom_site_fract_y
_atom_site_fract_z
Si Si1 0.439149 0.169002 0.914453
Si Si2 0.677622 0.668452 0.701555
Si Si3 0.597479 0.326598 0.239516
Si Si4 0.078126 0.668513 0.868587
Si Si5 0.505788 0.167538 0.601281
Si Si6 0.645635 0.832368 0.543488
Si Si7 0.813622 0.669198 0.675420
O O1 0.401102 0.270338 0.865334
O O2 0.510187 0.210923 0.873286
O O3 0.430781 0.000000 0.891098
O O4 0.413238 0.197639 0.028451
O O5 0.662946 0.500000 0.693031
O O6 0.625124 0.733933 0.790283
O O7 0.682307 0.741769 0.599818
O O8 0.741537 0.691387 0.719698
O O9 0.599712 0.500000 0.240002
O O10 0.535517 0.271575 0.317007
O O11 0.656345 0.264854 0.260821
O O12 0.091053 0.500000 0.838251
O O13 0.500000 0.218199 0.500000
O O14 0.574345 0.184976 0.600649
O O15 0.483308 0.000000 0.622948
O O16 0.661446 0.773341 0.434712
O O17 0.666726 0.000000 0.540115
O O18 0.832331 0.500000 0.678903
#
# Coordination Sequence:
#
# PCOD8092668 Si02
#       7
#     8   8   8   8   8   8   8
#     4   9  19  38  63  86 110 146 186 223 269 336
#     4  11  23  36  56  84 114 145 182 234 287 328
#     4  12  24  35  54  86 118 146 180 233 289 328
#     4   9  19  38  63  87 110 142 187 228 268 329
#     4  10  19  35  57  78 107 150 190 221 263 328
#     4  10  20  36  59  80 105 149 196 230 267 324
#     4  10  22  41  57  74 108 156 198 226 265 332
#
# _framework density 19.026520999999999
#
# number of rings (size 3 to 8) (size 9 to 14) (size 15 to 20)
#    0.000    1.857    1.429    3.857    0.000    7.143 
#    0.000    2.143    0.000    0.000    0.000    0.000 
#    0.000    0.000    0.000    0.000    0.000    0.000 
#
# Total GULP energy -347320.697525 kJ/mol
# GULP energy per Si atom -12404.310626 kJ/mol
# Density = 1.898322 g / cm^3
# Si number density = 19.026521 Si / 1000 Ang^3
#
#
#
# Elastic Constant Matrix: (Units=GPa)
#
#
# Indices 1 2 3 4 5 6 
#
# 1 77.9676 48.6278 38.6503 0.0000 14.3402 0.0000
# 2 48.6278 102.3573 48.4211 0.0000 16.6038 0.0000
# 3 38.6503 48.4211 81.6375 0.0000 19.2122 0.0000
# 4 0.0000 0.0000 0.0000 18.3589 0.0000 3.1165
# 5 14.3402 16.6038 19.2122 0.0000 30.7808 0.0000
# 6 0.0000 0.0000 0.0000 3.1165 0.0000 30.8305
#
#
#
# Elastic Compliance Matrix: (Units=1/GPa)
#
#
# Indices 1 2 3 4 5 6 
#
# 1 0.019903 -0.006761 -0.004793 0.000000 -0.002634 0.000000
# 2 -0.006761 0.016070 -0.005898 0.000000 -0.001837 0.000000
# 3 -0.004793 -0.005898 0.019625 0.000000 -0.006835 0.000000
# 4 0.000000 0.000000 0.000000 0.055420 0.000000 -0.005602
# 5 -0.002634 -0.001837 -0.006835 0.000000 0.038972 0.000000
# 6 0.000000 0.000000 0.000000 -0.005602 0.000000 0.033002
#
#
# Mechanical properties :
#
#
# Convention : Reuss Voigt Hill
#
# Bulk Modulus (GPa) = 48.32304 59.26233 53.79269
# Shear Modulus (GPa) = 22.24256 24.41159 23.32708
#
# Velocity S-wave (km/s) = 3.42282 3.58583 3.50527
# Velocity P-wave (km/s) = 6.40888 6.95407 6.68703
#
# Compressibility (1/GPa) = 0.02069406
#
# Stress axis : x y z
#
# Youngs Moduli (GPa) = 50.24374 62.22820 50.95469
#
# Poissons Ratio (x) = 0.42072 0.24422
# Poissons Ratio (y) = 0.33969 0.30054
# Poissons Ratio (z) = 0.24082 0.36703
#
# Static dielectric constant tensor:
#      x y z
#    x 3.465250 0.000000 0.124490 
#    y 0.000000 3.353810 0.000000 
#    z 0.124490 0.000000 3.477740 
# 
# 
# High freq. dielectric constant tensor:
#      x y z
#    x 1.740510 0.000000 0.008770 
#    y 0.000000 1.728630 0.000000 
#    z 0.008770 0.000000 1.741040 
# 
# From -- ./inp_files/237492.got.cif
#   From: 2010.06.25/outbox.cif.g09.slc.cpg/sg12_119_cif.got.tgz:237492.got - 2010.06.28 00:19:55.
