data_PCOD8092817
_publ_section_title
;
Structure prediction by ZEFSAII (Michael W. Deem and Ramdas Pophale) SiO2 
 PCOD8092817
Probable space group: C 2/M
;
_chemical_formula_sum "Si O2"
_cell_formula_units_Z 64
_cell_length_a 18.598174
_cell_length_b 9.036268
_cell_length_c 32.038978
_cell_angle_alpha 90.000000
_cell_angle_beta 141.007518
_cell_angle_gamma 90.000000
_cell_volume 3387.969460
_symmetry_space_group_name_H-M "C 2/M"
_symmetry_group_IT_number 12
_symmetry_cell_setting 'monoclinic'
loop_
_space_group_symop_operation_xyz
x,y,z
-x,y,-z
-x,-y,-z
x,-y,z
1/2+x,1/2+y,z
1/2-x,1/2+y,-z
1/2-x,1/2-y,-z
1/2+x,1/2-y,z
loop_
_atom_site_type_symbol
_atom_site_label
_atom_site_fract_x
_atom_site_fract_y
_atom_site_fract_z
Si Si1 0.296409 0.829837 0.979975
Si Si2 0.157243 0.671399 0.312869
Si Si3 0.921870 0.170917 0.426414
Si Si4 0.560515 0.170389 0.106551
Si Si5 0.913780 0.330407 0.339035
Si Si6 0.646530 0.330447 0.224120
Si Si7 0.759366 0.824343 0.135568
Si Si8 0.477980 0.324504 0.285736
O O1 0.239876 0.764346 0.911892
O O2 0.263356 0.000000 0.971025
O O3 0.250000 0.750000 0.000000
O O4 0.431280 0.811015 0.033335
O O5 0.124596 0.500000 0.300423
O O6 0.291141 0.698861 0.379887
O O7 0.113403 0.734608 0.249224
O O8 0.095388 0.760105 0.321390
O O9 0.956719 0.270554 0.402845
O O10 0.000000 0.221825 0.500000
O O11 0.942739 0.000000 0.424162
O O12 0.573050 0.270583 0.152881
O O13 0.645851 0.229005 0.108980
O O14 0.589480 0.000000 0.130831
O O15 0.952186 0.500000 0.351701
O O16 0.778825 0.311996 0.273234
O O17 0.970967 0.231544 0.329610
O O18 0.613359 0.500000 0.218084
O O19 0.871335 0.764816 0.210084
O O20 0.758563 0.000000 0.133459
O O21 0.481629 0.500000 0.287304
#
# Coordination Sequence:
#
# PCOD8092817 Si02
#       8
#     8   8   8   8   8   8   8   8
#     4  10  22  38  55  78 107 142 184 234 286 341
#     4  10  21  36  56  83 117 147 181 230 276 325
#     4   9  19  38  63  87 113 150 190 226 271 329
#     4  10  19  35  58  79 102 141 190 231 277 334
#     4  10  20  35  56  85 117 148 184 229 276 326
#     4  10  20  34  54  81 111 144 183 228 276 332
#     4   9  19  36  57  78 104 142 187 229 275 331
#     4  11  21  35  57  84 115 150 187 231 281 335
#
# _framework density 18.890370999999998
#
# number of rings (size 3 to 8) (size 9 to 14) (size 15 to 20)
#    0.000    2.125    1.250    1.875    1.750    3.750 
#    0.000    1.875    0.000    1.500    0.000    0.000 
#    0.000    0.000    0.000    0.000    0.000    0.000 
#
# Total GULP energy -396877.719588 kJ/mol
# GULP energy per Si atom -12402.428737 kJ/mol
# Density = 1.884738 g / cm^3
# Si number density = 18.890371 Si / 1000 Ang^3
#
#
#
# Elastic Constant Matrix: (Units=GPa)
#
#
# Indices 1 2 3 4 5 6 
#
# 1 120.7882 55.3810 47.1730 0.0000 -15.1848 0.0000
# 2 55.3810 86.7472 41.7193 -0.0001 -11.0696 -0.0001
# 3 47.1730 41.7193 101.9661 0.0000 -23.0706 0.0000
# 4 0.0000 -0.0001 0.0000 24.5030 0.0000 -3.8315
# 5 -15.1848 -11.0696 -23.0706 0.0000 22.7154 0.0000
# 6 0.0000 -0.0001 0.0000 -3.8315 0.0000 35.5135
#
#
#
# Elastic Compliance Matrix: (Units=1/GPa)
#
#
# Indices 1 2 3 4 5 6 
#
# 1 0.012577 -0.006451 -0.002581 0.000000 0.002642 0.000000
# 2 -0.006451 0.017692 -0.004258 0.000000 -0.000015 0.000000
# 3 -0.002581 -0.004258 0.015429 0.000000 0.011870 0.000000
# 4 0.000000 0.000000 0.000000 0.041512 0.000000 0.004479
# 5 0.002642 -0.000015 0.011870 0.000000 0.057838 0.000000
# 6 0.000000 0.000000 0.000000 0.004479 0.000000 0.028642
#
#
# Mechanical properties :
#
#
# Convention : Reuss Voigt Hill
#
# Bulk Modulus (GPa) = 52.30595 66.44980 59.37787
# Shear Modulus (GPa) = 24.19662 27.56160 25.87911
#
# Velocity S-wave (km/s) = 3.58285 3.82387 3.70532
# Velocity P-wave (km/s) = 6.69814 7.39925 7.05740
#
# Compressibility (1/GPa) = 0.01911828
#
# Stress axis : x y z
#
# Youngs Moduli (GPa) = 79.51107 56.52378 64.81266
#
# Poissons Ratio (x) = 0.36462 0.16731
# Poissons Ratio (y) = 0.51290 0.27595
# Poissons Ratio (z) = 0.20525 0.24065
#
# Static dielectric constant tensor:
#      x y z
#    x 3.538110 0.000000 -0.058110 
#    y 0.000000 3.379490 0.000000 
#    z -0.058110 0.000000 3.437030 
# 
# 
# High freq. dielectric constant tensor:
#      x y z
#    x 1.739360 0.000000 -0.008420 
#    y 0.000000 1.724240 0.000000 
#    z -0.008420 0.000000 1.726580 
# 
# From -- ./inp_files/378302.got.cif
#   From: 2010.06.25/outbox.cif.g09.slc.cpg/sg12_190_cif.got.tgz:378302.got - 2010.06.28 00:19:55.
