data_PCOD8092442
_publ_section_title
;
Structure prediction by ZEFSAII (Michael W. Deem and Ramdas Pophale) SiO2 
 PCOD8092442
Probable space group: C 2/M
;
_chemical_formula_sum "Si O2"
_cell_formula_units_Z 40
_cell_length_a 14.650397
_cell_length_b 9.034812
_cell_length_c 20.130688
_cell_angle_alpha 90.000000
_cell_angle_beta 55.947755
_cell_angle_gamma 90.000000
_cell_volume 2207.669053
_symmetry_space_group_name_H-M "C 2/M"
_symmetry_group_IT_number 12
_symmetry_cell_setting 'monoclinic'
loop_
_space_group_symop_operation_xyz
x,y,z
-x,y,-z
-x,-y,-z
x,-y,z
1/2+x,1/2+y,z
1/2-x,1/2+y,-z
1/2-x,1/2-y,-z
1/2+x,1/2-y,z
loop_
_atom_site_type_symbol
_atom_site_label
_atom_site_fract_x
_atom_site_fract_y
_atom_site_fract_z
Si Si1 0.027827 0.675086 0.298789
Si Si2 0.217210 0.325265 0.581607
Si Si3 0.098243 0.826066 0.008376
Si Si4 0.652823 0.174368 0.119351
Si Si5 0.104058 0.671468 0.410540
O O1 0.032057 0.500000 0.295074
O O2 0.097021 0.739230 0.208773
O O3 0.078834 0.729478 0.347176
O O4 0.902486 0.730255 0.346374
O O5 0.220073 0.500000 0.569205
O O6 0.250000 0.250000 0.500000
O O7 0.298192 0.276267 0.606404
O O8 0.089907 0.748107 0.083111
O O9 0.085790 0.000000 0.025023
O O10 0.217575 0.785401 0.929001
O O11 0.000000 0.768965 0.000000
O O12 0.635933 0.000000 0.119151
O O13 0.140427 0.500000 0.397323
O O14 0.000000 0.696154 0.500000
#
# Coordination Sequence:
#
# PCOD8092442 Si02
#       5
#     8   8   8   8   8
#     4   9  19  35  53  73 105 141 173 210 259 314
#     4  11  21  35  53  75 101 135 179 222 262 306
#     4   9  18  33  54  79 106 133 165 211 260 306
#     4   9  18  34  54  76 103 139 173 205 254 312
#     4  10  19  35  55  75 101 138 175 214 264 314
#
# _framework density 18.118659000000001
#
# number of rings (size 3 to 8) (size 9 to 14) (size 15 to 20)
#    0.000    2.400    2.000    0.600    0.000    2.400 
#    0.000    5.000    0.000    0.000    0.000    0.000 
#    0.000    0.000    0.000    0.000    0.000    0.000 
#
# Total GULP energy -247987.961395 kJ/mol
# GULP energy per Si atom -12399.398070 kJ/mol
# Density = 1.807742 g / cm^3
# Si number density = 18.118659 Si / 1000 Ang^3
#
#
#
# Elastic Constant Matrix: (Units=GPa)
#
#
# Indices 1 2 3 4 5 6 
#
# 1 166.1433 38.8529 83.5597 0.0000 7.9946 0.0000
# 2 38.8529 37.1519 36.1939 0.0000 0.5026 0.0000
# 3 83.5597 36.1939 165.8369 0.0000 14.7409 0.0000
# 4 0.0000 0.0000 0.0000 20.0843 0.0000 2.5233
# 5 7.9946 0.5026 14.7409 0.0000 27.3920 0.0000
# 6 0.0000 0.0000 0.0000 2.5233 0.0000 33.0786
#
#
#
# Elastic Compliance Matrix: (Units=1/GPa)
#
#
# Indices 1 2 3 4 5 6 
#
# 1 0.009151 -0.006531 -0.003108 0.000000 -0.000879 0.000000
# 2 -0.006531 0.039179 -0.005635 0.000000 0.004220 0.000000
# 3 -0.003108 -0.005635 0.009175 0.000000 -0.003927 0.000000
# 4 0.000000 0.000000 0.000000 0.050272 0.000000 -0.003835
# 5 -0.000879 0.004220 -0.003927 0.000000 0.038799 0.000000
# 6 0.000000 0.000000 0.000000 -0.003835 0.000000 0.030524
#
#
# Mechanical properties :
#
#
# Convention : Reuss Voigt Hill
#
# Bulk Modulus (GPa) = 37.09492 76.26056 56.67774
# Shear Modulus (GPa) = 23.08040 30.14604 26.61322
#
# Velocity S-wave (km/s) = 3.57297 4.08341 3.83669
# Velocity P-wave (km/s) = 6.12693 8.02578 7.13976
#
# Compressibility (1/GPa) = 0.02695787
#
# Stress axis : x y z
#
# Youngs Moduli (GPa) = 109.27289 25.52361 108.99448
#
# Poissons Ratio (x) = 0.16670 0.33871
# Poissons Ratio (y) = 0.71367 0.61421
# Poissons Ratio (z) = 0.33957 0.14383
#
# Static dielectric constant tensor:
#      x y z
#    x 3.407790 0.000000 0.005600 
#    y 0.000000 3.136420 0.000000 
#    z 0.005600 0.000000 3.603600 
# 
# 
# High freq. dielectric constant tensor:
#      x y z
#    x 1.712440 0.000000 0.001410 
#    y 0.000000 1.678830 0.000000 
#    z 0.001410 0.000000 1.705280 
# 
# From -- ./inp_files/211369.got.cif
#   From: 2010.06.25/outbox.cif.g09.slc.cpg/sg12_106_cif.got.tgz:211369.got - 2010.06.28 00:19:55.
