data_PCOD8092657
_publ_section_title
;
Structure prediction by ZEFSAII (Michael W. Deem and Ramdas Pophale) SiO2 
 PCOD8092657
Probable space group: C 2/M
;
_chemical_formula_sum "Si O2"
_cell_formula_units_Z 56
_cell_length_a 18.413364
_cell_length_b 13.610688
_cell_length_c 13.191238
_cell_angle_alpha 90.000000
_cell_angle_beta 103.131817
_cell_angle_gamma 90.000000
_cell_volume 3219.517735
_symmetry_space_group_name_H-M "C 2/M"
_symmetry_group_IT_number 12
_symmetry_cell_setting 'monoclinic'
loop_
_space_group_symop_operation_xyz
x,y,z
-x,y,-z
-x,-y,-z
x,-y,z
1/2+x,1/2+y,z
1/2-x,1/2+y,-z
1/2-x,1/2-y,-z
1/2+x,1/2-y,z
loop_
_atom_site_type_symbol
_atom_site_label
_atom_site_fract_x
_atom_site_fract_y
_atom_site_fract_z
Si Si1 0.339288 0.112042 0.562582
Si Si2 0.418501 0.112802 0.792034
Si Si3 0.268544 0.112036 0.069710
Si Si4 0.577050 0.888042 0.775215
Si Si5 0.919243 0.736862 0.424699
Si Si6 0.709786 0.199292 0.137166
Si Si7 0.200321 0.886193 0.648990
O O1 0.392269 0.143876 0.671799
O O2 0.360387 0.176347 0.472839
O O3 0.252841 0.126864 0.566568
O O4 0.354848 0.000000 0.536825
O O5 0.506748 0.130321 0.827320
O O6 0.376274 0.177532 0.862690
O O7 0.395434 0.000000 0.804741
O O8 0.351945 0.133261 0.133619
O O9 0.214156 0.184532 0.114329
O O10 0.243797 0.000000 0.082771
O O11 0.263917 0.134524 0.949497
O O12 0.572204 0.815893 0.679505
O O13 0.575617 0.000000 0.733853
O O14 0.881991 0.843798 0.398740
O O15 0.000000 0.749114 0.500000
O O16 0.763598 0.172340 0.246529
O O17 0.192632 0.000000 0.675762
#
# Coordination Sequence:
#
# PCOD8092657 Si02
#       7
#     8   8   8   8   8   8   8
#     4   9  18  32  52  75 101 133 172 211 254 308
#     4   9  17  31  52  78 105 137 171 206 250 310
#     4  10  20  34  55  84 106 129 168 213 258 305
#     4  10  20  33  50  79 112 131 165 214 260 307
#     4  12  21  32  52  76 104 139 170 209 263 304
#     4  10  19  35  57  78 103 139 167 207 261 305
#     4  10  21  37  53  73 100 137 180 214 248 303
#
# _framework density 17.393909000000001
#
# number of rings (size 3 to 8) (size 9 to 14) (size 15 to 20)
#    0.000    2.000    2.857    3.000    0.000    1.429 
#    0.000    2.143    0.000    0.857    0.000    2.000 
#    0.000    0.000    0.000    0.000    0.000    0.000 
#
# Total GULP energy -347207.706920 kJ/mol
# GULP energy per Si atom -12400.275247 kJ/mol
# Density = 1.735432 g / cm^3
# Si number density = 17.393909 Si / 1000 Ang^3
#
#
#
# Elastic Constant Matrix: (Units=GPa)
#
#
# Indices 1 2 3 4 5 6 
#
# 1 82.1333 42.9083 25.2668 0.0000 -7.8759 0.0000
# 2 42.9083 89.2805 33.2199 0.0000 -14.3887 0.0000
# 3 25.2668 33.2199 53.7298 0.0000 -7.3502 0.0000
# 4 0.0000 0.0000 0.0000 20.5645 0.0000 -1.2817
# 5 -7.8759 -14.3887 -7.3502 0.0000 24.6427 0.0000
# 6 0.0000 0.0000 0.0000 -1.2817 0.0000 31.2314
#
#
#
# Elastic Compliance Matrix: (Units=1/GPa)
#
#
# Indices 1 2 3 4 5 6 
#
# 1 0.016833 -0.006626 -0.003766 0.000000 0.000388 0.000000
# 2 -0.006626 0.018078 -0.007201 0.000000 0.006290 0.000000
# 3 -0.003766 -0.007201 0.025120 0.000000 0.002084 0.000000
# 4 0.000000 0.000000 0.000000 0.048752 0.000000 0.002001
# 5 0.000388 0.006290 0.002084 0.000000 0.044998 0.000000
# 6 0.000000 0.000000 0.000000 0.002001 0.000000 0.032101
#
#
# Mechanical properties :
#
#
# Convention : Reuss Voigt Hill
#
# Bulk Modulus (GPa) = 40.24952 47.54817 43.89885
# Shear Modulus (GPa) = 21.80075 23.53763 22.66919
#
# Velocity S-wave (km/s) = 3.54412 3.68259 3.61402
# Velocity P-wave (km/s) = 6.31965 6.74370 6.53511
#
# Compressibility (1/GPa) = 0.02484502
#
# Stress axis : x y z
#
# Youngs Moduli (GPa) = 59.40843 55.31507 39.80914
#
# Poissons Ratio (x) = 0.36652 0.14992
# Poissons Ratio (y) = 0.39365 0.28666
# Poissons Ratio (z) = 0.22372 0.39832
#
# Static dielectric constant tensor:
#      x y z
#    x 3.299530 0.000000 -0.018910 
#    y 0.000000 3.210980 0.000000 
#    z -0.018910 0.000000 3.132700 
# 
# 
# High freq. dielectric constant tensor:
#      x y z
#    x 1.668170 0.000000 -0.004400 
#    y 0.000000 1.662060 0.000000 
#    z -0.004400 0.000000 1.668570 
# 
# From -- ./inp_files/156157.got.cif
#   From: 2010.06.25/outbox.cif.g09.slc.cpg/sg12_79_cif.got.tgz:156157.got - 2010.06.28 00:19:55.
