data_PCOD8092848
_publ_section_title
;
Structure prediction by ZEFSAII (Michael W. Deem and Ramdas Pophale) SiO2 
 PCOD8092848
Probable space group: C 2/M
;
_chemical_formula_sum "Si O2"
_cell_formula_units_Z 56
_cell_length_a 19.572674
_cell_length_b 9.060995
_cell_length_c 29.461143
_cell_angle_alpha 90.000000
_cell_angle_beta 146.458879
_cell_angle_gamma 90.000000
_cell_volume 2886.926258
_symmetry_space_group_name_H-M "C 2/M"
_symmetry_group_IT_number 12
_symmetry_cell_setting 'monoclinic'
loop_
_space_group_symop_operation_xyz
x,y,z
-x,y,-z
-x,-y,-z
x,-y,z
1/2+x,1/2+y,z
1/2-x,1/2+y,-z
1/2-x,1/2-y,-z
1/2+x,1/2-y,z
loop_
_atom_site_type_symbol
_atom_site_label
_atom_site_fract_x
_atom_site_fract_y
_atom_site_fract_z
Si Si1 0.855342 0.824612 0.140298
Si Si2 0.688475 0.174503 0.563121
Si Si3 0.044690 0.174969 0.320419
Si Si4 0.994303 0.675015 0.139044
Si Si5 0.003836 0.168760 0.606651
Si Si6 0.737582 0.667998 0.680188
Si Si7 0.423569 0.174755 0.000404
O O1 0.950123 0.762677 0.230600
O O2 0.888505 0.751577 0.110507
O O3 0.863639 0.000000 0.139008
O O4 0.719134 0.774390 0.080569
O O5 0.817905 0.231222 0.614278
O O6 0.576848 0.236643 0.472266
O O7 0.678153 0.231438 0.608543
O O8 0.679418 0.000000 0.558390
O O9 0.008673 0.235775 0.349934
O O10 0.036415 0.000000 0.315208
O O11 0.977286 0.500000 0.132863
O O12 0.128254 0.726892 0.230952
O O13 0.981881 0.729403 0.080217
O O14 0.147956 0.178925 0.673866
O O15 0.956571 0.000000 0.578544
O O16 0.745788 0.500000 0.667046
O O17 0.431569 0.000000 0.002143
O O18 0.500000 0.242789 0.000000
#
# Coordination Sequence:
#
# PCOD8092848 Si02
#       7
#     8   8   8   8   8   8   8
#     4  10  19  35  58  81 109 145 179 215 263 318
#     4  11  21  36  55  78 107 139 179 223 269 322
#     4   9  19  34  54  79 105 139 180 219 263 316
#     4  10  20  35  55  82 111 141 179 220 262 312
#     4  10  21  36  54  76 105 141 181 224 270 315
#     4  10  21  35  54  78 107 142 179 222 267 313
#     4   9  19  33  56  88 114 137 174 223 266 308
#
# _framework density 19.397793
#
# number of rings (size 3 to 8) (size 9 to 14) (size 15 to 20)
#    0.000    2.143    1.429    1.714    2.000    2.286 
#    0.000    1.429    0.000    1.714    0.000    0.000 
#    0.000    0.000    0.000    0.000    0.000    0.000 
#
# Total GULP energy -347248.300437 kJ/mol
# GULP energy per Si atom -12401.725016 kJ/mol
# Density = 1.935364 g / cm^3
# Si number density = 19.397793 Si / 1000 Ang^3
#
#
#
# Elastic Constant Matrix: (Units=GPa)
#
#
# Indices 1 2 3 4 5 6 
#
# 1 148.1556 26.2009 54.3792 0.0000 -3.7638 0.0001
# 2 26.2009 36.8834 23.3237 -0.0001 -1.0922 0.0003
# 3 54.3792 23.3237 109.6715 0.0000 -1.6238 0.0000
# 4 0.0000 -0.0001 0.0000 11.5119 0.0000 1.9199
# 5 -3.7638 -1.0922 -1.6238 0.0000 33.7923 0.0000
# 6 0.0001 0.0003 0.0000 1.9199 0.0000 25.0393
#
#
#
# Elastic Compliance Matrix: (Units=1/GPa)
#
#
# Indices 1 2 3 4 5 6 
#
# 1 0.008750 -0.003996 -0.003479 0.000000 0.000678 0.000000
# 2 -0.003996 0.033166 -0.005066 0.000000 0.000383 0.000000
# 3 -0.003479 -0.005066 0.011921 0.000000 0.000022 0.000000
# 4 0.000000 0.000000 0.000000 0.087991 0.000000 -0.006747
# 5 0.000678 0.000383 0.000022 0.000000 0.029682 0.000000
# 6 0.000000 0.000000 0.000000 -0.006747 0.000000 0.040455
#
#
# Mechanical properties :
#
#
# Convention : Reuss Voigt Hill
#
# Bulk Modulus (GPa) = 34.77659 55.83536 45.30597
# Shear Modulus (GPa) = 20.27304 26.78914 23.53109
#
# Velocity S-wave (km/s) = 3.23634 3.72027 3.48671
# Velocity P-wave (km/s) = 5.65086 6.87755 6.29416
#
# Compressibility (1/GPa) = 0.02875497
#
# Stress axis : x y z
#
# Youngs Moduli (GPa) = 114.27919 30.15107 83.88621
#
# Poissons Ratio (x) = 0.12049 0.29184
# Poissons Ratio (y) = 0.45667 0.42500
# Poissons Ratio (z) = 0.39757 0.15276
#
# Static dielectric constant tensor:
#      x y z
#    x 3.785690 0.000000 -0.021410 
#    y 0.000000 3.155130 0.000000 
#    z -0.021410 0.000000 3.682230 
# 
# 
# High freq. dielectric constant tensor:
#      x y z
#    x 1.769860 0.000000 0.001800 
#    y 0.000000 1.714800 0.000000 
#    z 0.001800 0.000000 1.764830 
# 
# From -- ./inp_files/275281.got.cif
#   From: 2010.06.25/outbox.cif.g09.slc.cpg/sg12_138_cif.got.tgz:275281.got - 2010.06.28 00:19:55.
