data_PCOD8092661
_publ_section_title
;
Structure prediction by ZEFSAII (Michael W. Deem and Ramdas Pophale) SiO2 
 PCOD8092661
Probable space group: C 2/M
;
_chemical_formula_sum "Si O2"
_cell_formula_units_Z 40
_cell_length_a 26.975848
_cell_length_b 8.563430
_cell_length_c 11.422798
_cell_angle_alpha 90.000000
_cell_angle_beta 126.804472
_cell_angle_gamma 90.000000
_cell_volume 2112.792458
_symmetry_space_group_name_H-M "C 2/M"
_symmetry_group_IT_number 12
_symmetry_cell_setting 'monoclinic'
loop_
_space_group_symop_operation_xyz
x,y,z
-x,y,-z
-x,-y,-z
x,-y,z
1/2+x,1/2+y,z
1/2-x,1/2+y,-z
1/2-x,1/2-y,-z
1/2+x,1/2-y,z
loop_
_atom_site_type_symbol
_atom_site_label
_atom_site_fract_x
_atom_site_fract_y
_atom_site_fract_z
Si Si1 0.667832 0.179261 0.275813
Si Si2 0.973558 0.319331 0.295088
Si Si3 0.445822 0.318983 0.010333
Si Si4 0.307544 0.319543 0.446323
Si Si5 0.911939 0.819134 0.420258
O O1 0.667145 0.213638 0.412893
O O2 0.735672 0.215575 0.319113
O O3 0.648711 0.000000 0.229166
O O4 0.620140 0.290503 0.142594
O O5 0.990817 0.500000 0.328669
O O6 0.949322 0.281514 0.132426
O O7 0.919758 0.280378 0.312966
O O8 0.034438 0.219160 0.410225
O O9 0.453048 0.500000 0.052295
O O10 0.500000 0.263546 0.000000
O O11 0.317210 0.500000 0.496058
O O12 0.345763 0.277817 0.383701
O O13 0.916225 0.000000 0.392877
#
# Coordination Sequence:
#
# PCOD8092661 Si02
#       5
#     8   8   8   8   8
#     4  10  20  34  54  81 109 136 173 218 260 305
#     4  11  22  35  53  80 109 135 173 220 262 305
#     4  11  23  38  55  76 105 140 175 212 260 315
#     4   9  19  35  55  79 107 140 175 212 256 309
#     4  10  19  35  57  78 105 141 177 211 255 310
#
# _framework density 18.932290999999999
#
# number of rings (size 3 to 8) (size 9 to 14) (size 15 to 20)
#    0.000    1.800    0.000    6.000    0.000    8.800 
#    0.000    1.000    0.000    0.000    0.000    0.000 
#    0.000    0.000    0.000    0.000    0.000    0.000 
#
# Total GULP energy -248093.233151 kJ/mol
# GULP energy per Si atom -12404.661658 kJ/mol
# Density = 1.888920 g / cm^3
# Si number density = 18.932291 Si / 1000 Ang^3
#
#
#
# Elastic Constant Matrix: (Units=GPa)
#
#
# Indices 1 2 3 4 5 6 
#
# 1 140.1356 31.3601 50.4595 0.0000 -1.3320 0.0000
# 2 31.3601 55.2093 17.5660 0.0000 -4.1950 0.0000
# 3 50.4595 17.5660 85.7811 0.0000 -2.2373 0.0000
# 4 0.0000 0.0000 0.0000 28.4788 0.0000 -6.8941
# 5 -1.3320 -4.1950 -2.2373 0.0000 19.1698 0.0000
# 6 0.0000 0.0000 0.0000 -6.8941 0.0000 19.6417
#
#
#
# Elastic Compliance Matrix: (Units=1/GPa)
#
#
# Indices 1 2 3 4 5 6 
#
# 1 0.009826 -0.004060 -0.004969 0.000000 -0.000786 0.000000
# 2 -0.004060 0.021331 -0.001871 0.000000 0.004167 0.000000
# 3 -0.004969 -0.001871 0.014990 0.000000 0.000995 0.000000
# 4 0.000000 0.000000 0.000000 0.038374 0.000000 0.013469
# 5 -0.000786 0.004167 0.000995 0.000000 0.053139 0.000000
# 6 0.000000 0.000000 0.000000 0.013469 0.000000 0.055640
#
#
# Mechanical properties :
#
#
# Convention : Reuss Voigt Hill
#
# Bulk Modulus (GPa) = 41.07421 53.32192 47.19807
# Shear Modulus (GPa) = 22.39972 25.57408 23.98690
#
# Velocity S-wave (km/s) = 3.44343 3.67933 3.56333
# Velocity P-wave (km/s) = 6.12797 6.80262 6.47409
#
# Compressibility (1/GPa) = 0.02434618
#
# Stress axis : x y z
#
# Youngs Moduli (GPa) = 101.76641 46.87973 66.71206
#
# Poissons Ratio (x) = 0.19034 0.33151
# Poissons Ratio (y) = 0.41320 0.12482
# Poissons Ratio (z) = 0.50571 0.08772
#
# Static dielectric constant tensor:
#      x y z
#    x 3.659280 0.000000 0.025080 
#    y 0.000000 3.471730 0.000000 
#    z 0.025080 0.000000 3.194930 
# 
# 
# High freq. dielectric constant tensor:
#      x y z
#    x 1.745000 0.000000 -0.000090 
#    y 0.000000 1.744850 0.000000 
#    z -0.000090 0.000000 1.715240 
# 
# From -- ./inp_files/162638.got.cif
#   From: 2010.06.25/outbox.cif.g09.slc.cpg/sg12_82_cif.got.tgz:162638.got - 2010.06.28 00:19:55.
