data_PCOD8092489
_publ_section_title
;
Structure prediction by ZEFSAII (Michael W. Deem and Ramdas Pophale) SiO2 
 PCOD8092489
Probable space group: C 2/M
;
_chemical_formula_sum "Si O2"
_cell_formula_units_Z 52
_cell_length_a 22.569197
_cell_length_b 13.333290
_cell_length_c 22.478931
_cell_angle_alpha 90.000000
_cell_angle_beta 154.534160
_cell_angle_gamma 90.000000
_cell_volume 2908.507351
_symmetry_space_group_name_H-M "C 2/M"
_symmetry_group_IT_number 12
_symmetry_cell_setting 'monoclinic'
loop_
_space_group_symop_operation_xyz
x,y,z
-x,y,-z
-x,-y,-z
x,-y,z
1/2+x,1/2+y,z
1/2-x,1/2+y,-z
1/2-x,1/2-y,-z
1/2+x,1/2-y,z
loop_
_atom_site_type_symbol
_atom_site_label
_atom_site_fract_x
_atom_site_fract_y
_atom_site_fract_z
Si Si1 0.317143 0.616671 0.110209
Si Si2 0.006860 0.111279 0.939661
Si Si3 0.500000 0.748989 0.500000
Si Si4 0.007306 0.884392 0.393926
Si Si5 0.199809 0.389363 0.618002
Si Si6 0.937100 0.243336 0.115057
Si Si7 0.245896 0.263899 0.426400
O O1 0.301921 0.500000 0.082556
O O2 0.393011 0.637465 0.240772
O O3 0.409145 0.664355 0.141898
O O4 0.164824 0.662831 0.973827
O O5 0.856473 0.099326 0.777236
O O6 0.089383 0.187586 0.971992
O O7 0.077150 0.000000 0.004520
O O8 0.000000 0.156070 0.000000
O O9 0.537810 0.680092 0.590164
O O10 0.628637 0.820925 0.603341
O O11 0.159082 0.856929 0.507176
O O12 0.009903 0.000000 0.414973
O O13 0.130874 0.500000 0.551481
O O14 0.190176 0.337047 0.544669
O O15 0.092229 0.284850 0.262724
O O16 0.250000 0.250000 0.500000
#
# Coordination Sequence:
#
# PCOD8092489 Si02
#       7
#     8   8   4   8   8   8   8
#     4  10  21  36  55  79 106 142 176 216 270 315
#     4   9  18  32  52  78 104 136 173 208 258 316
#     4  10  20  34  56  76 106 136 178 222 262 320
#     4  10  21  36  56  78 105 141 180 219 265 318
#     4   9  19  33  52  78 107 137 169 216 266 313
#     4  10  20  35  58  76 110 137 176 222 260 316
#     4  10  19  35  55  80 105 141 180 216 265 314
#
# _framework density 17.878585999999999
#
# number of rings (size 3 to 8) (size 9 to 14) (size 15 to 20)
#    0.000    2.308    1.538    0.923    2.154    1.846 
#    0.000    0.000    0.000    0.462    0.000    0.000 
#    0.000    0.000    0.000    0.000    0.000    0.000 
#
# Total GULP energy -322393.530096 kJ/mol
# GULP energy per Si atom -12399.751158 kJ/mol
# Density = 1.783789 g / cm^3
# Si number density = 17.878586 Si / 1000 Ang^3
#
#
#
# Elastic Constant Matrix: (Units=GPa)
#
#
# Indices 1 2 3 4 5 6 
#
# 1 107.6769 54.2253 25.2732 0.0031 -9.0556 0.0025
# 2 54.2253 117.4231 40.9922 0.0021 -1.9923 0.0007
# 3 25.2732 40.9922 58.4561 0.0029 2.0221 0.0015
# 4 0.0031 0.0021 0.0029 5.8675 0.0018 -11.8197
# 5 -9.0556 -1.9923 2.0221 0.0018 31.3920 0.0015
# 6 0.0025 0.0007 0.0015 -11.8197 0.0015 12.0903
#
#
#
# Elastic Compliance Matrix: (Units=1/GPa)
#
#
# Indices 1 2 3 4 5 6 
#
# 1 0.012595 -0.005052 -0.002022 0.000010 0.003443 0.000008
# 2 -0.005052 0.013351 -0.007173 -0.000004 -0.000148 -0.000003
# 3 -0.002022 -0.007173 0.023098 0.000011 -0.002526 0.000009
# 4 0.000010 -0.000004 0.000011 -0.175819 0.000020 -0.171884
# 5 0.003443 -0.000148 -0.002526 0.000020 0.033002 0.000015
# 6 0.000008 -0.000003 0.000009 -0.171884 0.000015 -0.085326
#
#
# Mechanical properties :
#
#
# Convention : Reuss Voigt Hill
#
# Bulk Modulus (GPa) = 48.65986 58.28195 53.47091
# Shear Modulus (GPa) = -34.78156 20.74097 -7.02029
#
# Velocity S-wave (km/s) = -4.41549 3.40972 -1.98373
# Velocity P-wave (km/s) = 1.13161 6.94054 4.97251
#
# Compressibility (1/GPa) = 0.02055082
#
# Stress axis : x y z
#
# Youngs Moduli (GPa) = 79.39401 74.90173 43.29338
#
# Poissons Ratio (x) = 0.37842 0.08753
# Poissons Ratio (y) = 0.40112 0.31053
# Poissons Ratio (z) = 0.16051 0.53725
#
# Static dielectric constant tensor:
#      x y z
#    x 3.504260 -0.000010 -0.057710 
#    y -0.000010 3.513990 -0.000010 
#    z -0.057710 -0.000010 3.177290 
# 
# 
# High freq. dielectric constant tensor:
#      x y z
#    x 1.703990 0.000000 -0.004510 
#    y 0.000000 1.691940 0.000000 
#    z -0.004510 0.000000 1.681210 
# 
# From -- ./inp_files/321584.got.cif
#   From: 2010.06.25/outbox.cif.g09.slc.cpg/sg12_161_cif.got.tgz:321584.got - 2010.06.28 00:19:55.
