data_PCOD8092382
_publ_section_title
;
Structure prediction by ZEFSAII (Michael W. Deem and Ramdas Pophale) SiO2 
 PCOD8092382
Probable space group: C 2/M
;
_chemical_formula_sum "Si O2"
_cell_formula_units_Z 56
_cell_length_a 12.559432
_cell_length_b 20.835112
_cell_length_c 11.861071
_cell_angle_alpha 90.000000
_cell_angle_beta 118.560639
_cell_angle_gamma 90.000000
_cell_volume 2726.078591
_symmetry_space_group_name_H-M "C 2/M"
_symmetry_group_IT_number 12
_symmetry_cell_setting 'monoclinic'
loop_
_space_group_symop_operation_xyz
x,y,z
-x,y,-z
-x,-y,-z
x,-y,z
1/2+x,1/2+y,z
1/2-x,1/2+y,-z
1/2-x,1/2-y,-z
1/2+x,1/2-y,z
loop_
_atom_site_type_symbol
_atom_site_label
_atom_site_fract_x
_atom_site_fract_y
_atom_site_fract_z
Si Si1 0.710213 0.073207 0.789151
Si Si2 0.926309 0.427760 0.665381
Si Si3 0.788149 0.655720 0.426860
Si Si4 0.449259 0.242824 0.159487
Si Si5 0.105221 0.640107 0.127098
Si Si6 0.916725 0.217814 0.552151
Si Si7 0.228259 0.843249 0.990267
O O1 0.569428 0.078380 0.748726
O O2 0.745229 0.123593 0.709031
O O3 0.783831 0.092544 0.940173
O O4 0.744316 0.000000 0.772689
O O5 0.882005 0.500000 0.627223
O O6 0.885666 0.389807 0.534886
O O7 0.864064 0.399905 0.746123
O O8 0.840769 0.727791 0.445494
O O9 0.665613 0.661434 0.438199
O O10 0.553063 0.210861 0.133812
O O11 0.503970 0.248526 0.311242
O O12 0.328373 0.199570 0.106377
O O13 0.404626 0.310631 0.084710
O O14 0.227358 0.644670 0.115750
O O15 0.000000 0.605062 0.000000
O O16 0.000000 0.184220 0.500000
#
# Coordination Sequence:
#
# PCOD8092382 Si02
#       7
#     8   8   8   8   8   8   8
#     4  11  22  39  61  89 121 156 203 247 296 361
#     4  11  21  36  58  85 118 154 194 244 299 359
#     4  11  23  38  59  89 120 156 194 246 304 352
#     4  10  20  36  55  89 121 153 187 244 297 361
#     4  10  19  35  53  86 120 150 193 238 292 354
#     4  11  23  37  62  87 124 152 198 247 298 361
#     4  10  21  35  60  84 122 156 194 237 300 351
#
# _framework density 20.542328999999999
#
# number of rings (size 3 to 8) (size 9 to 14) (size 15 to 20)
#    0.000    1.429    4.286    2.571    2.000    6.571 
#    0.000    0.000    0.000    4.286    0.000    0.000 
#    0.000    0.000    0.000    0.000    0.000    0.000 
#
# Total GULP energy -347149.540231 kJ/mol
# GULP energy per Si atom -12398.197865 kJ/mol
# Density = 2.049557 g / cm^3
# Si number density = 20.542329 Si / 1000 Ang^3
#
#
#
# Elastic Constant Matrix: (Units=GPa)
#
#
# Indices 1 2 3 4 5 6 
#
# 1 67.2687 38.9514 28.9221 0.0000 -19.7947 0.0000
# 2 38.9514 92.9795 26.3882 0.0000 -16.5091 0.0000
# 3 28.9221 26.3882 72.1413 0.0000 -24.9499 0.0000
# 4 0.0000 0.0000 0.0000 28.4825 0.0000 1.1717
# 5 -19.7947 -16.5091 -24.9499 0.0000 28.8944 0.0000
# 6 0.0000 0.0000 0.0000 1.1717 0.0000 14.9264
#
#
#
# Elastic Compliance Matrix: (Units=1/GPa)
#
#
# Indices 1 2 3 4 5 6 
#
# 1 0.023088 -0.007102 -0.003695 0.000000 0.008569 0.000000
# 2 -0.007102 0.014586 -0.001837 0.000000 0.001882 0.000000
# 3 -0.003695 -0.001837 0.021068 0.000000 0.014611 0.000000
# 4 0.000000 0.000000 0.000000 0.035223 0.000000 -0.002765
# 5 0.008569 0.001882 0.014611 0.000000 0.054171 0.000000
# 6 0.000000 0.000000 0.000000 -0.002765 0.000000 0.067213
#
#
# Mechanical properties :
#
#
# Convention : Reuss Voigt Hill
#
# Bulk Modulus (GPa) = 29.87404 46.76809 38.32107
# Shear Modulus (GPa) = 19.85900 23.66919 21.76410
#
# Velocity S-wave (km/s) = 3.11261 3.39811 3.25849
# Velocity P-wave (km/s) = 5.24328 6.18161 5.73168
#
# Compressibility (1/GPa) = 0.03347388
#
# Stress axis : x y z
#
# Youngs Moduli (GPa) = 43.31198 68.55949 47.46487
#
# Poissons Ratio (x) = 0.48692 0.17538
# Poissons Ratio (y) = 0.30761 0.08720
# Poissons Ratio (z) = 0.16004 0.12595
#
# Static dielectric constant tensor:
#      x y z
#    x 3.559160 0.000000 -0.088400 
#    y 0.000000 3.678030 0.000000 
#    z -0.088400 0.000000 3.858130 
# 
# 
# High freq. dielectric constant tensor:
#      x y z
#    x 1.776920 0.000000 -0.015770 
#    y 0.000000 1.775260 0.000000 
#    z -0.015770 0.000000 1.814950 
# 
# From -- ./inp_files/133283.got.cif
#   From: 2010.06.25/outbox.cif.g09.slc.cpg/sg12_67_cif.got.tgz:133283.got - 2010.06.28 00:19:55.
