data_PCOD8092571
_publ_section_title
;
Structure prediction by ZEFSAII (Michael W. Deem and Ramdas Pophale) SiO2 
 PCOD8092571
Probable space group: C 2/M
;
_chemical_formula_sum "Si O2"
_cell_formula_units_Z 40
_cell_length_a 29.402470
_cell_length_b 14.327520
_cell_length_c 9.782503
_cell_angle_alpha 90.000000
_cell_angle_beta 157.151494
_cell_angle_gamma 90.000000
_cell_volume 1600.175509
_symmetry_space_group_name_H-M "C 2/M"
_symmetry_group_IT_number 12
_symmetry_cell_setting 'monoclinic'
loop_
_space_group_symop_operation_xyz
x,y,z
-x,y,-z
-x,-y,-z
x,-y,z
1/2+x,1/2+y,z
1/2-x,1/2+y,-z
1/2-x,1/2-y,-z
1/2+x,1/2-y,z
loop_
_atom_site_type_symbol
_atom_site_label
_atom_site_fract_x
_atom_site_fract_y
_atom_site_fract_z
Si Si1 0.200498 0.604592 0.395356
Si Si2 0.931800 0.101592 0.515807
Si Si3 0.230876 0.600006 0.176581
Si Si4 0.015523 0.272807 0.198154
Si Si5 0.221103 0.801893 0.121368
O O1 0.191484 0.500000 0.429485
O O2 0.269191 0.607308 0.441991
O O3 0.267061 0.669579 0.687673
O O4 0.067843 0.640148 0.000554
O O5 0.847626 0.095595 0.412485
O O6 0.019134 0.186713 0.795008
O O7 0.994136 0.000000 0.669195
O O8 0.863430 0.124744 0.186352
O O9 0.161329 0.500000 0.962173
O O10 0.164635 0.696764 0.954601
O O11 0.151171 0.303342 0.598400
O O12 0.000000 0.238673 0.000000
#
# Coordination Sequence:
#
# PCOD8092571 Si02
#       5
#     8   8   8   8   8
#     4  10  20  34  55  82 108 136 172 218 267 308
#     4  10  20  36  57  78 103 139 180 217 257 310
#     4   9  18  33  54  80 107 136 173 215 261 311
#     4   9  19  33  52  79 108 140 174 213 260 312
#     4  10  19  35  56  79 107 138 176 217 258 311
#
# _framework density 24.997257999999999
#
# number of rings (size 3 to 8) (size 9 to 14) (size 15 to 20)
#    0.000    2.400    0.000    3.600    0.000    4.800 
#    0.000    8.000    0.000   14.400    0.000    0.000 
#    0.000    0.000    0.000    0.000    0.000    0.000 
#
# Total GULP energy -247783.655621 kJ/mol
# GULP energy per Si atom -12389.182781 kJ/mol
# Density = 2.494036 g / cm^3
# Si number density = 24.997258 Si / 1000 Ang^3
#
#
#
# Elastic Constant Matrix: (Units=GPa)
#
#
# Indices 1 2 3 4 5 6 
#
# 1 53.4106 19.8280 10.1078 0.0000 -18.4164 0.0000
# 2 19.8280 186.7916 27.9275 0.0000 -1.1438 0.0000
# 3 10.1078 27.9275 57.9079 0.0000 -6.0357 0.0000
# 4 0.0000 0.0000 0.0000 -45.1135 0.0000 30.4408
# 5 -18.4164 -1.1438 -6.0357 0.0000 19.8268 0.0000
# 6 0.0000 0.0000 0.0000 30.4408 0.0000 3.5391
#
#
#
# Elastic Compliance Matrix: (Units=1/GPa)
#
#
# Indices 1 2 3 4 5 6 
#
# 1 0.029103 -0.002782 -0.000968 0.000000 0.026577 0.000000
# 2 -0.002782 0.006041 -0.002748 0.000000 -0.003072 0.000000
# 3 -0.000968 -0.002748 0.019264 0.000000 0.004807 0.000000
# 4 0.000000 0.000000 0.000000 -0.003258 0.000000 0.028022
# 5 0.026577 -0.003072 0.004807 0.000000 0.076410 0.000000
# 6 0.000000 0.000000 0.000000 0.028022 0.000000 0.041529
#
#
# Mechanical properties :
#
#
# Convention : Reuss Voigt Hill
#
# Bulk Modulus (GPa) = 24.14760 45.98185 35.06473
# Shear Modulus (GPa) = 25.52467 11.66694 18.59581
#
# Velocity S-wave (km/s) = 3.19893 2.16273 2.73044
# Velocity P-wave (km/s) = 4.82963 4.96702 4.89880
#
# Compressibility (1/GPa) = 0.04141197
#
# Stress axis : x y z
#
# Youngs Moduli (GPa) = 34.36081 165.53851 51.91015
#
# Poissons Ratio (x) = 0.46049 0.05026
# Poissons Ratio (y) = 0.09558 0.14265
# Poissons Ratio (z) = 0.03327 0.45490
#
# Static dielectric constant tensor:
#      x y z
#    x 4.585470 0.000000 -0.125110 
#    y 0.000000 5.619560 0.000000 
#    z -0.125110 0.000000 4.027240 
# 
# 
# High freq. dielectric constant tensor:
#      x y z
#    x 2.003340 0.000000 -0.021870 
#    y 0.000000 2.018220 0.000000 
#    z -0.021870 0.000000 1.947040 
# 
# From -- ./inp_files/58932.got.cif
#   From: 2010.06.25/outbox.cif.g09.slc.cpg/sg12_30_cif.got.tgz:58932.got - 2010.06.28 00:19:55.
