data_PCOD8092713
_publ_section_title
;
Structure prediction by ZEFSAII (Michael W. Deem and Ramdas Pophale) SiO2 
 PCOD8092713
Probable space group: C 2/M
;
_chemical_formula_sum "Si O2"
_cell_formula_units_Z 56
_cell_length_a 7.999633
_cell_length_b 30.094337
_cell_length_c 13.844584
_cell_angle_alpha 90.000000
_cell_angle_beta 125.006671
_cell_angle_gamma 90.000000
_cell_volume 2730.007642
_symmetry_space_group_name_H-M "C 2/M"
_symmetry_group_IT_number 12
_symmetry_cell_setting 'monoclinic'
loop_
_space_group_symop_operation_xyz
x,y,z
-x,y,-z
-x,-y,-z
x,-y,z
1/2+x,1/2+y,z
1/2-x,1/2+y,-z
1/2-x,1/2-y,-z
1/2+x,1/2-y,z
loop_
_atom_site_type_symbol
_atom_site_label
_atom_site_fract_x
_atom_site_fract_y
_atom_site_fract_z
Si Si1 0.764176 0.815604 0.441304
Si Si2 0.012084 0.389064 0.710139
Si Si3 0.326682 0.317103 0.163333
Si Si4 0.318726 0.951648 0.514274
Si Si5 0.316183 0.631339 0.637124
Si Si6 0.261727 0.655883 0.936909
Si Si7 0.026273 0.272089 0.216493
O O1 0.677369 0.855129 0.343971
O O2 0.728855 0.828607 0.541137
O O3 0.634188 0.773005 0.359450
O O4 0.000000 0.807670 0.500000
O O5 0.162606 0.373456 0.674229
O O6 0.139319 0.387253 0.852950
O O7 0.917063 0.436927 0.650585
O O8 0.456034 0.356917 0.253558
O O9 0.173650 0.293723 0.185703
O O10 0.480629 0.278834 0.175469
O O11 0.210022 0.338213 0.032893
O O12 0.500000 0.957142 0.500000
O O13 0.166406 0.913881 0.421932
O O14 0.210269 0.000000 0.491609
O O15 0.183313 0.699294 0.852278
O O16 0.500000 0.648686 0.000000
#
# Coordination Sequence:
#
# PCOD8092713 Si02
#       7
#     8   8   8   8   8   8   8
#     4  10  19  36  52  77 109 143 183 234 279 334
#     4   9  19  34  58  84 107 149 182 226 285 334
#     4  12  23  38  54  78 111 151 199 239 279 322
#     4   8  15  31  58  90 116 139 176 225 278 342
#     4  10  19  35  57  80 112 151 180 226 286 339
#     4  11  21  38  59  76 106 148 197 241 274 324
#     4  11  25  38  54  79 106 151 199 245 279 315
#
# _framework density 20.512763
#
# number of rings (size 3 to 8) (size 9 to 14) (size 15 to 20)
#    0.000    1.857    2.857    3.000    2.000    0.571 
#    0.000    0.000    0.000    8.143    0.000    0.000 
#    0.000    7.429    0.000    0.000    0.000    0.000 
#
# Total GULP energy -346890.752106 kJ/mol
# GULP energy per Si atom -12388.955432 kJ/mol
# Density = 2.046608 g / cm^3
# Si number density = 20.512763 Si / 1000 Ang^3
#
#
#
# Elastic Constant Matrix: (Units=GPa)
#
#
# Indices 1 2 3 4 5 6 
#
# 1 34.3695 15.4327 10.1647 0.0000 -0.6508 0.0000
# 2 15.4327 105.3869 52.6961 0.0000 0.2814 0.0000
# 3 10.1647 52.6961 151.3823 0.0000 -2.8767 0.0000
# 4 0.0000 0.0000 0.0000 19.7046 0.0000 2.6492
# 5 -0.6508 0.2814 -2.8767 0.0000 35.0943 0.0000
# 6 0.0000 0.0000 0.0000 2.6492 0.0000 7.6729
#
#
#
# Elastic Compliance Matrix: (Units=1/GPa)
#
#
# Indices 1 2 3 4 5 6 
#
# 1 0.031201 -0.004272 -0.000597 0.000000 0.000564 0.000000
# 2 -0.004272 0.012080 -0.003928 0.000000 -0.000498 0.000000
# 3 -0.000597 -0.003928 0.008026 0.000000 0.000678 0.000000
# 4 0.000000 0.000000 0.000000 0.053220 0.000000 -0.018375
# 5 0.000564 -0.000498 0.000678 0.000000 0.028565 0.000000
# 6 0.000000 0.000000 0.000000 -0.018375 0.000000 0.136673
#
#
# Mechanical properties :
#
#
# Convention : Reuss Voigt Hill
#
# Bulk Modulus (GPa) = 29.66192 49.74731 39.70462
# Shear Modulus (GPa) = 16.74504 26.68403 21.71454
#
# Velocity S-wave (km/s) = 2.86024 3.61064 3.25712
# Velocity P-wave (km/s) = 5.03980 6.45654 5.79165
#
# Compressibility (1/GPa) = 0.03371325
#
# Stress axis : x y z
#
# Youngs Moduli (GPa) = 32.05017 82.78417 124.59575
#
# Poissons Ratio (x) = 0.35365 0.07442
# Poissons Ratio (y) = 0.13691 0.48935
# Poissons Ratio (z) = 0.01914 0.32514
#
# Static dielectric constant tensor:
#      x y z
#    x 3.498200 0.000000 0.010800 
#    y 0.000000 3.910940 0.000000 
#    z 0.010800 0.000000 4.258150 
# 
# 
# High freq. dielectric constant tensor:
#      x y z
#    x 1.792430 0.000000 0.004000 
#    y 0.000000 1.754480 0.000000 
#    z 0.004000 0.000000 1.815640 
# 
# From -- ./inp_files/200985.got.cif
#   From: 2010.06.25/outbox.cif.g09.slc.cpg/sg12_101_cif.got.tgz:200985.got - 2010.06.28 00:19:55.
