data_PCOD8092796
_publ_section_title
;
Structure prediction by ZEFSAII (Michael W. Deem and Ramdas Pophale) SiO2 
 PCOD8092796
Probable space group: C 2/M
;
_chemical_formula_sum "Si O2"
_cell_formula_units_Z 64
_cell_length_a 27.202002
_cell_length_b 13.188911
_cell_length_c 14.833409
_cell_angle_alpha 90.000000
_cell_angle_beta 37.187439
_cell_angle_gamma 90.000000
_cell_volume 3216.568618
_symmetry_space_group_name_H-M "C 2/M"
_symmetry_group_IT_number 12
_symmetry_cell_setting 'monoclinic'
loop_
_space_group_symop_operation_xyz
x,y,z
-x,y,-z
-x,-y,-z
x,-y,z
1/2+x,1/2+y,z
1/2-x,1/2+y,-z
1/2-x,1/2-y,-z
1/2+x,1/2-y,z
loop_
_atom_site_type_symbol
_atom_site_label
_atom_site_fract_x
_atom_site_fract_y
_atom_site_fract_z
Si Si1 0.741624 0.778028 0.909561
Si Si2 0.911102 0.249655 0.623847
Si Si3 0.927062 0.693195 0.403834
Si Si4 0.146113 0.188103 0.731447
Si Si5 0.095300 0.615445 0.189156
Si Si6 0.313605 0.885086 0.420290
Si Si7 0.154732 0.117200 0.921120
Si Si8 0.971376 0.885273 0.237022
O O1 0.829888 0.821692 0.745759
O O2 0.720889 0.677124 0.882968
O O3 0.750000 0.750000 0.000000
O O4 0.668713 0.859313 0.011716
O O5 0.907399 0.315145 0.538106
O O6 0.902170 0.323913 0.721337
O O7 0.000000 0.192746 0.500000
O O8 0.856327 0.636399 0.453637
O O9 0.931949 0.811832 0.369294
O O10 0.012351 0.638843 0.256646
O O11 0.217902 0.131555 0.572951
O O12 0.151719 0.309477 0.706814
O O13 0.149198 0.167903 0.831913
O O14 0.062350 0.144420 0.812749
O O15 0.101334 0.500000 0.208026
O O16 0.330187 0.000000 0.364553
O O17 0.181561 0.000000 0.873486
O O18 0.068271 0.126788 0.096586
O O19 0.946966 0.000000 0.297642
#
# Coordination Sequence:
#
# PCOD8092796 Si02
#       8
#     8   8   8   8   8   8   8   8
#     4  10  21  38  57  84 118 147 187 240 296 350
#     4   9  20  35  58  82 112 148 189 243 291 341
#     4  10  19  35  57  85 116 151 193 245 288 348
#     4  10  21  35  55  85 120 151 196 245 286 342
#     4  10  20  36  57  82 114 153 193 237 294 352
#     4  10  20  34  54  82 119 158 189 232 292 349
#     4  11  21  36  61  86 111 149 197 245 291 342
#     4  10  20  35  58  84 115 153 193 241 296 346
#
# _framework density 19.896979999999999
#
# number of rings (size 3 to 8) (size 9 to 14) (size 15 to 20)
#    0.000    2.000    1.250    2.625    0.000    5.750 
#    0.000    1.250    0.000    6.000    0.000    0.000 
#    0.000    0.000    0.000    0.000    0.000    0.000 
#
# Total GULP energy -396651.382838 kJ/mol
# GULP energy per Si atom -12395.355714 kJ/mol
# Density = 1.985169 g / cm^3
# Si number density = 19.896980 Si / 1000 Ang^3
#
#
#
# Elastic Constant Matrix: (Units=GPa)
#
#
# Indices 1 2 3 4 5 6 
#
# 1 88.9955 16.9854 25.4875 0.0000 -4.0149 0.0000
# 2 16.9854 102.4404 23.5033 0.0000 1.7079 0.0000
# 3 25.4875 23.5033 91.9925 0.0000 -21.4867 0.0000
# 4 0.0000 0.0000 0.0000 16.3370 0.0000 -0.2445
# 5 -4.0149 1.7079 -21.4867 0.0000 31.6084 0.0000
# 6 0.0000 0.0000 0.0000 -0.2445 0.0000 16.9857
#
#
#
# Elastic Compliance Matrix: (Units=1/GPa)
#
#
# Indices 1 2 3 4 5 6 
#
# 1 0.012385 -0.001304 -0.003227 0.000000 -0.000550 0.000000
# 2 -0.001304 0.010721 -0.003033 0.000000 -0.002807 0.000000
# 3 -0.003227 -0.003033 0.014838 0.000000 0.009840 0.000000
# 4 0.000000 0.000000 0.000000 0.061224 0.000000 0.000881
# 5 -0.000550 -0.002807 0.009840 0.000000 0.038408 0.000000
# 6 0.000000 0.000000 0.000000 0.000881 0.000000 0.058886
#
#
# Mechanical properties :
#
#
# Convention : Reuss Voigt Hill
#
# Bulk Modulus (GPa) = 43.83012 46.15340 44.99176
# Shear Modulus (GPa) = 22.81084 27.48306 25.14695
#
# Velocity S-wave (km/s) = 3.38960 3.72057 3.55893
# Velocity P-wave (km/s) = 6.11519 6.45782 6.28884
#
# Compressibility (1/GPa) = 0.02281536
#
# Stress axis : x y z
#
# Youngs Moduli (GPa) = 80.74509 93.27712 67.39535
#
# Poissons Ratio (x) = 0.12164 0.21745
# Poissons Ratio (y) = 0.10529 0.20444
# Poissons Ratio (z) = 0.26053 0.28294
#
# Static dielectric constant tensor:
#      x y z
#    x 3.861810 0.000000 -0.456680 
#    y 0.000000 3.497390 0.000000 
#    z -0.456680 0.000000 4.136380 
# 
# 
# High freq. dielectric constant tensor:
#      x y z
#    x 1.790110 0.000000 -0.020420 
#    y 0.000000 1.747580 0.000000 
#    z -0.020420 0.000000 1.775370 
# 
# From -- ./inp_files/245925.got.cif
#   From: 2010.06.25/outbox.cif.g09.slc.cpg/sg12_123_cif.got.tgz:245925.got - 2010.06.28 00:19:55.
