data_PCOD8092038
_publ_section_title
;
Structure prediction by ZEFSAII (Michael W. Deem and Ramdas Pophale) SiO2 
 PCOD8092038
Probable space group: C 2/M
;
_chemical_formula_sum "Si O2"
_cell_formula_units_Z 64
_cell_length_a 10.057764
_cell_length_b 28.192808
_cell_length_c 15.629130
_cell_angle_alpha 90.000000
_cell_angle_beta 49.944693
_cell_angle_gamma 90.000000
_cell_volume 3392.160811
_symmetry_space_group_name_H-M "C 2/M"
_symmetry_group_IT_number 12
_symmetry_cell_setting 'monoclinic'
loop_
_space_group_symop_operation_xyz
x,y,z
-x,y,-z
-x,-y,-z
x,-y,z
1/2+x,1/2+y,z
1/2-x,1/2+y,-z
1/2-x,1/2-y,-z
1/2+x,1/2-y,z
loop_
_atom_site_type_symbol
_atom_site_label
_atom_site_fract_x
_atom_site_fract_y
_atom_site_fract_z
Si Si1 0.759115 0.552516 0.500000
Si Si2 0.372004 0.794031 0.282147
Si Si3 0.609719 0.553850 0.743403
Si Si4 0.219798 0.879935 0.128081
Si Si5 0.063701 0.794031 0.282147
Si Si6 0.150703 0.153089 0.500000
Si Si7 0.903476 0.446150 0.743403
Si Si8 0.475959 0.120065 0.871919
O O1 0.688640 0.500000 0.500000
O O2 0.740363 0.557803 0.609284
O O3 0.655772 0.595957 0.500000
O O4 0.958931 0.557803 0.390716
O O5 0.487115 0.750000 0.262885
O O6 0.323725 0.823498 0.388436
O O7 0.494310 0.826693 0.173066
O O8 0.201922 0.778049 0.298077
O O9 0.546606 0.500000 0.781712
O O10 0.440397 0.584843 0.800929
O O11 0.718718 0.570774 0.781282
O O12 0.358455 0.897074 0.141545
O O13 0.159557 0.826693 0.173066
O O14 0.301703 0.880539 0.000000
O O15 0.899402 0.823498 0.388436
O O16 0.000000 0.168204 0.500000
O O17 0.889969 0.500000 0.781712
O O18 0.957745 0.415157 0.800929
#
# Coordination Sequence:
#
# PCOD8092038 Si02
#       8
#     8   8   8   8   8   8   8   8
#     4  10  19  34  58  88 119 150 184 226 281 341
#     4  10  21  38  58  83 114 146 186 235 288 341
#     4  10  21  37  58  86 119 152 187 231 282 338
#     4  10  22  40  60  82 112 151 194 240 285 331
#     4  10  21  38  58  83 114 146 186 235 288 341
#     4  10  19  35  57  85 118 149 184 231 282 340
#     4  10  21  37  58  86 119 152 187 231 282 338
#     4  10  22  40  60  82 112 151 194 240 285 331
#
# _framework density 18.867031000000001
#
# number of rings (size 3 to 8) (size 9 to 14) (size 15 to 20)
#    0.000    2.000    2.500    0.750    0.000    4.750 
#    0.000    5.000    0.000    0.000    0.000    0.000 
#    0.000    0.000    0.000    0.000    0.000    0.000 
#
# Total GULP energy -396667.862913 kJ/mol
# GULP energy per Si atom -12395.870716 kJ/mol
# Density = 1.882409 g / cm^3
# Si number density = 18.867031 Si / 1000 Ang^3
#
#
#
# Elastic Constant Matrix: (Units=GPa)
#
#
# Indices 1 2 3 4 5 6 
#
# 1 93.7692 69.8629 50.3305 0.0000 -0.4622 0.0000
# 2 69.8629 117.0110 50.6526 0.0000 -0.5559 0.0000
# 3 50.3305 50.6526 113.6956 0.0000 1.0389 0.0000
# 4 0.0000 0.0000 0.0000 16.2954 0.0000 -0.5637
# 5 -0.4622 -0.5559 1.0389 0.0000 13.7783 0.0000
# 6 0.0000 0.0000 0.0000 -0.5637 0.0000 35.7755
#
#
#
# Elastic Compliance Matrix: (Units=1/GPa)
#
#
# Indices 1 2 3 4 5 6 
#
# 1 0.020988 -0.010535 -0.004603 0.000000 0.000626 0.000000
# 2 -0.010535 0.015885 -0.002418 0.000000 0.000470 0.000000
# 3 -0.004603 -0.002418 0.011921 0.000000 -0.001151 0.000000
# 4 0.000000 0.000000 0.000000 0.061400 0.000000 0.000968
# 5 0.000626 0.000470 -0.001151 0.000000 0.072704 0.000000
# 6 0.000000 0.000000 0.000000 0.000968 0.000000 0.027967
#
#
# Mechanical properties :
#
#
# Convention : Reuss Voigt Hill
#
# Bulk Modulus (GPa) = 73.08974 74.01865 73.55420
# Shear Modulus (GPa) = 19.95708 23.41184 21.68446
#
# Velocity S-wave (km/s) = 3.25587 3.52644 3.39386
# Velocity P-wave (km/s) = 7.27721 7.47650 7.37753
#
# Compressibility (1/GPa) = 0.01368181
#
# Stress axis : x y z
#
# Youngs Moduli (GPa) = 47.64730 62.95134 83.88892
#
# Poissons Ratio (x) = 0.66322 0.38612
# Poissons Ratio (y) = 0.50198 0.20281
# Poissons Ratio (z) = 0.21931 0.15219
#
# Static dielectric constant tensor:
#      x y z
#    x 3.279410 0.000000 0.011620 
#    y 0.000000 3.376080 0.000000 
#    z 0.011620 0.000000 3.680840 
# 
# 
# High freq. dielectric constant tensor:
#      x y z
#    x 1.719310 0.000000 0.000560 
#    y 0.000000 1.731180 0.000000 
#    z 0.000560 0.000000 1.738600 
# 
# From -- ./inp_files/201265.got.cif
#   From: 2010.06.25/outbox.cif.g09.slc.cpg/sg12_101_cif.got.tgz:201265.got - 2010.06.28 00:19:55.
