data_PCOD8092268
_publ_section_title
;
Structure prediction by ZEFSAII (Michael W. Deem and Ramdas Pophale) SiO2 
 PCOD8092268
Probable space group: C 2/M
;
_chemical_formula_sum "Si O2"
_cell_formula_units_Z 64
_cell_length_a 23.840040
_cell_length_b 8.943006
_cell_length_c 28.297567
_cell_angle_alpha 90.000000
_cell_angle_beta 146.837410
_cell_angle_gamma 90.000000
_cell_volume 3300.199786
_symmetry_space_group_name_H-M "C 2/M"
_symmetry_group_IT_number 12
_symmetry_cell_setting 'monoclinic'
loop_
_space_group_symop_operation_xyz
x,y,z
-x,y,-z
-x,-y,-z
x,-y,z
1/2+x,1/2+y,z
1/2-x,1/2+y,-z
1/2-x,1/2-y,-z
1/2+x,1/2-y,z
loop_
_atom_site_type_symbol
_atom_site_label
_atom_site_fract_x
_atom_site_fract_y
_atom_site_fract_z
Si Si1 0.094883 0.678086 0.597143
Si Si2 0.898633 0.826180 0.901375
Si Si3 0.469439 0.673593 0.846995
Si Si4 0.270379 0.676269 0.654791
Si Si5 0.812633 0.676934 0.502739
Si Si6 0.548589 0.823363 0.668570
Si Si7 0.685218 0.823469 0.995659
Si Si8 0.770367 0.823328 0.156809
O O1 0.090305 0.500000 0.594956
O O2 0.198692 0.739564 0.646295
O O3 0.088240 0.736678 0.645931
O O4 0.000000 0.740968 0.500000
O O5 0.913651 0.791444 0.856989
O O6 0.802518 0.734634 0.852811
O O7 0.875947 0.000000 0.894632
O O8 0.000000 0.772877 0.000000
O O9 0.502469 0.500000 0.868082
O O10 0.388741 0.715773 0.748817
O O11 0.567559 0.775489 0.908274
O O12 0.254029 0.500000 0.642307
O O13 0.234152 0.742112 0.579086
O O14 0.800189 0.500000 0.496027
O O15 0.750000 0.750000 0.500000
O O16 0.930728 0.724280 0.591312
O O17 0.615785 0.743172 0.756267
O O18 0.562335 0.000000 0.683336
O O19 0.692991 0.000000 0.995959
O O20 0.750000 0.750000 0.000000
O O21 0.728582 0.768473 0.076639
O O22 0.775532 0.000000 0.162741
#
# Coordination Sequence:
#
# PCOD8092268 Si02
#       8
#     8   8   8   8   8   8   8   8
#     4   9  14  27  55  87 114 140 179 231 279 325
#     4  10  19  34  60  91 119 149 186 229 278 337
#     4  10  20  36  60  89 119 149 186 231 281 338
#     4   9  17  31  54  84 113 143 179 224 277 330
#     4  10  21  37  56  80 110 147 188 230 277 330
#     4  10  20  35  59  87 113 145 189 236 281 334
#     4  11  25  43  61  81 109 149 195 241 289 339
#     4  11  24  39  58  85 118 154 189 232 290 346
#
# _framework density 19.392764
#
# number of rings (size 3 to 8) (size 9 to 14) (size 15 to 20)
#    0.000    2.000    2.500    1.500    0.000    5.750 
#    0.000    4.375    0.000    1.125    0.000    0.000 
#    0.000    0.000    0.000    0.000    0.000    0.000 
#
# Total GULP energy -396837.914926 kJ/mol
# GULP energy per Si atom -12401.184841 kJ/mol
# Density = 1.934863 g / cm^3
# Si number density = 19.392764 Si / 1000 Ang^3
#
#
#
# Elastic Constant Matrix: (Units=GPa)
#
#
# Indices 1 2 3 4 5 6 
#
# 1 131.7011 35.4062 68.2259 -0.0001 11.7626 -0.0002
# 2 35.4062 39.1288 37.7549 -0.0003 5.7828 -0.0004
# 3 68.2259 37.7549 156.1500 -0.0002 8.9715 -0.0002
# 4 -0.0001 -0.0003 -0.0002 23.4221 -0.0001 3.1918
# 5 11.7626 5.7828 8.9715 -0.0001 14.0673 -0.0001
# 6 -0.0002 -0.0004 -0.0002 3.1918 -0.0001 29.5290
#
#
#
# Elastic Compliance Matrix: (Units=1/GPa)
#
#
# Indices 1 2 3 4 5 6 
#
# 1 0.011414 -0.006611 -0.003110 0.000000 -0.004843 0.000000
# 2 -0.006611 0.038269 -0.005998 0.000000 -0.006378 0.000000
# 3 -0.003110 -0.005998 0.009262 0.000000 -0.000840 0.000000
# 4 0.000000 0.000000 0.000000 0.043333 0.000000 -0.004684
# 5 -0.004843 -0.006378 -0.000840 0.000000 0.078294 0.000000
# 6 0.000000 0.000000 0.000000 -0.004684 0.000000 0.034371
#
#
# Mechanical properties :
#
#
# Convention : Reuss Voigt Hill
#
# Bulk Modulus (GPa) = 36.35633 67.75042 52.05338
# Shear Modulus (GPa) = 19.56564 25.77655 22.67109
#
# Velocity S-wave (km/s) = 3.17979 3.64975 3.42285
# Velocity P-wave (km/s) = 5.68062 7.26448 6.52082
#
# Compressibility (1/GPa) = 0.02750552
#
# Stress axis : x y z
#
# Youngs Moduli (GPa) = 87.61078 26.13095 107.97349
#
# Poissons Ratio (x) = 0.17276 0.33584
# Poissons Ratio (y) = 0.57923 0.64760
# Poissons Ratio (z) = 0.27250 0.15673
#
# Static dielectric constant tensor:
#      x y z
#    x 3.595840 0.000000 -0.149470 
#    y 0.000000 3.154410 0.000000 
#    z -0.149470 0.000000 3.521360 
# 
# 
# High freq. dielectric constant tensor:
#      x y z
#    x 1.755680 0.000000 -0.001120 
#    y 0.000000 1.715860 0.000000 
#    z -0.001120 0.000000 1.774720 
# 
# From -- ./inp_files/382439.got.cif
#   From: 2010.06.25/outbox.cif.g09.slc.cpg/sg12_192_cif.got.tgz:382439.got - 2010.06.28 00:19:55.
