data_PCOD8092511
_publ_section_title
;
Structure prediction by ZEFSAII (Michael W. Deem and Ramdas Pophale) SiO2 
 PCOD8092511
Probable space group: C 2/M
;
_chemical_formula_sum "Si O2"
_cell_formula_units_Z 56
_cell_length_a 14.317674
_cell_length_b 14.045895
_cell_length_c 13.815868
_cell_angle_alpha 90.000000
_cell_angle_beta 103.090475
_cell_angle_gamma 90.000000
_cell_volume 2706.232455
_symmetry_space_group_name_H-M "C 2/M"
_symmetry_group_IT_number 12
_symmetry_cell_setting 'monoclinic'
loop_
_space_group_symop_operation_xyz
x,y,z
-x,y,-z
-x,-y,-z
x,-y,z
1/2+x,1/2+y,z
1/2-x,1/2+y,-z
1/2-x,1/2-y,-z
1/2+x,1/2-y,z
loop_
_atom_site_type_symbol
_atom_site_label
_atom_site_fract_x
_atom_site_fract_y
_atom_site_fract_z
Si Si1 0.444320 0.227103 0.189188
Si Si2 0.766413 0.609696 0.088929
Si Si3 0.578780 0.201993 0.601924
Si Si4 0.800222 0.890265 0.145474
Si Si5 0.772505 0.824876 0.588020
Si Si6 0.344020 0.750859 0.801062
Si Si7 0.611476 0.399985 0.544413
O O1 0.372224 0.155083 0.119113
O O2 0.465013 0.186331 0.302601
O O3 0.399098 0.332799 0.184239
O O4 0.543416 0.229787 0.153084
O O5 0.770467 0.500000 0.122408
O O6 0.692819 0.664650 0.141043
O O7 0.730078 0.621181 0.972277
O O8 0.500000 0.188014 0.500000
O O9 0.670550 0.132781 0.604680
O O10 0.631798 0.306680 0.613702
O O11 0.715653 0.846650 0.191750
O O12 0.816593 0.000000 0.177691
O O13 0.750000 0.750000 0.500000
O O14 0.835134 0.778626 0.687501
O O15 0.836614 0.903077 0.548587
O O16 0.500000 0.397586 0.500000
O O17 0.639944 0.500000 0.604105
#
# Coordination Sequence:
#
# PCOD8092511 Si02
#       7
#     8   8   8   8   8   8   8
#     4  11  21  38  64  92 120 162 207 252 306 365
#     4  10  23  42  62  89 126 163 203 256 315 370
#     4  10  19  36  58  81 116 158 199 241 293 355
#     4  10  23  42  62  90 126 160 203 261 314 363
#     4  10  19  35  55  82 116 157 196 237 292 350
#     4  11  21  38  64  93 119 163 207 251 307 368
#     4   9  18  31  50  79 112 147 192 240 285 340
#
# _framework density 20.692974
#
# number of rings (size 3 to 8) (size 9 to 14) (size 15 to 20)
#    0.000    1.857    2.857    4.286    0.000    4.571 
#    0.000    4.286    0.000    3.429    0.000    0.000 
#    0.000    0.000    0.000    0.000    0.000    0.000 
#
# Total GULP energy -346968.213011 kJ/mol
# GULP energy per Si atom -12391.721893 kJ/mol
# Density = 2.064588 g / cm^3
# Si number density = 20.692974 Si / 1000 Ang^3
#
#
#
# Elastic Constant Matrix: (Units=GPa)
#
#
# Indices 1 2 3 4 5 6 
#
# 1 153.2026 25.8885 7.0663 0.0000 -0.0968 0.0000
# 2 25.8885 66.1636 3.5618 0.0000 -2.7159 0.0000
# 3 7.0663 3.5618 73.4072 0.0000 7.1896 0.0000
# 4 0.0000 0.0000 0.0000 12.1986 0.0000 10.1549
# 5 -0.0968 -2.7159 7.1896 0.0000 24.9078 0.0000
# 6 0.0000 0.0000 0.0000 10.1549 0.0000 -65.1697
#
#
#
# Elastic Compliance Matrix: (Units=1/GPa)
#
#
# Indices 1 2 3 4 5 6 
#
# 1 0.007011 -0.002720 -0.000532 0.000000 -0.000116 0.000000
# 2 -0.002720 0.016298 -0.000722 0.000000 0.001975 0.000000
# 3 -0.000532 -0.000722 0.014116 0.000000 -0.004155 0.000000
# 4 0.000000 0.000000 0.000000 0.072564 0.000000 0.011307
# 5 -0.000116 0.001975 -0.004155 0.000000 0.041562 0.000000
# 6 0.000000 0.000000 0.000000 0.011307 0.000000 -0.013583
#
#
# Mechanical properties :
#
#
# Convention : Reuss Voigt Hill
#
# Bulk Modulus (GPa) = 33.92354 40.64519 37.28436
# Shear Modulus (GPa) = 32.10436 11.47112 21.78774
#
# Velocity S-wave (km/s) = 3.94313 2.35702 3.24837
# Velocity P-wave (km/s) = 6.09593 5.20500 5.66800
#
# Compressibility (1/GPa) = 0.02947806
#
# Stress axis : x y z
#
# Youngs Moduli (GPa) = 142.62690 61.35684 70.84235
#
# Poissons Ratio (x) = 0.16686 0.03766
# Poissons Ratio (y) = 0.38788 0.05118
# Poissons Ratio (z) = 0.07582 0.04433
#
# Static dielectric constant tensor:
#      x y z
#    x 4.106550 0.000000 -0.225700 
#    y 0.000000 4.271370 0.000000 
#    z -0.225700 0.000000 3.797990 
# 
# 
# High freq. dielectric constant tensor:
#      x y z
#    x 1.817680 0.000000 -0.005200 
#    y 0.000000 1.786490 0.000000 
#    z -0.005200 0.000000 1.815780 
# 
# From -- ./inp_files/214345.got.cif
#   From: 2010.06.25/outbox.cif.g09.slc.cpg/sg12_108_cif.got.tgz:214345.got - 2010.06.28 00:19:55.
