data_PCOD8092240
_publ_section_title
;
Structure prediction by ZEFSAII (Michael W. Deem and Ramdas Pophale) SiO2 
 PCOD8092240
Probable space group: C 2/M
;
_chemical_formula_sum "Si O2"
_cell_formula_units_Z 44
_cell_length_a 8.976819
_cell_length_b 24.618683
_cell_length_c 11.909842
_cell_angle_alpha 90.000000
_cell_angle_beta 126.621820
_cell_angle_gamma 90.000000
_cell_volume 2112.453811
_symmetry_space_group_name_H-M "C 2/M"
_symmetry_group_IT_number 12
_symmetry_cell_setting 'monoclinic'
loop_
_space_group_symop_operation_xyz
x,y,z
-x,y,-z
-x,-y,-z
x,-y,z
1/2+x,1/2+y,z
1/2-x,1/2+y,-z
1/2-x,1/2-y,-z
1/2+x,1/2-y,z
loop_
_atom_site_type_symbol
_atom_site_label
_atom_site_fract_x
_atom_site_fract_y
_atom_site_fract_z
Si Si1 0.902489 0.292401 0.679319
Si Si2 0.000000 0.764291 0.500000
Si Si3 0.698669 0.402526 0.880622
Si Si4 0.925605 0.789130 0.087604
Si Si5 0.508413 0.500000 0.691948
Si Si6 0.299554 0.000000 0.621111
Si Si7 0.511911 0.903881 0.188273
O O1 0.994364 0.275176 0.604159
O O2 0.680563 0.303448 0.574508
O O3 0.014794 0.345716 0.765815
O O4 0.917955 0.244089 0.776407
O O5 0.612138 0.343528 0.859662
O O6 0.538394 0.446827 0.783394
O O7 0.830509 0.398109 0.833481
O O8 0.817861 0.421058 0.043062
O O9 0.750000 0.750000 0.000000
O O10 0.000000 0.805969 0.000000
O O11 0.654632 0.500000 0.657175
O O12 0.301865 0.500000 0.545659
O O13 0.431130 0.052626 0.691452
#
# Coordination Sequence:
#
# PCOD8092240 Si02
#       7
#     8   4   8   8   4   4   8
#     4  11  22  38  58  85 121 158 198 246 298 364
#     4  10  24  38  54  84 120 162 196 238 300 368
#     4  10  20  35  58  91 118 158 195 259 304 356
#     4  12  23  38  62  92 122 157 201 249 305 358
#     4   9  19  35  56  84 125 153 205 247 305 354
#     4   9  19  33  55  87 115 163 200 250 292 361
#     4  10  19  34  60  86 121 153 204 250 303 355
#
# _framework density 20.828856999999999
#
# number of rings (size 3 to 8) (size 9 to 14) (size 15 to 20)
#    0.000    1.636    1.818    3.818    0.000    8.000 
#    0.000    0.455    0.000    0.545    0.000    0.000 
#    0.000    0.000    0.000    0.000    0.000    0.000 
#
# Total GULP energy -272814.142668 kJ/mol
# GULP energy per Si atom -12400.642849 kJ/mol
# Density = 2.078145 g / cm^3
# Si number density = 20.828857 Si / 1000 Ang^3
#
#
#
# Elastic Constant Matrix: (Units=GPa)
#
#
# Indices 1 2 3 4 5 6 
#
# 1 41.1055 12.3319 19.4132 0.0000 1.1481 0.0000
# 2 12.3319 158.3406 76.4636 0.0000 8.2191 0.0000
# 3 19.4132 76.4636 145.6564 0.0000 5.0928 0.0000
# 4 0.0000 0.0000 0.0000 38.1202 0.0000 12.1694
# 5 1.1481 8.2191 5.0928 0.0000 22.8781 0.0000
# 6 0.0000 0.0000 0.0000 12.1694 0.0000 82.7632
#
#
#
# Elastic Compliance Matrix: (Units=1/GPa)
#
#
# Indices 1 2 3 4 5 6 
#
# 1 0.025992 -0.000451 -0.003213 0.000000 -0.000427 0.000000
# 2 -0.000451 0.008566 -0.004364 0.000000 -0.002083 0.000000
# 3 -0.003213 -0.004364 0.009599 0.000000 -0.000408 0.000000
# 4 0.000000 0.000000 0.000000 0.027525 0.000000 -0.004047
# 5 -0.000427 -0.002083 -0.000408 0.000000 0.044571 0.000000
# 6 0.000000 0.000000 0.000000 -0.004047 0.000000 0.012678
#
#
# Mechanical properties :
#
#
# Convention : Reuss Voigt Hill
#
# Bulk Modulus (GPa) = 35.58429 62.39111 48.98770
# Shear Modulus (GPa) = 32.39343 44.54524 38.46933
#
# Velocity S-wave (km/s) = 3.94790 4.62955 4.30225
# Velocity P-wave (km/s) = 6.15650 7.65481 6.94617
#
# Compressibility (1/GPa) = 0.02810229
#
# Stress axis : x y z
#
# Youngs Moduli (GPa) = 38.47329 116.73900 104.17966
#
# Poissons Ratio (x) = 0.05262 0.33470
# Poissons Ratio (y) = 0.01734 0.45463
# Poissons Ratio (z) = 0.12360 0.50944
#
# Static dielectric constant tensor:
#      x y z
#    x 4.556160 0.000000 0.322440 
#    y 0.000000 3.774870 0.000000 
#    z 0.322440 0.000000 4.263180 
# 
# 
# High freq. dielectric constant tensor:
#      x y z
#    x 1.780170 0.000000 0.008440 
#    y 0.000000 1.812460 0.000000 
#    z 0.008440 0.000000 1.833270 
# 
# From -- ./inp_files/122695.got.cif
#   From: 2010.06.25/outbox.cif.g09.slc.cpg/sg12_62_cif.got.tgz:122695.got - 2010.06.28 00:19:55.
