data_PCOD8092945
_publ_section_title
;
Structure prediction by ZEFSAII (Michael W. Deem and Ramdas Pophale) SiO2 
 PCOD8092945
Probable space group: C 2/M
;
_chemical_formula_sum "Si O2"
_cell_formula_units_Z 64
_cell_length_a 25.779718
_cell_length_b 14.955526
_cell_length_c 12.017046
_cell_angle_alpha 90.000000
_cell_angle_beta 135.781137
_cell_angle_gamma 90.000000
_cell_volume 3231.172905
_symmetry_space_group_name_H-M "C 2/M"
_symmetry_group_IT_number 12
_symmetry_cell_setting 'monoclinic'
loop_
_space_group_symop_operation_xyz
x,y,z
-x,y,-z
-x,-y,-z
x,-y,z
1/2+x,1/2+y,z
1/2-x,1/2+y,-z
1/2-x,1/2-y,-z
1/2+x,1/2-y,z
loop_
_atom_site_type_symbol
_atom_site_label
_atom_site_fract_x
_atom_site_fract_y
_atom_site_fract_z
Si Si1 0.836906 0.251663 0.120295
Si Si2 0.162916 0.206213 0.640458
Si Si3 0.683128 0.104315 0.080062
Si Si4 0.697635 0.181917 0.484943
Si Si5 0.929976 0.896454 0.664574
Si Si6 0.657922 0.599743 0.263429
Si Si7 0.583958 0.896790 0.144959
Si Si8 0.602727 0.395213 0.945824
O O1 0.868894 0.250572 0.294995
O O2 0.861813 0.160627 0.098978
O O3 0.750000 0.250000 0.000000
O O4 0.857606 0.341325 0.083035
O O5 0.235914 0.145147 0.770332
O O6 0.178243 0.285445 0.578092
O O7 0.096279 0.145628 0.491470
O O8 0.631166 0.116864 0.106489
O O9 0.690743 0.000000 0.058914
O O10 0.750000 0.250000 0.500000
O O11 0.752920 0.097157 0.584660
O O12 0.623099 0.157102 0.304732
O O13 0.882954 0.851775 0.694623
O O14 0.015558 0.877489 0.815410
O O15 0.910646 0.000000 0.628094
O O16 0.625552 0.500000 0.208544
O O17 0.635519 0.644789 0.111645
O O18 0.580720 0.000000 0.175387
O O19 0.500000 0.859910 0.000000
O O20 0.621858 0.500000 0.956894
#
# Coordination Sequence:
#
# PCOD8092945 Si02
#       8
#     8   8   8   8   8   8   8   8
#     4  10  23  39  56  80 114 151 206 247 288 349
#     4  11  22  37  55  87 121 155 195 249 292 361
#     4  10  20  39  63  85 114 158 204 249 297 350
#     4  12  21  36  58  90 118 149 196 245 306 355
#     4  10  20  35  56  86 120 157 191 231 300 373
#     4  10  19  35  58  85 118 153 191 241 297 358
#     4  10  22  40  62  89 119 155 203 254 305 359
#     4  10  22  38  59  87 122 156 193 243 300 360
#
# _framework density 19.807048999999999
#
# number of rings (size 3 to 8) (size 9 to 14) (size 15 to 20)
#    0.000    1.625    2.500    2.625    0.000    7.500 
#    0.000    2.500    0.000    0.000    0.000    4.375 
#    0.000    0.000    0.000    0.000    0.000    0.000 
#
# Total GULP energy -396710.803242 kJ/mol
# GULP energy per Si atom -12397.212601 kJ/mol
# Density = 1.976197 g / cm^3
# Si number density = 19.807049 Si / 1000 Ang^3
#
#
#
# Elastic Constant Matrix: (Units=GPa)
#
#
# Indices 1 2 3 4 5 6 
#
# 1 84.1545 46.5576 60.7121 0.0000 -20.4218 0.0000
# 2 46.5576 85.6527 52.6958 0.0000 -9.8824 0.0000
# 3 60.7121 52.6958 147.6812 0.0000 -13.0952 0.0000
# 4 0.0000 0.0000 0.0000 35.1642 0.0000 -0.4198
# 5 -20.4218 -9.8824 -13.0952 0.0000 43.6599 0.0000
# 6 0.0000 0.0000 0.0000 -0.4198 0.0000 23.9809
#
#
#
# Elastic Compliance Matrix: (Units=1/GPa)
#
#
# Indices 1 2 3 4 5 6 
#
# 1 0.021811 -0.007593 -0.005655 0.000000 0.006787 0.000000
# 2 -0.007593 0.017747 -0.003256 0.000000 -0.000511 0.000000
# 3 -0.005655 -0.003256 0.010230 0.000000 -0.000314 0.000000
# 4 0.000000 0.000000 0.000000 0.028444 0.000000 0.000498
# 5 0.006787 -0.000511 -0.000314 0.000000 0.025869 0.000000
# 6 0.000000 0.000000 0.000000 0.000498 0.000000 0.041709
#
#
# Mechanical properties :
#
#
# Convention : Reuss Voigt Hill
#
# Bulk Modulus (GPa) = 59.60003 70.82438 65.21221
# Shear Modulus (GPa) = 27.11338 31.06253 29.08795
#
# Velocity S-wave (km/s) = 3.70385 3.96442 3.83634
# Velocity P-wave (km/s) = 6.96038 7.53593 7.25387
#
# Compressibility (1/GPa) = 0.01677851
#
# Stress axis : x y z
#
# Youngs Moduli (GPa) = 45.84936 56.34856 97.74935
#
# Poissons Ratio (x) = 0.42786 0.55279
# Poissons Ratio (y) = 0.34814 0.31829
# Poissons Ratio (z) = 0.25929 0.18348
#
# Static dielectric constant tensor:
#      x y z
#    x 3.742060 0.000000 -0.228360 
#    y 0.000000 3.695480 0.000000 
#    z -0.228360 0.000000 3.913610 
# 
# 
# High freq. dielectric constant tensor:
#      x y z
#    x 1.767330 0.000000 -0.006570 
#    y 0.000000 1.769870 0.000000 
#    z -0.006570 0.000000 1.776080 
# 
# From -- ./inp_files/183853.got.cif
#   From: 2010.06.25/outbox.cif.g09.slc.cpg/sg12_92_cif.got.tgz:183853.got - 2010.06.28 00:19:55.
