data_PCOD8092802
_publ_section_title
;
Structure prediction by ZEFSAII (Michael W. Deem and Ramdas Pophale) SiO2 
 PCOD8092802
Probable space group: C 2/M
;
_chemical_formula_sum "Si O2"
_cell_formula_units_Z 64
_cell_length_a 9.093726
_cell_length_b 16.949201
_cell_length_c 31.317426
_cell_angle_alpha 90.000000
_cell_angle_beta 139.456957
_cell_angle_gamma 90.000000
_cell_volume 3137.641220
_symmetry_space_group_name_H-M "C 2/M"
_symmetry_group_IT_number 12
_symmetry_cell_setting 'monoclinic'
loop_
_space_group_symop_operation_xyz
x,y,z
-x,y,-z
-x,-y,-z
x,-y,z
1/2+x,1/2+y,z
1/2-x,1/2+y,-z
1/2-x,1/2-y,-z
1/2+x,1/2-y,z
loop_
_atom_site_type_symbol
_atom_site_label
_atom_site_fract_x
_atom_site_fract_y
_atom_site_fract_z
Si Si1 0.927842 0.319802 0.271841
Si Si2 0.665955 0.906913 0.572104
Si Si3 0.344672 0.911352 0.335656
Si Si4 0.391622 0.177014 0.899169
Si Si5 0.179022 0.090158 0.681921
Si Si6 0.643704 0.636693 0.763052
Si Si7 0.148736 0.910761 0.992933
Si Si8 0.987963 0.159895 0.876753
O O1 0.914969 0.342832 0.318680
O O2 0.919742 0.227023 0.262149
O O3 0.721214 0.361160 0.200578
O O4 0.170510 0.352597 0.312850
O O5 0.500000 0.868641 0.500000
O O6 0.570374 0.886301 0.598204
O O7 0.922451 0.876458 0.622401
O O8 0.674302 0.000000 0.568367
O O9 0.074542 0.916001 0.276663
O O10 0.432535 0.000000 0.342854
O O11 0.302705 0.128054 0.838979
O O12 0.212424 0.174287 0.898212
O O13 0.428809 0.266005 0.893225
O O14 0.628576 0.140993 0.965679
O O15 0.270573 0.098476 0.750651
O O16 0.201092 0.000000 0.671044
O O17 0.018516 0.908990 0.918585
O O18 0.218705 0.000000 0.018754
O O19 0.000000 0.877654 0.000000
#
# Coordination Sequence:
#
# PCOD8092802 Si02
#       8
#     8   8   8   8   8   8   8   8
#     4  11  22  36  58  88 122 154 191 247 301 355
#     4   8  16  34  59  84 116 160 203 238 284 354
#     4  10  19  35  57  87 117 148 194 244 291 341
#     4  11  23  41  64  85 112 154 201 244 290 363
#     4  10  21  35  57  87 119 152 194 245 298 343
#     4  10  21  37  59  84 114 158 198 233 289 362
#     4  11  26  44  61  86 119 156 197 248 305 355
#     4  11  24  41  63  86 116 156 198 245 295 363
#
# _framework density 20.397487999999999
#
# number of rings (size 3 to 8) (size 9 to 14) (size 15 to 20)
#    0.000    1.750    1.250    3.750    7.000    3.000 
#    0.000    0.625    0.000   15.000    0.000    0.000 
#    0.000    0.000    0.000    0.000    0.000    0.000 
#
# Total GULP energy -396679.749529 kJ/mol
# GULP energy per Si atom -12396.242173 kJ/mol
# Density = 2.035106 g / cm^3
# Si number density = 20.397488 Si / 1000 Ang^3
#
#
#
# Elastic Constant Matrix: (Units=GPa)
#
#
# Indices 1 2 3 4 5 6 
#
# 1 122.3323 22.6321 45.8397 0.0000 -7.6906 -0.0001
# 2 22.6321 44.7264 17.1575 -0.0002 0.3902 0.0001
# 3 45.8397 17.1575 108.1219 -0.0002 -15.2061 0.0002
# 4 0.0000 -0.0002 -0.0002 25.9286 -0.0001 -9.9764
# 5 -7.6906 0.3902 -15.2061 -0.0001 26.5351 0.0000
# 6 -0.0001 0.0001 0.0002 -9.9764 0.0000 33.1242
#
#
#
# Elastic Compliance Matrix: (Units=1/GPa)
#
#
# Indices 1 2 3 4 5 6 
#
# 1 0.010302 -0.003831 -0.003624 0.000000 0.000965 0.000000
# 2 -0.003831 0.025416 -0.002847 0.000000 -0.003116 0.000000
# 3 -0.003624 -0.002847 0.012068 0.000000 0.005907 0.000000
# 4 0.000000 0.000000 0.000000 0.043623 0.000000 0.013138
# 5 0.000965 -0.003116 0.005907 0.000000 0.041397 0.000000
# 6 0.000000 0.000000 0.000000 0.013138 0.000000 0.034146
#
#
# Mechanical properties :
#
#
# Convention : Reuss Voigt Hill
#
# Bulk Modulus (GPa) = 36.78977 49.60436 43.19707
# Shear Modulus (GPa) = 25.43027 29.75434 27.59230
#
# Velocity S-wave (km/s) = 3.53474 3.82347 3.68194
# Velocity P-wave (km/s) = 5.89362 6.62296 6.26891
#
# Compressibility (1/GPa) = 0.02718147
#
# Stress axis : x y z
#
# Youngs Moduli (GPa) = 97.06996 39.34514 82.86532
#
# Poissons Ratio (x) = 0.15074 0.30029
# Poissons Ratio (y) = 0.37189 0.23593
# Poissons Ratio (z) = 0.35177 0.11202
#
# Static dielectric constant tensor:
#      x y z
#    x 4.115610 0.000000 -0.298930 
#    y 0.000000 3.545820 0.000000 
#    z -0.298930 0.000000 4.044450 
# 
# 
# High freq. dielectric constant tensor:
#      x y z
#    x 1.804050 0.000000 -0.011850 
#    y 0.000000 1.780860 0.000000 
#    z -0.011850 0.000000 1.788810 
# 
# From -- ./inp_files/372983.got.cif
#   From: 2010.06.25/outbox.cif.g09.slc.cpg/sg12_187_cif.got.tgz:372983.got - 2010.06.28 00:19:55.
