data_PCOD8092961
_publ_section_title
;
Structure prediction by ZEFSAII (Michael W. Deem and Ramdas Pophale) SiO2 
 PCOD8092961
Probable space group: C 2/M
;
_chemical_formula_sum "Si O2"
_cell_formula_units_Z 64
_cell_length_a 16.589919
_cell_length_b 20.925733
_cell_length_c 24.452213
_cell_angle_alpha 90.000000
_cell_angle_beta 155.499352
_cell_angle_gamma 90.000000
_cell_volume 3520.309534
_symmetry_space_group_name_H-M "C 2/M"
_symmetry_group_IT_number 12
_symmetry_cell_setting 'monoclinic'
loop_
_space_group_symop_operation_xyz
x,y,z
-x,y,-z
-x,-y,-z
x,-y,z
1/2+x,1/2+y,z
1/2-x,1/2+y,-z
1/2-x,1/2-y,-z
1/2+x,1/2-y,z
loop_
_atom_site_type_symbol
_atom_site_label
_atom_site_fract_x
_atom_site_fract_y
_atom_site_fract_z
Si Si1 0.709821 0.730587 0.348585
Si Si2 0.302525 0.615373 0.254665
Si Si3 0.884949 0.928953 0.480363
Si Si4 0.149146 0.162618 0.833394
Si Si5 0.607491 0.245444 0.650495
Si Si6 0.090343 0.425986 0.937929
Si Si7 0.990889 0.360324 0.765797
Si Si8 0.775247 0.795702 0.866853
O O1 0.575830 0.674176 0.289879
O O2 0.794324 0.711776 0.341476
O O3 0.570646 0.790692 0.251415
O O4 0.875472 0.744871 0.496326
O O5 0.470700 0.568494 0.379324
O O6 0.335569 0.620046 0.210925
O O7 0.320056 0.682263 0.297727
O O8 0.094761 0.584110 0.137506
O O9 0.694899 0.889604 0.379951
O O10 0.000000 0.896676 0.500000
O O11 0.820741 0.000000 0.423700
O O12 0.262589 0.228983 0.892115
O O13 0.241485 0.122285 0.939454
O O14 0.664820 0.207156 0.740445
O O15 0.156509 0.500000 0.981822
O O16 0.043408 0.408100 0.846839
O O17 0.172282 0.352859 0.836662
O O18 0.000000 0.814051 0.000000
#
# Coordination Sequence:
#
# PCOD8092961 Si02
#       8
#     8   8   8   8   8   8   8   8
#     4  10  20  35  59  87 113 154 183 237 291 342
#     4  11  20  35  56  82 120 148 184 227 286 346
#     4  11  20  33  54  82 113 150 190 229 279 341
#     4  10  24  36  57  83 118 149 195 233 280 345
#     4  10  19  35  58  86 121 146 184 228 295 347
#     4  12  24  39  57  81 117 160 194 230 281 346
#     4  11  22  35  58  83 116 149 188 237 284 345
#     4  10  23  37  58  88 118 148 184 238 295 340
#
# _framework density 18.180219000000001
#
# number of rings (size 3 to 8) (size 9 to 14) (size 15 to 20)
#    0.000    1.375    3.750    2.625    3.500    4.000 
#    0.000    0.000    0.000    1.500    0.000    1.750 
#    0.000    0.000    0.000    0.000    0.000    0.000 
#
# Total GULP energy -396798.991812 kJ/mol
# GULP energy per Si atom -12399.968494 kJ/mol
# Density = 1.813884 g / cm^3
# Si number density = 18.180219 Si / 1000 Ang^3
#
#
#
# Elastic Constant Matrix: (Units=GPa)
#
#
# Indices 1 2 3 4 5 6 
#
# 1 80.1146 29.6736 31.0995 0.0028 11.9549 -0.0024
# 2 29.6736 55.1139 28.2201 0.0052 7.9435 0.0019
# 3 31.0995 28.2201 94.8270 0.0039 12.5078 0.0079
# 4 0.0028 0.0052 0.0039 18.4905 0.0073 1.7350
# 5 11.9549 7.9435 12.5078 0.0073 32.0318 0.0049
# 6 -0.0024 0.0019 0.0079 1.7350 0.0049 17.7665
#
#
#
# Elastic Compliance Matrix: (Units=1/GPa)
#
#
# Indices 1 2 3 4 5 6 
#
# 1 0.016726 -0.007008 -0.002958 0.000001 -0.003349 0.000005
# 2 -0.007008 0.024614 -0.004815 -0.000004 -0.001609 -0.000001
# 3 -0.002958 -0.004815 0.013332 0.000001 -0.002908 -0.000005
# 4 0.000001 -0.000004 0.000001 0.054582 -0.000011 -0.005330
# 5 -0.003349 -0.001609 -0.002908 -0.000011 0.034003 -0.000007
# 6 0.000005 -0.000001 -0.000005 -0.005330 -0.000007 0.056806
#
#
# Mechanical properties :
#
#
# Convention : Reuss Voigt Hill
#
# Bulk Modulus (GPa) = 39.82315 45.33798 42.58056
# Shear Modulus (GPa) = 21.00877 23.06191 22.03534
#
# Velocity S-wave (km/s) = 3.40308 3.56549 3.48523
# Velocity P-wave (km/s) = 6.11502 6.47630 6.29825
#
# Compressibility (1/GPa) = 0.02511102
#
# Stress axis : x y z
#
# Youngs Moduli (GPa) = 59.78752 40.62652 75.00733
#
# Poissons Ratio (x) = 0.28471 0.22188
# Poissons Ratio (y) = 0.41899 0.36113
# Poissons Ratio (z) = 0.17686 0.19560
#
# Static dielectric constant tensor:
#      x y z
#    x 3.378340 0.000000 0.001820 
#    y 0.000000 3.105350 -0.000030 
#    z 0.001820 -0.000030 3.448920 
# 
# 
# High freq. dielectric constant tensor:
#      x y z
#    x 1.698600 0.000000 -0.006560 
#    y 0.000000 1.672720 0.000000 
#    z -0.006560 0.000000 1.712920 
# 
# From -- ./inp_files/159248.got.cif
#   From: 2010.06.25/outbox.cif.g09.slc.cpg/sg12_80_cif.got.tgz:159248.got - 2010.06.28 00:19:55.
