data_PCOD8092832
_publ_section_title
;
Structure prediction by ZEFSAII (Michael W. Deem and Ramdas Pophale) SiO2 
 PCOD8092832
Probable space group: C 2/M
;
_chemical_formula_sum "Si O2"
_cell_formula_units_Z 48
_cell_length_a 19.241917
_cell_length_b 7.596280
_cell_length_c 31.253273
_cell_angle_alpha 90.000000
_cell_angle_beta 146.714378
_cell_angle_gamma 90.000000
_cell_volume 2507.086077
_symmetry_space_group_name_H-M "C 2/M"
_symmetry_group_IT_number 12
_symmetry_cell_setting 'monoclinic'
loop_
_space_group_symop_operation_xyz
x,y,z
-x,y,-z
-x,-y,-z
x,-y,z
1/2+x,1/2+y,z
1/2-x,1/2+y,-z
1/2-x,1/2-y,-z
1/2+x,1/2-y,z
loop_
_atom_site_type_symbol
_atom_site_label
_atom_site_fract_x
_atom_site_fract_y
_atom_site_fract_z
Si Si1 0.478234 0.500000 0.058807
Si Si2 0.928958 0.300523 0.839033
Si Si3 0.901627 0.202875 0.416463
Si Si4 0.708747 0.500000 0.111946
Si Si5 0.145923 0.793909 0.699327
Si Si6 0.118963 0.794657 0.278252
Si Si7 0.405385 0.294327 0.234130
O O1 0.473723 0.673434 0.086444
O O2 0.600258 0.500000 0.091428
O O3 0.350366 0.500000 0.965697
O O4 0.951795 0.500000 0.866796
O O5 0.789392 0.226465 0.778939
O O6 0.945128 0.295305 0.796021
O O7 0.914453 0.289090 0.375193
O O8 0.758547 0.221761 0.359836
O O9 0.000000 0.296474 0.500000
O O10 0.939380 0.000000 0.432967
O O11 0.791111 0.676976 0.158005
O O12 0.067900 0.747539 0.701998
O O13 0.155866 0.000000 0.696090
O O14 0.033796 0.748719 0.275460
O O15 0.126372 0.000000 0.273120
O O16 0.367127 0.500000 0.209441
#
# Coordination Sequence:
#
# PCOD8092832 Si02
#       7
#     4   8   8   4   8   8   8
#     4  11  22  38  56  90 108 139 191 233 284 334
#     4  10  19  35  58  80 108 147 188 232 275 331
#     4   9  18  33  55  84 113 145 186 230 277 329
#     4  11  24  36  60  82 115 143 179 241 284 332
#     4   8  15  31  54  77 104 146 185 223 271 325
#     4  10  20  34  58  82 110 147 194 230 271 333
#     4  10  21  37  56  82 111 148 192 230 276 334
#
# _framework density 19.145731999999999
#
# number of rings (size 3 to 8) (size 9 to 14) (size 15 to 20)
#    0.000    2.333    2.500    1.500    2.333    1.000 
#    0.000    3.333    0.000    0.000    0.000    0.000 
#    0.000    0.000    0.000    0.000    0.000    0.000 
#
# Total GULP energy -297479.594498 kJ/mol
# GULP energy per Si atom -12394.983104 kJ/mol
# Density = 1.910216 g / cm^3
# Si number density = 19.145732 Si / 1000 Ang^3
#
#
#
# Elastic Constant Matrix: (Units=GPa)
#
#
# Indices 1 2 3 4 5 6 
#
# 1 147.6273 23.5615 65.6091 0.0000 -15.6336 0.0005
# 2 23.5615 73.6294 40.9966 0.0004 -12.9176 0.0017
# 3 65.6091 40.9966 139.0688 0.0000 -28.0397 -0.0001
# 4 0.0000 0.0004 0.0000 19.0926 -0.0004 1.5134
# 5 -15.6336 -12.9176 -28.0397 -0.0004 21.8377 0.0000
# 6 0.0005 0.0017 -0.0001 1.5134 0.0000 18.0567
#
#
#
# Elastic Compliance Matrix: (Units=1/GPa)
#
#
# Indices 1 2 3 4 5 6 
#
# 1 0.008612 -0.000505 -0.003686 0.000000 0.001135 0.000000
# 2 -0.000505 0.016639 -0.003718 0.000000 0.004707 -0.000002
# 3 -0.003686 -0.003718 0.012211 0.000000 0.010842 0.000000
# 4 0.000000 0.000000 0.000000 0.052727 0.000001 -0.004419
# 5 0.001135 0.004707 0.010842 0.000001 0.063310 0.000000
# 6 0.000000 -0.000002 0.000000 -0.004419 0.000000 0.055751
#
#
# Mechanical properties :
#
#
# Convention : Reuss Voigt Hill
#
# Bulk Modulus (GPa) = 46.19665 68.96222 57.57944
# Shear Modulus (GPa) = 21.52544 27.14128 24.33336
#
# Velocity S-wave (km/s) = 3.35669 3.76921 3.56891
# Velocity P-wave (km/s) = 6.26135 7.41892 6.86458
#
# Compressibility (1/GPa) = 0.02164659
#
# Stress axis : x y z
#
# Youngs Moduli (GPa) = 116.11031 60.09981 81.89067
#
# Poissons Ratio (x) = 0.03034 0.30181
# Poissons Ratio (y) = 0.05862 0.30445
# Poissons Ratio (z) = 0.42793 0.22344
#
# Static dielectric constant tensor:
#      x y z
#    x 3.626590 0.000000 -0.269510 
#    y 0.000000 3.438110 0.000000 
#    z -0.269510 0.000000 3.467060 
# 
# 
# High freq. dielectric constant tensor:
#      x y z
#    x 1.744830 0.000000 -0.020850 
#    y 0.000000 1.745940 0.000000 
#    z -0.020850 0.000000 1.716590 
# 
# From -- ./inp_files/280085.got.cif
#   From: 2010.06.25/outbox.cif.g09.slc.cpg/sg12_141_cif.got.tgz:280085.got - 2010.06.28 00:19:55.
