data_PCOD8092272
_publ_section_title
;
Structure prediction by ZEFSAII (Michael W. Deem and Ramdas Pophale) SiO2 
 PCOD8092272
Probable space group: C 2/M
;
_chemical_formula_sum "Si O2"
_cell_formula_units_Z 60
_cell_length_a 20.695302
_cell_length_b 17.284257
_cell_length_c 12.081751
_cell_angle_alpha 90.000000
_cell_angle_beta 139.365786
_cell_angle_gamma 90.000000
_cell_volume 2814.395285
_symmetry_space_group_name_H-M "C 2/M"
_symmetry_group_IT_number 12
_symmetry_cell_setting 'monoclinic'
loop_
_space_group_symop_operation_xyz
x,y,z
-x,y,-z
-x,-y,-z
x,-y,z
1/2+x,1/2+y,z
1/2-x,1/2+y,-z
1/2-x,1/2-y,-z
1/2+x,1/2-y,z
loop_
_atom_site_type_symbol
_atom_site_label
_atom_site_fract_x
_atom_site_fract_y
_atom_site_fract_z
Si Si1 0.000000 0.822785 0.500000
Si Si2 0.394781 0.850206 0.913244
Si Si3 0.354928 0.910414 0.641205
Si Si4 0.328244 0.212535 0.188232
Si Si5 0.640927 0.679993 0.059440
Si Si6 0.851853 0.087445 0.720831
Si Si7 0.434805 0.087645 0.181223
Si Si8 0.499729 0.591126 0.721710
O O1 0.095841 0.772949 0.658982
O O2 0.029728 0.878400 0.437364
O O3 0.325835 0.862264 0.715767
O O4 0.500000 0.874343 0.000000
O O5 0.396452 0.766653 0.971654
O O6 0.369665 0.907475 0.983175
O O7 0.264659 0.896046 0.441137
O O8 0.454004 0.883113 0.705589
O O9 0.364692 0.000000 0.688120
O O10 0.391474 0.143056 0.218558
O O11 0.250000 0.250000 0.000000
O O12 0.259964 0.178234 0.197758
O O13 0.592389 0.640597 0.888290
O O14 0.605727 0.635848 0.122703
O O15 0.906178 0.109147 0.678035
O O16 0.873909 0.000000 0.782079
O O17 0.433859 0.000000 0.225481
O O18 0.526390 0.500000 0.752225
#
# Coordination Sequence:
#
# PCOD8092272 Si02
#       8
#     4   8   8   8   8   8   8   8
#     4  12  27  48  71  96 146 176 232 290 333 412
#     4  10  19  34  60  91 125 165 211 270 333 393
#     4   9  20  38  60  95 131 165 220 279 337 402
#     4  12  26  47  66  98 135 182 228 281 344 402
#     4  12  24  42  65  97 134 177 227 272 339 408
#     4  10  23  41  65  97 132 172 220 280 342 406
#     4  10  21  40  64  90 127 175 221 273 333 401
#     4  11  24  45  72 101 135 180 229 282 341 405
#
# _framework density 21.318967000000001
#
# number of rings (size 3 to 8) (size 9 to 14) (size 15 to 20)
#    0.000    1.333    2.667    2.200    3.733    5.333 
#    0.000    0.333    0.000    0.000    0.000    0.000 
#    0.000    0.000    0.000    0.000    0.000    0.000 
#
# Total GULP energy -371898.784067 kJ/mol
# GULP energy per Si atom -12396.626136 kJ/mol
# Density = 2.127044 g / cm^3
# Si number density = 21.318967 Si / 1000 Ang^3
#
#
#
# Elastic Constant Matrix: (Units=GPa)
#
#
# Indices 1 2 3 4 5 6 
#
# 1 86.5277 48.0136 31.7015 0.0000 -11.6579 0.0000
# 2 48.0136 103.2323 43.1885 0.0000 -8.3210 0.0000
# 3 31.7015 43.1885 90.6875 0.0000 -5.4499 0.0000
# 4 0.0000 0.0000 0.0000 36.1290 0.0000 -8.6632
# 5 -11.6579 -8.3210 -5.4499 0.0000 33.9752 0.0000
# 6 0.0000 0.0000 0.0000 -8.6632 0.0000 34.7352
#
#
#
# Elastic Compliance Matrix: (Units=1/GPa)
#
#
# Indices 1 2 3 4 5 6 
#
# 1 0.016485 -0.006308 -0.002536 0.000000 0.003705 0.000000
# 2 -0.006308 0.014655 -0.004734 0.000000 0.000665 0.000000
# 3 -0.002536 -0.004734 0.014183 0.000000 0.000245 0.000000
# 4 0.000000 0.000000 0.000000 0.029439 0.000000 0.007342
# 5 0.003705 0.000665 0.000245 0.000000 0.030907 0.000000
# 6 0.000000 0.000000 0.000000 0.007342 0.000000 0.030620
#
#
# Mechanical properties :
#
#
# Convention : Reuss Voigt Hill
#
# Bulk Modulus (GPa) = 55.04516 58.47274 56.75895
# Shear Modulus (GPa) = 29.49827 31.47081 30.48454
#
# Velocity S-wave (km/s) = 3.72380 3.84629 3.78554
# Velocity P-wave (km/s) = 6.66069 6.87112 6.76672
#
# Compressibility (1/GPa) = 0.01816690
#
# Stress axis : x y z
#
# Youngs Moduli (GPa) = 60.65937 68.23668 70.50813
#
# Poissons Ratio (x) = 0.43042 0.17882
# Poissons Ratio (y) = 0.38262 0.33380
# Poissons Ratio (z) = 0.15384 0.32304
#
# Static dielectric constant tensor:
#      x y z
#    x 4.098380 0.000000 -0.042670 
#    y 0.000000 3.815130 0.000000 
#    z -0.042670 0.000000 3.907000 
# 
# 
# High freq. dielectric constant tensor:
#      x y z
#    x 1.843400 0.000000 -0.006080 
#    y 0.000000 1.836440 0.000000 
#    z -0.006080 0.000000 1.831290 
# 
# From -- ./inp_files/168969.got.cif
#   From: 2010.06.25/outbox.cif.g09.slc.cpg/sg12_85_cif.got.tgz:168969.got - 2010.06.28 00:19:55.
