data_PCOD8092533
_publ_section_title
;
Structure prediction by ZEFSAII (Michael W. Deem and Ramdas Pophale) SiO2 
 PCOD8092533
Probable space group: C 2/M
;
_chemical_formula_sum "Si O2"
_cell_formula_units_Z 56
_cell_length_a 28.266654
_cell_length_b 8.719522
_cell_length_c 14.264514
_cell_angle_alpha 90.000000
_cell_angle_beta 59.359592
_cell_angle_gamma 90.000000
_cell_volume 3024.933177
_symmetry_space_group_name_H-M "C 2/M"
_symmetry_group_IT_number 12
_symmetry_cell_setting 'monoclinic'
loop_
_space_group_symop_operation_xyz
x,y,z
-x,y,-z
-x,-y,-z
x,-y,z
1/2+x,1/2+y,z
1/2-x,1/2+y,-z
1/2-x,1/2-y,-z
1/2+x,1/2-y,z
loop_
_atom_site_type_symbol
_atom_site_label
_atom_site_fract_x
_atom_site_fract_y
_atom_site_fract_z
Si Si1 0.808985 0.677667 0.948963
Si Si2 0.508161 0.682930 0.132510
Si Si3 0.316047 0.318699 0.128320
Si Si4 0.992523 0.181960 0.654991
Si Si5 0.913799 0.819112 0.572833
Si Si6 0.690765 0.823706 0.258822
Si Si7 0.918380 0.681667 0.100950
O O1 0.805441 0.500000 0.980640
O O2 0.835049 0.699639 0.819566
O O3 0.750000 0.750000 0.000000
O O4 0.839322 0.769505 0.001631
O O5 0.514423 0.500000 0.117100
O O6 0.514999 0.743666 0.231983
O O7 0.448042 0.734184 0.157466
O O8 0.554018 0.766469 0.024351
O O9 0.320669 0.500000 0.133588
O O10 0.253183 0.259038 0.205223
O O11 0.354778 0.236000 0.165479
O O12 0.051278 0.236511 0.552788
O O13 0.943790 0.242951 0.637003
O O14 0.991744 0.000000 0.657053
O O15 0.851451 0.757510 0.627843
O O16 0.911002 0.000000 0.579069
O O17 0.693492 0.000000 0.283318
O O18 0.922919 0.500000 0.107998
#
# Coordination Sequence:
#
# PCOD8092533 Si02
#       7
#     8   8   8   8   8   8   8
#     4   9  17  29  43  65  98 133 168 205 243 293
#     4  10  19  35  56  76 101 136 173 207 251 305
#     4  10  20  34  50  69  99 137 173 209 253 306
#     4   8  17  33  53  77 102 131 170 211 247 293
#     4   9  17  32  53  77 103 133 170 207 246 296
#     4   9  19  32  46  71 104 133 165 206 251 299
#     4  11  22  35  51  77 106 131 168 215 258 303
#
# _framework density 18.512805
#
# number of rings (size 3 to 8) (size 9 to 14) (size 15 to 20)
#    0.000    2.571    0.000    5.143    2.000    3.429 
#    0.000    3.571    0.000    0.857    0.000    0.000 
#    0.000    0.000    0.000    0.000    0.000    0.000 
#
# Total GULP energy -346976.997429 kJ/mol
# GULP energy per Si atom -12392.035622 kJ/mol
# Density = 1.847067 g / cm^3
# Si number density = 18.512805 Si / 1000 Ang^3
#
#
#
# Elastic Constant Matrix: (Units=GPa)
#
#
# Indices 1 2 3 4 5 6 
#
# 1 74.3679 6.0106 21.6552 0.0000 -9.5480 0.0000
# 2 6.0106 45.2366 12.1577 0.0000 -5.2931 0.0000
# 3 21.6552 12.1577 68.2498 0.0000 -1.7358 0.0000
# 4 0.0000 0.0000 0.0000 22.2732 0.0000 -6.0107
# 5 -9.5480 -5.2931 -1.7358 0.0000 29.0412 0.0000
# 6 0.0000 0.0000 0.0000 -6.0107 0.0000 24.3377
#
#
#
# Elastic Compliance Matrix: (Units=1/GPa)
#
#
# Indices 1 2 3 4 5 6 
#
# 1 0.015457 -0.000222 -0.004744 0.000000 0.004758 0.000000
# 2 -0.000222 0.023692 -0.004048 0.000000 0.004003 0.000000
# 3 -0.004744 -0.004048 0.016846 0.000000 -0.001291 0.000000
# 4 0.000000 0.000000 0.000000 0.048103 0.000000 0.011880
# 5 0.004758 0.004003 -0.001291 0.000000 0.036651 0.000000
# 6 0.000000 0.000000 0.000000 0.011880 0.000000 0.044022
#
#
# Mechanical properties :
#
#
# Convention : Reuss Voigt Hill
#
# Bulk Modulus (GPa) = 26.33916 29.72236 28.03076
# Shear Modulus (GPa) = 23.20686 24.99914 24.10300
#
# Velocity S-wave (km/s) = 3.54440 3.67873 3.61219
# Velocity P-wave (km/s) = 5.56855 5.84242 5.70713
#
# Compressibility (1/GPa) = 0.03796629
#
# Stress axis : x y z
#
# Youngs Moduli (GPa) = 64.69647 42.20854 59.36299
#
# Poissons Ratio (x) = 0.00937 0.28160
# Poissons Ratio (y) = 0.01437 0.24031
# Poissons Ratio (z) = 0.30691 0.17086
#
# Static dielectric constant tensor:
#      x y z
#    x 3.642360 0.000000 0.092570 
#    y 0.000000 3.288540 0.000000 
#    z 0.092570 0.000000 3.532230 
# 
# 
# High freq. dielectric constant tensor:
#      x y z
#    x 1.714730 0.000000 -0.010210 
#    y 0.000000 1.708920 0.000000 
#    z -0.010210 0.000000 1.692110 
# 
# From -- ./inp_files/248167.got.cif
#   From: 2010.06.25/outbox.cif.g09.slc.cpg/sg12_125_cif.got.tgz:248167.got - 2010.06.28 00:19:55.
