data_PCOD8092856
_publ_section_title
;
Structure prediction by ZEFSAII (Michael W. Deem and Ramdas Pophale) SiO2 
 PCOD8092856
Probable space group: C 2/M
;
_chemical_formula_sum "Si O2"
_cell_formula_units_Z 64
_cell_length_a 28.602128
_cell_length_b 8.796335
_cell_length_c 14.454487
_cell_angle_alpha 90.000000
_cell_angle_beta 119.777463
_cell_angle_gamma 90.000000
_cell_volume 3156.479224
_symmetry_space_group_name_H-M "C 2/M"
_symmetry_group_IT_number 12
_symmetry_cell_setting 'monoclinic'
loop_
_space_group_symop_operation_xyz
x,y,z
-x,y,-z
-x,-y,-z
x,-y,z
1/2+x,1/2+y,z
1/2-x,1/2+y,-z
1/2-x,1/2-y,-z
1/2+x,1/2-y,z
loop_
_atom_site_type_symbol
_atom_site_label
_atom_site_fract_x
_atom_site_fract_y
_atom_site_fract_z
Si Si1 0.741510 0.678588 0.091533
Si Si2 0.932228 0.679876 0.188982
Si Si3 0.868950 0.171869 0.449047
Si Si4 0.946620 0.320522 0.994934
Si Si5 0.244162 0.181544 0.594861
Si Si6 0.346140 0.327439 0.224633
Si Si7 0.329330 0.178922 0.831033
Si Si8 0.485147 0.319300 0.589371
O O1 0.736799 0.500000 0.078998
O O2 0.793619 0.730726 0.200470
O O3 0.689344 0.742476 0.092296
O O4 0.750000 0.750000 0.000000
O O5 0.924896 0.500000 0.185116
O O6 0.943019 0.740737 0.096273
O O7 0.876863 0.755802 0.168210
O O8 0.980499 0.729209 0.302404
O O9 0.812595 0.250723 0.422331
O O10 0.882013 0.178710 0.352127
O O11 0.923366 0.234780 0.549743
O O12 0.861497 0.000000 0.473788
O O13 0.953179 0.500000 0.005390
O O14 0.892756 0.278358 0.882921
O O15 0.000000 0.248105 0.000000
O O16 0.250000 0.250000 0.500000
O O17 0.294023 0.237164 0.708800
O O18 0.244742 0.000000 0.591628
O O19 0.329960 0.500000 0.183224
O O20 0.321555 0.000000 0.836528
O O21 0.500000 0.270324 0.500000
O O22 0.493111 0.500000 0.610240
#
# Coordination Sequence:
#
# PCOD8092856 Si02
#       8
#     8   8   8   8   8   8   8   8
#     4  12  24  37  57  89 124 158 198 247 304 363
#     4  11  22  35  56  91 125 152 197 257 306 352
#     4   9  18  35  57  81 111 152 198 241 291 358
#     4   9  20  39  61  84 115 156 200 246 296 351
#     4  10  21  38  60  87 118 155 201 247 300 362
#     4  11  20  37  61  84 117 158 198 240 297 365
#     4  10  20  39  65  87 115 158 205 249 300 364
#     4  10  19  35  58  81 112 162 205 235 291 366
#
# _framework density 20.275753999999999
#
# number of rings (size 3 to 8) (size 9 to 14) (size 15 to 20)
#    0.000    1.750    2.500    2.625    0.000    2.750 
#    0.000    2.500    0.000    3.375    0.000    0.000 
#    0.000    0.000    0.000    0.000    0.000    0.000 
#
# Total GULP energy -396639.000075 kJ/mol
# GULP energy per Si atom -12394.968752 kJ/mol
# Density = 2.022961 g / cm^3
# Si number density = 20.275754 Si / 1000 Ang^3
#
#
#
# Elastic Constant Matrix: (Units=GPa)
#
#
# Indices 1 2 3 4 5 6 
#
# 1 147.4684 28.9090 49.8806 0.0000 2.0226 0.0000
# 2 28.9090 53.0955 19.4923 0.0000 -2.4187 0.0000
# 3 49.8806 19.4923 97.9939 0.0000 -1.6444 0.0000
# 4 0.0000 0.0000 0.0000 27.0810 0.0000 -1.4312
# 5 2.0226 -2.4187 -1.6444 0.0000 34.8161 0.0000
# 6 0.0000 0.0000 0.0000 -1.4312 0.0000 26.1479
#
#
#
# Elastic Compliance Matrix: (Units=1/GPa)
#
#
# Indices 1 2 3 4 5 6 
#
# 1 0.008744 -0.003412 -0.003788 0.000000 -0.000924 0.000000
# 2 -0.003412 0.021701 -0.002553 0.000000 0.001585 0.000000
# 3 -0.003788 -0.002553 0.012651 0.000000 0.000640 0.000000
# 4 0.000000 0.000000 0.000000 0.037033 0.000000 0.002027
# 5 -0.000924 0.001585 0.000640 0.000000 0.028916 0.000000
# 6 0.000000 0.000000 0.000000 0.002027 0.000000 0.038355
#
#
# Mechanical properties :
#
#
# Convention : Reuss Voigt Hill
#
# Bulk Modulus (GPa) = 42.39005 55.01351 48.70178
# Shear Modulus (GPa) = 28.60890 30.96073 29.78481
#
# Velocity S-wave (km/s) = 3.76039 3.91190 3.83689
# Velocity P-wave (km/s) = 6.30922 6.89895 6.61066
#
# Compressibility (1/GPa) = 0.02359044
#
# Stress axis : x y z
#
# Youngs Moduli (GPa) = 114.36619 46.07989 79.04380
#
# Poissons Ratio (x) = 0.15724 0.29938
# Poissons Ratio (y) = 0.39026 0.20181
# Poissons Ratio (z) = 0.43316 0.11765
#
# Static dielectric constant tensor:
#      x y z
#    x 4.226900 0.000000 0.316580 
#    y 0.000000 3.423120 0.000000 
#    z 0.316580 0.000000 3.887600 
# 
# 
# High freq. dielectric constant tensor:
#      x y z
#    x 1.799950 0.000000 0.015410 
#    y 0.000000 1.757760 0.000000 
#    z 0.015410 0.000000 1.799820 
# 
# From -- ./inp_files/249191.got.cif
#   From: 2010.06.25/outbox.cif.g09.slc.cpg/sg12_125_cif.got.tgz:249191.got - 2010.06.28 00:19:55.
