data_PCOD8092543
_publ_section_title
;
Structure prediction by ZEFSAII (Michael W. Deem and Ramdas Pophale) SiO2 
 PCOD8092543
Probable space group: C 2/M
;
_chemical_formula_sum "Si O2"
_cell_formula_units_Z 64
_cell_length_a 14.173734
_cell_length_b 8.804300
_cell_length_c 28.155768
_cell_angle_alpha 90.000000
_cell_angle_beta 88.457188
_cell_angle_gamma 90.000000
_cell_volume 3512.279122
_symmetry_space_group_name_H-M "C 2/M"
_symmetry_group_IT_number 12
_symmetry_cell_setting 'monoclinic'
loop_
_space_group_symop_operation_xyz
x,y,z
-x,y,-z
-x,-y,-z
x,-y,z
1/2+x,1/2+y,z
1/2-x,1/2+y,-z
1/2-x,1/2-y,-z
1/2+x,1/2-y,z
loop_
_atom_site_type_symbol
_atom_site_label
_atom_site_fract_x
_atom_site_fract_y
_atom_site_fract_z
Si Si1 0.756868 0.179996 0.448378
Si Si2 0.901216 0.323533 0.118104
Si Si3 0.897877 0.681102 0.374238
Si Si4 0.391064 0.821501 0.626393
Si Si5 0.766848 0.179487 0.300941
Si Si6 0.248941 0.676585 0.799995
Si Si7 0.763624 0.823271 0.050461
Si Si8 0.114103 0.321991 0.131621
O O1 0.750000 0.250000 0.500000
O O2 0.847045 0.248244 0.420530
O O3 0.662581 0.227429 0.421020
O O4 0.768371 0.000000 0.451132
O O5 0.899373 0.500000 0.105314
O O6 0.840963 0.288245 0.165845
O O7 0.858955 0.236677 0.073557
O O8 0.007402 0.266483 0.125245
O O9 0.893399 0.500000 0.377421
O O10 0.853034 0.736117 0.325486
O O11 0.004339 0.747572 0.373698
O O12 0.330616 0.767066 0.672813
O O13 0.400986 0.000000 0.628116
O O14 0.764962 0.224839 0.246484
O O15 0.781630 0.000000 0.306327
O O16 0.256590 0.500000 0.786888
O O17 0.344495 0.728996 0.824646
O O18 0.672998 0.782413 0.083675
O O19 0.775038 0.000000 0.042920
O O20 0.750000 0.750000 0.000000
O O21 0.119362 0.500000 0.143777
#
# Coordination Sequence:
#
# PCOD8092543 Si02
#       8
#     8   8   8   8   8   8   8   8
#     4  10  20  36  54  77 106 138 172 209 255 305
#     4   9  19  36  55  74 101 135 172 210 253 303
#     4  10  19  35  56  77 100 132 173 215 253 297
#     4   8  18  35  54  73 100 137 172 204 250 307
#     4  10  20  36  54  75 105 139 170 206 252 307
#     4  10  20  34  53  78 104 132 168 213 255 296
#     4  10  20  34  53  76 103 133 169 210 255 303
#     4   9  19  36  55  74  99 136 173 207 250 306
#
# _framework density 18.221786000000002
#
# number of rings (size 3 to 8) (size 9 to 14) (size 15 to 20)
#    0.000    2.500    0.000    2.625    0.000    3.500 
#    0.000   17.500    0.000    0.000    0.000    0.000 
#    0.000    0.000    0.000    0.000    0.000    0.000 
#
# Total GULP energy -396841.034388 kJ/mol
# GULP energy per Si atom -12401.282325 kJ/mol
# Density = 1.818031 g / cm^3
# Si number density = 18.221786 Si / 1000 Ang^3
#
#
#
# Elastic Constant Matrix: (Units=GPa)
#
#
# Indices 1 2 3 4 5 6 
#
# 1 166.5922 41.4087 65.0611 0.0000 -1.5926 0.0000
# 2 41.4087 66.5383 44.0585 0.0000 3.3495 0.0000
# 3 65.0611 44.0585 124.3108 0.0000 16.0966 0.0000
# 4 0.0000 0.0000 0.0000 36.2503 0.0000 4.4912
# 5 -1.5926 3.3495 16.0966 0.0000 16.1473 0.0000
# 6 0.0000 0.0000 0.0000 4.4912 0.0000 28.9632
#
#
#
# Elastic Compliance Matrix: (Units=1/GPa)
#
#
# Indices 1 2 3 4 5 6 
#
# 1 0.008340 -0.002752 -0.004099 0.000000 0.005480 0.000000
# 2 -0.002752 0.020699 -0.006091 0.000000 0.001507 0.000000
# 3 -0.004099 -0.006091 0.014051 0.000000 -0.013148 0.000000
# 4 0.000000 0.000000 0.000000 0.028126 0.000000 -0.004361
# 5 0.005480 0.001507 -0.013148 0.000000 0.075264 0.000000
# 6 0.000000 0.000000 0.000000 -0.004361 0.000000 0.035203
#
#
# Mechanical properties :
#
#
# Convention : Reuss Voigt Hill
#
# Bulk Modulus (GPa) = 58.11993 73.16642 65.64317
# Shear Modulus (GPa) = 23.44093 30.06636 26.75364
#
# Velocity S-wave (km/s) = 3.59057 4.06645 3.83590
# Velocity P-wave (km/s) = 7.01104 7.89231 7.46469
#
# Compressibility (1/GPa) = 0.01720580
#
# Stress axis : x y z
#
# Youngs Moduli (GPa) = 119.90489 48.31209 71.16935
#
# Poissons Ratio (x) = 0.13294 0.29174
# Poissons Ratio (y) = 0.32995 0.43349
# Poissons Ratio (z) = 0.49151 0.29427
#
# Static dielectric constant tensor:
#      x y z
#    x 3.627910 0.000000 -0.028600 
#    y 0.000000 3.352590 0.000000 
#    z -0.028600 0.000000 3.335210 
# 
# 
# High freq. dielectric constant tensor:
#      x y z
#    x 1.711550 0.000000 0.002740 
#    y 0.000000 1.705310 0.000000 
#    z 0.002740 0.000000 1.708140 
# 
# From -- ./inp_files/359770.got.cif
#   From: 2010.06.25/outbox.cif.g09.slc.cpg/sg12_180_cif.got.tgz:359770.got - 2010.06.28 00:19:55.
