data_PCOD8092777
_publ_section_title
;
Structure prediction by ZEFSAII (Michael W. Deem and Ramdas Pophale) SiO2 
 PCOD8092777
Probable space group: C 2/M
;
_chemical_formula_sum "Si O2"
_cell_formula_units_Z 56
_cell_length_a 13.088725
_cell_length_b 13.945619
_cell_length_c 19.485315
_cell_angle_alpha 90.000000
_cell_angle_beta 56.173693
_cell_angle_gamma 90.000000
_cell_volume 2954.621962
_symmetry_space_group_name_H-M "C 2/M"
_symmetry_group_IT_number 12
_symmetry_cell_setting 'monoclinic'
loop_
_space_group_symop_operation_xyz
x,y,z
-x,y,-z
-x,-y,-z
x,-y,z
1/2+x,1/2+y,z
1/2-x,1/2+y,-z
1/2-x,1/2-y,-z
1/2+x,1/2-y,z
loop_
_atom_site_type_symbol
_atom_site_label
_atom_site_fract_x
_atom_site_fract_y
_atom_site_fract_z
Si Si1 0.328665 0.683688 0.518805
Si Si2 0.229422 0.279330 0.810136
Si Si3 0.415076 0.104828 0.369427
Si Si4 0.527151 0.112934 0.805245
Si Si5 0.154999 0.226703 0.093642
Si Si6 0.547097 0.387468 0.905602
Si Si7 0.567419 0.736616 0.380034
O O1 0.250000 0.750000 0.500000
O O2 0.234126 0.596341 0.566414
O O3 0.459499 0.655261 0.433640
O O4 0.352141 0.741629 0.581234
O O5 0.275302 0.315866 0.866543
O O6 0.169836 0.173124 0.841339
O O7 0.347424 0.280849 0.716714
O O8 0.132465 0.356322 0.819130
O O9 0.436177 0.144510 0.284966
O O10 0.487382 0.167269 0.398630
O O11 0.471986 0.000000 0.356068
O O12 0.404128 0.170237 0.868062
O O13 0.502786 0.000000 0.821802
O O14 0.058331 0.145704 0.107333
O O15 0.250000 0.250000 0.000000
O O16 0.576371 0.500000 0.884549
O O17 0.500000 0.365353 0.000000
#
# Coordination Sequence:
#
# PCOD8092777 Si02
#       7
#     8   8   8   8   8   8   8
#     4   9  19  35  56  80 113 148 182 222 282 333
#     4  11  21  37  61  82 117 152 192 231 283 343
#     4  10  19  35  58  87 114 143 188 239 280 331
#     4  10  22  37  57  87 117 148 190 238 284 335
#     4  11  22  38  59  85 114 152 192 232 284 341
#     4  10  22  38  57  84 117 148 188 240 288 335
#     4  10  19  35  57  84 108 152 189 224 277 341
#
# _framework density 18.953354999999998
#
# number of rings (size 3 to 8) (size 9 to 14) (size 15 to 20)
#    0.000    1.857    4.286    0.000    0.000    2.286 
#    0.000    8.571    0.000    5.143    0.000    0.000 
#    0.000    0.000    0.000    0.000    0.000    0.000 
#
# Total GULP energy -346939.079543 kJ/mol
# GULP energy per Si atom -12390.681412 kJ/mol
# Density = 1.891022 g / cm^3
# Si number density = 18.953355 Si / 1000 Ang^3
#
#
#
# Elastic Constant Matrix: (Units=GPa)
#
#
# Indices 1 2 3 4 5 6 
#
# 1 84.1196 6.6999 15.8063 0.0000 15.5088 0.0000
# 2 6.6999 62.5691 4.8638 0.0000 2.1196 0.0000
# 3 15.8063 4.8638 97.3953 0.0000 -11.2902 0.0000
# 4 0.0000 0.0000 0.0000 17.1148 0.0000 0.4707
# 5 15.5088 2.1196 -11.2902 0.0000 44.5382 0.0000
# 6 0.0000 0.0000 0.0000 0.4707 0.0000 18.7767
#
#
#
# Elastic Compliance Matrix: (Units=1/GPa)
#
#
# Indices 1 2 3 4 5 6 
#
# 1 0.013473 -0.001048 -0.002753 0.000000 -0.005340 0.000000
# 2 -0.001048 0.016169 -0.000705 0.000000 -0.000583 0.000000
# 3 -0.002753 -0.000705 0.011193 0.000000 0.003830 0.000000
# 4 0.000000 0.000000 0.000000 0.058469 0.000000 -0.001466
# 5 -0.005340 -0.000583 0.003830 0.000000 0.025311 0.000000
# 6 0.000000 0.000000 0.000000 -0.001466 0.000000 0.053294
#
#
# Mechanical properties :
#
#
# Convention : Reuss Voigt Hill
#
# Bulk Modulus (GPa) = 31.42331 33.20266 32.31299
# Shear Modulus (GPa) = 25.31269 30.53355 27.92312
#
# Velocity S-wave (km/s) = 3.65845 4.01806 3.84246
# Velocity P-wave (km/s) = 5.87034 6.25160 6.06397
#
# Compressibility (1/GPa) = 0.03182351
#
# Stress axis : x y z
#
# Youngs Moduli (GPa) = 74.22218 61.84639 89.33825
#
# Poissons Ratio (x) = 0.06480 0.24597
# Poissons Ratio (y) = 0.07777 0.06299
# Poissons Ratio (z) = 0.20435 0.04360
#
# Static dielectric constant tensor:
#      x y z
#    x 3.736480 0.000000 -0.104120 
#    y 0.000000 3.242090 0.000000 
#    z -0.104120 0.000000 3.800320 
# 
# 
# High freq. dielectric constant tensor:
#      x y z
#    x 1.758130 0.000000 -0.001490 
#    y 0.000000 1.702270 0.000000 
#    z -0.001490 0.000000 1.750240 
# 
# From -- ./inp_files/262831.got.cif
#   From: 2010.06.25/outbox.cif.g09.slc.cpg/sg12_132_cif.got.tgz:262831.got - 2010.06.28 00:19:55.
