data_PCOD8092905
_publ_section_title
;
Structure prediction by ZEFSAII (Michael W. Deem and Ramdas Pophale) SiO2 
 PCOD8092905
Probable space group: C 2/M
;
_chemical_formula_sum "Si O2"
_cell_formula_units_Z 64
_cell_length_a 30.132972
_cell_length_b 8.839875
_cell_length_c 16.145358
_cell_angle_alpha 90.000000
_cell_angle_beta 132.950756
_cell_angle_gamma 90.000000
_cell_volume 3147.828107
_symmetry_space_group_name_H-M "C 2/M"
_symmetry_group_IT_number 12
_symmetry_cell_setting 'monoclinic'
loop_
_space_group_symop_operation_xyz
x,y,z
-x,y,-z
-x,-y,-z
x,-y,z
1/2+x,1/2+y,z
1/2-x,1/2+y,-z
1/2-x,1/2-y,-z
1/2+x,1/2-y,z
loop_
_atom_site_type_symbol
_atom_site_label
_atom_site_fract_x
_atom_site_fract_y
_atom_site_fract_z
Si Si1 0.455091 0.678976 0.373253
Si Si2 0.839344 0.320696 0.769186
Si Si3 0.225045 0.326354 0.049075
Si Si4 0.874696 0.177686 0.649098
Si Si5 0.107387 0.321332 0.988264
Si Si6 0.492787 0.676784 0.242499
Si Si7 0.834291 0.825810 0.307254
Si Si8 0.707841 0.178837 0.588237
O O1 0.500000 0.746450 0.500000
O O2 0.463237 0.500000 0.379251
O O3 0.471553 0.746362 0.303900
O O4 0.386878 0.726014 0.310907
O O5 0.829033 0.500000 0.751486
O O6 0.878238 0.260894 0.741642
O O7 0.774563 0.240545 0.689838
O O8 0.877716 0.274118 0.898905
O O9 0.218299 0.500000 0.018126
O O10 0.270124 0.301941 0.182573
O O11 0.250000 0.250000 0.000000
O O12 0.160441 0.258566 0.994999
O O13 0.817956 0.245273 0.527398
O O14 0.936482 0.212643 0.678757
O O15 0.864386 0.000000 0.649394
O O16 0.103484 0.500000 0.976158
O O17 0.043934 0.251299 0.879516
O O18 0.479561 0.500000 0.222126
O O19 0.836009 0.723778 0.391385
O O20 0.844560 0.000000 0.347117
O O21 0.709273 0.000000 0.578442
#
# Coordination Sequence:
#
# PCOD8092905 Si02
#       8
#     8   8   8   8   8   8   8   8
#     4   9  17  32  57  87 117 157 205 248 296 353
#     4  11  23  43  66  89 121 161 204 249 306 367
#     4  10  20  35  55  83 116 157 202 245 299 355
#     4  11  24  42  64  91 122 158 202 253 308 365
#     4  10  22  40  61  85 121 162 201 250 305 362
#     4  10  22  40  63  90 121 161 207 253 300 360
#     4  10  19  35  58  83 119 160 200 246 298 359
#     4  12  24  39  62  93 125 158 201 253 309 366
#
# _framework density 20.331478000000001
#
# number of rings (size 3 to 8) (size 9 to 14) (size 15 to 20)
#    0.000    1.625    1.250    3.750    0.000    6.500 
#    0.000    3.125    0.000    1.500    0.000    0.000 
#    0.000    0.000    0.000    0.000    0.000    0.000 
#
# Total GULP energy -396907.752922 kJ/mol
# GULP energy per Si atom -12403.367279 kJ/mol
# Density = 2.028520 g / cm^3
# Si number density = 20.331478 Si / 1000 Ang^3
#
#
#
# Elastic Constant Matrix: (Units=GPa)
#
#
# Indices 1 2 3 4 5 6 
#
# 1 87.1747 18.6747 28.2340 0.0000 -14.2930 0.0000
# 2 18.6747 43.2136 29.6695 0.0000 -3.0129 0.0000
# 3 28.2340 29.6695 107.7931 0.0000 -7.8080 0.0000
# 4 0.0000 0.0000 0.0000 30.2632 0.0000 -4.1067
# 5 -14.2930 -3.0129 -7.8080 0.0000 39.4169 0.0000
# 6 0.0000 0.0000 0.0000 -4.1067 0.0000 32.3817
#
#
#
# Elastic Compliance Matrix: (Units=1/GPa)
#
#
# Indices 1 2 3 4 5 6 
#
# 1 0.013757 -0.004175 -0.002147 0.000000 0.004244 0.000000
# 2 -0.004175 0.029816 -0.007160 0.000000 -0.000653 0.000000
# 3 -0.002147 -0.007160 0.011885 0.000000 0.001029 0.000000
# 4 0.000000 0.000000 0.000000 0.033622 0.000000 0.004264
# 5 0.004244 -0.000653 0.001029 0.000000 0.027063 0.000000
# 6 0.000000 0.000000 0.000000 0.004264 0.000000 0.031422
#
#
# Mechanical properties :
#
#
# Convention : Reuss Voigt Hill
#
# Bulk Modulus (GPa) = 35.09669 43.48196 39.28933
# Shear Modulus (GPa) = 27.17003 31.18589 29.17796
#
# Velocity S-wave (km/s) = 3.65958 3.92072 3.79240
# Velocity P-wave (km/s) = 5.92929 6.47526 6.20828
#
# Compressibility (1/GPa) = 0.02849272
#
# Stress axis : x y z
#
# Youngs Moduli (GPa) = 72.69172 33.53926 84.14204
#
# Poissons Ratio (x) = 0.14003 0.18062
# Poissons Ratio (y) = 0.30350 0.60249
# Poissons Ratio (z) = 0.15604 0.24015
#
# Static dielectric constant tensor:
#      x y z
#    x 3.847460 0.000000 -0.110420 
#    y 0.000000 3.507320 0.000000 
#    z -0.110420 0.000000 3.755090 
# 
# 
# High freq. dielectric constant tensor:
#      x y z
#    x 1.806540 0.000000 -0.004920 
#    y 0.000000 1.771770 0.000000 
#    z -0.004920 0.000000 1.803290 
# 
# From -- ./inp_files/249943.got.cif
#   From: 2010.06.25/outbox.cif.g09.slc.cpg/sg12_125_cif.got.tgz:249943.got - 2010.06.28 00:19:55.
