data_PCOD8092504
_publ_section_title
;
Structure prediction by ZEFSAII (Michael W. Deem and Ramdas Pophale) SiO2 
 PCOD8092504
Probable space group: C 2/M
;
_chemical_formula_sum "Si O2"
_cell_formula_units_Z 56
_cell_length_a 13.794846
_cell_length_b 12.804486
_cell_length_c 17.992261
_cell_angle_alpha 90.000000
_cell_angle_beta 61.713794
_cell_angle_gamma 90.000000
_cell_volume 2798.589630
_symmetry_space_group_name_H-M "C 2/M"
_symmetry_group_IT_number 12
_symmetry_cell_setting 'monoclinic'
loop_
_space_group_symop_operation_xyz
x,y,z
-x,y,-z
-x,-y,-z
x,-y,z
1/2+x,1/2+y,z
1/2-x,1/2+y,-z
1/2-x,1/2-y,-z
1/2+x,1/2-y,z
loop_
_atom_site_type_symbol
_atom_site_label
_atom_site_fract_x
_atom_site_fract_y
_atom_site_fract_z
Si Si1 0.550242 0.315892 0.904931
Si Si2 0.918017 0.878562 0.333697
Si Si3 0.824859 0.382960 0.155470
Si Si4 0.621890 0.615301 0.484349
Si Si5 0.609172 0.310392 0.173999
Si Si6 0.701971 0.880970 0.209260
Si Si7 0.755274 0.757429 0.680855
O O1 0.573468 0.191927 0.902114
O O2 0.459723 0.338482 0.874340
O O3 0.665578 0.374959 0.848536
O O4 0.500000 0.357764 0.000000
O O5 0.883610 0.846226 0.429050
O O6 0.854239 0.804652 0.300337
O O7 0.045723 0.853919 0.270449
O O8 0.891467 0.000000 0.328755
O O9 0.869871 0.500000 0.139546
O O10 0.726547 0.369882 0.130793
O O11 0.778516 0.353175 0.253889
O O12 0.500000 0.605039 0.500000
O O13 0.677919 0.500000 0.458360
O O14 0.685816 0.701581 0.414049
O O15 0.635917 0.185702 0.170817
O O16 0.670893 0.826176 0.299606
O O17 0.661046 0.000000 0.221634
#
# Coordination Sequence:
#
# PCOD8092504 Si02
#       7
#     8   8   8   8   8   8   8
#     4  10  22  40  60  84 116 149 190 242 287 347
#     4  11  20  34  59  83 109 153 195 232 284 340
#     4  10  21  36  59  85 115 152 192 236 286 342
#     4  10  20  33  53  82 114 149 192 238 282 330
#     4  10  20  39  59  85 114 154 193 238 282 347
#     4  10  22  38  59  86 117 154 191 234 289 344
#     4  10  19  35  55  81 117 147 193 239 279 331
#
# _framework density 20.010079000000001
#
# number of rings (size 3 to 8) (size 9 to 14) (size 15 to 20)
#    0.000    2.143    2.857    3.429    0.000    5.143 
#    0.000    1.429    0.000    9.429    0.000    0.000 
#    0.000    0.000    0.000    0.000    0.000    0.000 
#
# Total GULP energy -347026.403997 kJ/mol
# GULP energy per Si atom -12393.800143 kJ/mol
# Density = 1.996454 g / cm^3
# Si number density = 20.010079 Si / 1000 Ang^3
#
#
#
# Elastic Constant Matrix: (Units=GPa)
#
#
# Indices 1 2 3 4 5 6 
#
# 1 68.7339 -2.2484 21.0967 0.0000 12.7523 0.0000
# 2 -2.2484 96.2437 14.4866 0.0000 3.7402 0.0000
# 3 21.0967 14.4866 91.9871 0.0000 10.1393 0.0000
# 4 0.0000 0.0000 0.0000 15.6874 0.0000 -1.4184
# 5 12.7523 3.7402 10.1393 0.0000 22.2438 0.0000
# 6 0.0000 0.0000 0.0000 -1.4184 0.0000 16.6226
#
#
#
# Elastic Compliance Matrix: (Units=1/GPa)
#
#
# Indices 1 2 3 4 5 6 
#
# 1 0.017158 0.001213 -0.003179 0.000000 -0.008592 0.000000
# 2 0.001213 0.010753 -0.001785 0.000000 -0.001690 0.000000
# 3 -0.003179 -0.001785 0.012264 0.000000 -0.003467 0.000000
# 4 0.000000 0.000000 0.000000 0.064241 0.000000 0.005482
# 5 -0.008592 -0.001690 -0.003467 0.000000 0.051747 0.000000
# 6 0.000000 0.000000 0.000000 0.005482 0.000000 0.060627
#
#
# Mechanical properties :
#
#
# Convention : Reuss Voigt Hill
#
# Bulk Modulus (GPa) = 30.60707 35.95940 33.28324
# Shear Modulus (GPa) = 21.26002 25.81939 23.53970
#
# Velocity S-wave (km/s) = 3.26308 3.59600 3.43358
# Velocity P-wave (km/s) = 5.43378 5.93728 5.69110
#
# Compressibility (1/GPa) = 0.03267219
#
# Stress axis : x y z
#
# Youngs Moduli (GPa) = 58.28055 92.99688 81.54221
#
# Poissons Ratio (x) = -0.11283 0.25924
# Poissons Ratio (y) = -0.07071 0.14559
# Poissons Ratio (z) = 0.18529 0.16604
#
# Static dielectric constant tensor:
#      x y z
#    x 3.241130 0.000000 -0.991610 
#    y 0.000000 3.594200 0.000000 
#    z -0.991610 0.000000 -0.299110 
# 
# 
# High freq. dielectric constant tensor:
#      x y z
#    x 1.776150 0.000000 0.011130 
#    y 0.000000 1.775430 0.000000 
#    z 0.011130 0.000000 1.768220 
# 
# From -- ./inp_files/269805.got.cif
#   From: 2010.06.25/outbox.cif.g09.slc.cpg/sg12_135_cif.got.tgz:269805.got - 2010.06.28 00:19:55.
