data_PCOD8092974
_publ_section_title
;
Structure prediction by ZEFSAII (Michael W. Deem and Ramdas Pophale) SiO2 
 PCOD8092974
Probable space group: C 2/M
;
_chemical_formula_sum "Si O2"
_cell_formula_units_Z 60
_cell_length_a 8.839951
_cell_length_b 23.023232
_cell_length_c 15.047717
_cell_angle_alpha 90.000000
_cell_angle_beta 107.079006
_cell_angle_gamma 90.000000
_cell_volume 2927.517758
_symmetry_space_group_name_H-M "C 2/M"
_symmetry_group_IT_number 12
_symmetry_cell_setting 'monoclinic'
loop_
_space_group_symop_operation_xyz
x,y,z
-x,y,-z
-x,-y,-z
x,-y,z
1/2+x,1/2+y,z
1/2-x,1/2+y,-z
1/2-x,1/2-y,-z
1/2+x,1/2-y,z
loop_
_atom_site_type_symbol
_atom_site_label
_atom_site_fract_x
_atom_site_fract_y
_atom_site_fract_z
Si Si1 0.936735 0.621109 0.202083
Si Si2 0.500000 0.850180 0.500000
Si Si3 0.019609 0.935557 0.695627
Si Si4 0.817091 0.932030 0.957217
Si Si5 0.662989 0.064450 0.645264
Si Si6 0.441473 0.319383 0.391138
Si Si7 0.303473 0.934539 0.870787
Si Si8 0.412902 0.214927 0.661336
O O1 0.763622 0.610752 0.129083
O O2 0.950222 0.579648 0.290956
O O3 0.070092 0.607323 0.152703
O O4 0.968678 0.686197 0.244886
O O5 0.359749 0.891681 0.440757
O O6 0.566309 0.810947 0.433320
O O7 0.053025 0.888052 0.625831
O O8 0.132406 0.925176 0.798398
O O9 0.844855 0.930447 0.706096
O O10 0.046439 0.000000 0.658360
O O11 0.804678 0.000000 0.926330
O O12 0.717047 0.920839 0.029266
O O13 0.000000 0.914119 0.000000
O O14 0.619686 0.000000 0.605372
O O15 0.500000 0.307268 0.500000
O O16 0.551513 0.283768 0.340263
O O17 0.267226 0.294583 0.342403
O O18 0.365461 0.000000 0.867981
#
# Coordination Sequence:
#
# PCOD8092974 Si02
#       8
#     8   4   8   8   8   8   8   8
#     4  11  21  36  57  90 125 163 211 255 307 369
#     4  10  21  38  56  86 117 158 218 256 306 368
#     4  10  22  39  60  91 124 161 202 258 327 377
#     4  10  20  35  60  95 130 167 209 255 314 379
#     4  10  20  34  55  82 124 167 203 253 314 373
#     4  12  24  42  66  89 122 164 215 271 310 376
#     4  10  19  35  58  88 126 160 201 254 309 372
#     4  11  25  40  62  91 118 164 215 262 313 367
#
# _framework density 20.495179
#
# number of rings (size 3 to 8) (size 9 to 14) (size 15 to 20)
#    0.000    1.467    2.000    3.800    3.733    3.467 
#    0.000    0.667    0.000    0.800    0.000    0.000 
#    0.000    0.000    0.000    0.000    0.000    0.000 
#
# Total GULP energy -371960.035858 kJ/mol
# GULP energy per Si atom -12398.667862 kJ/mol
# Density = 2.044853 g / cm^3
# Si number density = 20.495179 Si / 1000 Ang^3
#
#
#
# Elastic Constant Matrix: (Units=GPa)
#
#
# Indices 1 2 3 4 5 6 
#
# 1 71.8526 24.8909 16.9449 0.0000 4.4161 0.0000
# 2 24.8909 108.0858 38.1640 0.0000 3.4018 0.0000
# 3 16.9449 38.1640 90.7097 0.0000 11.9366 0.0000
# 4 0.0000 0.0000 0.0000 11.8833 0.0000 -3.7513
# 5 4.4161 3.4018 11.9366 0.0000 35.7970 0.0000
# 6 0.0000 0.0000 0.0000 -3.7513 0.0000 22.2890
#
#
#
# Elastic Compliance Matrix: (Units=1/GPa)
#
#
# Indices 1 2 3 4 5 6 
#
# 1 0.015367 -0.002986 -0.001467 0.000000 -0.001123 0.000000
# 2 -0.002986 0.011455 -0.004358 0.000000 0.000733 0.000000
# 3 -0.001467 -0.004358 0.013653 0.000000 -0.003957 0.000000
# 4 0.000000 0.000000 0.000000 0.088874 0.000000 0.014958
# 5 -0.001123 0.000733 -0.003957 0.000000 0.029324 0.000000
# 6 0.000000 0.000000 0.000000 0.014958 0.000000 0.047382
#
#
# Mechanical properties :
#
#
# Convention : Reuss Voigt Hill
#
# Bulk Modulus (GPa) = 43.75721 47.84975 45.80348
# Shear Modulus (GPa) = 21.61760 26.70374 24.16067
#
# Velocity S-wave (km/s) = 3.25124 3.61352 3.43716
# Velocity P-wave (km/s) = 5.95738 6.38808 6.17649
#
# Compressibility (1/GPa) = 0.02285338
#
# Stress axis : x y z
#
# Youngs Moduli (GPa) = 65.07658 87.29633 73.24628
#
# Poissons Ratio (x) = 0.26062 0.10743
# Poissons Ratio (y) = 0.19429 0.31923
# Poissons Ratio (z) = 0.09545 0.38046
#
# Static dielectric constant tensor:
#      x y z
#    x 3.751400 0.000000 0.148520 
#    y 0.000000 3.711470 0.000000 
#    z 0.148520 0.000000 3.695860 
# 
# 
# High freq. dielectric constant tensor:
#      x y z
#    x 1.807890 0.000000 0.009280 
#    y 0.000000 1.782060 0.000000 
#    z 0.009280 0.000000 1.794780 
# 
# From -- ./inp_files/198909.got.cif
#   From: 2010.06.25/outbox.cif.g09.slc.cpg/sg12_100_cif.got.tgz:198909.got - 2010.06.28 00:19:55.
