data_PCOD8092814
_publ_section_title
;
Structure prediction by ZEFSAII (Michael W. Deem and Ramdas Pophale) SiO2 
 PCOD8092814
Probable space group: C 2/M
;
_chemical_formula_sum "Si O2"
_cell_formula_units_Z 64
_cell_length_a 30.227920
_cell_length_b 9.291015
_cell_length_c 14.613990
_cell_angle_alpha 90.000000
_cell_angle_beta 58.761669
_cell_angle_gamma 90.000000
_cell_volume 3509.257516
_symmetry_space_group_name_H-M "C 2/M"
_symmetry_group_IT_number 12
_symmetry_cell_setting 'monoclinic'
loop_
_space_group_symop_operation_xyz
x,y,z
-x,y,-z
-x,-y,-z
x,-y,z
1/2+x,1/2+y,z
1/2-x,1/2+y,-z
1/2-x,1/2-y,-z
1/2+x,1/2-y,z
loop_
_atom_site_type_symbol
_atom_site_label
_atom_site_fract_x
_atom_site_fract_y
_atom_site_fract_z
Si Si1 0.611228 0.668009 0.732605
Si Si2 0.170963 0.670311 0.823234
Si Si3 0.711322 0.668057 0.272467
Si Si4 0.627502 0.335273 0.508038
Si Si5 0.007850 0.667449 0.884339
Si Si6 0.943738 0.666322 0.538212
Si Si7 0.140443 0.667239 0.219494
Si Si8 0.897490 0.329420 0.934103
O O1 0.607103 0.500000 0.761970
O O2 0.650537 0.747278 0.757124
O O3 0.635711 0.691760 0.606260
O O4 0.554505 0.736657 0.797687
O O5 0.164320 0.500000 0.814637
O O6 0.230052 0.715751 0.774404
O O7 0.138571 0.725257 0.945038
O O8 0.707474 0.500000 0.255563
O O9 0.679146 0.711850 0.397780
O O10 0.689967 0.749523 0.205971
O O11 0.614540 0.500000 0.500837
O O12 0.578494 0.244735 0.526807
O O13 0.019866 0.500000 0.851632
O O14 0.956393 0.721631 0.887044
O O15 0.000000 0.692486 0.000000
O O16 0.947661 0.500000 0.507791
O O17 0.908606 0.694460 0.663831
O O18 0.000000 0.730191 0.500000
O O19 0.155177 0.500000 0.197850
O O20 0.125314 0.731222 0.136503
O O21 0.897000 0.500000 0.931634
#
# Coordination Sequence:
#
# PCOD8092814 Si02
#       8
#     8   8   8   8   8   8   8   8
#     4  11  23  36  52  79 112 140 174 220 268 316
#     4  10  20  37  58  78 101 138 184 221 261 315
#     4   9  19  37  58  76 102 139 180 222 260 314
#     4   9  20  37  52  73 107 143 173 211 268 318
#     4  10  19  35  58  78 104 143 181 215 258 313
#     4   9  18  31  50  77 103 132 177 222 255 302
#     4   9  18  33  52  76 108 138 167 216 271 311
#     4   9  18  33  54  80 106 136 174 215 260 314
#
# _framework density 18.237476000000001
#
# number of rings (size 3 to 8) (size 9 to 14) (size 15 to 20)
#    0.000    2.500    1.250    0.375    1.750    3.000 
#    0.000    1.250    0.000    0.000    0.000    0.000 
#    0.000    0.000    0.000    0.000    0.000    0.000 
#
# Total GULP energy -396844.588342 kJ/mol
# GULP energy per Si atom -12401.393386 kJ/mol
# Density = 1.819597 g / cm^3
# Si number density = 18.237476 Si / 1000 Ang^3
#
#
#
# Elastic Constant Matrix: (Units=GPa)
#
#
# Indices 1 2 3 4 5 6 
#
# 1 182.4140 58.3184 72.7635 0.0000 2.3188 0.0000
# 2 58.3184 50.6305 33.3375 0.0000 5.2640 0.0000
# 3 72.7635 33.3375 66.9713 0.0000 16.1354 0.0000
# 4 0.0000 0.0000 0.0000 18.0844 0.0000 0.1330
# 5 2.3188 5.2640 16.1354 0.0000 32.9839 0.0000
# 6 0.0000 0.0000 0.0000 0.1330 0.0000 32.1372
#
#
#
# Elastic Compliance Matrix: (Units=1/GPa)
#
#
# Indices 1 2 3 4 5 6 
#
# 1 0.012081 -0.007387 -0.010801 0.000000 0.005613 0.000000
# 2 -0.007387 0.034127 -0.008814 0.000000 -0.000615 0.000000
# 3 -0.010801 -0.008814 0.034612 0.000000 -0.014766 0.000000
# 4 0.000000 0.000000 0.000000 0.055298 0.000000 -0.000229
# 5 0.005613 -0.000615 -0.014766 0.000000 0.037245 0.000000
# 6 0.000000 0.000000 0.000000 -0.000229 0.000000 0.031118
#
#
# Mechanical properties :
#
#
# Convention : Reuss Voigt Hill
#
# Bulk Modulus (GPa) = 37.29110 69.87275 53.58192
# Shear Modulus (GPa) = 18.69708 25.68084 22.18896
#
# Velocity S-wave (km/s) = 3.20535 3.75658 3.49186
# Velocity P-wave (km/s) = 5.84730 7.56385 6.76028
#
# Compressibility (1/GPa) = 0.02681605
#
# Stress axis : x y z
#
# Youngs Moduli (GPa) = 82.77717 29.30231 28.89205
#
# Poissons Ratio (x) = 0.21645 0.31206
# Poissons Ratio (y) = 0.61147 0.25465
# Poissons Ratio (z) = 0.89405 0.25827
#
# Static dielectric constant tensor:
#      x y z
#    x 3.523910 0.000000 0.015930 
#    y 0.000000 3.218130 0.000000 
#    z 0.015930 0.000000 3.464160 
# 
# 
# High freq. dielectric constant tensor:
#      x y z
#    x 1.715280 0.000000 0.001890 
#    y 0.000000 1.687050 0.000000 
#    z 0.001890 0.000000 1.709580 
# 
# From -- ./inp_files/249074.got.cif
#   From: 2010.06.25/outbox.cif.g09.slc.cpg/sg12_125_cif.got.tgz:249074.got - 2010.06.28 00:19:55.
