data_PCOD8092337
_publ_section_title
;
Structure prediction by ZEFSAII (Michael W. Deem and Ramdas Pophale) SiO2 
 PCOD8092337
Probable space group: C 2/M
;
_chemical_formula_sum "Si O2"
_cell_formula_units_Z 48
_cell_length_a 5.796562
_cell_length_b 27.823065
_cell_length_c 14.921307
_cell_angle_alpha 90.000000
_cell_angle_beta 64.521571
_cell_angle_gamma 90.000000
_cell_volume 2172.443651
_symmetry_space_group_name_H-M "C 2/M"
_symmetry_group_IT_number 12
_symmetry_cell_setting 'monoclinic'
loop_
_space_group_symop_operation_xyz
x,y,z
-x,y,-z
-x,-y,-z
x,-y,z
1/2+x,1/2+y,z
1/2-x,1/2+y,-z
1/2-x,1/2-y,-z
1/2+x,1/2-y,z
loop_
_atom_site_type_symbol
_atom_site_label
_atom_site_fract_x
_atom_site_fract_y
_atom_site_fract_z
Si Si1 0.006452 0.945711 0.712573
Si Si2 0.767732 0.679459 0.099415
Si Si3 0.150031 0.639504 0.383918
Si Si4 0.444417 0.273022 0.281389
Si Si5 0.574159 0.876440 0.756639
Si Si6 0.966764 0.912845 0.101704
O O1 0.770465 0.919571 0.704962
O O2 0.950191 0.946218 0.829218
O O3 0.258839 0.915781 0.643361
O O4 0.034576 0.000000 0.672628
O O5 0.561340 0.720745 0.160138
O O6 0.850660 0.664082 0.185316
O O7 0.639245 0.635284 0.068814
O O8 0.000000 0.699645 0.000000
O O9 0.393117 0.675022 0.337196
O O10 0.000000 0.647323 0.500000
O O11 0.966728 0.651204 0.330278
O O12 0.656964 0.249253 0.313317
O O13 0.324975 0.900865 0.837228
O O14 0.000000 0.939328 0.000000
#
# Coordination Sequence:
#
# PCOD8092337 Si02
#       6
#     8   8   8   8   8   8
#     4  10  23  41  65 100 136 175 228 290 354 424
#     4  11  21  38  68  99 137 183 228 278 348 418
#     4  11  25  46  72  96 132 182 232 293 361 416
#     4  12  27  46  71 106 146 184 240 297 351 426
#     4  10  19  40  64  93 135 180 222 284 343 416
#     4  10  19  34  66  95 132 185 229 276 342 413
#
# _framework density 22.094932
#
# number of rings (size 3 to 8) (size 9 to 14) (size 15 to 20)
#    0.000    1.333    6.667    1.000    0.000    5.333 
#    0.000    1.667    0.000    0.000    0.000    0.000 
#    0.000    0.000    0.000    0.000    0.000    0.000 
#
# Total GULP energy -297391.010968 kJ/mol
# GULP energy per Si atom -12391.292124 kJ/mol
# Density = 2.204464 g / cm^3
# Si number density = 22.094932 Si / 1000 Ang^3
#
#
#
# Elastic Constant Matrix: (Units=GPa)
#
#
# Indices 1 2 3 4 5 6 
#
# 1 113.0814 17.9849 32.0002 0.0000 1.6877 0.0000
# 2 17.9849 68.0991 16.9471 0.0000 0.9909 0.0000
# 3 32.0002 16.9471 132.9148 0.0000 -8.9622 0.0000
# 4 0.0000 0.0000 0.0000 10.0912 0.0000 -17.7858
# 5 1.6877 0.9909 -8.9622 0.0000 20.8117 0.0000
# 6 0.0000 0.0000 0.0000 -17.7858 0.0000 6.4644
#
#
#
# Elastic Compliance Matrix: (Units=1/GPa)
#
#
# Indices 1 2 3 4 5 6 
#
# 1 0.009816 -0.002016 -0.002218 0.000000 -0.001655 0.000000
# 2 -0.002016 0.015632 -0.001593 0.000000 -0.001267 0.000000
# 3 -0.002218 -0.001593 0.008525 0.000000 0.003927 0.000000
# 4 0.000000 0.000000 0.000000 -0.025745 0.000000 -0.070832
# 5 -0.001655 -0.001267 0.003927 0.000000 0.049935 0.000000
# 6 0.000000 0.000000 0.000000 -0.070832 0.000000 -0.040188
#
#
# Mechanical properties :
#
#
# Convention : Reuss Voigt Hill
#
# Bulk Modulus (GPa) = 44.80500 49.77332 47.28916
# Shear Modulus (GPa) = 134.87767 23.95102 79.41435
#
# Velocity S-wave (km/s) = 7.82158 3.29600 6.00170
# Velocity P-wave (km/s) = 10.09415 6.08775 8.33525
#
# Compressibility (1/GPa) = 0.02231894
#
# Stress axis : x y z
#
# Youngs Moduli (GPa) = 101.87246 63.97170 117.29537
#
# Poissons Ratio (x) = 0.12900 0.26014
# Poissons Ratio (y) = 0.20542 0.18686
# Poissons Ratio (z) = 0.22593 0.10191
#
# Static dielectric constant tensor:
#      x y z
#    x 5.095060 0.000000 0.139560 
#    y 0.000000 3.721470 0.000000 
#    z 0.139560 0.000000 3.805060 
# 
# 
# High freq. dielectric constant tensor:
#      x y z
#    x 1.883850 0.000000 -0.007950 
#    y 0.000000 1.847060 0.000000 
#    z -0.007950 0.000000 1.852500 
# 
# From -- ./inp_files/192520.got.cif
#   From: 2010.06.25/outbox.cif.g09.slc.cpg/sg12_97_cif.got.tgz:192520.got - 2010.06.28 00:19:55.
