data_PCOD8092718
_publ_section_title
;
Structure prediction by ZEFSAII (Michael W. Deem and Ramdas Pophale) SiO2 
 PCOD8092718
Probable space group: C 2/M
;
_chemical_formula_sum "Si O2"
_cell_formula_units_Z 64
_cell_length_a 27.625149
_cell_length_b 13.982169
_cell_length_c 9.132675
_cell_angle_alpha 90.000000
_cell_angle_beta 109.644434
_cell_angle_gamma 90.000000
_cell_volume 3322.266685
_symmetry_space_group_name_H-M "C 2/M"
_symmetry_group_IT_number 12
_symmetry_cell_setting 'monoclinic'
loop_
_space_group_symop_operation_xyz
x,y,z
-x,y,-z
-x,-y,-z
x,-y,z
1/2+x,1/2+y,z
1/2-x,1/2+y,-z
1/2-x,1/2-y,-z
1/2+x,1/2-y,z
loop_
_atom_site_type_symbol
_atom_site_label
_atom_site_fract_x
_atom_site_fract_y
_atom_site_fract_z
Si Si1 0.679137 0.214724 0.661004
Si Si2 0.156909 0.110152 0.456085
Si Si3 0.058411 0.888536 0.887609
Si Si4 0.059082 0.388025 0.042943
Si Si5 0.202211 0.775142 0.243522
Si Si6 0.445902 0.609858 0.792301
Si Si7 0.850505 0.388765 0.649997
Si Si8 0.871377 0.265191 0.091447
O O1 0.673306 0.325920 0.609825
O O2 0.739561 0.196996 0.729578
O O3 0.649910 0.144260 0.518757
O O4 0.654950 0.190042 0.792898
O O5 0.182956 0.140715 0.330365
O O6 0.096147 0.128867 0.373416
O O7 0.169883 0.000000 0.502602
O O8 0.097030 0.828979 0.825232
O O9 0.000666 0.860024 0.781716
O O10 0.070945 0.000000 0.881398
O O11 0.066969 0.844235 0.061882
O O12 0.057358 0.500000 0.007683
O O13 0.088872 0.341089 0.936884
O O14 0.092819 0.366895 0.224409
O O15 0.000000 0.349682 0.000000
O O16 0.194200 0.672087 0.314192
O O17 0.172840 0.772120 0.061103
O O18 0.450534 0.500000 0.842779
O O19 0.836201 0.500000 0.650666
#
# Coordination Sequence:
#
# PCOD8092718 Si02
#       8
#     8   8   8   8   8   8   8   8
#     4  11  24  36  50  81 114 144 176 225 277 322
#     4  10  19  35  57  81 108 142 181 220 261 315
#     4   9  17  30  51  80 108 136 171 210 253 310
#     4   9  20  39  62  84 103 134 185 233 269 318
#     4  10  21  37  56  77 105 141 192 228 259 312
#     4   8  15  29  52  78 102 131 173 215 247 295
#     4   9  19  38  61  80 104 139 182 227 272 323
#     4  11  22  35  56  79 111 145 177 221 278 323
#
# _framework density 19.263957000000001
#
# number of rings (size 3 to 8) (size 9 to 14) (size 15 to 20)
#    0.000    2.375    1.250    2.625    1.750    3.000 
#    0.000    2.500    0.000    9.000    0.000    0.000 
#    0.000    0.000    0.000    0.000    0.000    0.000 
#
# Total GULP energy -396633.573090 kJ/mol
# GULP energy per Si atom -12394.799159 kJ/mol
# Density = 1.922011 g / cm^3
# Si number density = 19.263957 Si / 1000 Ang^3
#
#
#
# Elastic Constant Matrix: (Units=GPa)
#
#
# Indices 1 2 3 4 5 6 
#
# 1 110.7694 34.1300 64.9893 0.0000 5.0881 0.0000
# 2 34.1300 68.8370 18.3493 0.0000 3.2737 0.0000
# 3 64.9893 18.3493 69.4100 0.0000 -4.6190 0.0000
# 4 0.0000 0.0000 0.0000 19.2702 0.0000 7.3530
# 5 5.0881 3.2737 -4.6190 0.0000 25.7279 0.0000
# 6 0.0000 0.0000 0.0000 7.3530 0.0000 19.8426
#
#
#
# Elastic Compliance Matrix: (Units=1/GPa)
#
#
# Indices 1 2 3 4 5 6 
#
# 1 0.023399 -0.005660 -0.020923 0.000000 -0.007664 0.000000
# 2 -0.005660 0.017194 0.000691 0.000000 -0.000944 0.000000
# 3 -0.020923 0.000691 0.034496 0.000000 0.010243 0.000000
# 4 0.000000 0.000000 0.000000 0.060439 0.000000 -0.022397
# 5 -0.007664 -0.000944 0.010243 0.000000 0.042343 0.000000
# 6 0.000000 0.000000 0.000000 -0.022397 0.000000 0.058696
#
#
# Mechanical properties :
#
#
# Convention : Reuss Voigt Hill
#
# Bulk Modulus (GPa) = 42.90636 53.77262 48.33949
# Shear Modulus (GPa) = 16.88509 21.73801 19.31155
#
# Velocity S-wave (km/s) = 2.96381 3.36285 3.16962
# Velocity P-wave (km/s) = 5.83382 6.56145 6.20830
#
# Compressibility (1/GPa) = 0.02330657
#
# Stress axis : x y z
#
# Youngs Moduli (GPa) = 42.73661 58.15991 28.98880
#
# Poissons Ratio (x) = 0.32918 0.60652
# Poissons Ratio (y) = 0.24189 -0.02004
# Poissons Ratio (z) = 0.89416 -0.04020
#
# Static dielectric constant tensor:
#      x y z
#    x 3.793090 0.000000 0.413300 
#    y 0.000000 3.506270 0.000000 
#    z 0.413300 0.000000 3.457440 
# 
# 
# High freq. dielectric constant tensor:
#      x y z
#    x 1.746440 0.000000 0.024250 
#    y 0.000000 1.750030 0.000000 
#    z 0.024250 0.000000 1.729500 
# 
# From -- ./inp_files/104674.got.cif
#   From: 2010.06.25/outbox.cif.g09.slc.cpg/sg12_53_cif.got.tgz:104674.got - 2010.06.28 00:19:55.
