data_PCOD8092327
_publ_section_title
;
Structure prediction by ZEFSAII (Michael W. Deem and Ramdas Pophale) SiO2 
 PCOD8092327
Probable space group: C 2/M
;
_chemical_formula_sum "Si O2"
_cell_formula_units_Z 48
_cell_length_a 8.556199
_cell_length_b 21.851579
_cell_length_c 12.176225
_cell_angle_alpha 90.000000
_cell_angle_beta 100.730139
_cell_angle_gamma 90.000000
_cell_volume 2236.740253
_symmetry_space_group_name_H-M "C 2/M"
_symmetry_group_IT_number 12
_symmetry_cell_setting 'monoclinic'
loop_
_space_group_symop_operation_xyz
x,y,z
-x,y,-z
-x,-y,-z
x,-y,z
1/2+x,1/2+y,z
1/2-x,1/2+y,-z
1/2-x,1/2-y,-z
1/2+x,1/2-y,z
loop_
_atom_site_type_symbol
_atom_site_label
_atom_site_fract_x
_atom_site_fract_y
_atom_site_fract_z
Si Si1 0.386350 0.069576 0.894799
Si Si2 0.405197 0.337054 0.689466
Si Si3 0.530256 0.899783 0.332680
Si Si4 0.569304 0.773137 0.631372
Si Si5 0.242718 0.932414 0.455384
Si Si6 0.531553 0.428610 0.876095
O O1 0.472046 0.073016 0.788874
O O2 0.208297 0.096420 0.870709
O O3 0.364849 0.000000 0.929950
O O4 0.500000 0.102650 0.000000
O O5 0.553300 0.291044 0.694677
O O6 0.251996 0.292819 0.664479
O O7 0.397337 0.383806 0.584956
O O8 0.415721 0.380623 0.798417
O O9 0.535805 0.826326 0.326176
O O10 0.376692 0.922198 0.379475
O O11 0.687549 0.923546 0.414319
O O12 0.500000 0.765103 0.500000
O O13 0.170829 0.000000 0.435787
O O14 0.503654 0.500000 0.835947
O O15 0.500000 0.421697 0.000000
#
# Coordination Sequence:
#
# PCOD8092327 Si02
#       6
#     8   8   8   8   8   8
#     4  10  22  38  64  97 128 166 210 267 327 382
#     4  11  24  40  64  93 125 170 217 261 322 378
#     4  10  19  36  60  95 131 165 215 259 313 385
#     4  11  23  41  63  94 128 176 215 257 316 383
#     4  10  19  34  62  96 129 165 206 266 323 384
#     4  10  24  46  67  93 130 170 216 270 330 387
#
# _framework density 21.459800000000001
#
# number of rings (size 3 to 8) (size 9 to 14) (size 15 to 20)
#    0.000    1.667    3.333    3.000    7.000    0.000 
#    0.000    1.667    0.000    4.000    0.000    0.000 
#    0.000    0.000    0.000    0.000    0.000    0.000 
#
# Total GULP energy -297456.988175 kJ/mol
# GULP energy per Si atom -12394.041174 kJ/mol
# Density = 2.141096 g / cm^3
# Si number density = 21.459800 Si / 1000 Ang^3
#
#
#
# Elastic Constant Matrix: (Units=GPa)
#
#
# Indices 1 2 3 4 5 6 
#
# 1 52.6621 28.6091 29.8419 0.0000 9.3310 0.0000
# 2 28.6091 150.7866 30.9941 0.0000 13.2753 0.0000
# 3 29.8419 30.9941 128.2557 0.0000 7.7982 0.0000
# 4 0.0000 0.0000 0.0000 21.4697 0.0000 -0.6754
# 5 9.3310 13.2753 7.7982 0.0000 25.4148 0.0000
# 6 0.0000 0.0000 0.0000 -0.6754 0.0000 15.9098
#
#
#
# Elastic Compliance Matrix: (Units=1/GPa)
#
#
# Indices 1 2 3 4 5 6 
#
# 1 0.024321 -0.003164 -0.004537 0.000000 -0.005885 0.000000
# 2 -0.003164 0.007653 -0.000959 0.000000 -0.002542 0.000000
# 3 -0.004537 -0.000959 0.009123 0.000000 -0.000633 0.000000
# 4 0.000000 0.000000 0.000000 0.046639 0.000000 0.001980
# 5 -0.005885 -0.002542 -0.000633 0.000000 0.043030 0.000000
# 6 0.000000 0.000000 0.000000 0.001980 0.000000 0.062938
#
#
# Mechanical properties :
#
#
# Convention : Reuss Voigt Hill
#
# Bulk Modulus (GPa) = 42.05475 56.73275 49.39375
# Shear Modulus (GPa) = 22.83639 28.70950 25.77294
#
# Velocity S-wave (km/s) = 3.26567 3.66160 3.46929
# Velocity P-wave (km/s) = 5.81885 6.66112 6.25418
#
# Compressibility (1/GPa) = 0.02377853
#
# Stress axis : x y z
#
# Youngs Moduli (GPa) = 41.11623 130.66727 109.61761
#
# Poissons Ratio (x) = 0.41342 0.49729
# Poissons Ratio (y) = 0.13009 0.10509
# Poissons Ratio (z) = 0.18653 0.12527
#
# Static dielectric constant tensor:
#      x y z
#    x 3.822360 0.000000 0.258180 
#    y 0.000000 4.140320 0.000000 
#    z 0.258180 0.000000 3.705530 
# 
# 
# High freq. dielectric constant tensor:
#      x y z
#    x 1.833110 0.000000 0.011010 
#    y 0.000000 1.842760 0.000000 
#    z 0.011010 0.000000 1.829760 
# 
# From -- ./inp_files/122042.got.cif
#   From: 2010.06.25/outbox.cif.g09.slc.cpg/sg12_62_cif.got.tgz:122042.got - 2010.06.28 00:19:55.
