data_PCOD8092990
_publ_section_title
;
Structure prediction by ZEFSAII (Michael W. Deem and Ramdas Pophale) SiO2 
 PCOD8092990
Probable space group: C 2/M
;
_chemical_formula_sum "Si O2"
_cell_formula_units_Z 48
_cell_length_a 29.557107
_cell_length_b 17.314247
_cell_length_c 9.997921
_cell_angle_alpha 90.000000
_cell_angle_beta 149.401921
_cell_angle_gamma 90.000000
_cell_volume 2604.376268
_symmetry_space_group_name_H-M "C 2/M"
_symmetry_group_IT_number 12
_symmetry_cell_setting 'monoclinic'
loop_
_space_group_symop_operation_xyz
x,y,z
-x,y,-z
-x,-y,-z
x,-y,z
1/2+x,1/2+y,z
1/2-x,1/2+y,-z
1/2-x,1/2-y,-z
1/2+x,1/2-y,z
loop_
_atom_site_type_symbol
_atom_site_label
_atom_site_fract_x
_atom_site_fract_y
_atom_site_fract_z
Si Si1 0.900820 0.694518 0.239757
Si Si2 0.397150 0.789568 0.724815
Si Si3 0.892171 0.198769 0.974027
Si Si4 0.757073 0.590312 0.302716
Si Si5 0.093978 0.191076 0.508647
Si Si6 0.748970 0.911238 0.028175
O O1 0.892284 0.766333 0.316846
O O2 0.000000 0.658542 0.500000
O O3 0.881097 0.727639 0.042738
O O4 0.831145 0.628974 0.097729
O O5 0.366930 0.730900 0.763951
O O6 0.342042 0.868997 0.586995
O O7 0.375245 0.747584 0.530594
O O8 0.500000 0.812518 0.000000
O O9 0.830985 0.127129 0.857688
O O10 0.992276 0.165170 0.230441
O O11 0.759467 0.500000 0.344539
O O12 0.758086 0.604568 0.147089
O O13 0.156836 0.116590 0.673183
O O14 0.740941 0.000000 0.042793
#
# Coordination Sequence:
#
# PCOD8092990 Si02
#       6
#     8   8   8   8   8   8
#     4  10  19  35  59  80 106 144 190 233 264 316
#     4  10  21  38  60  82 108 147 191 229 272 326
#     4  10  21  36  59  87 108 144 191 229 271 323
#     4  11  22  36  56  83 117 149 180 226 280 334
#     4  10  19  37  60  82 111 145 186 231 270 322
#     4  11  22  35  56  85 116 148 180 226 284 330
#
# _framework density 18.430516999999998
#
# number of rings (size 3 to 8) (size 9 to 14) (size 15 to 20)
#    0.000    1.667    3.333    2.000    0.000    1.333 
#    0.000    5.000    0.000    3.000    0.000    0.000 
#    0.000    0.000    0.000    0.000    0.000    0.000 
#
# Total GULP energy -297668.039937 kJ/mol
# GULP energy per Si atom -12402.834997 kJ/mol
# Density = 1.838857 g / cm^3
# Si number density = 18.430517 Si / 1000 Ang^3
#
#
#
# Elastic Constant Matrix: (Units=GPa)
#
#
# Indices 1 2 3 4 5 6 
#
# 1 95.2367 38.2524 30.2608 0.0000 19.7802 0.0000
# 2 38.2524 82.2882 41.3421 0.0000 25.3100 0.0000
# 3 30.2608 41.3421 74.6213 0.0000 17.9763 0.0000
# 4 0.0000 0.0000 0.0000 13.1762 0.0000 -3.1811
# 5 19.7802 25.3100 17.9763 0.0000 26.8831 0.0000
# 6 0.0000 0.0000 0.0000 -3.1811 0.0000 21.4303
#
#
#
# Elastic Compliance Matrix: (Units=1/GPa)
#
#
# Indices 1 2 3 4 5 6 
#
# 1 0.013774 -0.003655 -0.002322 0.000000 -0.005141 0.000000
# 2 -0.003655 0.021405 -0.007355 0.000000 -0.012545 0.000000
# 3 -0.002322 -0.007355 0.019475 0.000000 -0.004390 0.000000
# 4 0.000000 0.000000 0.000000 0.078715 0.000000 0.011684
# 5 -0.005141 -0.012545 -0.004390 0.000000 0.055727 0.000000
# 6 0.000000 0.000000 0.000000 0.011684 0.000000 0.048397
#
#
# Mechanical properties :
#
#
# Convention : Reuss Voigt Hill
#
# Bulk Modulus (GPa) = 35.72715 52.42854 44.07785
# Shear Modulus (GPa) = 18.28239 21.78399 20.03319
#
# Velocity S-wave (km/s) = 3.15296 3.44168 3.30048
# Velocity P-wave (km/s) = 5.71680 6.65597 6.20418
#
# Compressibility (1/GPa) = 0.02798991
#
# Stress axis : x y z
#
# Youngs Moduli (GPa) = 72.60179 46.71766 51.34836
#
# Poissons Ratio (x) = 0.17075 0.11925
# Poissons Ratio (y) = 0.26536 0.37765
# Poissons Ratio (z) = 0.16860 0.34359
#
# Static dielectric constant tensor:
#      x y z
#    x 3.613690 0.000000 0.079330 
#    y 0.000000 3.099600 0.000000 
#    z 0.079330 0.000000 3.525500 
# 
# 
# High freq. dielectric constant tensor:
#      x y z
#    x 1.730500 0.000000 0.005860 
#    y 0.000000 1.690250 0.000000 
#    z 0.005860 0.000000 1.723820 
# 
# From -- ./inp_files/74476.got.cif
#   From: 2010.06.25/outbox.cif.g09.slc.cpg/sg12_38_cif.got.tgz:74476.got - 2010.06.28 00:19:55.
