data_PCOD8092172
_publ_section_title
;
Structure prediction by ZEFSAII (Michael W. Deem and Ramdas Pophale) SiO2 
 PCOD8092172
Probable space group: C 2/M
;
_chemical_formula_sum "Si O2"
_cell_formula_units_Z 56
_cell_length_a 25.210139
_cell_length_b 8.775965
_cell_length_c 14.576181
_cell_angle_alpha 90.000000
_cell_angle_beta 120.528803
_cell_angle_gamma 90.000000
_cell_volume 2777.829514
_symmetry_space_group_name_H-M "C 2/M"
_symmetry_group_IT_number 12
_symmetry_cell_setting 'monoclinic'
loop_
_space_group_symop_operation_xyz
x,y,z
-x,y,-z
-x,-y,-z
x,-y,z
1/2+x,1/2+y,z
1/2-x,1/2+y,-z
1/2-x,1/2-y,-z
1/2+x,1/2-y,z
loop_
_atom_site_type_symbol
_atom_site_label
_atom_site_fract_x
_atom_site_fract_y
_atom_site_fract_z
Si Si1 0.792900 0.678769 0.614315
Si Si2 0.933134 0.326980 0.705018
Si Si3 0.256089 0.680691 0.775146
Si Si4 0.020609 0.179300 0.921644
Si Si5 0.153177 0.819316 0.986917
Si Si6 0.519964 0.175226 0.616877
Si Si7 0.646639 0.320686 0.776182
O O1 0.780625 0.500000 0.609164
O O2 0.750000 0.750000 0.500000
O O3 0.861843 0.717772 0.643223
O O4 0.780140 0.750265 0.701985
O O5 0.942737 0.500000 0.747502
O O6 0.968666 0.214125 0.802569
O O7 0.959623 0.305004 0.626446
O O8 0.258150 0.500000 0.768505
O O9 0.186597 0.734246 0.734517
O O10 0.298138 0.743064 0.896042
O O11 0.086233 0.251422 0.951303
O O12 0.027954 0.000000 0.936986
O O13 0.000000 0.251502 0.000000
O O14 0.170368 0.769680 0.898344
O O15 0.150347 0.000000 0.990279
O O16 0.500000 0.235167 0.500000
O O17 0.575342 0.277117 0.703666
O O18 0.542121 0.000000 0.632689
O O19 0.653774 0.500000 0.768146
#
# Coordination Sequence:
#
# PCOD8092172 Si02
#       7
#     8   8   8   8   8   8   8
#     4  11  25  44  64  91 124 162 207 256 307 363
#     4  10  22  40  61  89 123 156 198 250 301 358
#     4  11  23  41  64  89 122 166 210 252 306 367
#     4  10  19  34  59  88 121 160 201 245 297 358
#     4   9  19  36  58  89 125 160 201 250 304 364
#     4  10  22  40  63  90 121 162 205 248 305 368
#     4  11  22  39  62  93 128 160 203 257 309 366
#
# _framework density 20.159624999999998
#
# number of rings (size 3 to 8) (size 9 to 14) (size 15 to 20)
#    0.000    1.714    1.429    2.571    2.000    2.857 
#    0.000    3.571    0.000    0.000    0.000    0.000 
#    0.000    0.000    0.000    0.000    0.000    0.000 
#
# Total GULP energy -347278.040403 kJ/mol
# GULP energy per Si atom -12402.787157 kJ/mol
# Density = 2.011374 g / cm^3
# Si number density = 20.159625 Si / 1000 Ang^3
#
#
#
# Elastic Constant Matrix: (Units=GPa)
#
#
# Indices 1 2 3 4 5 6 
#
# 1 155.8069 41.5762 57.0740 0.0000 -5.4505 0.0000
# 2 41.5762 56.5702 34.1459 0.0000 -3.8450 0.0000
# 3 57.0740 34.1459 128.8301 0.0000 -12.6096 0.0000
# 4 0.0000 0.0000 0.0000 31.0884 0.0000 -1.1034
# 5 -5.4505 -3.8450 -12.6096 0.0000 36.8901 0.0000
# 6 0.0000 0.0000 0.0000 -1.1034 0.0000 17.2389
#
#
#
# Elastic Compliance Matrix: (Units=1/GPa)
#
#
# Indices 1 2 3 4 5 6 
#
# 1 0.008636 -0.004808 -0.002561 0.000000 -0.000101 0.000000
# 2 -0.004808 0.023723 -0.004123 0.000000 0.000353 0.000000
# 3 -0.002561 -0.004123 0.010254 0.000000 0.002697 0.000000
# 4 0.000000 0.000000 0.000000 0.032240 0.000000 0.002064
# 5 -0.000101 0.000353 0.002697 0.000000 0.028051 0.000000
# 6 0.000000 0.000000 0.000000 0.002064 0.000000 0.058140
#
#
# Mechanical properties :
#
#
# Convention : Reuss Voigt Hill
#
# Bulk Modulus (GPa) = 50.94750 67.42218 59.18484
# Shear Modulus (GPa) = 26.23681 30.93755 28.58718
#
# Velocity S-wave (km/s) = 3.61148 3.92168 3.76977
# Velocity P-wave (km/s) = 6.53585 7.35003 6.95486
#
# Compressibility (1/GPa) = 0.01962805
#
# Stress axis : x y z
#
# Youngs Moduli (GPa) = 115.79610 42.15245 97.52527
#
# Poissons Ratio (x) = 0.20266 0.24981
# Poissons Ratio (y) = 0.55671 0.40213
# Poissons Ratio (z) = 0.29661 0.17381
#
# Static dielectric constant tensor:
#      x y z
#    x 4.050890 0.000000 -0.188250 
#    y 0.000000 3.454990 0.000000 
#    z -0.188250 0.000000 3.803350 
# 
# 
# High freq. dielectric constant tensor:
#      x y z
#    x 1.805840 0.000000 -0.004960 
#    y 0.000000 1.770170 0.000000 
#    z -0.004960 0.000000 1.791720 
# 
# From -- ./inp_files/238918.got.cif
#   From: 2010.06.25/outbox.cif.g09.slc.cpg/sg12_120_cif.got.tgz:238918.got - 2010.06.28 00:19:55.
