data_PCOD8092937
_publ_section_title
;
Structure prediction by ZEFSAII (Michael W. Deem and Ramdas Pophale) SiO2 
 PCOD8092937
Probable space group: C 2/M
;
_chemical_formula_sum "Si O2"
_cell_formula_units_Z 64
_cell_length_a 20.550533
_cell_length_b 9.309206
_cell_length_c 20.525679
_cell_angle_alpha 90.000000
_cell_angle_beta 122.864329
_cell_angle_gamma 90.000000
_cell_volume 3298.304649
_symmetry_space_group_name_H-M "C 2/M"
_symmetry_group_IT_number 12
_symmetry_cell_setting 'monoclinic'
loop_
_space_group_symop_operation_xyz
x,y,z
-x,y,-z
-x,-y,-z
x,-y,z
1/2+x,1/2+y,z
1/2-x,1/2+y,-z
1/2-x,1/2-y,-z
1/2+x,1/2-y,z
loop_
_atom_site_type_symbol
_atom_site_label
_atom_site_fract_x
_atom_site_fract_y
_atom_site_fract_z
Si Si1 0.210578 0.163996 0.156707
Si Si2 0.679948 0.331418 0.994868
Si Si3 0.866477 0.833218 0.253961
Si Si4 0.124178 0.833589 0.238288
Si Si5 0.359105 0.837396 0.525486
Si Si6 0.502262 0.334789 0.576576
Si Si7 0.547304 0.669823 0.827841
Si Si8 0.233205 0.336805 0.391355
O O1 0.175559 0.211519 0.068262
O O2 0.284973 0.255720 0.216768
O O3 0.141593 0.184274 0.171092
O O4 0.238796 0.000000 0.169435
O O5 0.693371 0.500000 0.991761
O O6 0.750000 0.250000 0.000000
O O7 0.600545 0.281283 0.917314
O O8 0.915880 0.771711 0.219565
O O9 0.913532 0.807229 0.346426
O O10 0.849223 0.000000 0.232802
O O11 0.187593 0.741138 0.309776
O O12 0.039181 0.769152 0.207791
O O13 0.131100 0.000000 0.263757
O O14 0.442108 0.765021 0.582211
O O15 0.313588 0.746434 0.446180
O O16 0.316527 0.833090 0.570664
O O17 0.368192 0.000000 0.505117
O O18 0.500000 0.290378 0.500000
O O19 0.477367 0.500000 0.572896
O O20 0.540568 0.500000 0.821259
O O21 0.252303 0.500000 0.380715
#
# Coordination Sequence:
#
# PCOD8092937 Si02
#       8
#     8   8   8   8   8   8   8   8
#     4  10  22  36  55  86 118 148 184 236 291 337
#     4  10  19  35  58  85 115 149 189 231 281 338
#     4  10  20  36  58  81 110 153 196 232 279 341
#     4  10  21  37  56  83 116 148 187 235 287 340
#     4  10  21  37  57  82 109 145 189 237 289 338
#     4  10  22  37  54  81 115 151 192 236 284 337
#     4   9  18  34  59  84 109 148 193 232 276 336
#     4  10  21  37  58  81 110 147 189 233 284 343
#
# _framework density 19.403908999999999
#
# number of rings (size 3 to 8) (size 9 to 14) (size 15 to 20)
#    0.000    2.125    1.250    1.500    1.750    4.250 
#    0.000    3.750    0.000    0.000    0.000    2.625 
#    0.000    0.000    0.000    0.000    0.000    0.000 
#
# Total GULP energy -396860.170329 kJ/mol
# GULP energy per Si atom -12401.880323 kJ/mol
# Density = 1.935974 g / cm^3
# Si number density = 19.403909 Si / 1000 Ang^3
#
#
#
# Elastic Constant Matrix: (Units=GPa)
#
#
# Indices 1 2 3 4 5 6 
#
# 1 68.0500 16.9821 16.9673 0.0000 0.3438 0.0000
# 2 16.9821 64.7370 26.3162 0.0000 -0.8203 0.0000
# 3 16.9673 26.3162 116.7451 0.0000 -4.8076 0.0000
# 4 0.0000 0.0000 0.0000 25.1725 0.0000 2.7971
# 5 0.3438 -0.8203 -4.8076 0.0000 17.7387 0.0000
# 6 0.0000 0.0000 0.0000 2.7971 0.0000 28.8609
#
#
#
# Elastic Compliance Matrix: (Units=1/GPa)
#
#
# Indices 1 2 3 4 5 6 
#
# 1 0.015978 -0.003571 -0.001554 0.000000 -0.000896 0.000000
# 2 -0.003571 0.017805 -0.003497 0.000000 -0.000055 0.000000
# 3 -0.001554 -0.003497 0.009682 0.000000 0.002493 0.000000
# 4 0.000000 0.000000 0.000000 0.040158 0.000000 -0.003892
# 5 -0.000896 -0.000055 0.002493 0.000000 0.057064 0.000000
# 6 0.000000 0.000000 0.000000 -0.003892 0.000000 0.035026
#
#
# Mechanical properties :
#
#
# Convention : Reuss Voigt Hill
#
# Bulk Modulus (GPa) = 38.13671 41.11817 39.62744
# Shear Modulus (GPa) = 24.78948 26.97219 25.88084
#
# Velocity S-wave (km/s) = 3.57816 3.73237 3.65608
# Velocity P-wave (km/s) = 6.06365 6.30958 6.18783
#
# Compressibility (1/GPa) = 0.02622145
#
# Stress axis : x y z
#
# Youngs Moduli (GPa) = 62.58496 56.16516 103.28013
#
# Poissons Ratio (x) = 0.20057 0.16051
# Poissons Ratio (y) = 0.22350 0.36114
# Poissons Ratio (z) = 0.09727 0.19639
#
# Static dielectric constant tensor:
#      x y z
#    x 3.564090 0.000000 0.005360 
#    y 0.000000 3.459250 0.000000 
#    z 0.005360 0.000000 3.767510 
# 
# 
# High freq. dielectric constant tensor:
#      x y z
#    x 1.754350 0.000000 -0.000670 
#    y 0.000000 1.737700 0.000000 
#    z -0.000670 0.000000 1.764340 
# 
# From -- ./inp_files/320152.got.cif
#   From: 2010.06.25/outbox.cif.g09.slc.cpg/sg12_161_cif.got.tgz:320152.got - 2010.06.28 00:19:55.
