data_PCOD8092427
_publ_section_title
;
Structure prediction by ZEFSAII (Michael W. Deem and Ramdas Pophale) SiO2 
 PCOD8092427
Probable space group: C 2/M
;
_chemical_formula_sum "Si O2"
_cell_formula_units_Z 64
_cell_length_a 20.665374
_cell_length_b 9.096546
_cell_length_c 24.023090
_cell_angle_alpha 90.000000
_cell_angle_beta 123.337758
_cell_angle_gamma 90.000000
_cell_volume 3772.825476
_symmetry_space_group_name_H-M "C 2/M"
_symmetry_group_IT_number 12
_symmetry_cell_setting 'monoclinic'
loop_
_space_group_symop_operation_xyz
x,y,z
-x,y,-z
-x,-y,-z
x,-y,z
1/2+x,1/2+y,z
1/2-x,1/2+y,-z
1/2-x,1/2-y,-z
1/2+x,1/2-y,z
loop_
_atom_site_type_symbol
_atom_site_label
_atom_site_fract_x
_atom_site_fract_y
_atom_site_fract_z
Si Si1 0.712999 0.665958 0.564257
Si Si2 0.910028 0.828160 0.950823
Si Si3 0.024201 0.172078 0.835533
Si Si4 0.616669 0.824941 0.173056
Si Si5 0.794420 0.165897 0.693399
Si Si6 0.867815 0.335408 0.564898
Si Si7 0.553167 0.662480 0.309276
Si Si8 0.670431 0.329486 0.973059
O O1 0.688679 0.500000 0.567366
O O2 0.724799 0.755764 0.626963
O O3 0.790879 0.667684 0.565226
O O4 0.644019 0.739876 0.496269
O O5 0.872362 0.730530 0.884573
O O6 0.898888 0.000000 0.931814
O O7 0.866765 0.779826 0.986412
O O8 0.000000 0.790014 0.000000
O O9 0.111127 0.209694 0.895169
O O10 0.965936 0.269485 0.843976
O O11 0.015987 0.208924 0.765665
O O12 0.004093 0.000000 0.837335
O O13 0.687108 0.758310 0.242487
O O14 0.620253 0.000000 0.177919
O O15 0.869395 0.162758 0.690297
O O16 0.769264 0.000000 0.697204
O O17 0.889210 0.500000 0.557019
O O18 0.939310 0.272176 0.635071
O O19 0.538359 0.500000 0.326670
O O20 0.688696 0.500000 0.982746
O O21 0.750000 0.250000 0.000000
#
# Coordination Sequence:
#
# PCOD8092427 Si02
#       8
#     8   8   8   8   8   8   8   8
#     4   9  15  22  32  47  71 103 143 185 223 264
#     4  10  19  35  55  70  92 127 163 193 235 292
#     4   9  17  32  48  63  87 123 157 187 233 291
#     4  11  20  28  44  70  94 114 149 201 242 272
#     4   9  16  26  38  53  78 112 147 181 227 282
#     4   9  15  21  30  46  71 103 140 179 224 272
#     4   8  14  23  37  53  72 102 145 187 220 263
#     4  10  21  36  54  73  96 126 158 197 242 292
#
# _framework density 16.963412999999999
#
# number of rings (size 3 to 8) (size 9 to 14) (size 15 to 20)
#    0.000    2.625    1.250    3.000    0.000    7.250 
#    0.000    0.000    0.000    0.000    0.000    0.000 
#    0.000    0.000    0.000    1.125    0.000   22.250 
#
# Total GULP energy -396710.076274 kJ/mol
# GULP energy per Si atom -12397.189884 kJ/mol
# Density = 1.692480 g / cm^3
# Si number density = 16.963413 Si / 1000 Ang^3
#
#
#
# Elastic Constant Matrix: (Units=GPa)
#
#
# Indices 1 2 3 4 5 6 
#
# 1 48.2924 26.9222 38.3989 0.0000 2.1707 0.0000
# 2 26.9222 126.1775 85.2206 0.0000 0.7625 0.0000
# 3 38.3989 85.2206 175.8197 0.0000 5.3132 0.0000
# 4 0.0000 0.0000 0.0000 34.4812 0.0000 -0.4797
# 5 2.1707 0.7625 5.3132 0.0000 8.2502 0.0000
# 6 0.0000 0.0000 0.0000 -0.4797 0.0000 15.0136
#
#
#
# Elastic Compliance Matrix: (Units=1/GPa)
#
#
# Indices 1 2 3 4 5 6 
#
# 1 0.025696 -0.002597 -0.004239 0.000000 -0.003791 0.000000
# 2 -0.002597 0.012102 -0.005390 0.000000 0.003036 0.000000
# 3 -0.004239 -0.005390 0.009359 0.000000 -0.004414 0.000000
# 4 0.000000 0.000000 0.000000 0.029014 0.000000 0.000927
# 5 -0.003791 0.003036 -0.004414 0.000000 0.124768 0.000000
# 6 0.000000 0.000000 0.000000 0.000927 0.000000 0.066636
#
#
# Mechanical properties :
#
#
# Convention : Reuss Voigt Hill
#
# Bulk Modulus (GPa) = 44.04306 72.37478 58.20892
# Shear Modulus (GPa) = 16.68916 24.86552 20.77734
#
# Velocity S-wave (km/s) = 3.14001 3.83277 3.50356
# Velocity P-wave (km/s) = 6.25829 7.89587 7.12429
#
# Compressibility (1/GPa) = 0.02270505
#
# Stress axis : x y z
#
# Youngs Moduli (GPa) = 38.91715 82.63254 106.84366
#
# Poissons Ratio (x) = 0.21459 0.45287
# Poissons Ratio (y) = 0.10107 0.57593
# Poissons Ratio (z) = 0.16495 0.44542
#
# Static dielectric constant tensor:
#      x y z
#    x 2.469240 0.000000 -0.001250 
#    y 0.000000 3.259230 0.000000 
#    z -0.001250 0.000000 3.599910 
# 
# 
# High freq. dielectric constant tensor:
#      x y z
#    x 1.563970 0.000000 0.000000 
#    y 0.000000 1.660720 0.000000 
#    z 0.000000 0.000000 1.679010 
# 
# From -- ./inp_files/345627.got.cif
#   From: 2010.06.25/outbox.cif.g09.slc.cpg/sg12_173_cif.got.tgz:345627.got - 2010.06.28 00:19:55.
