data_PCOD8092132
_publ_section_title
;
Structure prediction by ZEFSAII (Michael W. Deem and Ramdas Pophale) SiO2 
 PCOD8092132
Probable space group: C 2/M
;
_chemical_formula_sum "Si O2"
_cell_formula_units_Z 64
_cell_length_a 27.803779
_cell_length_b 9.007359
_cell_length_c 13.721411
_cell_angle_alpha 90.000000
_cell_angle_beta 106.355923
_cell_angle_gamma 90.000000
_cell_volume 3297.304346
_symmetry_space_group_name_H-M "C 2/M"
_symmetry_group_IT_number 12
_symmetry_cell_setting 'monoclinic'
loop_
_space_group_symop_operation_xyz
x,y,z
-x,y,-z
-x,-y,-z
x,-y,z
1/2+x,1/2+y,z
1/2-x,1/2+y,-z
1/2-x,1/2-y,-z
1/2+x,1/2-y,z
loop_
_atom_site_type_symbol
_atom_site_label
_atom_site_fract_x
_atom_site_fract_y
_atom_site_fract_z
Si Si1 0.715008 0.675666 0.059119
Si Si2 0.250204 0.329709 0.270471
Si Si3 0.925108 0.323825 0.811388
Si Si4 0.029528 0.326373 0.787914
Si Si5 0.390127 0.173716 0.001351
Si Si6 0.046219 0.824188 0.592659
Si Si7 0.334822 0.172685 0.628323
Si Si8 0.150390 0.828142 0.564284
O O1 0.717094 0.500000 0.048534
O O2 0.734073 0.719531 0.176586
O O3 0.750000 0.750000 0.000000
O O4 0.659136 0.731324 0.008375
O O5 0.241197 0.500000 0.231768
O O6 0.217112 0.294516 0.346617
O O7 0.308174 0.300701 0.328734
O O8 0.925964 0.500000 0.810503
O O9 0.880633 0.261301 0.718110
O O10 0.977762 0.261478 0.801958
O O11 0.916405 0.270593 0.917003
O O12 0.024621 0.500000 0.763378
O O13 0.072996 0.292566 0.889166
O O14 0.042157 0.244369 0.696221
O O15 0.376031 0.000000 0.986401
O O16 0.097389 0.765817 0.572348
O O17 0.000000 0.770069 0.500000
O O18 0.046853 0.000000 0.604314
O O19 0.332441 0.247567 0.522875
O O20 0.343386 0.000000 0.616147
O O21 0.145750 0.000000 0.535700
#
# Coordination Sequence:
#
# PCOD8092132 Si02
#       8
#     8   8   8   8   8   8   8   8
#     4  12  26  42  63  89 120 158 198 241 292 352
#     4  10  21  40  61  86 118 154 194 244 299 349
#     4   9  17  34  59  87 120 156 193 239 294 346
#     4  10  21  35  60  91 116 152 200 248 291 344
#     4  10  20  39  62  88 122 155 194 241 295 354
#     4  10  22  40  57  79 117 162 198 240 299 354
#     4  10  19  34  59  86 117 154 193 242 295 344
#     4  10  22  37  57  83 115 155 198 243 296 352
#
# _framework density 19.409794000000002
#
# number of rings (size 3 to 8) (size 9 to 14) (size 15 to 20)
#    0.000    1.875    1.250    2.625    1.750    3.750 
#    0.000    0.625    0.000    1.500    0.000    0.000 
#    0.000    0.000    0.000    0.000    0.000    0.000 
#
# Total GULP energy -396914.490005 kJ/mol
# GULP energy per Si atom -12403.577813 kJ/mol
# Density = 1.936562 g / cm^3
# Si number density = 19.409794 Si / 1000 Ang^3
#
#
#
# Elastic Constant Matrix: (Units=GPa)
#
#
# Indices 1 2 3 4 5 6 
#
# 1 150.1611 42.6598 42.8134 0.0000 1.7279 0.0000
# 2 42.6598 58.8447 31.9096 0.0000 -0.9502 0.0000
# 3 42.8134 31.9096 81.9093 0.0000 1.0647 0.0000
# 4 0.0000 0.0000 0.0000 33.3258 0.0000 -2.8506
# 5 1.7279 -0.9502 1.0647 0.0000 34.5423 0.0000
# 6 0.0000 0.0000 0.0000 -2.8506 0.0000 17.5725
#
#
#
# Elastic Compliance Matrix: (Units=1/GPa)
#
#
# Indices 1 2 3 4 5 6 
#
# 1 0.008839 -0.004963 -0.002681 0.000000 -0.000496 0.000000
# 2 -0.004963 0.024357 -0.006909 0.000000 0.001131 0.000000
# 3 -0.002681 -0.006909 0.016309 0.000000 -0.000559 0.000000
# 4 0.000000 0.000000 0.000000 0.030429 0.000000 0.004936
# 5 -0.000496 0.001131 -0.000559 0.000000 0.029023 0.000000
# 6 0.000000 0.000000 0.000000 0.004936 0.000000 0.057708
#
#
# Mechanical properties :
#
#
# Convention : Reuss Voigt Hill
#
# Bulk Modulus (GPa) = 49.02075 58.40897 53.71486
# Shear Modulus (GPa) = 24.68288 28.65694 26.66991
#
# Velocity S-wave (km/s) = 3.56992 3.84658 3.71083
# Velocity P-wave (km/s) = 6.50407 7.06301 6.78930
#
# Compressibility (1/GPa) = 0.02039952
#
# Stress axis : x y z
#
# Youngs Moduli (GPa) = 113.13094 41.05669 61.31697
#
# Poissons Ratio (x) = 0.20375 0.16436
# Poissons Ratio (y) = 0.56142 0.42367
# Poissons Ratio (z) = 0.30325 0.28368
#
# Static dielectric constant tensor:
#      x y z
#    x 3.978940 0.000000 0.073460 
#    y 0.000000 3.270580 0.000000 
#    z 0.073460 0.000000 3.587040 
# 
# 
# High freq. dielectric constant tensor:
#      x y z
#    x 1.775460 0.000000 0.002160 
#    y 0.000000 1.729590 0.000000 
#    z 0.002160 0.000000 1.766730 
# 
# From -- ./inp_files/244117.got.cif
#   From: 2010.06.25/outbox.cif.g09.slc.cpg/sg12_123_cif.got.tgz:244117.got - 2010.06.28 00:19:55.
