data_PCOD8092177
_publ_section_title
;
Structure prediction by ZEFSAII (Michael W. Deem and Ramdas Pophale) SiO2 
 PCOD8092177
Probable space group: C 2/M
;
_chemical_formula_sum "Si O2"
_cell_formula_units_Z 56
_cell_length_a 24.124484
_cell_length_b 8.532149
_cell_length_c 17.495245
_cell_angle_alpha 90.000000
_cell_angle_beta 126.369278
_cell_angle_gamma 90.000000
_cell_volume 2899.657229
_symmetry_space_group_name_H-M "C 2/M"
_symmetry_group_IT_number 12
_symmetry_cell_setting 'monoclinic'
loop_
_space_group_symop_operation_xyz
x,y,z
-x,y,-z
-x,-y,-z
x,-y,z
1/2+x,1/2+y,z
1/2-x,1/2+y,-z
1/2-x,1/2-y,-z
1/2+x,1/2-y,z
loop_
_atom_site_type_symbol
_atom_site_label
_atom_site_fract_x
_atom_site_fract_y
_atom_site_fract_z
Si Si1 0.813909 0.818223 0.271417
Si Si2 0.890388 0.682210 0.198453
Si Si3 0.462547 0.682541 0.655038
Si Si4 0.945411 0.815659 0.811365
Si Si5 0.425515 0.818354 0.470941
Si Si6 0.667973 0.685773 0.165640
Si Si7 0.900735 0.185142 0.048533
O O1 0.829101 0.720202 0.206935
O O2 0.868747 0.784123 0.382286
O O3 0.739716 0.768265 0.242147
O O4 0.814957 0.000000 0.251839
O O5 0.908691 0.500000 0.216910
O O6 0.866753 0.730858 0.094107
O O7 0.956565 0.780011 0.279309
O O8 0.453204 0.500000 0.629489
O O9 0.430180 0.728406 0.710709
O O10 0.422451 0.782092 0.558618
O O11 0.886610 0.744675 0.817750
O O12 0.020828 0.752967 0.897308
O O13 0.945842 0.000000 0.823605
O O14 0.500000 0.769873 0.500000
O O15 0.409916 0.000000 0.442960
O O16 0.676161 0.500000 0.180429
O O17 0.642573 0.733297 0.060638
O O18 0.900218 0.000000 0.062681
#
# Coordination Sequence:
#
# PCOD8092177 Si02
#       7
#     8   8   8   8   8   8   8
#     4  12  25  39  56  80 114 150 188 231 280 337
#     4  11  21  35  55  82 114 148 186 231 282 332
#     4  10  19  34  59  89 116 143 182 230 279 328
#     4   8  16  33  59  88 114 145 187 230 273 327
#     4  11  22  37  60  87 113 143 184 229 278 335
#     4  10  20  37  59  82 114 152 189 231 278 329
#     4   9  18  34  59  87 112 146 190 233 278 328
#
# _framework density 19.312629000000001
#
# number of rings (size 3 to 8) (size 9 to 14) (size 15 to 20)
#    0.000    1.857    1.429    4.714    0.000    3.429 
#    0.000    4.286    0.000    4.286    0.000    0.000 
#    0.000    0.000    0.000    0.000    0.000    0.000 
#
# Total GULP energy -347283.479117 kJ/mol
# GULP energy per Si atom -12402.981397 kJ/mol
# Density = 1.926867 g / cm^3
# Si number density = 19.312629 Si / 1000 Ang^3
#
#
#
# Elastic Constant Matrix: (Units=GPa)
#
#
# Indices 1 2 3 4 5 6 
#
# 1 81.7758 19.7810 44.8378 0.0000 1.1496 0.0000
# 2 19.7810 47.5776 29.5732 0.0000 -3.6502 0.0000
# 3 44.8378 29.5732 99.9246 0.0000 -5.1603 0.0000
# 4 0.0000 0.0000 0.0000 23.3273 0.0000 -1.7048
# 5 1.1496 -3.6502 -5.1603 0.0000 25.9640 0.0000
# 6 0.0000 0.0000 0.0000 -1.7048 0.0000 20.7110
#
#
#
# Elastic Compliance Matrix: (Units=1/GPa)
#
#
# Indices 1 2 3 4 5 6 
#
# 1 0.016668 -0.002931 -0.006740 0.000000 -0.002490 0.000000
# 2 -0.002931 0.026389 -0.006362 0.000000 0.002575 0.000000
# 3 -0.006740 -0.006362 0.015038 0.000000 0.002393 0.000000
# 4 0.000000 0.000000 0.000000 0.043128 0.000000 0.003550
# 5 -0.002490 0.002575 0.002393 0.000000 0.039463 0.000000
# 6 0.000000 0.000000 0.000000 0.003550 0.000000 0.048576
#
#
# Mechanical properties :
#
#
# Convention : Reuss Voigt Hill
#
# Bulk Modulus (GPa) = 38.41882 46.40691 42.41286
# Shear Modulus (GPa) = 21.73868 23.00621 22.37245
#
# Velocity S-wave (km/s) = 3.35867 3.45520 3.40727
# Velocity P-wave (km/s) = 5.91415 6.32450 6.12276
#
# Compressibility (1/GPa) = 0.02602891
#
# Stress axis : x y z
#
# Youngs Moduli (GPa) = 59.99371 37.89474 66.49655
#
# Poissons Ratio (x) = 0.11109 0.44821
# Poissons Ratio (y) = 0.17587 0.42302
# Poissons Ratio (z) = 0.40438 0.24107
#
# Static dielectric constant tensor:
#      x y z
#    x 3.672630 0.000000 -0.184930 
#    y 0.000000 3.307480 0.000000 
#    z -0.184930 0.000000 3.495860 
# 
# 
# High freq. dielectric constant tensor:
#      x y z
#    x 1.745680 0.000000 -0.014980 
#    y 0.000000 1.738980 0.000000 
#    z -0.014980 0.000000 1.749810 
# 
# From -- ./inp_files/288464.got.cif
#   From: 2010.06.25/outbox.cif.g09.slc.cpg/sg12_145_cif.got.tgz:288464.got - 2010.06.28 00:19:55.
