data_PCOD8092503
_publ_section_title
;
Structure prediction by ZEFSAII (Michael W. Deem and Ramdas Pophale) SiO2 
 PCOD8092503
Probable space group: C 2/M
;
_chemical_formula_sum "Si O2"
_cell_formula_units_Z 56
_cell_length_a 15.969027
_cell_length_b 20.632252
_cell_length_c 9.002675
_cell_angle_alpha 90.000000
_cell_angle_beta 91.358974
_cell_angle_gamma 90.000000
_cell_volume 2965.339952
_symmetry_space_group_name_H-M "C 2/M"
_symmetry_group_IT_number 12
_symmetry_cell_setting 'monoclinic'
loop_
_space_group_symop_operation_xyz
x,y,z
-x,y,-z
-x,-y,-z
x,-y,z
1/2+x,1/2+y,z
1/2-x,1/2+y,-z
1/2-x,1/2-y,-z
1/2+x,1/2-y,z
loop_
_atom_site_type_symbol
_atom_site_label
_atom_site_fract_x
_atom_site_fract_y
_atom_site_fract_z
Si Si1 0.531257 0.687995 0.207324
Si Si2 0.563116 0.074383 0.870175
Si Si3 0.046767 0.690602 0.655761
Si Si4 0.746228 0.426085 0.136072
Si Si5 0.183263 0.834219 0.381163
Si Si6 0.129895 0.154862 0.936424
Si Si7 0.294876 0.724602 0.321358
O O1 0.499037 0.759543 0.237243
O O2 0.583445 0.657628 0.347063
O O3 0.452485 0.639305 0.169151
O O4 0.594783 0.696377 0.072287
O O5 0.545963 0.119964 0.729263
O O6 0.660089 0.084347 0.923806
O O7 0.548095 0.000000 0.819987
O O8 0.500000 0.093040 0.000000
O O9 0.139094 0.719050 0.631977
O O10 0.000000 0.683493 0.500000
O O11 0.728268 0.500000 0.174792
O O12 0.734864 0.387706 0.290964
O O13 0.679912 0.406292 0.004590
O O14 0.206384 0.761282 0.325655
O O15 0.199915 0.835367 0.559709
O O16 0.194380 0.197573 0.843651
#
# Coordination Sequence:
#
# PCOD8092503 Si02
#       7
#     8   8   8   8   8   8   8
#     4   9  19  33  52  84 113 141 179 231 290 328
#     4  10  23  40  57  80 113 153 196 232 274 338
#     4  11  20  34  55  84 113 151 182 231 287 337
#     4  10  21  40  59  78 111 156 193 230 275 335
#     4  10  19  35  55  81 116 146 183 232 286 347
#     4   9  20  35  53  83 111 143 184 234 277 330
#     4  10  20  33  53  85 114 145 182 236 292 330
#
# _framework density 18.884848999999999
#
# number of rings (size 3 to 8) (size 9 to 14) (size 15 to 20)
#    0.000    2.143    2.857    0.000    4.000    3.714 
#    0.000    6.429    0.000    0.000    0.000   14.000 
#    0.000    0.000    0.000    0.000    0.000    0.000 
#
# Total GULP energy -346960.805990 kJ/mol
# GULP energy per Si atom -12391.457357 kJ/mol
# Density = 1.884187 g / cm^3
# Si number density = 18.884849 Si / 1000 Ang^3
#
#
#
# Elastic Constant Matrix: (Units=GPa)
#
#
# Indices 1 2 3 4 5 6 
#
# 1 86.1691 38.7631 34.2010 0.0000 1.9744 0.0000
# 2 38.7631 86.2380 48.5890 0.0000 4.0899 0.0000
# 3 34.2010 48.5890 83.3538 0.0000 3.1701 0.0000
# 4 0.0000 0.0000 0.0000 23.7211 0.0000 0.9251
# 5 1.9744 4.0899 3.1701 0.0000 30.7340 0.0000
# 6 0.0000 0.0000 0.0000 0.9251 0.0000 28.3362
#
#
#
# Elastic Compliance Matrix: (Units=1/GPa)
#
#
# Indices 1 2 3 4 5 6 
#
# 1 0.015148 -0.004925 -0.003345 0.000000 0.000027 0.000000
# 2 -0.004925 0.018917 -0.008958 0.000000 -0.001277 0.000000
# 3 -0.003345 -0.008958 0.018611 0.000000 -0.000513 0.000000
# 4 0.000000 0.000000 0.000000 0.042210 0.000000 -0.001378
# 5 0.000027 -0.001277 -0.000513 0.000000 0.032758 0.000000
# 6 0.000000 0.000000 0.000000 -0.001378 0.000000 0.035336
#
#
# Mechanical properties :
#
#
# Convention : Reuss Voigt Hill
#
# Bulk Modulus (GPa) = 54.88724 55.42968 55.15846
# Shear Modulus (GPa) = 24.56873 25.50543 25.03708
#
# Velocity S-wave (km/s) = 3.61082 3.67901 3.64507
# Velocity P-wave (km/s) = 6.81992 6.88926 6.85468
#
# Compressibility (1/GPa) = 0.01821917
#
# Stress axis : x y z
#
# Youngs Moduli (GPa) = 66.01590 52.86129 53.73168
#
# Poissons Ratio (x) = 0.26036 0.17975
# Poissons Ratio (y) = 0.32515 0.48133
# Poissons Ratio (z) = 0.22084 0.47353
#
# Static dielectric constant tensor:
#      x y z
#    x 3.845060 0.000000 0.090380 
#    y 0.000000 3.164510 0.000000 
#    z 0.090380 0.000000 3.527320 
# 
# 
# High freq. dielectric constant tensor:
#      x y z
#    x 1.754330 0.000000 -0.001770 
#    y 0.000000 1.693230 0.000000 
#    z -0.001770 0.000000 1.731130 
# 
# From -- ./inp_files/76954.got.cif
#   From: 2010.06.25/outbox.cif.g09.slc.cpg/sg12_39_cif.got.tgz:76954.got - 2010.06.28 00:19:55.
