data_PCOD8092435
_publ_section_title
;
Structure prediction by ZEFSAII (Michael W. Deem and Ramdas Pophale) SiO2 
 PCOD8092435
Probable space group: C 2/M
;
_chemical_formula_sum "Si O2"
_cell_formula_units_Z 56
_cell_length_a 19.928517
_cell_length_b 19.877062
_cell_length_c 17.601053
_cell_angle_alpha 90.000000
_cell_angle_beta 150.824802
_cell_angle_gamma 90.000000
_cell_volume 3398.788831
_symmetry_space_group_name_H-M "C 2/M"
_symmetry_group_IT_number 12
_symmetry_cell_setting 'monoclinic'
loop_
_space_group_symop_operation_xyz
x,y,z
-x,y,-z
-x,-y,-z
x,-y,z
1/2+x,1/2+y,z
1/2-x,1/2+y,-z
1/2-x,1/2-y,-z
1/2+x,1/2-y,z
loop_
_atom_site_type_symbol
_atom_site_label
_atom_site_fract_x
_atom_site_fract_y
_atom_site_fract_z
Si Si1 0.727596 0.424394 0.053377
Si Si2 0.526169 0.124840 0.610684
Si Si3 0.223382 0.421679 0.544402
Si Si4 0.042987 0.924213 0.120363
Si Si5 0.845491 0.189715 0.122153
Si Si6 0.997151 0.783895 0.411842
Si Si7 0.656053 0.688878 0.432361
O O1 0.774486 0.500000 0.078289
O O2 0.820376 0.393416 0.212064
O O3 0.574352 0.423698 0.933077
O O4 0.728136 0.379073 0.977772
O O5 0.500000 0.095577 0.500000
O O6 0.431225 0.089933 0.580613
O O7 0.501355 0.203712 0.586270
O O8 0.250008 0.500000 0.552600
O O9 0.320741 0.392122 0.707964
O O10 0.264350 0.379990 0.509677
O O11 0.084080 0.000000 0.137962
O O12 0.000000 0.885517 0.000000
O O13 0.861365 0.191008 0.230346
O O14 0.001968 0.195727 0.242505
O O15 0.750000 0.250000 0.000000
O O16 0.134217 0.809151 0.502578
O O17 0.000000 0.813312 0.500000
O O18 0.750000 0.750000 0.500000
#
# Coordination Sequence:
#
# PCOD8092435 Si02
#       7
#     8   8   8   8   8   8   8
#     4  11  20  32  49  74 104 139 174 214 260 309
#     4  11  21  33  50  77 112 149 181 211 258 322
#     4  11  20  32  49  74 104 139 174 214 260 309
#     4   9  17  28  42  63  98 135 162 197 247 296
#     4  10  19  35  55  74 102 136 174 218 259 305
#     4   9  19  34  56  76 104 138 174 217 267 307
#     4  10  19  35  55  74 102 136 174 218 259 305
#
# _framework density 16.476457
#
# number of rings (size 3 to 8) (size 9 to 14) (size 15 to 20)
#    0.857    1.000    4.286    1.286    0.000    2.286 
#    0.000    0.000    0.000    1.714    0.000    0.000 
#    0.000    2.286    0.000    0.000    0.000    0.000 
#
# Total GULP energy -346907.298813 kJ/mol
# GULP energy per Si atom -12389.546386 kJ/mol
# Density = 1.643896 g / cm^3
# Si number density = 16.476457 Si / 1000 Ang^3
#
#
#
# Elastic Constant Matrix: (Units=GPa)
#
#
# Indices 1 2 3 4 5 6 
#
# 1 86.0710 37.0649 24.3090 -0.0001 -17.3283 0.0000
# 2 37.0649 84.2315 21.8178 0.0000 -13.1810 0.0000
# 3 24.3090 21.8178 72.5233 -0.0003 -15.3145 -0.0001
# 4 -0.0001 0.0000 -0.0003 12.8231 -0.0002 -1.7582
# 5 -17.3283 -13.1810 -15.3145 -0.0002 33.3401 -0.0001
# 6 0.0000 0.0000 -0.0001 -1.7582 -0.0001 19.4811
#
#
#
# Elastic Compliance Matrix: (Units=1/GPa)
#
#
# Indices 1 2 3 4 5 6 
#
# 1 0.015673 -0.005475 -0.002595 0.000000 0.004789 0.000000
# 2 -0.005475 0.015206 -0.002293 0.000000 0.002113 0.000000
# 3 -0.002595 -0.002293 0.016470 0.000000 0.005310 0.000000
# 4 0.000000 0.000000 0.000000 0.078962 0.000001 0.007126
# 5 0.004789 0.002113 0.005310 0.000001 0.035757 0.000000
# 6 0.000000 0.000000 0.000000 0.007126 0.000000 0.051975
#
#
# Mechanical properties :
#
#
# Convention : Reuss Voigt Hill
#
# Bulk Modulus (GPa) = 37.56280 45.46769 41.51525
# Shear Modulus (GPa) = 20.52179 23.77113 22.14646
#
# Velocity S-wave (km/s) = 3.53302 3.80245 3.67021
# Velocity P-wave (km/s) = 6.28414 6.85081 6.57358
#
# Compressibility (1/GPa) = 0.02662208
#
# Stress axis : x y z
#
# Youngs Moduli (GPa) = 63.80302 65.76401 60.71780
#
# Poissons Ratio (x) = 0.36007 0.15756
# Poissons Ratio (y) = 0.34933 0.13924
# Poissons Ratio (z) = 0.16557 0.15081
#
# Static dielectric constant tensor:
#      x y z
#    x 3.084320 0.000000 -0.094260 
#    y 0.000000 3.043550 0.000000 
#    z -0.094260 0.000000 3.213610 
# 
# 
# High freq. dielectric constant tensor:
#      x y z
#    x 1.614760 0.000000 0.007360 
#    y 0.000000 1.617730 0.000000 
#    z 0.007360 0.000000 1.635960 
# 
# From -- ./inp_files/285659.got.cif
#   From: 2010.06.25/outbox.cif.g09.slc.cpg/sg12_143_cif.got.tgz:285659.got - 2010.06.28 00:19:55.
