data_PCOD8092904
_publ_section_title
;
Structure prediction by ZEFSAII (Michael W. Deem and Ramdas Pophale) SiO2 
 PCOD8092904
Probable space group: C 2/M
;
_chemical_formula_sum "Si O2"
_cell_formula_units_Z 64
_cell_length_a 15.341025
_cell_length_b 8.784641
_cell_length_c 33.460491
_cell_angle_alpha 90.000000
_cell_angle_beta 45.580088
_cell_angle_gamma 90.000000
_cell_volume 3220.686690
_symmetry_space_group_name_H-M "C 2/M"
_symmetry_group_IT_number 12
_symmetry_cell_setting 'monoclinic'
loop_
_space_group_symop_operation_xyz
x,y,z
-x,y,-z
-x,-y,-z
x,-y,z
1/2+x,1/2+y,z
1/2-x,1/2+y,-z
1/2-x,1/2-y,-z
1/2+x,1/2-y,z
loop_
_atom_site_type_symbol
_atom_site_label
_atom_site_fract_x
_atom_site_fract_y
_atom_site_fract_z
Si Si1 0.464081 0.321492 0.250532
Si Si2 0.531039 0.174561 0.369700
Si Si3 0.388780 0.179527 0.064286
Si Si4 0.920922 0.819677 0.562706
Si Si5 0.865686 0.319190 0.865603
Si Si6 0.739084 0.177257 0.737106
Si Si7 0.855719 0.674382 0.358241
Si Si8 0.933371 0.676504 0.137892
O O1 0.485304 0.500000 0.241001
O O2 0.582030 0.241459 0.193220
O O3 0.341018 0.272395 0.268017
O O4 0.448298 0.272079 0.301449
O O5 0.521301 0.246793 0.416405
O O6 0.624203 0.264689 0.311187
O O7 0.399795 0.188765 0.390076
O O8 0.572834 0.000000 0.359987
O O9 0.270095 0.259053 0.083922
O O10 0.418734 0.249291 0.098616
O O11 0.364412 0.000000 0.074032
O O12 0.500000 0.221657 0.000000
O O13 0.782176 0.763630 0.600933
O O14 0.000000 0.761739 0.500000
O O15 0.927824 0.000000 0.564763
O O16 0.867850 0.500000 0.863795
O O17 0.951456 0.256036 0.874277
O O18 0.691584 0.205036 0.797433
O O19 0.729051 0.000000 0.728835
O O20 0.861576 0.500000 0.341840
O O21 0.959313 0.500000 0.123463
#
# Coordination Sequence:
#
# PCOD8092904 Si02
#       8
#     8   8   8   8   8   8   8   8
#     4  11  21  35  59  89 119 152 196 242 297 359
#     4  11  23  37  57  89 121 154 197 245 296 347
#     4  10  21  38  59  85 117 154 199 248 293 348
#     4  10  22  42  65  85 115 164 209 245 294 353
#     4  10  21  38  58  82 115 155 195 240 296 354
#     4  10  19  35  58  83 118 157 193 239 297 355
#     4  10  22  39  58  86 124 158 193 242 298 352
#     4   8  18  36  56  80 113 154 191 232 294 353
#
# _framework density 19.871538000000001
#
# number of rings (size 3 to 8) (size 9 to 14) (size 15 to 20)
#    0.000    2.000    1.250    3.000    1.750    2.500 
#    0.000    3.125    0.000    0.000    0.000    0.000 
#    0.000    0.000    0.000    0.000    0.000    0.000 
#
# Total GULP energy -396825.152787 kJ/mol
# GULP energy per Si atom -12400.786025 kJ/mol
# Density = 1.982631 g / cm^3
# Si number density = 19.871538 Si / 1000 Ang^3
#
#
#
# Elastic Constant Matrix: (Units=GPa)
#
#
# Indices 1 2 3 4 5 6 
#
# 1 81.4293 19.3321 44.0428 0.0001 15.1129 -0.0011
# 2 19.3321 59.3788 33.7413 0.0010 2.2900 -0.0020
# 3 44.0428 33.7413 121.1701 0.0005 13.2649 0.0004
# 4 0.0001 0.0010 0.0005 23.7165 0.0004 -1.5373
# 5 15.1129 2.2900 13.2649 0.0004 31.2576 -0.0001
# 6 -0.0011 -0.0020 0.0004 -1.5373 -0.0001 24.9309
#
#
#
# Elastic Compliance Matrix: (Units=1/GPa)
#
#
# Indices 1 2 3 4 5 6 
#
# 1 0.016468 -0.002492 -0.004657 0.000000 -0.005803 0.000001
# 2 -0.002492 0.020410 -0.004977 -0.000001 0.001822 0.000002
# 3 -0.004657 -0.004977 0.011583 0.000000 -0.002300 -0.000001
# 4 0.000000 -0.000001 0.000000 0.042334 -0.000001 0.002610
# 5 -0.005803 0.001822 -0.002300 -0.000001 0.035641 0.000000
# 6 0.000001 0.000002 -0.000001 0.002610 0.000000 0.040272
#
#
# Mechanical properties :
#
#
# Convention : Reuss Voigt Hill
#
# Bulk Modulus (GPa) = 41.30467 50.69008 45.99737
# Shear Modulus (GPa) = 25.12204 26.97181 26.04692
#
# Velocity S-wave (km/s) = 3.55945 3.68816 3.62438
# Velocity P-wave (km/s) = 6.14197 6.61067 6.38063
#
# Compressibility (1/GPa) = 0.02421034
#
# Stress axis : x y z
#
# Youngs Moduli (GPa) = 60.72447 48.99500 86.33240
#
# Poissons Ratio (x) = 0.12208 0.40201
# Poissons Ratio (y) = 0.15130 0.42970
# Poissons Ratio (z) = 0.28277 0.24386
#
# Static dielectric constant tensor:
#      x y z
#    x 3.699810 0.000000 0.073650 
#    y 0.000000 3.447180 0.000000 
#    z 0.073650 0.000000 3.660440 
# 
# 
# High freq. dielectric constant tensor:
#      x y z
#    x 1.779710 0.000000 0.003400 
#    y 0.000000 1.760340 0.000000 
#    z 0.003400 0.000000 1.771060 
# 
# From -- ./inp_files/375401.got.cif
#   From: 2010.06.25/outbox.cif.g09.slc.cpg/sg12_188_cif.got.tgz:375401.got - 2010.06.28 00:19:55.
