data_PCOD8092269
_publ_section_title
;
Structure prediction by ZEFSAII (Michael W. Deem and Ramdas Pophale) SiO2 
 PCOD8092269
Probable space group: C 2/M
;
_chemical_formula_sum "Si O2"
_cell_formula_units_Z 56
_cell_length_a 15.912285
_cell_length_b 16.881741
_cell_length_c 9.839242
_cell_angle_alpha 90.000000
_cell_angle_beta 96.533000
_cell_angle_gamma 90.000000
_cell_volume 2625.923881
_symmetry_space_group_name_H-M "C 2/M"
_symmetry_group_IT_number 12
_symmetry_cell_setting 'monoclinic'
loop_
_space_group_symop_operation_xyz
x,y,z
-x,y,-z
-x,-y,-z
x,-y,z
1/2+x,1/2+y,z
1/2-x,1/2+y,-z
1/2-x,1/2-y,-z
1/2+x,1/2-y,z
loop_
_atom_site_type_symbol
_atom_site_label
_atom_site_fract_x
_atom_site_fract_y
_atom_site_fract_z
Si Si1 0.232401 0.659860 0.957479
Si Si2 0.481451 0.410858 0.849854
Si Si3 0.739171 0.092518 0.406579
Si Si4 0.145181 0.150662 0.800777
Si Si5 0.306478 0.406683 0.712871
Si Si6 0.942864 0.310414 0.115592
Si Si7 0.540930 0.907240 0.362988
O O1 0.247443 0.641529 0.803327
O O2 0.133669 0.636940 0.963288
O O3 0.250000 0.750000 0.000000
O O4 0.298265 0.613161 0.065560
O O5 0.455736 0.500000 0.875548
O O6 0.563827 0.405998 0.768808
O O7 0.401887 0.373629 0.755299
O O8 0.500000 0.368522 0.000000
O O9 0.793986 0.148360 0.317858
O O10 0.775283 0.115661 0.559002
O O11 0.640276 0.114013 0.381329
O O12 0.754044 0.000000 0.375738
O O13 0.105196 0.237426 0.819965
O O14 0.296830 0.500000 0.737133
O O15 0.996697 0.358490 0.235059
O O16 0.000000 0.282212 0.000000
O O17 0.500000 0.883363 0.500000
O O18 0.526239 0.000000 0.332402
#
# Coordination Sequence:
#
# PCOD8092269 Si02
#       7
#     8   8   8   8   8   8   8
#     4  10  22  38  60  87 121 162 210 257 310 369
#     4  10  19  34  60  91 121 162 209 253 306 368
#     4  10  22  41  66  97 129 166 212 264 316 372
#     4  11  22  39  60  91 132 169 204 257 312 375
#     4  10  21  39  65  93 123 162 210 259 313 377
#     4  11  24  41  62  93 125 167 213 260 316 375
#     4  10  22  45  71  93 125 165 212 266 322 380
#
# _framework density 21.325828000000001
#
# number of rings (size 3 to 8) (size 9 to 14) (size 15 to 20)
#    0.000    1.714    1.429    2.571    2.000    3.143 
#    2.571    5.714    0.000    0.000    0.000    0.000 
#    0.000    0.000    0.000    0.000    0.000    0.000 
#
# Total GULP energy -346968.576028 kJ/mol
# GULP energy per Si atom -12391.734858 kJ/mol
# Density = 2.127729 g / cm^3
# Si number density = 21.325828 Si / 1000 Ang^3
#
#
#
# Elastic Constant Matrix: (Units=GPa)
#
#
# Indices 1 2 3 4 5 6 
#
# 1 204.2793 42.7073 91.8672 0.0000 4.1150 0.0000
# 2 42.7073 51.2623 55.0248 0.0000 -2.7894 0.0000
# 3 91.8672 55.0248 151.7250 0.0000 0.2331 0.0000
# 4 0.0000 0.0000 0.0000 31.4914 0.0000 -5.5099
# 5 4.1150 -2.7894 0.2331 0.0000 53.2952 0.0000
# 6 0.0000 0.0000 0.0000 -5.5099 0.0000 27.3908
#
#
#
# Elastic Compliance Matrix: (Units=1/GPa)
#
#
# Indices 1 2 3 4 5 6 
#
# 1 0.006878 -0.002121 -0.003394 0.000000 -0.000627 0.000000
# 2 -0.002121 0.032754 -0.010598 0.000000 0.001924 0.000000
# 3 -0.003394 -0.010598 0.012490 0.000000 -0.000347 0.000000
# 4 0.000000 0.000000 0.000000 0.032913 0.000000 0.006621
# 5 -0.000627 0.001924 -0.000347 0.000000 0.018914 0.000000
# 6 0.000000 0.000000 0.000000 0.006621 0.000000 0.037840
#
#
# Mechanical properties :
#
#
# Convention : Reuss Voigt Hill
#
# Bulk Modulus (GPa) = 50.25914 87.38502 68.82208
# Shear Modulus (GPa) = 27.67822 36.94664 32.31243
#
# Velocity S-wave (km/s) = 3.60651 4.16683 3.89675
# Velocity P-wave (km/s) = 6.40008 8.01343 7.25176
#
# Compressibility (1/GPa) = 0.01989688
#
# Stress axis : x y z
#
# Youngs Moduli (GPa) = 145.39731 30.53017 80.06390
#
# Poissons Ratio (x) = 0.06474 0.27176
# Poissons Ratio (y) = 0.30832 0.84850
# Poissons Ratio (z) = 0.49353 0.32355
#
# Static dielectric constant tensor:
#      x y z
#    x 4.964470 0.000000 0.555270 
#    y 0.000000 3.595480 0.000000 
#    z 0.555270 0.000000 4.041370 
# 
# 
# High freq. dielectric constant tensor:
#      x y z
#    x 1.867460 0.000000 0.009770 
#    y 0.000000 1.812210 0.000000 
#    z 0.009770 0.000000 1.830920 
# 
# From -- ./inp_files/64102.got.cif
#   From: 2010.06.25/outbox.cif.g09.slc.cpg/sg12_33_cif.got.tgz:64102.got - 2010.06.28 00:19:55.
