data_PCOD8092313
_publ_section_title
;
Structure prediction by ZEFSAII (Michael W. Deem and Ramdas Pophale) SiO2 
 PCOD8092313
Probable space group: C 2/M
;
_chemical_formula_sum "Si O2"
_cell_formula_units_Z 60
_cell_length_a 8.508985
_cell_length_b 17.424447
_cell_length_c 20.710816
_cell_angle_alpha 90.000000
_cell_angle_beta 77.785049
_cell_angle_gamma 90.000000
_cell_volume 3001.157942
_symmetry_space_group_name_H-M "C 2/M"
_symmetry_group_IT_number 12
_symmetry_cell_setting 'monoclinic'
loop_
_space_group_symop_operation_xyz
x,y,z
-x,y,-z
-x,-y,-z
x,-y,z
1/2+x,1/2+y,z
1/2-x,1/2+y,-z
1/2-x,1/2-y,-z
1/2+x,1/2-y,z
loop_
_atom_site_type_symbol
_atom_site_label
_atom_site_fract_x
_atom_site_fract_y
_atom_site_fract_z
Si Si1 0.581870 0.214683 0.686022
Si Si2 0.942556 0.294654 0.932493
Si Si3 0.926590 0.913770 0.395631
Si Si4 0.637565 0.347050 0.266456
Si Si5 0.722653 0.650885 0.119956
Si Si6 0.182413 0.914197 0.993664
Si Si7 0.000000 0.208284 0.500000
Si Si8 0.844666 0.680990 0.602759
O O1 0.436255 0.260784 0.732869
O O2 0.677655 0.154873 0.722968
O O3 0.710425 0.277963 0.656386
O O4 0.510587 0.171960 0.628437
O O5 0.875398 0.220359 0.903402
O O6 0.801671 0.358080 0.945013
O O7 0.094941 0.324808 0.878908
O O8 0.000000 0.274694 0.000000
O O9 0.733229 0.903323 0.402700
O O10 0.031799 0.901752 0.321777
O O11 0.967458 0.846584 0.442409
O O12 0.958316 0.000000 0.418693
O O13 0.641526 0.379459 0.193167
O O14 0.723257 0.583826 0.066687
O O15 0.206337 0.000000 0.964167
O O16 0.000000 0.886120 0.000000
O O17 0.863181 0.267982 0.536009
#
# Coordination Sequence:
#
# PCOD8092313 Si02
#       8
#     8   8   8   8   8   8   4   8
#     4   9  17  35  55  83 107 144 196 237 277 337
#     4  10  20  34  55  86 118 143 187 245 288 327
#     4  11  24  39  57  88 124 153 188 248 306 347
#     4  10  20  35  57  84 114 152 190 239 289 350
#     4  11  20  33  57  84 114 148 191 236 284 346
#     4  10  21  37  56  79 111 152 193 237 293 345
#     4  12  19  38  67  86 110 156 206 240 285 356
#     4  10  19  34  62  84 111 147 199 239 286 346
#
# _framework density 19.992284000000001
#
# number of rings (size 3 to 8) (size 9 to 14) (size 15 to 20)
#    0.000    1.733    4.000    4.200    0.000    2.933 
#    0.000    2.333    0.000    0.000    0.000    0.000 
#    0.000    0.000    0.000    0.000    0.000    0.000 
#
# Total GULP energy -371645.388925 kJ/mol
# GULP energy per Si atom -12388.179631 kJ/mol
# Density = 1.994678 g / cm^3
# Si number density = 19.992284 Si / 1000 Ang^3
#
#
#
# Elastic Constant Matrix: (Units=GPa)
#
#
# Indices 1 2 3 4 5 6 
#
# 1 105.1000 26.0142 16.1734 0.0000 2.7659 0.0000
# 2 26.0142 65.4676 20.3018 0.0000 -1.6102 0.0000
# 3 16.1734 20.3018 95.1618 0.0000 -6.5628 0.0000
# 4 0.0000 0.0000 0.0000 11.6000 0.0000 1.3179
# 5 2.7659 -1.6102 -6.5628 0.0000 20.9235 0.0000
# 6 0.0000 0.0000 0.0000 1.3179 0.0000 15.6918
#
#
#
# Elastic Compliance Matrix: (Units=1/GPa)
#
#
# Indices 1 2 3 4 5 6 
#
# 1 0.010723 -0.003965 -0.001120 0.000000 -0.002074 0.000000
# 2 -0.003965 0.017823 -0.003064 0.000000 0.000935 0.000000
# 3 -0.001120 -0.003064 0.011597 0.000000 0.003550 0.000000
# 4 0.000000 0.000000 0.000000 0.087037 0.000000 -0.007310
# 5 -0.002074 0.000935 0.003550 0.000000 0.049253 0.000000
# 6 0.000000 0.000000 0.000000 -0.007310 0.000000 0.064341
#
#
# Mechanical properties :
#
#
# Convention : Reuss Voigt Hill
#
# Bulk Modulus (GPa) = 41.93470 43.41201 42.67336
# Shear Modulus (GPa) = 18.86647 23.19241 21.02944
#
# Velocity S-wave (km/s) = 3.07528 3.40967 3.24679
# Velocity P-wave (km/s) = 5.79921 6.10432 5.95372
#
# Compressibility (1/GPa) = 0.02384660
#
# Stress axis : x y z
#
# Youngs Moduli (GPa) = 93.25787 56.10621 86.22759
#
# Poissons Ratio (x) = 0.22244 0.09654
# Poissons Ratio (y) = 0.36974 0.26421
# Poissons Ratio (z) = 0.10441 0.17192
#
# Static dielectric constant tensor:
#      x y z
#    x 4.297860 0.000000 0.131360 
#    y 0.000000 3.390220 0.000000 
#    z 0.131360 0.000000 3.657450 
# 
# 
# High freq. dielectric constant tensor:
#      x y z
#    x 1.793890 0.000000 -0.000860 
#    y 0.000000 1.743360 0.000000 
#    z -0.000860 0.000000 1.770410 
# 
# From -- ./inp_files/300753.got.cif
#   From: 2010.06.25/outbox.cif.g09.slc.cpg/sg12_151_cif.got.tgz:300753.got - 2010.06.28 00:19:55.
