data_PCOD8092861
_publ_section_title
;
Structure prediction by ZEFSAII (Michael W. Deem and Ramdas Pophale) SiO2 
 PCOD8092861
Probable space group: C 2/M
;
_chemical_formula_sum "Si O2"
_cell_formula_units_Z 56
_cell_length_a 28.230395
_cell_length_b 8.518428
_cell_length_c 17.571335
_cell_angle_alpha 90.000000
_cell_angle_beta 43.753625
_cell_angle_gamma 90.000000
_cell_volume 2922.202148
_symmetry_space_group_name_H-M "C 2/M"
_symmetry_group_IT_number 12
_symmetry_cell_setting 'monoclinic'
loop_
_space_group_symop_operation_xyz
x,y,z
-x,y,-z
-x,-y,-z
x,-y,z
1/2+x,1/2+y,z
1/2-x,1/2+y,-z
1/2-x,1/2-y,-z
1/2+x,1/2-y,z
loop_
_atom_site_type_symbol
_atom_site_label
_atom_site_fract_x
_atom_site_fract_y
_atom_site_fract_z
Si Si1 0.828824 0.315674 0.784727
Si Si2 0.065588 0.684474 0.631714
Si Si3 0.677777 0.681212 0.608425
Si Si4 0.285899 0.679933 0.267155
Si Si5 0.412537 0.813802 0.832253
Si Si6 0.642815 0.317750 0.404216
Si Si7 0.817551 0.684811 0.076451
O O1 0.814727 0.500000 0.807919
O O2 0.874015 0.250734 0.801919
O O3 0.868601 0.278975 0.660191
O O4 0.757023 0.225069 0.869691
O O5 0.066486 0.500000 0.615303
O O6 0.116950 0.723531 0.640289
O O7 0.084987 0.770650 0.531285
O O8 0.990544 0.746049 0.742461
O O9 0.673652 0.500000 0.588214
O O10 0.750000 0.750000 0.500000
O O11 0.669016 0.701340 0.709423
O O12 0.262899 0.500000 0.283365
O O13 0.217055 0.782142 0.354255
O O14 0.330578 0.733399 0.142827
O O15 0.410139 0.000000 0.834288
O O16 0.374449 0.750387 0.951842
O O17 0.637398 0.500000 0.391259
O O18 0.823558 0.500000 0.080856
#
# Coordination Sequence:
#
# PCOD8092861 Si02
#       7
#     8   8   8   8   8   8   8
#     4  10  19  35  58  82 109 144 187 228 275 327
#     4  11  22  38  57  79 111 148 186 226 274 330
#     4  11  22  36  58  85 112 142 182 225 275 330
#     4  10  20  35  56  83 111 142 179 223 276 328
#     4   9  21  38  56  79 110 150 188 225 272 330
#     4  11  21  34  53  82 114 142 181 228 278 328
#     4  10  19  35  58  84 111 141 185 232 272 320
#
# _framework density 19.163630000000001
#
# number of rings (size 3 to 8) (size 9 to 14) (size 15 to 20)
#    0.000    1.714    1.429    5.571    0.000    2.286 
#    0.000   11.429    0.000    4.286    0.000    0.000 
#    0.000    0.000    0.000    0.000    0.000    0.000 
#
# Total GULP energy -347274.298143 kJ/mol
# GULP energy per Si atom -12402.653505 kJ/mol
# Density = 1.912001 g / cm^3
# Si number density = 19.163630 Si / 1000 Ang^3
#
#
#
# Elastic Constant Matrix: (Units=GPa)
#
#
# Indices 1 2 3 4 5 6 
#
# 1 87.1529 8.1079 67.8287 -0.0010 7.1403 0.0001
# 2 8.1079 52.3215 17.6218 0.0301 4.2886 -0.0217
# 3 67.8287 17.6218 154.2086 0.0053 6.2360 -0.0033
# 4 -0.0010 0.0301 0.0053 27.1842 -0.0088 3.7202
# 5 7.1403 4.2886 6.2360 -0.0088 25.4596 0.0059
# 6 0.0001 -0.0217 -0.0033 3.7202 0.0059 27.5603
#
#
#
# Elastic Compliance Matrix: (Units=1/GPa)
#
#
# Indices 1 2 3 4 5 6 
#
# 1 0.017684 0.000095 -0.007664 0.000001 -0.003098 0.000000
# 2 0.000095 0.020081 -0.002220 -0.000025 -0.002865 0.000020
# 3 -0.007664 -0.002220 0.010107 0.000000 0.000048 -0.000001
# 4 0.000001 -0.000025 0.000000 0.037478 0.000018 -0.005059
# 5 -0.003098 -0.002865 0.000048 0.000018 0.040618 -0.000013
# 6 0.000000 0.000020 -0.000001 -0.005059 -0.000013 0.036967
#
#
# Mechanical properties :
#
#
# Convention : Reuss Voigt Hill
#
# Bulk Modulus (GPa) = 35.34461 53.42219 44.38340
# Shear Modulus (GPa) = 26.04919 29.38245 27.71582
#
# Velocity S-wave (km/s) = 3.69087 3.91991 3.80711
# Velocity P-wave (km/s) = 6.05368 6.95880 6.52196
#
# Compressibility (1/GPa) = 0.02829286
#
# Stress axis : x y z
#
# Youngs Moduli (GPa) = 56.54985 49.79916 98.93751
#
# Poissons Ratio (x) = -0.00472 0.75822
# Poissons Ratio (y) = -0.00536 0.21969
# Poissons Ratio (z) = 0.43338 0.11058
#
# Static dielectric constant tensor:
#      x y z
#    x 3.525820 0.000000 0.247620 
#    y 0.000000 3.477050 0.000000 
#    z 0.247620 0.000000 3.657990 
# 
# 
# High freq. dielectric constant tensor:
#      x y z
#    x 1.737870 0.000000 0.020340 
#    y 0.000000 1.746640 0.000000 
#    z 0.020340 0.000000 1.744600 
# 
# From -- ./inp_files/295055.got.cif
#   From: 2010.06.25/outbox.cif.g09.slc.cpg/sg12_148_cif.got.tgz:295055.got - 2010.06.28 00:19:55.
