data_PCOD8092996
_publ_section_title
;
Structure prediction by ZEFSAII (Michael W. Deem and Ramdas Pophale) SiO2 
 PCOD8092996
Probable space group: C 2/M
;
_chemical_formula_sum "Si O2"
_cell_formula_units_Z 48
_cell_length_a 19.707458
_cell_length_b 15.578003
_cell_length_c 18.709587
_cell_angle_alpha 90.000000
_cell_angle_beta 151.871527
_cell_angle_gamma 90.000000
_cell_volume 2707.961044
_symmetry_space_group_name_H-M "C 2/M"
_symmetry_group_IT_number 12
_symmetry_cell_setting 'monoclinic'
loop_
_space_group_symop_operation_xyz
x,y,z
-x,y,-z
-x,-y,-z
x,-y,z
1/2+x,1/2+y,z
1/2-x,1/2+y,-z
1/2-x,1/2-y,-z
1/2+x,1/2-y,z
loop_
_atom_site_type_symbol
_atom_site_label
_atom_site_fract_x
_atom_site_fract_y
_atom_site_fract_z
Si Si1 0.878945 0.099326 0.944737
Si Si2 0.863704 0.289851 0.328876
Si Si3 0.728248 0.500000 0.682143
Si Si4 0.430701 0.259332 0.104489
Si Si5 0.440484 0.500000 0.327693
Si Si6 0.376554 0.175828 0.825467
Si Si7 0.127411 0.817597 0.798697
O O1 0.723448 0.123387 0.768585
O O2 0.885866 0.000000 0.970113
O O3 0.900269 0.150842 0.037207
O O4 0.000000 0.126404 0.000000
O O5 0.765828 0.223841 0.281476
O O6 0.921474 0.241277 0.312529
O O7 0.000000 0.319826 0.500000
O O8 0.604818 0.500000 0.507270
O O9 0.664530 0.500000 0.702322
O O10 0.834217 0.579152 0.769997
O O11 0.570411 0.215241 0.200190
O O12 0.460390 0.282648 0.214359
O O13 0.297877 0.193223 0.971657
O O14 0.409419 0.416702 0.250501
O O15 0.500000 0.183666 0.000000
#
# Coordination Sequence:
#
# PCOD8092996 Si02
#       7
#     8   8   4   8   4   8   8
#     4  10  19  35  59  81 103 138 190 237 269 322
#     4  11  20  36  57  81 113 148 183 227 284 342
#     4  11  23  32  60  84 118 149 187 236 277 340
#     4  10  20  37  57  85 109 145 190 234 286 326
#     4  11  20  38  52  88 119 153 184 223 294 350
#     4  12  19  37  59  87 110 147 193 236 276 332
#     4  10  21  35  57  84 114 146 185 231 282 343
#
# _framework density 17.725511999999998
#
# number of rings (size 3 to 8) (size 9 to 14) (size 15 to 20)
#    0.000    1.333    6.667    1.250    1.167    1.000 
#    0.000    3.333    1.833    0.000    0.000    0.000 
#    0.000    0.000    0.000    0.000    0.000    0.000 
#
# Total GULP energy -297653.262735 kJ/mol
# GULP energy per Si atom -12402.219281 kJ/mol
# Density = 1.768517 g / cm^3
# Si number density = 17.725512 Si / 1000 Ang^3
#
#
#
# Elastic Constant Matrix: (Units=GPa)
#
#
# Indices 1 2 3 4 5 6 
#
# 1 138.4993 49.9788 44.6875 0.0010 -6.9356 0.0002
# 2 49.9788 93.8746 30.0421 0.0041 4.0746 0.0018
# 3 44.6875 30.0421 74.2930 0.0047 4.5588 0.0023
# 4 0.0010 0.0041 0.0047 16.6236 0.0008 3.2875
# 5 -6.9356 4.0746 4.5588 0.0008 15.1526 0.0000
# 6 0.0002 0.0018 0.0023 3.2875 0.0000 22.0639
#
#
#
# Elastic Compliance Matrix: (Units=1/GPa)
#
#
# Indices 1 2 3 4 5 6 
#
# 1 0.010911 -0.004472 -0.005232 0.000001 0.007771 0.000001
# 2 -0.004472 0.014119 -0.002711 -0.000002 -0.005028 -0.000001
# 3 -0.005232 -0.002711 0.018140 -0.000004 -0.007123 -0.000001
# 4 0.000001 -0.000002 -0.000004 0.061982 -0.000001 -0.009235
# 5 0.007771 -0.005028 -0.007123 -0.000001 0.073047 0.000001
# 6 0.000001 -0.000001 -0.000001 -0.009235 0.000001 0.046699
#
#
# Mechanical properties :
#
#
# Convention : Reuss Voigt Hill
#
# Bulk Modulus (GPa) = 54.52084 61.78707 58.15396
# Shear Modulus (GPa) = 19.54331 22.89858 21.22094
#
# Velocity S-wave (km/s) = 3.32407 3.59812 3.46381
# Velocity P-wave (km/s) = 6.74965 7.22463 6.99118
#
# Compressibility (1/GPa) = 0.01834161
#
# Stress axis : x y z
#
# Youngs Moduli (GPa) = 91.64887 70.82502 55.12579
#
# Poissons Ratio (x) = 0.31674 0.28839
# Poissons Ratio (y) = 0.40987 0.14944
# Poissons Ratio (z) = 0.47946 0.19200
#
# Static dielectric constant tensor:
#      x y z
#    x 3.433420 0.000000 0.054830 
#    y 0.000000 3.268090 0.000000 
#    z 0.054830 0.000000 3.215140 
# 
# 
# High freq. dielectric constant tensor:
#      x y z
#    x 1.686710 0.000000 0.002630 
#    y 0.000000 1.690300 0.000000 
#    z 0.002630 0.000000 1.670880 
# 
# From -- ./inp_files/278265.got.cif
#   From: 2010.06.25/outbox.cif.g09.slc.cpg/sg12_140_cif.got.tgz:278265.got - 2010.06.28 00:19:55.
