data_PCOD8092765
_publ_section_title
;
Structure prediction by ZEFSAII (Michael W. Deem and Ramdas Pophale) SiO2 
 PCOD8092765
Probable space group: C 2/M
;
_chemical_formula_sum "Si O2"
_cell_formula_units_Z 56
_cell_length_a 29.488382
_cell_length_b 8.234423
_cell_length_c 12.788663
_cell_angle_alpha 90.000000
_cell_angle_beta 59.872967
_cell_angle_gamma 90.000000
_cell_volume 2685.854860
_symmetry_space_group_name_H-M "C 2/M"
_symmetry_group_IT_number 12
_symmetry_cell_setting 'monoclinic'
loop_
_space_group_symop_operation_xyz
x,y,z
-x,y,-z
-x,-y,-z
x,-y,z
1/2+x,1/2+y,z
1/2-x,1/2+y,-z
1/2-x,1/2-y,-z
1/2+x,1/2-y,z
loop_
_atom_site_type_symbol
_atom_site_label
_atom_site_fract_x
_atom_site_fract_y
_atom_site_fract_z
Si Si1 0.406212 0.687051 0.355898
Si Si2 0.145678 0.193327 0.968906
Si Si3 0.705054 0.814049 0.479142
Si Si4 0.443067 0.694226 0.532654
Si Si5 0.557992 0.306333 0.906959
Si Si6 0.642306 0.690419 0.206852
Si Si7 0.759313 0.811799 0.776977
O O1 0.421964 0.500000 0.333588
O O2 0.344254 0.703363 0.436851
O O3 0.432448 0.765976 0.428839
O O4 0.426600 0.767229 0.224360
O O5 0.099580 0.255077 0.945558
O O6 0.199877 0.274729 0.873699
O O7 0.152359 0.000000 0.956823
O O8 0.132180 0.255833 0.101446
O O9 0.750000 0.750000 0.500000
O O10 0.722637 0.798096 0.339720
O O11 0.691581 0.000000 0.519584
O O12 0.500000 0.756586 0.500000
O O13 0.439739 0.500000 0.534258
O O14 0.399925 0.766274 0.663286
O O15 0.559068 0.500000 0.904664
O O16 0.500000 0.240897 0.000000
O O17 0.633112 0.500000 0.216970
O O18 0.701815 0.732768 0.172162
O O19 0.765388 0.000000 0.738931
#
# Coordination Sequence:
#
# PCOD8092765 Si02
#       7
#     8   8   8   8   8   8   8
#     4  10  19  35  57  83 117 150 189 238 288 340
#     4  10  20  34  54  81 114 150 192 236 285 342
#     4  12  24  38  59  85 115 151 189 232 286 345
#     4   9  17  29  52  84 112 146 194 245 292 334
#     4   9  19  33  53  83 113 143 182 233 283 330
#     4   9  18  32  52  81 114 148 188 237 285 336
#     4  11  21  37  57  82 115 148 188 236 288 345
#
# _framework density 20.849972000000001
#
# number of rings (size 3 to 8) (size 9 to 14) (size 15 to 20)
#    0.000    2.000    1.429    3.000    2.000    1.143 
#    0.000    0.714    0.000    2.143    0.000    0.000 
#    0.000    0.000    0.000    0.000    0.000    0.000 
#
# Total GULP energy -347175.246026 kJ/mol
# GULP energy per Si atom -12399.115930 kJ/mol
# Density = 2.080252 g / cm^3
# Si number density = 20.849972 Si / 1000 Ang^3
#
#
#
# Elastic Constant Matrix: (Units=GPa)
#
#
# Indices 1 2 3 4 5 6 
#
# 1 193.1889 3.9950 102.4694 0.0000 -0.4137 0.0000
# 2 3.9950 22.8739 3.1838 0.0000 4.8614 0.0000
# 3 102.4694 3.1838 187.0616 0.0000 13.7651 0.0000
# 4 0.0000 0.0000 0.0000 16.9585 0.0000 -6.2517
# 5 -0.4137 4.8614 13.7651 0.0000 38.9789 0.0000
# 6 0.0000 0.0000 0.0000 -6.2517 0.0000 16.4762
#
#
#
# Elastic Compliance Matrix: (Units=1/GPa)
#
#
# Indices 1 2 3 4 5 6 
#
# 1 0.007411 -0.001072 -0.004166 0.000000 0.001683 0.000000
# 2 -0.001072 0.045087 0.000241 0.000000 -0.005720 0.000000
# 3 -0.004166 0.000241 0.007833 0.000000 -0.002840 0.000000
# 4 0.000000 0.000000 0.000000 0.068557 0.000000 0.026013
# 5 0.001683 -0.005720 -0.002840 0.000000 0.027389 0.000000
# 6 0.000000 0.000000 0.000000 0.026013 0.000000 0.070564
#
#
# Mechanical properties :
#
#
# Convention : Reuss Voigt Hill
#
# Bulk Modulus (GPa) = 19.86597 69.15787 44.51192
# Shear Modulus (GPa) = 19.71497 34.04780 26.88139
#
# Velocity S-wave (km/s) = 3.07834 4.04541 3.59455
# Velocity P-wave (km/s) = 4.70995 7.42036 6.21472
#
# Compressibility (1/GPa) = 0.05033735
#
# Stress axis : x y z
#
# Youngs Moduli (GPa) = 134.92546 22.17920 127.67240
#
# Poissons Ratio (x) = 0.02379 0.53182
# Poissons Ratio (y) = 0.14470 -0.03076
# Poissons Ratio (z) = 0.56204 -0.00534
#
# Static dielectric constant tensor:
#      x y z
#    x 3.932490 0.000000 0.164430 
#    y 0.000000 3.252380 0.000000 
#    z 0.164430 0.000000 4.110280 
# 
# 
# High freq. dielectric constant tensor:
#      x y z
#    x 1.830120 0.000000 0.006840 
#    y 0.000000 1.763300 0.000000 
#    z 0.006840 0.000000 1.830150 
# 
# From -- ./inp_files/187204.got.cif
#   From: 2010.06.25/outbox.cif.g09.slc.cpg/sg12_94_cif.got.tgz:187204.got - 2010.06.28 00:19:55.
