data_PCOD8092871
_publ_section_title
;
Structure prediction by ZEFSAII (Michael W. Deem and Ramdas Pophale) SiO2 
 PCOD8092871
Probable space group: C 2/M
;
_chemical_formula_sum "Si O2"
_cell_formula_units_Z 48
_cell_length_a 20.333534
_cell_length_b 8.893023
_cell_length_c 20.402468
_cell_angle_alpha 90.000000
_cell_angle_beta 136.673842
_cell_angle_gamma 90.000000
_cell_volume 2531.421109
_symmetry_space_group_name_H-M "C 2/M"
_symmetry_group_IT_number 12
_symmetry_cell_setting 'monoclinic'
loop_
_space_group_symop_operation_xyz
x,y,z
-x,y,-z
-x,-y,-z
x,-y,z
1/2+x,1/2+y,z
1/2-x,1/2+y,-z
1/2-x,1/2-y,-z
1/2+x,1/2-y,z
loop_
_atom_site_type_symbol
_atom_site_label
_atom_site_fract_x
_atom_site_fract_y
_atom_site_fract_z
Si Si1 0.245549 0.176132 0.896707
Si Si2 0.601885 0.323518 0.907523
Si Si3 0.589262 0.177862 0.272669
Si Si4 0.432919 0.821678 0.595383
Si Si5 0.282886 0.825469 0.380793
Si Si6 0.641407 0.825668 0.707705
O O1 0.158734 0.218762 0.882522
O O2 0.219348 0.233433 0.805574
O O3 0.265700 0.000000 0.910412
O O4 0.342171 0.258637 0.989360
O O5 0.590062 0.500000 0.907815
O O6 0.498176 0.248598 0.830550
O O7 0.588473 0.236550 0.347040
O O8 0.686203 0.230094 0.308378
O O9 0.579945 0.000000 0.262958
O O10 0.349974 0.760510 0.487393
O O11 0.535912 0.760371 0.646621
O O12 0.434005 0.000000 0.591871
O O13 0.339479 0.801041 0.354654
O O14 0.257419 0.000000 0.373445
O O15 0.649220 0.000000 0.733534
#
# Coordination Sequence:
#
# PCOD8092871 Si02
#       6
#     8   8   8   8   8   8
#     4  10  20  34  56  85 113 140 176 227 279 326
#     4  10  20  35  57  83 110 142 182 225 271 329
#     4  11  21  35  56  82 114 147 182 230 278 323
#     4   9  18  34  57  82 107 145 193 231 267 317
#     4  10  21  36  55  80 113 151 188 226 270 325
#     4  10  19  35  58  82 111 147 187 228 270 323
#
# _framework density 18.961680000000001
#
# number of rings (size 3 to 8) (size 9 to 14) (size 15 to 20)
#    0.000    2.000    1.667    2.500    0.000    4.000 
#    0.000    2.500    0.000    7.000    0.000    0.000 
#    0.000    0.000    0.000    0.000    0.000    0.000 
#
# Total GULP energy -297720.587405 kJ/mol
# GULP energy per Si atom -12405.024475 kJ/mol
# Density = 1.891852 g / cm^3
# Si number density = 18.961680 Si / 1000 Ang^3
#
#
#
# Elastic Constant Matrix: (Units=GPa)
#
#
# Indices 1 2 3 4 5 6 
#
# 1 61.6927 23.0433 22.8557 0.0000 16.1759 0.0000
# 2 23.0433 63.1672 36.9515 0.0000 8.6421 0.0000
# 3 22.8557 36.9515 125.9591 0.0000 20.4271 0.0000
# 4 0.0000 0.0000 0.0000 28.7206 0.0000 0.2703
# 5 16.1759 8.6421 20.4271 0.0000 25.6040 0.0000
# 6 0.0000 0.0000 0.0000 0.2703 0.0000 25.8234
#
#
#
# Elastic Compliance Matrix: (Units=1/GPa)
#
#
# Indices 1 2 3 4 5 6 
#
# 1 0.021586 -0.006165 -0.000269 0.000000 -0.011342 0.000000
# 2 -0.006165 0.020987 -0.005193 0.000000 0.000954 0.000000
# 3 -0.000269 -0.005193 0.010567 0.000000 -0.006508 0.000000
# 4 0.000000 0.000000 0.000000 0.034822 0.000000 -0.000365
# 5 -0.011342 0.000954 -0.006508 0.000000 0.051092 0.000000
# 6 0.000000 0.000000 0.000000 -0.000365 0.000000 0.038728
#
#
# Mechanical properties :
#
#
# Convention : Reuss Voigt Hill
#
# Bulk Modulus (GPa) = 33.46119 46.27999 39.87059
# Shear Modulus (GPa) = 23.69699 27.22751 25.46225
#
# Velocity S-wave (km/s) = 3.53899 3.79347 3.66844
# Velocity P-wave (km/s) = 5.86381 6.60661 6.24626
#
# Compressibility (1/GPa) = 0.02988537
#
# Stress axis : x y z
#
# Youngs Moduli (GPa) = 46.32701 47.64785 94.63791
#
# Poissons Ratio (x) = 0.29377 0.02543
# Poissons Ratio (y) = 0.28563 0.49144
# Poissons Ratio (z) = 0.01245 0.24743
#
# Static dielectric constant tensor:
#      x y z
#    x 3.297940 0.000000 0.023000 
#    y 0.000000 3.260010 0.000000 
#    z 0.023000 0.000000 3.585550 
# 
# 
# High freq. dielectric constant tensor:
#      x y z
#    x 1.721010 0.000000 0.004060 
#    y 0.000000 1.722790 0.000000 
#    z 0.004060 0.000000 1.751450 
# 
# From -- ./inp_files/229911.got.cif
#   From: 2010.06.25/outbox.cif.g09.slc.cpg/sg12_115_cif.got.tgz:229911.got - 2010.06.28 00:19:55.
