data_PCOD8092285
_publ_section_title
;
Structure prediction by ZEFSAII (Michael W. Deem and Ramdas Pophale) SiO2 
 PCOD8092285
Probable space group: C 2/M
;
_chemical_formula_sum "Si O2"
_cell_formula_units_Z 52
_cell_length_a 20.518165
_cell_length_b 11.437016
_cell_length_c 12.568298
_cell_angle_alpha 90.000000
_cell_angle_beta 116.811013
_cell_angle_gamma 90.000000
_cell_volume 2632.300832
_symmetry_space_group_name_H-M "C 2/M"
_symmetry_group_IT_number 12
_symmetry_cell_setting 'monoclinic'
loop_
_space_group_symop_operation_xyz
x,y,z
-x,y,-z
-x,-y,-z
x,-y,z
1/2+x,1/2+y,z
1/2-x,1/2+y,-z
1/2-x,1/2-y,-z
1/2+x,1/2-y,z
loop_
_atom_site_type_symbol
_atom_site_label
_atom_site_fract_x
_atom_site_fract_y
_atom_site_fract_z
Si Si1 0.434781 0.634387 0.747120
Si Si2 0.330380 0.752457 0.516457
Si Si3 0.956574 0.500000 0.186901
Si Si4 0.911377 0.753792 0.139557
Si Si5 0.405026 0.000000 0.603191
Si Si6 0.183587 0.726425 0.728844
Si Si7 0.658428 0.362227 0.116918
Si Si8 0.403851 0.000000 0.373195
O O1 0.458169 0.500000 0.768004
O O2 0.378999 0.655769 0.610662
O O3 0.506127 0.710278 0.775307
O O4 0.397333 0.671487 0.830441
O O5 0.250000 0.750000 0.500000
O O6 0.357375 0.882673 0.565313
O O7 0.329024 0.707339 0.392486
O O8 0.915299 0.614801 0.111738
O O9 0.958755 0.500000 0.316443
O O10 0.045686 0.500000 0.250281
O O11 0.860733 0.781875 0.204603
O O12 0.880499 0.828951 0.020988
O O13 0.446343 0.000000 0.517256
O O14 0.268982 0.715853 0.820532
O O15 0.153162 0.602193 0.679421
O O16 0.676838 0.500000 0.131584
#
# Coordination Sequence:
#
# PCOD8092285 Si02
#       8
#     8   8   4   8   4   8   8   4
#     4  11  24  42  66  89 121 165 211 254 301 366
#     4  11  22  38  64  92 122 156 202 252 313 367
#     4  10  19  36  56  88 123 155 190 249 304 368
#     4  11  23  40  60  93 126 160 204 251 311 363
#     4  10  19  34  61  86 117 155 194 251 299 366
#     4  10  20  37  63  92 122 158 198 259 307 357
#     4  11  22  41  67  89 118 165 218 257 292 357
#     4   8  17  30  58  89 114 143 203 244 301 347
#
# _framework density 19.754581000000002
#
# number of rings (size 3 to 8) (size 9 to 14) (size 15 to 20)
#    0.000    1.538    3.846    1.615    1.077    1.846 
#    0.000    4.615    1.692    0.000    0.000    0.000 
#    0.000    0.000    0.000    0.000    0.000    0.000 
#
# Total GULP energy -322157.566233 kJ/mol
# GULP energy per Si atom -12390.675624 kJ/mol
# Density = 1.970962 g / cm^3
# Si number density = 19.754581 Si / 1000 Ang^3
#
#
#
# Elastic Constant Matrix: (Units=GPa)
#
#
# Indices 1 2 3 4 5 6 
#
# 1 125.3217 27.3046 42.6937 0.0000 -13.0874 0.0000
# 2 27.3046 46.4531 8.3718 0.0000 -13.4519 0.0000
# 3 42.6937 8.3718 107.2636 0.0000 -10.0848 0.0000
# 4 0.0000 0.0000 0.0000 39.6083 0.0000 11.1225
# 5 -13.0874 -13.4519 -10.0848 0.0000 29.7040 0.0000
# 6 0.0000 0.0000 0.0000 11.1225 0.0000 41.8018
#
#
#
# Elastic Compliance Matrix: (Units=1/GPa)
#
#
# Indices 1 2 3 4 5 6 
#
# 1 0.010466 -0.005198 -0.003665 0.000000 0.001013 0.000000
# 2 -0.005198 0.027444 0.000909 0.000000 0.010447 0.000000
# 3 -0.003665 0.000909 0.010947 0.000000 0.002514 0.000000
# 4 0.000000 0.000000 0.000000 0.027286 0.000000 -0.007260
# 5 0.001013 0.010447 0.002514 0.000000 0.039696 0.000000
# 6 0.000000 0.000000 0.000000 -0.007260 0.000000 0.025854
#
#
# Mechanical properties :
#
#
# Convention : Reuss Voigt Hill
#
# Bulk Modulus (GPa) = 30.34952 48.41983 39.38468
# Shear Modulus (GPa) = 29.65876 35.60072 32.62974
#
# Velocity S-wave (km/s) = 3.87894 4.24978 4.06859
# Velocity P-wave (km/s) = 5.95468 6.97458 6.48471
#
# Compressibility (1/GPa) = 0.03294945
#
# Stress axis : x y z
#
# Youngs Moduli (GPa) = 95.54435 36.43806 91.34988
#
# Poissons Ratio (x) = 0.18941 0.33479
# Poissons Ratio (y) = 0.49665 -0.08306
# Poissons Ratio (z) = 0.35016 -0.03313
#
# Static dielectric constant tensor:
#      x y z
#    x 3.822610 0.000000 -0.134980 
#    y 0.000000 3.333980 0.000000 
#    z -0.134980 0.000000 3.739870 
# 
# 
# High freq. dielectric constant tensor:
#      x y z
#    x 1.781030 0.000000 0.008020 
#    y 0.000000 1.752570 0.000000 
#    z 0.008020 0.000000 1.777970 
# 
# From -- ./inp_files/165578.got.cif
#   From: 2010.06.25/outbox.cif.g09.slc.cpg/sg12_83_cif.got.tgz:165578.got - 2010.06.28 00:19:55.
