data_PCOD8092965
_publ_section_title
;
Structure prediction by ZEFSAII (Michael W. Deem and Ramdas Pophale) SiO2 
 PCOD8092965
Probable space group: C 2/M
;
_chemical_formula_sum "Si O2"
_cell_formula_units_Z 64
_cell_length_a 14.351908
_cell_length_b 14.333402
_cell_length_c 17.685939
_cell_angle_alpha 90.000000
_cell_angle_beta 115.087621
_cell_angle_gamma 90.000000
_cell_volume 3294.977384
_symmetry_space_group_name_H-M "C 2/M"
_symmetry_group_IT_number 12
_symmetry_cell_setting 'monoclinic'
loop_
_space_group_symop_operation_xyz
x,y,z
-x,y,-z
-x,-y,-z
x,-y,z
1/2+x,1/2+y,z
1/2-x,1/2+y,-z
1/2-x,1/2-y,-z
1/2+x,1/2-y,z
loop_
_atom_site_type_symbol
_atom_site_label
_atom_site_fract_x
_atom_site_fract_y
_atom_site_fract_z
Si Si1 0.468147 0.313890 0.655161
Si Si2 0.480213 0.749642 0.169418
Si Si3 0.725899 0.309240 0.919473
Si Si4 0.167938 0.109034 0.657774
Si Si5 0.707157 0.742017 0.212837
Si Si6 0.919524 0.395423 0.033140
Si Si7 0.743330 0.391336 0.353867
Si Si8 0.152176 0.753238 0.518669
O O1 0.496998 0.242361 0.732781
O O2 0.564074 0.381763 0.671901
O O3 0.367058 0.372716 0.643834
O O4 0.447674 0.255173 0.570623
O O5 0.396478 0.665199 0.125941
O O6 0.584872 0.732785 0.160854
O O7 0.426040 0.841147 0.115264
O O8 0.744310 0.244005 0.852814
O O9 0.750000 0.250000 0.000000
O O10 0.806085 0.394738 0.953598
O O11 0.261691 0.163664 0.730741
O O12 0.152226 0.153011 0.569352
O O13 0.196493 0.000000 0.659871
O O14 0.744766 0.649955 0.269719
O O15 0.949683 0.500000 0.063534
O O16 0.000000 0.353311 0.000000
O O17 0.766418 0.500000 0.359275
O O18 0.839452 0.340849 0.428818
O O19 0.250000 0.750000 0.500000
#
# Coordination Sequence:
#
# PCOD8092965 Si02
#       8
#     8   8   8   8   8   8   8   8
#     4  10  19  35  58  87 117 149 193 243 294 351
#     4  10  20  37  57  82 118 158 190 229 300 352
#     4  10  20  36  59  81 110 157 193 231 293 354
#     4  11  22  35  59  91 120 149 191 249 300 346
#     4  10  20  37  56  88 121 154 195 243 293 349
#     4  10  20  35  59  89 118 149 190 245 299 353
#     4   9  19  36  58  81 116 162 199 235 287 345
#     4   9  20  36  54  80 115 156 192 234 286 347
#
# _framework density 19.423501999999999
#
# number of rings (size 3 to 8) (size 9 to 14) (size 15 to 20)
#    0.000    2.125    2.500    1.500    0.000    4.000 
#    0.000    3.750    0.000    6.000    0.000    7.000 
#    0.000    0.000    0.000    0.000    0.000    0.000 
#
# Total GULP energy -396420.625902 kJ/mol
# GULP energy per Si atom -12388.144559 kJ/mol
# Density = 1.937929 g / cm^3
# Si number density = 19.423502 Si / 1000 Ang^3
#
#
#
# Elastic Constant Matrix: (Units=GPa)
#
#
# Indices 1 2 3 4 5 6 
#
# 1 71.5946 24.6336 30.3718 0.0000 9.3170 0.0000
# 2 24.6336 119.1669 50.9186 0.0000 -1.4882 0.0000
# 3 30.3718 50.9186 129.8568 0.0000 1.6026 0.0000
# 4 0.0000 0.0000 0.0000 15.8193 0.0000 -1.5877
# 5 9.3170 -1.4882 1.6026 0.0000 40.4934 0.0000
# 6 0.0000 0.0000 0.0000 -1.5877 0.0000 19.8289
#
#
#
# Elastic Compliance Matrix: (Units=1/GPa)
#
#
# Indices 1 2 3 4 5 6 
#
# 1 0.016458 -0.002191 -0.002944 0.000000 -0.003751 0.000000
# 2 -0.002191 0.010384 -0.003572 0.000000 0.001027 0.000000
# 3 -0.002944 -0.003572 0.009788 0.000000 0.000159 0.000000
# 4 0.000000 0.000000 0.000000 0.063726 0.000000 0.005102
# 5 -0.003751 0.001027 0.000159 0.000000 0.025590 0.000000
# 6 0.000000 0.000000 0.000000 0.005102 0.000000 0.050840
#
#
# Mechanical properties :
#
#
# Convention : Reuss Voigt Hill
#
# Bulk Modulus (GPa) = 52.03929 59.16292 55.60111
# Shear Modulus (GPa) = 24.92464 29.54127 27.23295
#
# Velocity S-wave (km/s) = 3.58609 3.90411 3.74847
# Velocity P-wave (km/s) = 6.63301 7.13080 6.88640
#
# Compressibility (1/GPa) = 0.01921625
#
# Stress axis : x y z
#
# Youngs Moduli (GPa) = 60.75915 96.30658 102.16694
#
# Poissons Ratio (x) = 0.21102 0.30077
# Poissons Ratio (y) = 0.13313 0.36491
# Poissons Ratio (z) = 0.17887 0.34398
#
# Static dielectric constant tensor:
#      x y z
#    x 3.979180 0.000000 0.315160 
#    y 0.000000 3.212700 0.000000 
#    z 0.315160 0.000000 4.197550 
# 
# 
# High freq. dielectric constant tensor:
#      x y z
#    x 1.766640 0.000000 0.003470 
#    y 0.000000 1.706000 0.000000 
#    z 0.003470 0.000000 1.777100 
# 
# From -- ./inp_files/270322.got.cif
#   From: 2010.06.25/outbox.cif.g09.slc.cpg/sg12_136_cif.got.tgz:270322.got - 2010.06.28 00:19:55.
