data_PCOD8092361
_publ_section_title
;
Structure prediction by ZEFSAII (Michael W. Deem and Ramdas Pophale) SiO2 
 PCOD8092361
Probable space group: C 2/M
;
_chemical_formula_sum "Si O2"
_cell_formula_units_Z 64
_cell_length_a 15.196522
_cell_length_b 29.129950
_cell_length_c 11.758467
_cell_angle_alpha 90.000000
_cell_angle_beta 138.026532
_cell_angle_gamma 90.000000
_cell_volume 3481.144764
_symmetry_space_group_name_H-M "C 2/M"
_symmetry_group_IT_number 12
_symmetry_cell_setting 'monoclinic'
loop_
_space_group_symop_operation_xyz
x,y,z
-x,y,-z
-x,-y,-z
x,-y,z
1/2+x,1/2+y,z
1/2-x,1/2+y,-z
1/2-x,1/2-y,-z
1/2+x,1/2-y,z
loop_
_atom_site_type_symbol
_atom_site_label
_atom_site_fract_x
_atom_site_fract_y
_atom_site_fract_z
Si Si1 0.850078 0.356718 0.345213
Si Si2 0.789133 0.712640 0.628894
Si Si3 0.126821 0.946197 0.492528
Si Si4 0.786335 0.739336 0.224754
Si Si5 0.333188 0.445668 0.211785
Si Si6 0.870213 0.382948 0.119540
Si Si7 0.324782 0.115088 0.566463
Si Si8 0.085658 0.720012 0.870321
O O1 0.765313 0.310061 0.262546
O O2 0.830836 0.388086 0.214702
O O3 0.810553 0.385227 0.417148
O O4 0.000000 0.340020 0.500000
O O5 0.750000 0.750000 0.500000
O O6 0.713675 0.721727 0.676632
O O7 0.761009 0.661061 0.559694
O O8 0.944581 0.717597 0.792199
O O9 0.166915 0.930219 0.657236
O O10 0.235936 0.927485 0.513511
O O11 0.979871 0.931710 0.310346
O O12 0.132421 0.000000 0.495310
O O13 0.915156 0.738053 0.263563
O O14 0.664716 0.744945 0.023314
O O15 0.305385 0.500000 0.168961
O O16 0.219919 0.417411 0.038589
O O17 0.845772 0.330223 0.059880
O O18 0.025054 0.393838 0.249978
#
# Coordination Sequence:
#
# PCOD8092361 Si02
#       8
#     8   8   8   8   8   8   8   8
#     4   9  18  36  55  74 108 147 183 224 273 317
#     4  11  21  34  53  77 109 148 186 228 269 319
#     4   9  20  39  59  80 113 142 171 220 277 334
#     4  10  19  35  53  71 105 150 185 222 274 317
#     4   9  19  39  60  81 109 142 174 218 279 335
#     4   9  19  35  59  79 107 141 184 226 270 326
#     4  10  20  36  55  83 109 144 185 229 273 322
#     4   9  21  36  50  75 110 144 184 231 274 309
#
# _framework density 18.384757
#
# number of rings (size 3 to 8) (size 9 to 14) (size 15 to 20)
#    0.000    2.500    1.250    1.875    1.750    1.000 
#    6.750    2.500    0.000    3.750    0.000    0.000 
#    0.000    0.000    0.000    0.000    0.000    0.000 
#
# Total GULP energy -396530.252616 kJ/mol
# GULP energy per Si atom -12391.570394 kJ/mol
# Density = 1.834291 g / cm^3
# Si number density = 18.384757 Si / 1000 Ang^3
#
#
#
# Elastic Constant Matrix: (Units=GPa)
#
#
# Indices 1 2 3 4 5 6 
#
# 1 91.5263 31.1455 34.6337 0.0000 -8.2807 0.0000
# 2 31.1455 38.5354 49.4488 0.0000 -0.1967 0.0000
# 3 34.6337 49.4488 95.7145 0.0000 -7.3912 0.0000
# 4 0.0000 0.0000 0.0000 37.9753 0.0000 0.9127
# 5 -8.2807 -0.1967 -7.3912 0.0000 22.7664 0.0000
# 6 0.0000 0.0000 0.0000 0.9127 0.0000 28.9573
#
#
#
# Elastic Compliance Matrix: (Units=1/GPa)
#
#
# Indices 1 2 3 4 5 6 
#
# 1 0.016290 -0.018615 0.004275 0.000000 0.007152 0.000000
# 2 -0.018615 0.101933 -0.047573 0.000000 -0.021335 0.000000
# 3 0.004275 -0.047573 0.034430 0.000000 0.012322 0.000000
# 4 0.000000 0.000000 0.000000 0.026353 0.000000 -0.000831
# 5 0.007152 -0.021335 0.012322 0.000000 0.050342 0.000000
# 6 0.000000 0.000000 0.000000 -0.000831 0.000000 0.034560
#
#
# Mechanical properties :
#
#
# Convention : Reuss Voigt Hill
#
# Bulk Modulus (GPa) = 34.69085 50.69247 42.69166
# Shear Modulus (GPa) = 12.58362 25.30967 18.94665
#
# Velocity S-wave (km/s) = 2.61906 3.71437 3.21372
# Velocity P-wave (km/s) = 5.29682 6.78442 6.08624
#
# Compressibility (1/GPa) = 0.02882604
#
# Stress axis : x y z
#
# Youngs Moduli (GPa) = 61.38826 9.81039 29.04445
#
# Poissons Ratio (x) = 0.18262 -0.12417
# Poissons Ratio (y) = 1.14275 1.38173
# Poissons Ratio (z) = -0.26244 0.46671
#
# Static dielectric constant tensor:
#      x y z
#    x 3.193250 0.000000 -0.110330 
#    y 0.000000 3.183060 0.000000 
#    z -0.110330 0.000000 3.375210 
# 
# 
# High freq. dielectric constant tensor:
#      x y z
#    x 1.717080 0.000000 -0.008100 
#    y 0.000000 1.693190 0.000000 
#    z -0.008100 0.000000 1.708990 
# 
# From -- ./inp_files/149802.got.cif
#   From: 2010.06.25/outbox.cif.g09.slc.cpg/sg12_75_cif.got.tgz:149802.got - 2010.06.28 00:19:55.
