data_PCOD8092908
_publ_section_title
;
Structure prediction by ZEFSAII (Michael W. Deem and Ramdas Pophale) SiO2 
 PCOD8092908
Probable space group: C 2/M
;
_chemical_formula_sum "Si O2"
_cell_formula_units_Z 64
_cell_length_a 20.668428
_cell_length_b 8.711184
_cell_length_c 18.520544
_cell_angle_alpha 90.000000
_cell_angle_beta 105.151132
_cell_angle_gamma 90.000000
_cell_volume 3218.648702
_symmetry_space_group_name_H-M "C 2/M"
_symmetry_group_IT_number 12
_symmetry_cell_setting 'monoclinic'
loop_
_space_group_symop_operation_xyz
x,y,z
-x,y,-z
-x,-y,-z
x,-y,z
1/2+x,1/2+y,z
1/2-x,1/2+y,-z
1/2-x,1/2-y,-z
1/2+x,1/2-y,z
loop_
_atom_site_type_symbol
_atom_site_label
_atom_site_fract_x
_atom_site_fract_y
_atom_site_fract_z
Si Si1 0.885594 0.320129 0.645959
Si Si2 0.131643 0.817487 0.692752
Si Si3 0.147288 0.317236 0.146804
Si Si4 0.043793 0.171185 0.204902
Si Si5 0.819594 0.321089 0.002201
Si Si6 0.730737 0.317869 0.301918
Si Si7 0.007438 0.177539 0.417759
Si Si8 0.112814 0.169775 0.848653
O O1 0.871714 0.500000 0.636503
O O2 0.937905 0.281727 0.724093
O O3 0.814294 0.238123 0.642814
O O4 0.923578 0.262628 0.585026
O O5 0.193054 0.741919 0.666724
O O6 0.060136 0.758694 0.640694
O O7 0.138543 0.767661 0.778934
O O8 0.135818 0.000000 0.685637
O O9 0.148767 0.500000 0.153874
O O10 0.073950 0.249644 0.142346
O O11 0.200962 0.248966 0.218688
O O12 0.159924 0.256578 0.069877
O O13 0.965875 0.157077 0.175854
O O14 0.074739 0.000000 0.225692
O O15 0.812857 0.500000 0.994585
O O16 0.870569 0.281184 0.080821
O O17 0.750000 0.250000 0.000000
O O18 0.731484 0.500000 0.299848
O O19 0.000000 0.204218 0.500000
O O20 0.016389 0.000000 0.399628
O O21 0.143845 0.000000 0.871471
#
# Coordination Sequence:
#
# PCOD8092908 Si02
#       8
#     8   8   8   8   8   8   8   8
#     4  11  21  36  60  88 121 157 193 237 288 344
#     4  10  20  38  60  87 120 150 189 239 291 344
#     4  10  21  37  54  78 112 150 189 239 296 341
#     4  10  19  35  58  84 110 146 192 236 284 343
#     4  11  24  38  53  74 107 147 191 238 291 348
#     4  11  22  36  59  88 116 153 201 244 285 343
#     4  10  21  40  66  92 121 156 191 233 288 347
#     4  10  21  36  57  81 111 147 187 237 288 341
#
# _framework density 19.884121
#
# number of rings (size 3 to 8) (size 9 to 14) (size 15 to 20)
#    0.000    1.625    1.250    5.625    0.000    7.750 
#    0.000    3.125    0.000    0.000    0.000    0.000 
#    0.000    0.000    0.000    0.000    0.000    0.000 
#
# Total GULP energy -396707.727337 kJ/mol
# GULP energy per Si atom -12397.116479 kJ/mol
# Density = 1.983886 g / cm^3
# Si number density = 19.884121 Si / 1000 Ang^3
#
#
#
# Elastic Constant Matrix: (Units=GPa)
#
#
# Indices 1 2 3 4 5 6 
#
# 1 111.2968 39.7549 35.0602 0.0000 -25.9050 0.0000
# 2 39.7549 87.0404 28.9619 0.0000 -16.3605 0.0000
# 3 35.0602 28.9619 72.9242 0.0000 -23.9833 0.0000
# 4 0.0000 0.0000 0.0000 21.6401 0.0000 -5.6131
# 5 -25.9050 -16.3605 -23.9833 0.0000 27.9133 0.0000
# 6 0.0000 0.0000 0.0000 -5.6131 0.0000 33.0876
#
#
#
# Elastic Compliance Matrix: (Units=1/GPa)
#
#
# Indices 1 2 3 4 5 6 
#
# 1 0.012797 -0.003658 -0.002089 0.000000 0.007937 0.000000
# 2 -0.003658 0.014706 -0.003294 0.000000 0.002394 0.000000
# 3 -0.002089 -0.003294 0.020564 0.000000 0.013799 0.000000
# 4 0.000000 0.000000 0.000000 0.048338 0.000000 0.008200
# 5 0.007937 0.002394 0.013799 0.000000 0.056450 0.000000
# 6 0.000000 0.000000 0.000000 0.008200 0.000000 0.031614
#
#
# Mechanical properties :
#
#
# Convention : Reuss Voigt Hill
#
# Bulk Modulus (GPa) = 33.35186 53.20171 43.27678
# Shear Modulus (GPa) = 23.52424 27.69382 25.60903
#
# Velocity S-wave (km/s) = 3.44331 3.73602 3.59264
# Velocity P-wave (km/s) = 5.71122 6.73976 6.24670
#
# Compressibility (1/GPa) = 0.02998334
#
# Stress axis : x y z
#
# Youngs Moduli (GPa) = 78.14205 68.00038 48.62892
#
# Poissons Ratio (x) = 0.24873 0.10161
# Poissons Ratio (y) = 0.28583 0.16021
# Poissons Ratio (z) = 0.16328 0.22402
#
# Static dielectric constant tensor:
#      x y z
#    x 3.824060 0.000000 -0.312520 
#    y 0.000000 2.721930 0.000000 
#    z -0.312520 0.000000 3.379280 
# 
# 
# High freq. dielectric constant tensor:
#      x y z
#    x 1.787120 0.000000 -0.019210 
#    y 0.000000 1.775070 0.000000 
#    z -0.019210 0.000000 1.761250 
# 
# From -- ./inp_files/281294.got.cif
#   From: 2010.06.25/outbox.cif.g09.slc.cpg/sg12_141_cif.got.tgz:281294.got - 2010.06.28 00:19:55.
