data_PCOD8092449
_publ_section_title
;
Structure prediction by ZEFSAII (Michael W. Deem and Ramdas Pophale) SiO2 
 PCOD8092449
Probable space group: C 2/M
;
_chemical_formula_sum "Si O2"
_cell_formula_units_Z 56
_cell_length_a 23.211873
_cell_length_b 8.445383
_cell_length_c 19.078351
_cell_angle_alpha 90.000000
_cell_angle_beta 52.909158
_cell_angle_gamma 90.000000
_cell_volume 2983.315984
_symmetry_space_group_name_H-M "C 2/M"
_symmetry_group_IT_number 12
_symmetry_cell_setting 'monoclinic'
loop_
_space_group_symop_operation_xyz
x,y,z
-x,y,-z
-x,-y,-z
x,-y,z
1/2+x,1/2+y,z
1/2-x,1/2+y,-z
1/2-x,1/2-y,-z
1/2+x,1/2-y,z
loop_
_atom_site_type_symbol
_atom_site_label
_atom_site_fract_x
_atom_site_fract_y
_atom_site_fract_z
Si Si1 0.640835 0.684796 0.479585
Si Si2 0.400045 0.175434 0.632448
Si Si3 0.562247 0.685778 0.252277
Si Si4 0.707040 0.312832 0.672435
Si Si5 0.714197 0.810655 0.096365
Si Si6 0.735594 0.672405 0.798179
Si Si7 0.087703 0.316982 0.662302
O O1 0.630599 0.500000 0.501733
O O2 0.594291 0.733555 0.445548
O O3 0.725656 0.722415 0.411163
O O4 0.609773 0.782466 0.566823
O O5 0.440577 0.273632 0.663032
O O6 0.317541 0.157164 0.713439
O O7 0.434873 0.000000 0.600676
O O8 0.556165 0.500000 0.246968
O O9 0.633194 0.747416 0.160855
O O10 0.494922 0.768727 0.263692
O O11 0.724870 0.500000 0.662367
O O12 0.694541 0.246474 0.762149
O O13 0.635880 0.283946 0.680269
O O14 0.762133 0.741695 0.127263
O O15 0.712294 0.000000 0.100968
O O16 0.750000 0.750000 0.000000
O O17 0.700672 0.500000 0.835609
O O18 0.099121 0.500000 0.670930
#
# Coordination Sequence:
#
# PCOD8092449 Si02
#       7
#     8   8   8   8   8   8   8
#     4  11  21  34  52  77 104 138 185 231 266 308
#     4   9  17  33  53  75 104 139 174 218 269 316
#     4  11  22  37  55  79 107 139 176 217 266 325
#     4  10  19  35  55  76 103 141 184 226 265 309
#     4  10  19  35  59  88 114 139 168 208 259 316
#     4   7  14  29  52  77 104 134 168 207 255 306
#     4  12  24  37  51  72 104 144 182 224 271 317
#
# _framework density 18.771059000000001
#
# number of rings (size 3 to 8) (size 9 to 14) (size 15 to 20)
#    0.000    2.000    0.000    7.286    0.000    0.571 
#    0.000    5.000    0.000    0.857    0.000    6.000 
#    0.000    0.000    0.000    0.000    0.000    0.000 
#
# Total GULP energy -347033.564608 kJ/mol
# GULP energy per Si atom -12394.055879 kJ/mol
# Density = 1.872834 g / cm^3
# Si number density = 18.771059 Si / 1000 Ang^3
#
#
#
# Elastic Constant Matrix: (Units=GPa)
#
#
# Indices 1 2 3 4 5 6 
#
# 1 64.6004 4.5763 46.6905 -0.0015 3.2460 0.0010
# 2 4.5763 76.9045 10.7802 0.0059 1.6802 -0.0007
# 3 46.6905 10.7802 94.0341 0.0019 16.9870 -0.0012
# 4 -0.0015 0.0059 0.0019 24.9556 -0.0030 0.9676
# 5 3.2460 1.6802 16.9870 -0.0030 22.2774 0.0017
# 6 0.0010 -0.0007 -0.0012 0.9676 0.0017 27.2904
#
#
#
# Elastic Compliance Matrix: (Units=1/GPa)
#
#
# Indices 1 2 3 4 5 6 
#
# 1 0.024996 0.000280 -0.013664 0.000003 0.006756 -0.000002
# 2 0.000280 0.013219 -0.001702 -0.000003 0.000260 0.000000
# 3 -0.013664 -0.001702 0.019984 -0.000004 -0.013119 0.000002
# 4 0.000003 -0.000003 -0.000004 0.040126 0.000008 -0.001423
# 5 0.006756 0.000260 -0.013119 0.000008 0.053888 -0.000004
# 6 -0.000002 0.000000 0.000002 -0.001423 -0.000004 0.036693
#
#
# Mechanical properties :
#
#
# Convention : Reuss Voigt Hill
#
# Bulk Modulus (GPa) = 35.67709 39.95922 37.81815
# Shear Modulus (GPa) = 21.88952 26.47081 24.18017
#
# Velocity S-wave (km/s) = 3.41857 3.75933 3.59299
# Velocity P-wave (km/s) = 5.88471 6.33856 6.11585
#
# Compressibility (1/GPa) = 0.02802919
#
# Stress axis : x y z
#
# Youngs Moduli (GPa) = 40.00634 75.64694 50.04054
#
# Poissons Ratio (x) = -0.02121 0.68374
# Poissons Ratio (y) = -0.01121 0.08515
# Poissons Ratio (z) = 0.54664 0.12872
#
# Static dielectric constant tensor:
#      x y z
#    x 3.769850 0.000000 0.318150 
#    y 0.000000 3.415570 0.000000 
#    z 0.318150 0.000000 3.276340 
# 
# 
# High freq. dielectric constant tensor:
#      x y z
#    x 1.734190 0.000000 0.018120 
#    y 0.000000 1.729630 0.000000 
#    z 0.018120 0.000000 1.698380 
# 
# From -- ./inp_files/323561.got.cif
#   From: 2010.06.25/outbox.cif.g09.slc.cpg/sg12_162_cif.got.tgz:323561.got - 2010.06.28 00:19:55.
