data_PCOD8092022
_publ_section_title
;
Structure prediction by ZEFSAII (Michael W. Deem and Ramdas Pophale) SiO2 
 PCOD8092022
Probable space group: C 2/M
;
_chemical_formula_sum "Si O2"
_cell_formula_units_Z 64
_cell_length_a 28.244632
_cell_length_b 8.995106
_cell_length_c 15.395564
_cell_angle_alpha 90.000000
_cell_angle_beta 56.640278
_cell_angle_gamma 90.000000
_cell_volume 3266.978717
_symmetry_space_group_name_H-M "C 2/M"
_symmetry_group_IT_number 12
_symmetry_cell_setting 'monoclinic'
loop_
_space_group_symop_operation_xyz
x,y,z
-x,y,-z
-x,-y,-z
x,-y,z
1/2+x,1/2+y,z
1/2-x,1/2+y,-z
1/2-x,1/2-y,-z
1/2+x,1/2-y,z
loop_
_atom_site_type_symbol
_atom_site_label
_atom_site_fract_x
_atom_site_fract_y
_atom_site_fract_z
Si Si1 0.638105 0.827049 0.948608
Si Si2 0.242616 0.827563 0.098081
Si Si3 0.248362 0.177007 0.408233
Si Si4 0.056856 0.825955 0.704177
Si Si5 0.620517 0.324458 0.283487
Si Si6 0.873322 0.824286 0.529534
Si Si7 0.560432 0.175183 0.187254
Si Si8 0.142793 0.173466 0.772600
O O1 0.704611 0.791216 0.892978
O O2 0.615526 0.729681 0.890624
O O3 0.627009 0.000000 0.940320
O O4 0.605319 0.776941 0.068476
O O5 0.185137 0.773360 0.201876
O O6 0.240052 0.000000 0.079894
O O7 0.250000 0.750000 0.000000
O O8 0.250000 0.250000 0.500000
O O9 0.190695 0.231797 0.420497
O O10 0.300223 0.233356 0.298457
O O11 0.251188 0.000000 0.414347
O O12 0.084712 0.763035 0.587156
O O13 0.099301 0.792360 0.739720
O O14 0.000149 0.736124 0.780535
O O15 0.042679 0.000000 0.711516
O O16 0.613377 0.500000 0.278388
O O17 0.604807 0.274773 0.397490
O O18 0.577868 0.244028 0.261709
O O19 0.872282 0.000000 0.523099
O O20 0.557758 0.000000 0.200737
O O21 0.157307 0.000000 0.762571
#
# Coordination Sequence:
#
# PCOD8092022 Si02
#       8
#     8   8   8   8   8   8   8   8
#     4  10  22  40  60  85 120 158 192 238 301 358
#     4  10  19  34  58  87 118 152 191 233 290 353
#     4  11  20  36  62  91 126 159 194 239 292 353
#     4  10  22  42  62  82 114 154 201 246 288 348
#     4  10  20  36  62  88 112 153 198 236 287 348
#     4   9  19  38  62  86 117 156 196 236 283 350
#     4  11  24  41  60  84 117 153 195 248 302 350
#     4  11  23  39  61  91 120 153 199 246 294 348
#
# _framework density 19.589963999999998
#
# number of rings (size 3 to 8) (size 9 to 14) (size 15 to 20)
#    0.000    1.750    2.500    1.875    0.000    5.500 
#    0.000    8.125    0.000    0.000    0.000    0.000 
#    0.000    0.000    0.000    0.000    0.000    0.000 
#
# Total GULP energy -396879.418245 kJ/mol
# GULP energy per Si atom -12402.481820 kJ/mol
# Density = 1.954538 g / cm^3
# Si number density = 19.589964 Si / 1000 Ang^3
#
#
#
# Elastic Constant Matrix: (Units=GPa)
#
#
# Indices 1 2 3 4 5 6 
#
# 1 74.5897 33.3884 46.2687 0.0000 5.3978 0.0000
# 2 33.3884 53.5170 32.8592 0.0000 6.5531 0.0000
# 3 46.2687 32.8592 76.0051 0.0000 20.8475 0.0000
# 4 0.0000 0.0000 0.0000 32.6073 0.0000 1.2033
# 5 5.3978 6.5531 20.8475 0.0000 40.2671 0.0000
# 6 0.0000 0.0000 0.0000 1.2033 0.0000 32.0153
#
#
#
# Elastic Compliance Matrix: (Units=1/GPa)
#
#
# Indices 1 2 3 4 5 6 
#
# 1 0.024598 -0.008086 -0.012744 0.000000 0.004617 0.000000
# 2 -0.008086 0.028210 -0.007356 0.000000 0.000302 0.000000
# 3 -0.012744 -0.007356 0.027155 0.000000 -0.011153 0.000000
# 4 0.000000 0.000000 0.000000 0.030711 0.000000 -0.001154
# 5 0.004617 0.000302 -0.011153 0.000000 0.029941 0.000000
# 6 0.000000 0.000000 0.000000 -0.001154 0.000000 0.031278
#
#
# Mechanical properties :
#
#
# Convention : Reuss Voigt Hill
#
# Bulk Modulus (GPa) = 42.39289 47.68269 45.03779
# Shear Modulus (GPa) = 21.17479 27.08431 24.12955
#
# Velocity S-wave (km/s) = 3.29127 3.72231 3.51341
# Velocity P-wave (km/s) = 6.01085 6.54732 6.28481
#
# Compressibility (1/GPa) = 0.02358886
#
# Stress axis : x y z
#
# Youngs Moduli (GPa) = 40.65403 35.44792 36.82580
#
# Poissons Ratio (x) = 0.28665 0.46933
# Poissons Ratio (y) = 0.32875 0.27090
# Poissons Ratio (z) = 0.51811 0.26076
#
# Static dielectric constant tensor:
#      x y z
#    x 3.566780 0.000000 0.005050 
#    y 0.000000 3.585360 0.000000 
#    z 0.005050 0.000000 3.813830 
# 
# 
# High freq. dielectric constant tensor:
#      x y z
#    x 1.767450 0.000000 0.007520 
#    y 0.000000 1.746290 0.000000 
#    z 0.007520 0.000000 1.774350 
# 
# From -- ./inp_files/249660.got.cif
#   From: 2010.06.25/outbox.cif.g09.slc.cpg/sg12_125_cif.got.tgz:249660.got - 2010.06.28 00:19:55.
