data_PCOD8092257
_publ_section_title
;
Structure prediction by ZEFSAII (Michael W. Deem and Ramdas Pophale) SiO2 
 PCOD8092257
Probable space group: C 2/M
;
_chemical_formula_sum "Si O2"
_cell_formula_units_Z 64
_cell_length_a 20.134767
_cell_length_b 8.742541
_cell_length_c 31.546558
_cell_angle_alpha 90.000000
_cell_angle_beta 143.265440
_cell_angle_gamma 90.000000
_cell_volume 3321.363097
_symmetry_space_group_name_H-M "C 2/M"
_symmetry_group_IT_number 12
_symmetry_cell_setting 'monoclinic'
loop_
_space_group_symop_operation_xyz
x,y,z
-x,y,-z
-x,-y,-z
x,-y,z
1/2+x,1/2+y,z
1/2-x,1/2+y,-z
1/2-x,1/2-y,-z
1/2+x,1/2-y,z
loop_
_atom_site_type_symbol
_atom_site_label
_atom_site_fract_x
_atom_site_fract_y
_atom_site_fract_z
Si Si1 0.259737 0.677242 0.550476
Si Si2 0.594950 0.821187 0.081821
Si Si3 0.040040 0.178728 0.288066
Si Si4 0.122844 0.179534 0.553191
Si Si5 0.685762 0.180298 0.840797
Si Si6 0.436734 0.324650 0.846249
Si Si7 0.678828 0.179022 0.286217
Si Si8 0.172908 0.176799 0.925575
O O1 0.238061 0.500000 0.534770
O O2 0.250000 0.750000 0.500000
O O3 0.381748 0.712217 0.631676
O O4 0.164448 0.742188 0.531839
O O5 0.704312 0.724172 0.128361
O O6 0.551381 0.777873 0.105980
O O7 0.622962 0.000000 0.093708
O O8 0.500000 0.775606 0.000000
O O9 0.083092 0.269918 0.269423
O O10 0.917115 0.238274 0.235665
O O11 0.037691 0.000000 0.275199
O O12 0.201279 0.222095 0.633048
O O13 0.000000 0.241134 0.500000
O O14 0.123382 0.000000 0.544991
O O15 0.695703 0.235436 0.893935
O O16 0.668658 0.000000 0.830745
O O17 0.417318 0.500000 0.849445
O O18 0.333965 0.266617 0.764942
O O19 0.546254 0.303250 0.874333
O O20 0.666772 0.000000 0.271634
O O21 0.204614 0.000000 0.935459
O O22 0.250000 0.250000 0.000000
#
# Coordination Sequence:
#
# PCOD8092257 Si02
#       8
#     8   8   8   8   8   8   8   8
#     4  10  21  37  60  88 120 158 197 243 292 347
#     4  11  25  44  64  85 116 156 198 244 298 358
#     4  10  20  37  60  87 119 156 197 245 297 347
#     4   9  19  37  60  87 120 157 196 240 290 345
#     4  12  24  39  62  89 119 154 196 243 296 355
#     4  11  23  39  60  86 119 156 195 241 294 350
#     4  10  19  34  60  89 117 155 198 243 294 347
#     4  11  23  38  60  89 120 152 192 242 290 343
#
# _framework density 19.269197999999999
#
# number of rings (size 3 to 8) (size 9 to 14) (size 15 to 20)
#    0.000    1.500    1.250    4.125    0.000    6.750 
#    2.250    0.000    0.000    0.000    0.000    0.000 
#    0.000    0.000    0.000    0.000    0.000    0.000 
#
# Total GULP energy -396964.214772 kJ/mol
# GULP energy per Si atom -12405.131712 kJ/mol
# Density = 1.922534 g / cm^3
# Si number density = 19.269198 Si / 1000 Ang^3
#
#
#
# Elastic Constant Matrix: (Units=GPa)
#
#
# Indices 1 2 3 4 5 6 
#
# 1 55.8873 26.2852 39.7829 0.0002 -3.6341 -0.0005
# 2 26.2852 61.3545 43.5127 0.0003 -0.7918 -0.0004
# 3 39.7829 43.5127 123.7144 0.0000 -3.8510 0.0001
# 4 0.0002 0.0003 0.0000 32.2553 -0.0001 -2.9805
# 5 -3.6341 -0.7918 -3.8510 -0.0001 37.9729 0.0002
# 6 -0.0005 -0.0004 0.0001 -2.9805 0.0002 35.2749
#
#
#
# Elastic Compliance Matrix: (Units=1/GPa)
#
#
# Indices 1 2 3 4 5 6 
#
# 1 0.025226 -0.006755 -0.005683 0.000000 0.001697 0.000000
# 2 -0.006755 0.023528 -0.006127 0.000000 -0.000777 0.000000
# 3 -0.005683 -0.006127 0.012083 0.000000 0.000554 0.000000
# 4 0.000000 0.000000 0.000000 0.031247 0.000000 0.002640
# 5 0.001697 -0.000777 0.000554 0.000000 0.026537 0.000000
# 6 0.000000 0.000000 0.000000 0.002640 0.000000 0.028572
#
#
# Mechanical properties :
#
#
# Convention : Reuss Voigt Hill
#
# Bulk Modulus (GPa) = 42.18276 51.12419 46.65348
# Shear Modulus (GPa) = 26.01112 29.85898 27.93505
#
# Velocity S-wave (km/s) = 3.67806 3.94073 3.81166
# Velocity P-wave (km/s) = 6.32268 6.87713 6.60573
#
# Compressibility (1/GPa) = 0.02370637
#
# Stress axis : x y z
#
# Youngs Moduli (GPa) = 39.64153 42.50254 82.76032
#
# Poissons Ratio (x) = 0.28709 0.47036
# Poissons Ratio (y) = 0.26777 0.50710
# Poissons Ratio (z) = 0.22530 0.26043
#
# Static dielectric constant tensor:
#      x y z
#    x 3.396980 0.000000 0.062380 
#    y 0.000000 3.649500 0.000000 
#    z 0.062380 0.000000 3.755910 
# 
# 
# High freq. dielectric constant tensor:
#      x y z
#    x 1.737860 0.000000 -0.001720 
#    y 0.000000 1.763540 0.000000 
#    z -0.001720 0.000000 1.762960 
# 
# From -- ./inp_files/378431.got.cif
#   From: 2010.06.25/outbox.cif.g09.slc.cpg/sg12_190_cif.got.tgz:378431.got - 2010.06.28 00:19:55.
