data_PCOD8092816
_publ_section_title
;
Structure prediction by ZEFSAII (Michael W. Deem and Ramdas Pophale) SiO2 
 PCOD8092816
Probable space group: C 2/M
;
_chemical_formula_sum "Si O2"
_cell_formula_units_Z 40
_cell_length_a 20.279805
_cell_length_b 9.029940
_cell_length_c 12.614525
_cell_angle_alpha 90.000000
_cell_angle_beta 64.578353
_cell_angle_gamma 90.000000
_cell_volume 2086.366351
_symmetry_space_group_name_H-M "C 2/M"
_symmetry_group_IT_number 12
_symmetry_cell_setting 'monoclinic'
loop_
_space_group_symop_operation_xyz
x,y,z
-x,y,-z
-x,-y,-z
x,-y,z
1/2+x,1/2+y,z
1/2-x,1/2+y,-z
1/2-x,1/2-y,-z
1/2+x,1/2-y,z
loop_
_atom_site_type_symbol
_atom_site_label
_atom_site_fract_x
_atom_site_fract_y
_atom_site_fract_z
Si Si1 0.183422 0.824034 0.228564
Si Si2 0.587010 0.672646 0.100943
Si Si3 0.921998 0.175940 0.518068
Si Si4 0.077755 0.827686 0.721220
Si Si5 0.152290 0.324549 0.859743
O O1 0.144586 0.767727 0.148135
O O2 0.140542 0.761095 0.360765
O O3 0.266083 0.765434 0.173356
O O4 0.180601 0.000000 0.233521
O O5 0.598377 0.500000 0.069556
O O6 0.506783 0.705761 0.199193
O O7 0.597555 0.760144 0.984801
O O8 0.903710 0.223502 0.410864
O O9 0.000000 0.242370 0.500000
O O10 0.926157 0.000000 0.522921
O O11 0.128878 0.730840 0.760768
O O12 0.095060 0.000000 0.727786
O O13 0.148538 0.500000 0.865173
#
# Coordination Sequence:
#
# PCOD8092816 Si02
#       5
#     8   8   8   8   8
#     4   9  18  33  54  80 106 134 172 219 264 306
#     4  10  19  35  58  79 101 134 182 226 252 292
#     4   9  15  30  57  83 101 125 172 226 265 299
#     4  10  20  34  57  83 103 131 176 224 260 299
#     4  11  23  35  49  76 115 147 168 203 263 322
#
# _framework density 19.172087999999999
#
# number of rings (size 3 to 8) (size 9 to 14) (size 15 to 20)
#    0.000    2.200    2.000    1.800    0.000    4.000 
#    0.000    1.000    0.000    3.000    0.000    0.000 
#    0.000    0.000    0.000    0.000    0.000    0.000 
#
# Total GULP energy -248036.635003 kJ/mol
# GULP energy per Si atom -12401.831750 kJ/mol
# Density = 1.912845 g / cm^3
# Si number density = 19.172088 Si / 1000 Ang^3
#
#
#
# Elastic Constant Matrix: (Units=GPa)
#
#
# Indices 1 2 3 4 5 6 
#
# 1 82.6459 22.5309 11.5578 0.0000 18.5155 0.0000
# 2 22.5309 29.6119 18.7237 0.0000 2.3952 0.0000
# 3 11.5578 18.7237 103.6718 0.0000 13.3313 0.0000
# 4 0.0000 0.0000 0.0000 11.8299 0.0000 2.8987
# 5 18.5155 2.3952 13.3313 0.0000 32.9520 0.0000
# 6 0.0000 0.0000 0.0000 2.8987 0.0000 24.5058
#
#
#
# Elastic Compliance Matrix: (Units=1/GPa)
#
#
# Indices 1 2 3 4 5 6 
#
# 1 0.017816 -0.013890 0.001772 0.000000 -0.009718 0.000000
# 2 -0.013890 0.048953 -0.008269 0.000000 0.007592 0.000000
# 3 0.001772 -0.008269 0.011596 0.000000 -0.005086 0.000000
# 4 0.000000 0.000000 0.000000 0.087055 0.000000 -0.010297
# 5 -0.009718 0.007592 -0.005086 0.000000 0.037313 0.000000
# 6 0.000000 0.000000 0.000000 -0.010297 0.000000 0.042025
#
#
# Mechanical properties :
#
#
# Convention : Reuss Voigt Hill
#
# Bulk Modulus (GPa) = 26.60217 35.72824 31.16520
# Shear Modulus (GPa) = 16.77507 24.73202 20.75354
#
# Velocity S-wave (km/s) = 2.96120 3.59556 3.29369
# Velocity P-wave (km/s) = 5.05937 5.99278 5.54575
#
# Compressibility (1/GPa) = 0.03759092
#
# Stress axis : x y z
#
# Youngs Moduli (GPa) = 56.12993 20.42775 86.23902
#
# Poissons Ratio (x) = 0.28374 -0.15282
# Poissons Ratio (y) = 0.77964 0.71310
# Poissons Ratio (z) = -0.09947 0.16891
#
# Static dielectric constant tensor:
#      x y z
#    x 3.674110 0.000000 0.011410 
#    y 0.000000 3.002070 0.000000 
#    z 0.011410 0.000000 3.702530 
# 
# 
# High freq. dielectric constant tensor:
#      x y z
#    x 1.753790 0.000000 0.004390 
#    y 0.000000 1.695760 0.000000 
#    z 0.004390 0.000000 1.762180 
# 
# From -- ./inp_files/151732.got.cif
#   From: 2010.06.25/outbox.cif.g09.slc.cpg/sg12_76_cif.got.tgz:151732.got - 2010.06.28 00:19:55.
