data_PCOD8092735
_publ_section_title
;
Structure prediction by ZEFSAII (Michael W. Deem and Ramdas Pophale) SiO2 
 PCOD8092735
Probable space group: C 2/M
;
_chemical_formula_sum "Si O2"
_cell_formula_units_Z 56
_cell_length_a 19.400723
_cell_length_b 17.878713
_cell_length_c 9.103607
_cell_angle_alpha 90.000000
_cell_angle_beta 58.560495
_cell_angle_gamma 90.000000
_cell_volume 2694.102525
_symmetry_space_group_name_H-M "C 2/M"
_symmetry_group_IT_number 12
_symmetry_cell_setting 'monoclinic'
loop_
_space_group_symop_operation_xyz
x,y,z
-x,y,-z
-x,-y,-z
x,-y,z
1/2+x,1/2+y,z
1/2-x,1/2+y,-z
1/2-x,1/2-y,-z
1/2+x,1/2-y,z
loop_
_atom_site_type_symbol
_atom_site_label
_atom_site_fract_x
_atom_site_fract_y
_atom_site_fract_z
Si Si1 0.082624 0.367469 0.482794
Si Si2 0.139635 0.287196 0.987141
Si Si3 0.984868 0.584934 0.846129
Si Si4 0.255059 0.582311 0.222790
Si Si5 0.827449 0.211816 0.337186
Si Si6 0.688952 0.660911 0.114010
Si Si7 0.914606 0.193706 0.528534
O O1 0.157988 0.413906 0.339016
O O2 0.101790 0.281617 0.424992
O O3 0.000000 0.396132 0.500000
O O4 0.065817 0.384725 0.674258
O O5 0.128464 0.268868 0.825758
O O6 0.233670 0.296458 0.911503
O O7 0.088502 0.357452 0.103432
O O8 0.121959 0.213959 0.106081
O O9 0.962588 0.500000 0.821359
O O10 0.000000 0.586086 0.000000
O O11 0.282626 0.500000 0.239904
O O12 0.295861 0.640091 0.286453
O O13 0.284584 0.593971 0.022058
O O14 0.750000 0.250000 0.500000
O O15 0.896026 0.183213 0.375687
O O16 0.645185 0.638448 0.314499
O O17 0.000000 0.170095 0.500000
#
# Coordination Sequence:
#
# PCOD8092735 Si02
#       7
#     8   8   8   8   8   8   8
#     4  11  21  36  58  88 128 165 203 240 294 375
#     4  10  19  35  57  81 119 168 206 247 294 351
#     4  11  24  36  50  83 128 166 195 233 291 365
#     4  11  24  40  62  90 126 172 212 255 319 380
#     4  11  20  39  65  91 122 162 211 267 306 361
#     4  10  20  37  59  86 115 152 213 261 298 362
#     4  11  21  37  65  97 120 156 211 264 321 366
#
# _framework density 20.786142999999999
#
# number of rings (size 3 to 8) (size 9 to 14) (size 15 to 20)
#    0.000    1.286    2.857    5.571    0.000    2.857 
#    0.000    2.857    0.000    2.571    0.000    0.000 
#    0.000    0.000    0.000    0.000    0.000    0.000 
#
# Total GULP energy -346917.030381 kJ/mol
# GULP energy per Si atom -12389.893942 kJ/mol
# Density = 2.073883 g / cm^3
# Si number density = 20.786143 Si / 1000 Ang^3
#
#
#
# Elastic Constant Matrix: (Units=GPa)
#
#
# Indices 1 2 3 4 5 6 
#
# 1 93.5923 24.4643 23.6915 0.0000 11.7528 0.0000
# 2 24.4643 93.5442 43.8287 0.0000 -7.1903 0.0000
# 3 23.6915 43.8287 114.0641 0.0000 0.1570 0.0000
# 4 0.0000 0.0000 0.0000 17.0532 0.0000 1.7673
# 5 11.7528 -7.1903 0.1570 0.0000 32.9126 0.0000
# 6 0.0000 0.0000 0.0000 1.7673 0.0000 15.2436
#
#
#
# Elastic Compliance Matrix: (Units=1/GPa)
#
#
# Indices 1 2 3 4 5 6 
#
# 1 0.012467 -0.002978 -0.001438 0.000000 -0.005096 0.000000
# 2 -0.002978 0.014026 -0.004777 0.000000 0.004151 0.000000
# 3 -0.001438 -0.004777 0.010902 0.000000 -0.000582 0.000000
# 4 0.000000 0.000000 0.000000 0.059353 0.000000 -0.006881
# 5 -0.005096 0.004151 -0.000582 0.000000 0.033113 0.000000
# 6 0.000000 0.000000 0.000000 -0.006881 0.000000 0.066399
#
#
# Mechanical properties :
#
#
# Convention : Reuss Voigt Hill
#
# Bulk Modulus (GPa) = 52.60642 53.90773 53.25708
# Shear Modulus (GPa) = 22.62629 26.98963 24.80796
#
# Velocity S-wave (km/s) = 3.30286 3.60730 3.45843
# Velocity P-wave (km/s) = 6.31732 6.58338 6.45172
#
# Compressibility (1/GPa) = 0.01900909
#
# Stress axis : x y z
#
# Youngs Moduli (GPa) = 80.21132 71.29571 91.72752
#
# Poissons Ratio (x) = 0.21235 0.13190
# Poissons Ratio (y) = 0.23890 0.43814
# Poissons Ratio (z) = 0.11534 0.34055
#
# Static dielectric constant tensor:
#      x y z
#    x 3.746490 0.000000 0.207110 
#    y 0.000000 3.515870 0.000000 
#    z 0.207110 0.000000 4.227620 
# 
# 
# High freq. dielectric constant tensor:
#      x y z
#    x 1.805670 0.000000 0.013460 
#    y 0.000000 1.774910 0.000000 
#    z 0.013460 0.000000 1.835260 
# 
# From -- ./inp_files/87841.got.cif
#   From: 2010.06.25/outbox.cif.g09.slc.cpg/sg12_44_cif.got.tgz:87841.got - 2010.06.28 00:19:55.
