data_PCOD8092281
_publ_section_title
;
Structure prediction by ZEFSAII (Michael W. Deem and Ramdas Pophale) SiO2 
 PCOD8092281
Probable space group: C 2/M
;
_chemical_formula_sum "Si O2"
_cell_formula_units_Z 40
_cell_length_a 14.650922
_cell_length_b 18.381757
_cell_length_c 14.086270
_cell_angle_alpha 90.000000
_cell_angle_beta 149.117561
_cell_angle_gamma 90.000000
_cell_volume 1947.156384
_symmetry_space_group_name_H-M "C 2/M"
_symmetry_group_IT_number 12
_symmetry_cell_setting 'monoclinic'
loop_
_space_group_symop_operation_xyz
x,y,z
-x,y,-z
-x,-y,-z
x,-y,z
1/2+x,1/2+y,z
1/2-x,1/2+y,-z
1/2-x,1/2-y,-z
1/2+x,1/2-y,z
loop_
_atom_site_type_symbol
_atom_site_label
_atom_site_fract_x
_atom_site_fract_y
_atom_site_fract_z
Si Si1 0.089310 0.711813 0.480655
Si Si2 0.659249 0.918463 0.408140
Si Si3 0.465288 0.353008 0.266165
Si Si4 0.987253 0.785252 0.882473
Si Si5 0.913378 0.375699 0.021603
O O1 0.086675 0.636347 0.422142
O O2 0.289137 0.738673 0.676102
O O3 0.000000 0.695021 0.500000
O O4 0.983819 0.773317 0.329519
O O5 0.528657 0.916056 0.202563
O O6 0.859650 0.899486 0.554713
O O7 0.657248 0.000000 0.448249
O O8 0.438669 0.342824 0.128240
O O9 0.295704 0.397039 0.156347
O O10 0.097624 0.711258 0.977448
O O11 0.000000 0.819885 0.000000
O O12 0.000000 0.399917 0.000000
#
# Coordination Sequence:
#
# PCOD8092281 Si02
#       5
#     8   8   8   8   8
#     4  11  21  38  66  94 123 160 208 260 309 355
#     4  11  25  43  59  88 131 168 204 249 308 376
#     4  11  22  40  65  92 124 160 209 260 306 356
#     4  10  19  34  60  98 123 150 200 262 311 355
#     4  11  22  37  64  92 121 157 207 258 311 359
#
# _framework density 20.542777999999998
#
# number of rings (size 3 to 8) (size 9 to 14) (size 15 to 20)
#    0.000    1.200    4.000    4.200    2.800    1.600 
#    0.000    1.000    0.000    2.400    0.000    0.000 
#    0.000    0.000    0.000    0.000    0.000    0.000 
#
# Total GULP energy -248026.101046 kJ/mol
# GULP energy per Si atom -12401.305052 kJ/mol
# Density = 2.049602 g / cm^3
# Si number density = 20.542778 Si / 1000 Ang^3
#
#
#
# Elastic Constant Matrix: (Units=GPa)
#
#
# Indices 1 2 3 4 5 6 
#
# 1 132.5268 28.6390 51.5245 -0.0001 0.7617 0.0000
# 2 28.6390 92.1606 27.6398 0.0000 -6.5892 0.0000
# 3 51.5245 27.6398 107.6002 -0.0003 -0.7187 -0.0001
# 4 -0.0001 0.0000 -0.0003 1.6355 -0.0001 -3.1519
# 5 0.7617 -6.5892 -0.7187 -0.0001 35.8860 0.0000
# 6 0.0000 0.0000 -0.0001 -3.1519 0.0000 7.6122
#
#
#
# Elastic Compliance Matrix: (Units=1/GPa)
#
#
# Indices 1 2 3 4 5 6 
#
# 1 0.009531 -0.001772 -0.004113 -0.000003 -0.000610 -0.000001
# 2 -0.001772 0.012246 -0.002282 -0.000001 0.002240 0.000000
# 3 -0.004113 -0.002282 0.011849 0.000012 -0.000094 0.000005
# 4 -0.000003 -0.000001 0.000012 3.026061 0.000009 1.252966
# 5 -0.000610 0.002240 -0.000094 0.000009 0.028288 0.000004
# 6 -0.000001 0.000000 0.000005 1.252966 0.000004 0.650169
#
#
# Mechanical properties :
#
#
# Convention : Reuss Voigt Hill
#
# Bulk Modulus (GPa) = 57.83129 60.87713 59.35421
# Shear Modulus (GPa) = 1.32970 23.99237 12.66104
#
# Velocity S-wave (km/s) = 0.80541 3.42120 2.48528
# Velocity P-wave (km/s) = 5.39237 6.73088 6.09846
#
# Compressibility (1/GPa) = 0.01729168
#
# Stress axis : x y z
#
# Youngs Moduli (GPa) = 104.91976 81.66010 84.39714
#
# Poissons Ratio (x) = 0.14469 0.34712
# Poissons Ratio (y) = 0.18591 0.19261
# Poissons Ratio (z) = 0.43152 0.18637
#
# Static dielectric constant tensor:
#      x y z
#    x 3.992040 0.000000 -0.023940 
#    y 0.000000 3.280370 0.000000 
#    z -0.023940 0.000000 3.922860 
# 
# 
# High freq. dielectric constant tensor:
#      x y z
#    x 1.810820 0.000000 0.002840 
#    y 0.000000 1.760820 0.000000 
#    z 0.002840 0.000000 1.820660 
# 
# From -- ./inp_files/106477.got.cif
#   From: 2010.06.25/outbox.cif.g09.slc.cpg/sg12_54_cif.got.tgz:106477.got - 2010.06.28 00:19:55.
