data_PCOD8092260
_publ_section_title
;
Structure prediction by ZEFSAII (Michael W. Deem and Ramdas Pophale) SiO2 
 PCOD8092260
Probable space group: C 2/M
;
_chemical_formula_sum "Si O2"
_cell_formula_units_Z 64
_cell_length_a 14.478131
_cell_length_b 22.271915
_cell_length_c 17.798163
_cell_angle_alpha 90.000000
_cell_angle_beta 147.257538
_cell_angle_gamma 90.000000
_cell_volume 3104.081897
_symmetry_space_group_name_H-M "C 2/M"
_symmetry_group_IT_number 12
_symmetry_cell_setting 'monoclinic'
loop_
_space_group_symop_operation_xyz
x,y,z
-x,y,-z
-x,-y,-z
x,-y,z
1/2+x,1/2+y,z
1/2-x,1/2+y,-z
1/2-x,1/2-y,-z
1/2+x,1/2-y,z
loop_
_atom_site_type_symbol
_atom_site_label
_atom_site_fract_x
_atom_site_fract_y
_atom_site_fract_z
Si Si1 0.890691 0.844651 0.255941
Si Si2 0.130153 0.932479 0.262897
Si Si3 0.357819 0.240388 0.846988
Si Si4 0.061325 0.252414 0.836027
Si Si5 0.313627 0.626697 0.846667
Si Si6 0.963433 0.385695 0.227323
Si Si7 0.249572 0.931127 0.949287
Si Si8 0.811672 0.930744 0.528760
O O1 0.801169 0.805966 0.260664
O O2 0.965404 0.801515 0.241070
O O3 0.749481 0.889646 0.123981
O O4 0.039859 0.884728 0.395413
O O5 0.218124 0.890239 0.261641
O O6 0.220631 0.921081 0.404646
O O7 0.928614 0.918552 0.130001
O O8 0.159551 0.000000 0.255684
O O9 0.423765 0.253556 0.808630
O O10 0.295803 0.301886 0.843278
O O11 0.500000 0.212708 0.000000
O O12 0.023857 0.314167 0.767879
O O13 0.250000 0.250000 0.000000
O O14 0.171740 0.595178 0.801280
O O15 0.500000 0.603868 0.000000
O O16 0.143357 0.415529 0.367892
O O17 0.906492 0.412475 0.108765
O O18 0.265527 0.000000 0.935135
O O19 0.867147 0.000000 0.551680
#
# Coordination Sequence:
#
# PCOD8092260 Si02
#       8
#     8   8   8   8   8   8   8   8
#     4  11  21  40  65  91 127 170 206 255 315 381
#     4   9  19  35  55  84 121 167 208 251 313 377
#     4  11  20  34  62  94 126 158 205 254 324 372
#     4  12  21  39  64  98 129 161 201 270 317 374
#     4  11  20  34  57  93 128 162 203 264 319 383
#     4  12  22  37  61  90 127 163 212 258 321 375
#     4  10  19  34  60  89 119 161 212 260 310 367
#     4  10  24  43  62  85 126 174 213 259 317 376
#
# _framework density 20.618012
#
# number of rings (size 3 to 8) (size 9 to 14) (size 15 to 20)
#    0.000    1.250    5.000    3.750    0.000    2.250 
#    0.000    1.875    0.000    9.000    0.000    0.000 
#    0.000    0.000    0.000    0.000    0.000    0.000 
#
# Total GULP energy -396828.338647 kJ/mol
# GULP energy per Si atom -12400.885583 kJ/mol
# Density = 2.057108 g / cm^3
# Si number density = 20.618012 Si / 1000 Ang^3
#
#
#
# Elastic Constant Matrix: (Units=GPa)
#
#
# Indices 1 2 3 4 5 6 
#
# 1 71.7819 19.3589 16.2868 -0.0011 12.2160 -0.0001
# 2 19.3589 100.1252 30.8864 -0.0023 9.3535 -0.0023
# 3 16.2868 30.8864 116.4273 -0.0119 7.4290 -0.0061
# 4 -0.0011 -0.0023 -0.0119 35.6900 -0.0036 -0.9886
# 5 12.2160 9.3535 7.4290 -0.0036 18.6556 -0.0007
# 6 -0.0001 -0.0023 -0.0061 -0.9886 -0.0007 25.3896
#
#
#
# Elastic Compliance Matrix: (Units=1/GPa)
#
#
# Indices 1 2 3 4 5 6 
#
# 1 0.016288 -0.001923 -0.001179 -0.000001 -0.009232 -0.000001
# 2 -0.001923 0.011471 -0.002552 0.000000 -0.003476 0.000000
# 3 -0.001179 -0.002552 0.009543 0.000003 -0.001748 0.000002
# 4 -0.000001 0.000000 0.000003 0.028049 0.000005 0.001092
# 5 -0.009232 -0.003476 -0.001748 0.000005 0.062087 0.000001
# 6 -0.000001 0.000000 0.000002 0.001092 0.000001 0.039429
#
#
# Mechanical properties :
#
#
# Convention : Reuss Voigt Hill
#
# Bulk Modulus (GPa) = 38.47199 46.82206 42.64702
# Shear Modulus (GPa) = 26.76063 30.73386 28.74724
#
# Velocity S-wave (km/s) = 3.60658 3.86506 3.73805
# Velocity P-wave (km/s) = 6.00359 6.53275 6.27375
#
# Compressibility (1/GPa) = 0.02599294
#
# Stress axis : x y z
#
# Youngs Moduli (GPa) = 61.39318 87.17347 104.79240
#
# Poissons Ratio (x) = 0.16764 0.12358
# Poissons Ratio (y) = 0.11806 0.26747
# Poissons Ratio (z) = 0.07240 0.22250
#
# Static dielectric constant tensor:
#      x y z
#    x 3.525790 0.000000 -0.000570 
#    y 0.000000 3.928860 0.000000 
#    z -0.000570 0.000000 3.503680 
# 
# 
# High freq. dielectric constant tensor:
#      x y z
#    x 1.784820 0.000000 -0.003660 
#    y 0.000000 1.821820 0.000000 
#    z -0.003660 0.000000 1.780430 
# 
# From -- ./inp_files/272856.got.cif
#   From: 2010.06.25/outbox.cif.g09.slc.cpg/sg12_137_cif.got.tgz:272856.got - 2010.06.28 00:19:55.
