data_PCOD8092979
_publ_section_title
;
Structure prediction by ZEFSAII (Michael W. Deem and Ramdas Pophale) SiO2 
 PCOD8092979
Probable space group: C 2/M
;
_chemical_formula_sum "Si O2"
_cell_formula_units_Z 56
_cell_length_a 9.644876
_cell_length_b 22.623961
_cell_length_c 17.764317
_cell_angle_alpha 90.000000
_cell_angle_beta 136.416359
_cell_angle_gamma 90.000000
_cell_volume 2672.348651
_symmetry_space_group_name_H-M "C 2/M"
_symmetry_group_IT_number 12
_symmetry_cell_setting 'monoclinic'
loop_
_space_group_symop_operation_xyz
x,y,z
-x,y,-z
-x,-y,-z
x,-y,z
1/2+x,1/2+y,z
1/2-x,1/2+y,-z
1/2-x,1/2-y,-z
1/2+x,1/2-y,z
loop_
_atom_site_type_symbol
_atom_site_label
_atom_site_fract_x
_atom_site_fract_y
_atom_site_fract_z
Si Si1 0.971102 0.568356 0.162497
Si Si2 0.384831 0.267545 0.623364
Si Si3 0.783269 0.313167 0.294139
Si Si4 0.018542 0.240891 0.924626
Si Si5 0.268240 0.648265 0.213009
Si Si6 0.191491 0.934077 0.914605
Si Si7 0.762393 0.565128 0.235424
O O1 0.028286 0.500000 0.183834
O O2 0.849577 0.584203 0.189388
O O3 0.176349 0.606305 0.241652
O O4 0.846436 0.587117 0.039345
O O5 0.250000 0.250000 0.500000
O O6 0.232922 0.276449 0.634084
O O7 0.543942 0.213791 0.692364
O O8 0.519383 0.327259 0.670710
O O9 0.566972 0.307113 0.167949
O O10 0.825322 0.383598 0.320444
O O11 0.889395 0.300371 0.867175
O O12 0.250000 0.250000 0.000000
O O13 0.000000 0.213729 0.000000
O O14 0.307394 0.611135 0.153450
O O15 0.975223 0.937382 0.868186
O O16 0.250762 0.000000 0.908792
O O17 0.842634 0.500000 0.293074
#
# Coordination Sequence:
#
# PCOD8092979 Si02
#       7
#     8   8   8   8   8   8   8
#     4  10  21  34  56  93 135 183 218 251 307 383
#     4  11  25  46  67  91 119 157 218 285 340 382
#     4  11  24  42  66  95 124 167 216 263 329 390
#     4  11  24  36  54  89 131 169 203 251 315 386
#     4  11  22  37  59  88 126 170 218 263 325 377
#     4  10  19  35  58  89 133 181 222 254 302 385
#     4  10  22  38  60  90 133 176 216 256 305 375
#
# _framework density 20.955348000000001
#
# number of rings (size 3 to 8) (size 9 to 14) (size 15 to 20)
#    0.000    1.429    1.429    4.286    8.000    2.857 
#    0.000    0.000    0.000    3.429    0.000    2.000 
#    0.000    0.000    0.000    0.000    0.000    0.000 
#
# Total GULP energy -347049.598876 kJ/mol
# GULP energy per Si atom -12394.628531 kJ/mol
# Density = 2.090765 g / cm^3
# Si number density = 20.955348 Si / 1000 Ang^3
#
#
#
# Elastic Constant Matrix: (Units=GPa)
#
#
# Indices 1 2 3 4 5 6 
#
# 1 120.7573 54.3928 32.3763 -0.0001 -6.9350 0.0000
# 2 54.3928 122.5175 36.8635 0.0001 -8.8787 0.0000
# 3 32.3763 36.8635 84.7945 -0.0001 -9.7526 -0.0001
# 4 -0.0001 0.0001 -0.0001 21.1389 0.0000 -1.0320
# 5 -6.9350 -8.8787 -9.7526 0.0000 28.5875 0.0000
# 6 0.0000 0.0000 -0.0001 -1.0320 0.0000 35.8013
#
#
#
# Elastic Compliance Matrix: (Units=1/GPa)
#
#
# Indices 1 2 3 4 5 6 
#
# 1 0.010747 -0.004044 -0.002279 0.000000 0.000573 0.000000
# 2 -0.004044 0.010982 -0.003071 0.000000 0.001382 0.000000
# 3 -0.002279 -0.003071 0.014390 0.000000 0.003402 0.000000
# 4 0.000000 0.000000 0.000000 0.047373 0.000000 0.001365
# 5 0.000573 0.001382 0.003402 0.000000 0.036709 0.000000
# 6 0.000000 0.000000 0.000000 0.001365 0.000000 0.027971
#
#
# Mechanical properties :
#
#
# Convention : Reuss Voigt Hill
#
# Bulk Modulus (GPa) = 57.70453 63.92604 60.81529
# Shear Modulus (GPa) = 28.94583 30.73466 29.84025
#
# Velocity S-wave (km/s) = 3.72063 3.83387 3.77768
# Velocity P-wave (km/s) = 6.78632 7.08309 6.93629
#
# Compressibility (1/GPa) = 0.01732966
#
# Stress axis : x y z
#
# Youngs Moduli (GPa) = 93.05354 91.06199 69.49262
#
# Poissons Ratio (x) = 0.36822 0.15840
# Poissons Ratio (y) = 0.37627 0.21343
# Poissons Ratio (z) = 0.21210 0.27967
#
# Static dielectric constant tensor:
#      x y z
#    x 4.122610 0.000000 0.204060 
#    y 0.000000 4.244900 0.000000 
#    z 0.204060 0.000000 3.407280 
# 
# 
# High freq. dielectric constant tensor:
#      x y z
#    x 1.843950 0.000000 0.009700 
#    y 0.000000 1.836200 0.000000 
#    z 0.009700 0.000000 1.766730 
# 
# From -- ./inp_files/259234.got.cif
#   From: 2010.06.25/outbox.cif.g09.slc.cpg/sg12_130_cif.got.tgz:259234.got - 2010.06.28 00:19:55.
