data_PCOD8092734
_publ_section_title
;
Structure prediction by ZEFSAII (Michael W. Deem and Ramdas Pophale) SiO2 
 PCOD8092734
Probable space group: C 2/M
;
_chemical_formula_sum "Si O2"
_cell_formula_units_Z 60
_cell_length_a 10.167265
_cell_length_b 25.363003
_cell_length_c 22.259173
_cell_angle_alpha 90.000000
_cell_angle_beta 145.144849
_cell_angle_gamma 90.000000
_cell_volume 3280.446037
_symmetry_space_group_name_H-M "C 2/M"
_symmetry_group_IT_number 12
_symmetry_cell_setting 'monoclinic'
loop_
_space_group_symop_operation_xyz
x,y,z
-x,y,-z
-x,-y,-z
x,-y,z
1/2+x,1/2+y,z
1/2-x,1/2+y,-z
1/2-x,1/2-y,-z
1/2+x,1/2-y,z
loop_
_atom_site_type_symbol
_atom_site_label
_atom_site_fract_x
_atom_site_fract_y
_atom_site_fract_z
Si Si1 0.560797 0.605481 0.264899
Si Si2 0.463748 0.439535 0.614476
Si Si3 0.000000 0.783026 0.000000
Si Si4 0.343226 0.134472 0.079326
Si Si5 0.733433 0.941856 0.053358
Si Si6 0.958243 0.560476 0.748500
Si Si7 0.828511 0.317330 0.884794
Si Si8 0.002586 0.438808 0.625451
O O1 0.538108 0.595496 0.326848
O O2 0.433942 0.561242 0.177893
O O3 0.433334 0.661776 0.203522
O O4 0.826522 0.602003 0.344276
O O5 0.450276 0.500000 0.630069
O O6 0.690886 0.428366 0.660934
O O7 0.250772 0.424426 0.492484
O O8 0.167543 0.818204 0.023484
O O9 0.154833 0.746344 0.103101
O O10 0.386376 0.100435 0.155035
O O11 0.580707 0.160618 0.144976
O O12 0.224380 0.097335 0.985737
O O13 0.732655 0.000000 0.024889
O O14 0.500000 0.929557 0.000000
O O15 0.018808 0.500000 0.788053
O O16 0.013683 0.571858 0.700273
O O17 0.000000 0.341722 0.000000
O O18 0.061727 0.500000 0.632682
#
# Coordination Sequence:
#
# PCOD8092734 Si02
#       8
#     8   8   4   8   8   8   8   8
#     4  12  19  34  56  81 115 151 192 240 279 338
#     4  10  19  35  57  81 115 160 200 234 278 340
#     4  10  26  38  61  80 113 144 192 258 294 330
#     4  12  20  39  57  84 115 149 194 233 287 352
#     4  11  20  32  52  81 120 157 185 220 272 347
#     4  10  21  36  56  85 122 162 192 222 283 356
#     4  10  21  40  56  82 110 145 198 240 286 349
#     4  10  22  35  51  84 124 156 196 240 279 332
#
# _framework density 18.290196000000002
#
# number of rings (size 3 to 8) (size 9 to 14) (size 15 to 20)
#    0.400    0.933    4.000    2.800    1.867    4.800 
#    0.000    0.667    0.000    0.000    0.000    5.600 
#    0.000    0.000    0.000    0.000    0.000    0.000 
#
# Total GULP energy -371879.855504 kJ/mol
# GULP energy per Si atom -12395.995183 kJ/mol
# Density = 1.824857 g / cm^3
# Si number density = 18.290196 Si / 1000 Ang^3
#
#
#
# Elastic Constant Matrix: (Units=GPa)
#
#
# Indices 1 2 3 4 5 6 
#
# 1 84.4662 46.3655 15.9900 0.0002 3.4318 0.0002
# 2 46.3655 114.8121 34.4186 -0.0003 -0.8856 -0.0001
# 3 15.9900 34.4186 62.6579 -0.0008 -5.5506 0.0001
# 4 0.0002 -0.0003 -0.0008 22.1992 0.0003 6.5061
# 5 3.4318 -0.8856 -5.5506 0.0003 29.9729 0.0002
# 6 0.0002 -0.0001 0.0001 6.5061 0.0002 28.9808
#
#
#
# Elastic Compliance Matrix: (Units=1/GPa)
#
#
# Indices 1 2 3 4 5 6 
#
# 1 0.015357 -0.005971 -0.000824 0.000000 -0.002087 0.000000
# 2 -0.005971 0.012766 -0.005485 0.000000 0.000045 0.000000
# 3 -0.000824 -0.005485 0.019497 0.000001 0.003543 0.000000
# 4 0.000000 0.000000 0.000001 0.048219 0.000000 -0.010825
# 5 -0.002087 0.000045 0.003543 0.000000 0.034260 0.000000
# 6 0.000000 0.000000 0.000000 -0.010825 0.000000 0.036936
#
#
# Mechanical properties :
#
#
# Convention : Reuss Voigt Hill
#
# Bulk Modulus (GPa) = 43.36444 50.60938 46.98691
# Shear Modulus (GPa) = 25.09020 27.24139 26.16579
#
# Velocity S-wave (km/s) = 3.70778 3.86346 3.78642
# Velocity P-wave (km/s) = 6.48774 6.90160 6.69787
#
# Compressibility (1/GPa) = 0.02306037
#
# Stress axis : x y z
#
# Youngs Moduli (GPa) = 65.11480 78.33494 51.29108
#
# Poissons Ratio (x) = 0.46774 0.04227
# Poissons Ratio (y) = 0.38880 0.28131
# Poissons Ratio (z) = 0.05367 0.42963
#
# Static dielectric constant tensor:
#      x y z
#    x 3.320980 0.000000 -0.033040 
#    y 0.000000 3.216570 0.000000 
#    z -0.033040 0.000000 3.208630 
# 
# 
# High freq. dielectric constant tensor:
#      x y z
#    x 1.717540 0.000000 -0.001000 
#    y 0.000000 1.685210 0.000000 
#    z -0.001000 0.000000 1.696860 
# 
# From -- ./inp_files/302783.got.cif
#   From: 2010.06.25/outbox.cif.g09.slc.cpg/sg12_152_cif.got.tgz:302783.got - 2010.06.28 00:19:55.
