data_PCOD8092459
_publ_section_title
;
Structure prediction by ZEFSAII (Michael W. Deem and Ramdas Pophale) SiO2 
 PCOD8092459
Probable space group: C 2/M
;
_chemical_formula_sum "Si O2"
_cell_formula_units_Z 56
_cell_length_a 17.465616
_cell_length_b 13.389746
_cell_length_c 21.216700
_cell_angle_alpha 90.000000
_cell_angle_beta 38.792874
_cell_angle_gamma 90.000000
_cell_volume 3108.564803
_symmetry_space_group_name_H-M "C 2/M"
_symmetry_group_IT_number 12
_symmetry_cell_setting 'monoclinic'
loop_
_space_group_symop_operation_xyz
x,y,z
-x,y,-z
-x,-y,-z
x,-y,z
1/2+x,1/2+y,z
1/2-x,1/2+y,-z
1/2-x,1/2-y,-z
1/2+x,1/2-y,z
loop_
_atom_site_type_symbol
_atom_site_label
_atom_site_fract_x
_atom_site_fract_y
_atom_site_fract_z
Si Si1 0.000131 0.386804 0.614283
Si Si2 0.796422 0.386597 0.202442
Si Si3 0.526737 0.117734 0.131491
Si Si4 0.989287 0.246813 0.741190
Si Si5 0.621752 0.737849 0.395690
Si Si6 0.255769 0.385929 0.905921
Si Si7 0.250434 0.694082 0.433753
O O1 0.957289 0.500000 0.657341
O O2 0.147084 0.392191 0.505019
O O3 0.973613 0.307715 0.686587
O O4 0.923034 0.345479 0.603910
O O5 0.771786 0.500000 0.238598
O O6 0.681589 0.324479 0.301308
O O7 0.808319 0.375038 0.120312
O O8 0.924163 0.347528 0.147725
O O9 0.494463 0.168129 0.217621
O O10 0.523868 0.000000 0.143837
O O11 0.658787 0.150910 0.020266
O O12 0.873906 0.181885 0.833569
O O13 0.105271 0.169319 0.667181
O O14 0.500000 0.682403 0.500000
O O15 0.715252 0.742798 0.394127
O O16 0.294966 0.500000 0.893314
O O17 0.250000 0.750000 0.500000
#
# Coordination Sequence:
#
# PCOD8092459 Si02
#       7
#     8   8   8   8   8   8   8
#     4  10  21  36  56  80 106 143 184 219 261 318
#     4  10  19  35  56  78 105 140 179 222 267 318
#     4  10  20  34  56  82 107 140 183 224 264 314
#     4  11  19  35  57  79 113 142 173 223 270 317
#     4  10  19  35  55  77 107 137 179 222 261 317
#     4  10  21  35  53  81 110 141 180 220 268 320
#     4   9  20  34  52  77 106 137 173 216 263 314
#
# _framework density 18.014744
#
# number of rings (size 3 to 8) (size 9 to 14) (size 15 to 20)
#    0.000    2.000    2.857    1.286    0.000    5.143 
#    0.000    0.000    0.000    0.000    0.000    1.000 
#    0.000    0.000    0.000    0.000    0.000    0.000 
#
# Total GULP energy -346890.089701 kJ/mol
# GULP energy per Si atom -12388.931775 kJ/mol
# Density = 1.797374 g / cm^3
# Si number density = 18.014744 Si / 1000 Ang^3
#
#
#
# Elastic Constant Matrix: (Units=GPa)
#
#
# Indices 1 2 3 4 5 6 
#
# 1 87.4897 19.4923 15.4981 0.0000 -6.1670 0.0000
# 2 19.4923 50.5228 29.4291 0.0000 -8.1159 0.0000
# 3 15.4981 29.4291 84.4851 -0.0001 -14.1166 0.0000
# 4 0.0000 0.0000 -0.0001 25.3704 0.0001 1.6600
# 5 -6.1670 -8.1159 -14.1166 0.0001 32.6769 0.0000
# 6 0.0000 0.0000 0.0000 1.6600 0.0000 19.1302
#
#
#
# Elastic Compliance Matrix: (Units=1/GPa)
#
#
# Indices 1 2 3 4 5 6 
#
# 1 0.012576 -0.004320 -0.000631 0.000000 0.001028 0.000000
# 2 -0.004320 0.026525 -0.008065 0.000000 0.002289 0.000000
# 3 -0.000631 -0.008065 0.015528 0.000000 0.004586 0.000000
# 4 0.000000 0.000000 0.000000 0.039641 0.000000 -0.003440
# 5 0.001028 0.002289 0.004586 0.000000 0.033346 0.000000
# 6 0.000000 0.000000 0.000000 -0.003440 0.000000 0.052572
#
#
# Mechanical properties :
#
#
# Convention : Reuss Voigt Hill
#
# Bulk Modulus (GPa) = 34.96618 39.03741 37.00179
# Shear Modulus (GPa) = 23.17485 25.97405 24.57445
#
# Velocity S-wave (km/s) = 3.59059 3.80125 3.69742
# Velocity P-wave (km/s) = 6.05323 6.40178 6.22994
#
# Compressibility (1/GPa) = 0.02859906
#
# Stress axis : x y z
#
# Youngs Moduli (GPa) = 79.51341 37.70036 64.40156
#
# Poissons Ratio (x) = 0.16285 0.04061
# Poissons Ratio (y) = 0.34347 0.51938
# Poissons Ratio (z) = 0.05014 0.30404
#
# Static dielectric constant tensor:
#      x y z
#    x 3.509300 0.000000 -0.077720 
#    y 0.000000 2.995520 0.000000 
#    z -0.077720 0.000000 3.570720 
# 
# 
# High freq. dielectric constant tensor:
#      x y z
#    x 1.711550 0.000000 0.003580 
#    y 0.000000 1.660560 0.000000 
#    z 0.003580 0.000000 1.711360 
# 
# From -- ./inp_files/183567.got.cif
#   From: 2010.06.25/outbox.cif.g09.slc.cpg/sg12_92_cif.got.tgz:183567.got - 2010.06.28 00:19:55.
