data_PCOD8092244
_publ_section_title
;
Structure prediction by ZEFSAII (Michael W. Deem and Ramdas Pophale) SiO2 
 PCOD8092244
Probable space group: C 2/M
;
_chemical_formula_sum "Si O2"
_cell_formula_units_Z 64
_cell_length_a 9.253276
_cell_length_b 18.879348
_cell_length_c 28.193872
_cell_angle_alpha 90.000000
_cell_angle_beta 38.970400
_cell_angle_gamma 90.000000
_cell_volume 3097.646268
_symmetry_space_group_name_H-M "C 2/M"
_symmetry_group_IT_number 12
_symmetry_cell_setting 'monoclinic'
loop_
_space_group_symop_operation_xyz
x,y,z
-x,y,-z
-x,-y,-z
x,-y,z
1/2+x,1/2+y,z
1/2-x,1/2+y,-z
1/2-x,1/2-y,-z
1/2+x,1/2-y,z
loop_
_atom_site_type_symbol
_atom_site_label
_atom_site_fract_x
_atom_site_fract_y
_atom_site_fract_z
Si Si1 0.600755 0.653018 0.261992
Si Si2 0.819754 0.416282 0.008166
Si Si3 0.703729 0.416180 0.842672
Si Si4 0.454012 0.419530 0.561750
Si Si5 0.218963 0.242271 0.709387
Si Si6 0.236500 0.915860 0.577988
Si Si7 0.971366 0.654397 0.313642
Si Si8 0.045997 0.581642 0.127286
O O1 0.767635 0.707111 0.248140
O O2 0.507298 0.692209 0.238402
O O3 0.378568 0.624058 0.347799
O O4 0.770653 0.590162 0.203583
O O5 0.855015 0.500000 0.996014
O O6 0.869193 0.382601 0.943503
O O7 0.563970 0.397444 0.089838
O O8 0.000000 0.384025 0.000000
O O9 0.748950 0.500000 0.822883
O O10 0.815358 0.368500 0.773148
O O11 0.813013 0.388284 0.863956
O O12 0.500000 0.379881 0.500000
O O13 0.535315 0.500000 0.537162
O O14 0.595091 0.386423 0.569101
O O15 0.179757 0.415397 0.639210
O O16 0.209245 0.290035 0.664398
O O17 0.436856 0.189001 0.660580
O O18 0.500000 0.894761 0.500000
O O19 0.211051 0.000000 0.592780
O O20 0.106025 0.500000 0.109386
#
# Coordination Sequence:
#
# PCOD8092244 Si02
#       8
#     8   8   8   8   8   8   8   8
#     4  11  21  41  59  83 109 152 191 234 277 333
#     4   9  19  33  51  86 123 144 174 228 289 337
#     4  10  19  34  60  87 113 146 184 229 284 343
#     4  10  21  38  60  87 118 146 180 232 287 337
#     4  10  24  38  59  79 114 148 196 236 274 315
#     4  10  21  38  60  87 118 146 180 232 287 337
#     4  11  21  41  59  83 109 152 191 234 277 333
#     4  10  19  34  60  87 113 146 184 229 284 343
#
# _framework density 20.660848000000001
#
# number of rings (size 3 to 8) (size 9 to 14) (size 15 to 20)
#    0.000    1.875    2.500    1.125    3.500    3.500 
#    0.000    5.000    0.000    4.500    0.000    0.000 
#    0.000    0.000    0.000    0.000    0.000    0.000 
#
# Total GULP energy -396419.693097 kJ/mol
# GULP energy per Si atom -12388.115409 kJ/mol
# Density = 2.061382 g / cm^3
# Si number density = 20.660848 Si / 1000 Ang^3
#
#
#
# Elastic Constant Matrix: (Units=GPa)
#
#
# Indices 1 2 3 4 5 6 
#
# 1 132.6629 29.4391 48.7580 -0.0076 -14.9675 -0.0066
# 2 29.4391 39.2441 22.9101 0.0157 -5.0375 -0.0026
# 3 48.7580 22.9101 131.1227 -0.0174 -11.3602 -0.0013
# 4 -0.0076 0.0157 -0.0174 4.3181 0.0036 -9.9274
# 5 -14.9675 -5.0375 -11.3602 0.0036 29.6642 0.0005
# 6 -0.0066 -0.0026 -0.0013 -9.9274 0.0005 28.4577
#
#
#
# Elastic Compliance Matrix: (Units=1/GPa)
#
#
# Indices 1 2 3 4 5 6 
#
# 1 0.010070 -0.005704 -0.002474 0.000149 0.003165 0.000054
# 2 -0.005704 0.031871 -0.003339 -0.000693 0.001256 -0.000240
# 3 -0.002474 -0.003339 0.009280 0.000216 0.001739 0.000075
# 4 0.000149 -0.000693 0.000216 1.169666 -0.000108 0.408037
# 5 0.003165 0.001256 0.001739 -0.000108 0.036187 -0.000037
# 6 0.000054 -0.000240 0.000075 0.408037 -0.000037 0.177483
#
#
# Mechanical properties :
#
#
# Convention : Reuss Voigt Hill
#
# Bulk Modulus (GPa) = 35.47550 56.13825 45.80688
# Shear Modulus (GPa) = 3.40835 25.94950 14.67893
#
# Velocity S-wave (km/s) = 1.28579 3.54782 2.66836
# Velocity P-wave (km/s) = 4.40591 6.63423 5.63139
#
# Compressibility (1/GPa) = 0.02818846
#
# Stress axis : x y z
#
# Youngs Moduli (GPa) = 99.30634 31.37668 107.75446
#
# Poissons Ratio (x) = 0.17896 0.26655
# Poissons Ratio (y) = 0.56641 0.35979
# Poissons Ratio (z) = 0.24565 0.10477
#
# Static dielectric constant tensor:
#      x y z
#    x 4.149680 -0.000010 -0.004280 
#    y -0.000010 3.518470 0.000020 
#    z -0.004280 0.000020 3.541310 
# 
# 
# High freq. dielectric constant tensor:
#      x y z
#    x 1.828250 0.000000 -0.007820 
#    y 0.000000 1.780770 0.000000 
#    z -0.007820 0.000000 1.788410 
# 
# From -- ./inp_files/372935.got.cif
#   From: 2010.06.25/outbox.cif.g09.slc.cpg/sg12_187_cif.got.tgz:372935.got - 2010.06.28 00:19:55.
