data_PCOD8092490
_publ_section_title
;
Structure prediction by ZEFSAII (Michael W. Deem and Ramdas Pophale) SiO2 
 PCOD8092490
Probable space group: C 2/M
;
_chemical_formula_sum "Si O2"
_cell_formula_units_Z 56
_cell_length_a 14.482354
_cell_length_b 18.035766
_cell_length_c 13.572821
_cell_angle_alpha 90.000000
_cell_angle_beta 50.407188
_cell_angle_gamma 90.000000
_cell_volume 2731.926729
_symmetry_space_group_name_H-M "C 2/M"
_symmetry_group_IT_number 12
_symmetry_cell_setting 'monoclinic'
loop_
_space_group_symop_operation_xyz
x,y,z
-x,y,-z
-x,-y,-z
x,-y,z
1/2+x,1/2+y,z
1/2-x,1/2+y,-z
1/2-x,1/2-y,-z
1/2+x,1/2-y,z
loop_
_atom_site_type_symbol
_atom_site_label
_atom_site_fract_x
_atom_site_fract_y
_atom_site_fract_z
Si Si1 0.327490 0.327247 0.195154
Si Si2 0.600005 0.086562 0.351096
Si Si3 0.990516 0.690069 0.753543
Si Si4 0.560492 0.688856 0.556753
Si Si5 0.216461 0.664878 0.709897
Si Si6 0.359282 0.412919 0.771595
Si Si7 0.593825 0.678002 0.078855
O O1 0.232096 0.388628 0.297708
O O2 0.272308 0.247738 0.256635
O O3 0.452326 0.342017 0.165448
O O4 0.341556 0.329637 0.068383
O O5 0.500000 0.106485 0.500000
O O6 0.577466 0.129874 0.264749
O O7 0.599862 0.000000 0.327750
O O8 0.065941 0.747953 0.635653
O O9 0.083301 0.647204 0.761759
O O10 0.896824 0.737848 0.883683
O O11 0.500000 0.723988 0.500000
O O12 0.692251 0.657497 0.444013
O O13 0.482022 0.618886 0.643786
O O14 0.248121 0.608456 0.776413
O O15 0.368925 0.500000 0.773889
O O16 0.340440 0.379251 0.893175
#
# Coordination Sequence:
#
# PCOD8092490 Si02
#       7
#     8   8   8   8   8   8   8
#     4  10  20  40  62  84 109 136 186 240 279 328
#     4  11  24  38  54  81 118 155 184 219 271 330
#     4  10  19  35  55  80 110 140 185 229 268 328
#     4   9  17  31  53  79 105 144 186 230 278 313
#     4  10  20  32  55  81 106 146 184 225 275 320
#     4  10  21  35  51  80 118 149 183 224 272 332
#     4   9  21  38  63  87 104 138 184 238 290 318
#
# _framework density 20.498353000000002
#
# number of rings (size 3 to 8) (size 9 to 14) (size 15 to 20)
#    0.000    2.143    0.000    4.286    0.000    8.857 
#    0.000    2.857    0.000    0.000    0.000    6.000 
#    0.000    0.000    0.000    0.000    0.000    0.000 
#
# Total GULP energy -347213.435314 kJ/mol
# GULP energy per Si atom -12400.479833 kJ/mol
# Density = 2.045170 g / cm^3
# Si number density = 20.498353 Si / 1000 Ang^3
#
#
#
# Elastic Constant Matrix: (Units=GPa)
#
#
# Indices 1 2 3 4 5 6 
#
# 1 73.9397 37.0273 9.8981 0.0000 8.5556 0.0000
# 2 37.0273 95.4075 14.4084 0.0000 -0.4947 0.0000
# 3 9.8981 14.4084 60.4913 0.0000 5.7475 0.0000
# 4 0.0000 0.0000 0.0000 16.1855 0.0000 1.0767
# 5 8.5556 -0.4947 5.7475 0.0000 28.8059 0.0000
# 6 0.0000 0.0000 0.0000 1.0767 0.0000 15.2364
#
#
#
# Elastic Compliance Matrix: (Units=1/GPa)
#
#
# Indices 1 2 3 4 5 6 
#
# 1 0.017606 -0.006741 -0.000782 0.000000 -0.005189 0.000000
# 2 -0.006741 0.013468 -0.002362 0.000000 0.002705 0.000000
# 3 -0.000782 -0.002362 0.017536 0.000000 -0.003307 0.000000
# 4 0.000000 0.000000 0.000000 0.062075 0.000000 -0.004387
# 5 -0.005189 0.002705 -0.003307 0.000000 0.036963 0.000000
# 6 0.000000 0.000000 0.000000 -0.004387 0.000000 0.065942
#
#
# Mechanical properties :
#
#
# Convention : Reuss Voigt Hill
#
# Bulk Modulus (GPa) = 34.67500 39.16735 36.92117
# Shear Modulus (GPa) = 20.57832 23.27921 21.92877
#
# Velocity S-wave (km/s) = 3.17188 3.37362 3.27430
# Velocity P-wave (km/s) = 5.51064 5.85868 5.68732
#
# Compressibility (1/GPa) = 0.02883922
#
# Stress axis : x y z
#
# Youngs Moduli (GPa) = 56.80019 74.24786 57.02527
#
# Poissons Ratio (x) = 0.50054 0.04460
# Poissons Ratio (y) = 0.38292 0.13469
# Poissons Ratio (z) = 0.04442 0.17537
#
# Static dielectric constant tensor:
#      x y z
#    x 3.854800 0.000000 0.124030 
#    y 0.000000 3.394210 0.000000 
#    z 0.124030 0.000000 3.862300 
# 
# 
# High freq. dielectric constant tensor:
#      x y z
#    x 1.811790 0.000000 0.007620 
#    y 0.000000 1.770370 0.000000 
#    z 0.007620 0.000000 1.803740 
# 
# From -- ./inp_files/216310.got.cif
#   From: 2010.06.25/outbox.cif.g09.slc.cpg/sg12_109_cif.got.tgz:216310.got - 2010.06.28 00:19:55.
