data_PCOD8092853
_publ_section_title
;
Structure prediction by ZEFSAII (Michael W. Deem and Ramdas Pophale) SiO2 
 PCOD8092853
Probable space group: C 2/M
;
_chemical_formula_sum "Si O2"
_cell_formula_units_Z 56
_cell_length_a 21.175610
_cell_length_b 9.083585
_cell_length_c 18.253794
_cell_angle_alpha 90.000000
_cell_angle_beta 58.262724
_cell_angle_gamma 90.000000
_cell_volume 2986.103659
_symmetry_space_group_name_H-M "C 2/M"
_symmetry_group_IT_number 12
_symmetry_cell_setting 'monoclinic'
loop_
_space_group_symop_operation_xyz
x,y,z
-x,y,-z
-x,-y,-z
x,-y,z
1/2+x,1/2+y,z
1/2-x,1/2+y,-z
1/2-x,1/2-y,-z
1/2+x,1/2-y,z
loop_
_atom_site_type_symbol
_atom_site_label
_atom_site_fract_x
_atom_site_fract_y
_atom_site_fract_z
Si Si1 0.734949 0.171105 0.624374
Si Si2 0.351550 0.167759 0.468684
Si Si3 0.085764 0.671448 0.961647
Si Si4 0.170875 0.672760 0.055976
Si Si5 0.202278 0.825560 0.791392
Si Si6 0.512715 0.828818 0.411867
Si Si7 0.644196 0.825651 0.233537
O O1 0.680431 0.206200 0.590743
O O2 0.816588 0.230429 0.553472
O O3 0.700375 0.259338 0.712043
O O4 0.740035 0.000000 0.640700
O O5 0.438937 0.196314 0.409545
O O6 0.333855 0.000000 0.501951
O O7 0.100866 0.500000 0.937229
O O8 0.130749 0.768183 0.877062
O O9 0.112885 0.714470 0.027073
O O10 0.000000 0.710490 0.000000
O O11 0.187484 0.500000 0.046752
O O12 0.133545 0.723701 0.155550
O O13 0.250000 0.750000 0.000000
O O14 0.276047 0.769090 0.787619
O O15 0.199238 0.000000 0.788605
O O16 0.500000 0.756464 0.500000
O O17 0.580308 0.755336 0.324738
O O18 0.531209 0.000000 0.412111
O O19 0.639176 0.000000 0.242084
#
# Coordination Sequence:
#
# PCOD8092853 Si02
#       7
#     8   8   8   8   8   8   8
#     4  10  20  33  52  77 108 144 180 221 272 332
#     4   9  18  33  53  77 104 140 181 223 270 325
#     4  10  22  38  57  83 114 146 181 231 291 342
#     4  10  19  35  58  81 110 145 186 234 280 335
#     4  11  21  35  56  80 107 140 184 230 274 334
#     4   9  16  28  50  79 108 135 174 226 269 314
#     4   9  18  31  52  81 105 138 184 228 274 325
#
# _framework density 18.753534999999999
#
# number of rings (size 3 to 8) (size 9 to 14) (size 15 to 20)
#    0.000    2.286    1.429    1.714    0.000    4.286 
#    0.000    4.286    0.000    5.571    0.000    0.000 
#    0.000    0.000    0.000    0.000    0.000    0.000 
#
# Total GULP energy -347171.447047 kJ/mol
# GULP energy per Si atom -12398.980252 kJ/mol
# Density = 1.871085 g / cm^3
# Si number density = 18.753535 Si / 1000 Ang^3
#
#
#
# Elastic Constant Matrix: (Units=GPa)
#
#
# Indices 1 2 3 4 5 6 
#
# 1 115.6355 38.7358 77.4818 0.0000 -2.4070 0.0001
# 2 38.7358 52.9416 50.7997 -0.0005 -0.8358 0.0004
# 3 77.4818 50.7997 174.4623 -0.0001 -3.4715 0.0001
# 4 0.0000 -0.0005 -0.0001 27.1474 0.0000 -5.0247
# 5 -2.4070 -0.8358 -3.4715 0.0000 28.5948 0.0000
# 6 0.0001 0.0004 0.0001 -5.0247 0.0000 17.0168
#
#
#
# Elastic Compliance Matrix: (Units=1/GPa)
#
#
# Indices 1 2 3 4 5 6 
#
# 1 0.013452 -0.005706 -0.004304 0.000000 0.000443 0.000000
# 2 -0.005706 0.028633 -0.005810 0.000000 -0.000349 -0.000001
# 3 -0.004304 -0.005810 0.009347 0.000000 0.000603 0.000000
# 4 0.000000 0.000000 0.000000 0.038965 0.000000 0.011506
# 5 0.000443 -0.000349 0.000603 0.000000 0.035072 0.000000
# 6 0.000000 -0.000001 0.000000 0.011506 0.000000 0.062163
#
#
# Mechanical properties :
#
#
# Convention : Reuss Voigt Hill
#
# Bulk Modulus (GPa) = 50.52436 75.23045 62.87740
# Shear Modulus (GPa) = 22.13654 26.28661 24.21157
#
# Velocity S-wave (km/s) = 3.43941 3.74797 3.59700
# Velocity P-wave (km/s) = 6.54007 7.67673 7.13108
#
# Compressibility (1/GPa) = 0.01979243
#
# Stress axis : x y z
#
# Youngs Moduli (GPa) = 74.33576 34.92458 106.98214
#
# Poissons Ratio (x) = 0.19927 0.46048
# Poissons Ratio (y) = 0.42413 0.62160
# Poissons Ratio (z) = 0.31996 0.20292
#
# Static dielectric constant tensor:
#      x y z
#    x 3.551360 0.000000 0.070690 
#    y 0.000000 3.180330 0.000000 
#    z 0.070690 0.000000 3.699630 
# 
# 
# High freq. dielectric constant tensor:
#      x y z
#    x 1.733100 0.000000 0.005820 
#    y 0.000000 1.695790 0.000000 
#    z 0.005820 0.000000 1.739380 
# 
# From -- ./inp_files/281020.got.cif
#   From: 2010.06.25/outbox.cif.g09.slc.cpg/sg12_141_cif.got.tgz:281020.got - 2010.06.28 00:19:55.
