data_PCOD8092211
_publ_section_title
;
Structure prediction by ZEFSAII (Michael W. Deem and Ramdas Pophale) SiO2 
 PCOD8092211
Probable space group: C 2/M
;
_chemical_formula_sum "Si O2"
_cell_formula_units_Z 60
_cell_length_a 27.167661
_cell_length_b 14.448817
_cell_length_c 15.690568
_cell_angle_alpha 90.000000
_cell_angle_beta 153.338713
_cell_angle_gamma 90.000000
_cell_volume 2763.720098
_symmetry_space_group_name_H-M "C 2/M"
_symmetry_group_IT_number 12
_symmetry_cell_setting 'monoclinic'
loop_
_space_group_symop_operation_xyz
x,y,z
-x,y,-z
-x,-y,-z
x,-y,z
1/2+x,1/2+y,z
1/2-x,1/2+y,-z
1/2-x,1/2-y,-z
1/2+x,1/2-y,z
loop_
_atom_site_type_symbol
_atom_site_label
_atom_site_fract_x
_atom_site_fract_y
_atom_site_fract_z
Si Si1 0.306314 0.603344 0.743700
Si Si2 0.315180 0.288940 0.916956
Si Si3 0.058836 0.600956 0.379273
Si Si4 0.017266 0.113180 0.304579
Si Si5 0.113390 0.599649 0.026394
Si Si6 0.866074 0.198295 0.677794
Si Si7 0.569209 0.249173 0.523239
Si Si8 0.500000 0.826488 0.000000
O O1 0.322381 0.500000 0.802614
O O2 0.360100 0.671127 0.896394
O O3 0.180152 0.632821 0.541797
O O4 0.362594 0.613565 0.739388
O O5 0.184584 0.301068 0.728886
O O6 0.393209 0.342244 0.106038
O O7 0.319371 0.177991 0.918684
O O8 0.055947 0.500000 0.419263
O O9 0.007974 0.675720 0.365991
O O10 0.002450 0.597628 0.200803
O O11 0.096276 0.154899 0.353459
O O12 0.072529 0.152232 0.477515
O O13 0.013760 0.000000 0.299170
O O14 0.173717 0.500000 0.108909
O O15 0.094267 0.613208 0.098754
O O16 0.750000 0.250000 0.500000
O O17 0.955333 0.269205 0.850889
O O18 0.500000 0.266256 0.500000
#
# Coordination Sequence:
#
# PCOD8092211 Si02
#       8
#     8   8   8   8   8   8   8   4
#     4  10  19  34  59  91 126 168 212 254 304 374
#     4  11  22  43  67  95 130 172 215 273 334 403
#     4   9  19  39  64  93 127 165 213 268 322 383
#     4  12  26  45  68  99 138 180 225 278 340 402
#     4  11  21  37  60  90 129 169 212 259 317 386
#     4  12  22  37  62  90 133 180 218 261 311 384
#     4  11  25  46  72  95 129 168 222 286 353 411
#     4  12  21  36  55  88 128 172 219 258 305 368
#
# _framework density 21.709869000000001
#
# number of rings (size 3 to 8) (size 9 to 14) (size 15 to 20)
#    0.000    1.067    4.000    3.400    0.000    2.133 
#    0.000    3.333    0.000    0.000    0.000    0.000 
#    0.000    0.000    0.000    0.000    0.000    0.000 
#
# Total GULP energy -371656.437008 kJ/mol
# GULP energy per Si atom -12388.547900 kJ/mol
# Density = 2.166046 g / cm^3
# Si number density = 21.709869 Si / 1000 Ang^3
#
#
#
# Elastic Constant Matrix: (Units=GPa)
#
#
# Indices 1 2 3 4 5 6 
#
# 1 111.4529 45.1033 17.9118 0.0000 -8.3002 0.0000
# 2 45.1033 147.3792 22.6580 0.0000 -2.9498 0.0000
# 3 17.9118 22.6580 63.8268 0.0000 5.8731 0.0000
# 4 0.0000 0.0000 0.0000 27.5020 0.0000 -3.7229
# 5 -8.3002 -2.9498 5.8731 0.0000 19.7233 0.0000
# 6 0.0000 0.0000 0.0000 -3.7229 0.0000 18.5070
#
#
#
# Elastic Compliance Matrix: (Units=1/GPa)
#
#
# Indices 1 2 3 4 5 6 
#
# 1 0.010892 -0.002852 -0.002495 0.000000 0.004900 0.000000
# 2 -0.002852 0.007992 -0.002094 0.000000 0.000619 0.000000
# 3 -0.002495 -0.002094 0.017722 0.000000 -0.006640 0.000000
# 4 0.000000 0.000000 0.000000 0.037379 0.000000 0.007519
# 5 0.004900 0.000619 -0.006640 0.000000 0.054834 0.000000
# 6 0.000000 0.000000 0.000000 0.007519 0.000000 0.055546
#
#
# Mechanical properties :
#
#
# Convention : Reuss Voigt Hill
#
# Bulk Modulus (GPa) = 46.03025 54.88948 50.45986
# Shear Modulus (GPa) = 24.21440 28.94551 26.57995
#
# Velocity S-wave (km/s) = 3.34333 3.65538 3.50283
# Velocity P-wave (km/s) = 6.01268 6.56916 6.29707
#
# Compressibility (1/GPa) = 0.02172485
#
# Stress axis : x y z
#
# Youngs Moduli (GPa) = 91.80677 125.12133 56.42708
#
# Poissons Ratio (x) = 0.35682 0.14080
# Poissons Ratio (y) = 0.26181 0.11815
# Poissons Ratio (z) = 0.22909 0.26198
#
# Static dielectric constant tensor:
#      x y z
#    x 3.541680 0.000000 -0.080630 
#    y 0.000000 4.244970 0.000000 
#    z -0.080630 0.000000 4.161460 
# 
# 
# High freq. dielectric constant tensor:
#      x y z
#    x 1.813060 0.000000 -0.005080 
#    y 0.000000 1.865520 0.000000 
#    z -0.005080 0.000000 1.853630 
# 
# From -- ./inp_files/246744.got.cif
#   From: 2010.06.25/outbox.cif.g09.slc.cpg/sg12_124_cif.got.tgz:246744.got - 2010.06.28 00:19:55.
