data_PCOD8092468
_publ_section_title
;
Structure prediction by ZEFSAII (Michael W. Deem and Ramdas Pophale) SiO2 
 PCOD8092468
Probable space group: C 2/M
;
_chemical_formula_sum "Si O2"
_cell_formula_units_Z 64
_cell_length_a 14.764227
_cell_length_b 8.968146
_cell_length_c 29.877143
_cell_angle_alpha 90.000000
_cell_angle_beta 61.192780
_cell_angle_gamma 90.000000
_cell_volume 3466.398444
_symmetry_space_group_name_H-M "C 2/M"
_symmetry_group_IT_number 12
_symmetry_cell_setting 'monoclinic'
loop_
_space_group_symop_operation_xyz
x,y,z
-x,y,-z
-x,-y,-z
x,-y,z
1/2+x,1/2+y,z
1/2-x,1/2+y,-z
1/2-x,1/2-y,-z
1/2+x,1/2-y,z
loop_
_atom_site_type_symbol
_atom_site_label
_atom_site_fract_x
_atom_site_fract_y
_atom_site_fract_z
Si Si1 0.774864 0.325376 0.368971
Si Si2 0.453231 0.824111 0.810515
Si Si3 0.953354 0.175570 0.556470
Si Si4 0.181101 0.676008 0.075601
Si Si5 0.685340 0.173378 0.743444
Si Si6 0.959609 0.824891 0.370925
Si Si7 0.879466 0.323542 0.732789
Si Si8 0.890661 0.324436 0.005267
O O1 0.786253 0.500000 0.376434
O O2 0.660848 0.262677 0.406014
O O3 0.806787 0.290215 0.310770
O O4 0.848278 0.234386 0.384180
O O5 0.387670 0.758761 0.867451
O O6 0.572706 0.781004 0.788001
O O7 0.411828 0.759643 0.773486
O O8 0.440775 0.000000 0.812661
O O9 0.027435 0.216292 0.580042
O O10 0.000000 0.247796 0.500000
O O11 0.943906 0.000000 0.552707
O O12 0.196367 0.500000 0.075106
O O13 0.119924 0.718523 0.044626
O O14 0.294247 0.748643 0.053294
O O15 0.761805 0.276940 0.753090
O O16 0.710876 0.000000 0.746003
O O17 0.050188 0.748165 0.321789
O O18 0.968808 0.000000 0.360410
O O19 0.893130 0.500000 0.726964
O O20 0.881770 0.500000 0.014924
O O21 0.000000 0.266607 0.000000
#
# Coordination Sequence:
#
# PCOD8092468 Si02
#       8
#     8   8   8   8   8   8   8   8
#     4  10  19  35  57  79 105 140 175 213 265 319
#     4   9  19  35  53  74 108 144 175 211 263 322
#     4   9  19  36  56  77 106 142 176 215 267 322
#     4   9  18  34  54  76 104 142 178 213 260 316
#     4  10  19  35  55  78 105 141 179 214 263 322
#     4  11  21  35  56  81 105 136 179 219 262 317
#     4  11  21  35  54  78 106 140 179 220 264 312
#     4   9  18  33  54  79 106 136 174 220 268 308
#
# _framework density 18.462966999999999
#
# number of rings (size 3 to 8) (size 9 to 14) (size 15 to 20)
#    0.000    2.250    2.500    0.750    0.000    2.250 
#    0.000    3.125    0.000    2.625    0.000    0.000 
#    0.000    0.000    0.000    0.000    0.000    0.000 
#
# Total GULP energy -396799.937398 kJ/mol
# GULP energy per Si atom -12399.998044 kJ/mol
# Density = 1.842094 g / cm^3
# Si number density = 18.462967 Si / 1000 Ang^3
#
#
#
# Elastic Constant Matrix: (Units=GPa)
#
#
# Indices 1 2 3 4 5 6 
#
# 1 105.0603 24.7911 18.8324 0.0000 -6.0361 0.0000
# 2 24.7911 35.5864 17.5435 0.0000 1.7575 0.0000
# 3 18.8324 17.5435 99.8506 0.0000 -10.5180 0.0000
# 4 0.0000 0.0000 0.0000 16.1951 0.0000 -0.5539
# 5 -6.0361 1.7575 -10.5180 0.0000 27.4251 0.0000
# 6 0.0000 0.0000 0.0000 -0.5539 0.0000 32.8707
#
#
#
# Elastic Compliance Matrix: (Units=1/GPa)
#
#
# Indices 1 2 3 4 5 6 
#
# 1 0.011667 -0.008032 -0.000484 0.000000 0.002897 0.000000
# 2 -0.008032 0.036770 -0.005606 0.000000 -0.006274 0.000000
# 3 -0.000484 -0.005606 0.011586 0.000000 0.004696 0.000000
# 4 0.000000 0.000000 0.000000 0.061783 0.000000 0.001041
# 5 0.002897 -0.006274 0.004696 0.000000 0.039304 0.000000
# 6 0.000000 0.000000 0.000000 0.001041 0.000000 0.030440
#
#
# Mechanical properties :
#
#
# Convention : Reuss Voigt Hill
#
# Bulk Modulus (GPa) = 31.46875 40.31460 35.89168
# Shear Modulus (GPa) = 21.70268 27.25355 24.47811
#
# Velocity S-wave (km/s) = 3.43223 3.84620 3.64510
# Velocity P-wave (km/s) = 5.72610 6.45036 6.09899
#
# Compressibility (1/GPa) = 0.03177756
#
# Stress axis : x y z
#
# Youngs Moduli (GPa) = 85.71268 27.19621 86.31132
#
# Poissons Ratio (x) = 0.21844 0.04178
# Poissons Ratio (y) = 0.68845 0.48390
# Poissons Ratio (z) = 0.04149 0.15247
#
# Static dielectric constant tensor:
#      x y z
#    x 3.592600 0.000000 -0.011400 
#    y 0.000000 3.129590 0.000000 
#    z -0.011400 0.000000 3.638330 
# 
# 
# High freq. dielectric constant tensor:
#      x y z
#    x 1.728440 0.000000 -0.001990 
#    y 0.000000 1.688110 0.000000 
#    z -0.001990 0.000000 1.718630 
# 
# From -- ./inp_files/338700.got.cif
#   From: 2010.06.25/outbox.cif.g09.slc.cpg/sg12_170_cif.got.tgz:338700.got - 2010.06.28 00:19:55.
