data_PCOD8092634
_publ_section_title
;
Structure prediction by ZEFSAII (Michael W. Deem and Ramdas Pophale) SiO2 
 PCOD8092634
Probable space group: C 2/M
;
_chemical_formula_sum "Si O2"
_cell_formula_units_Z 56
_cell_length_a 11.119929
_cell_length_b 23.543731
_cell_length_c 11.372161
_cell_angle_alpha 90.000000
_cell_angle_beta 74.686547
_cell_angle_gamma 90.000000
_cell_volume 2871.577073
_symmetry_space_group_name_H-M "C 2/M"
_symmetry_group_IT_number 12
_symmetry_cell_setting 'monoclinic'
loop_
_space_group_symop_operation_xyz
x,y,z
-x,y,-z
-x,-y,-z
x,-y,z
1/2+x,1/2+y,z
1/2-x,1/2+y,-z
1/2-x,1/2-y,-z
1/2+x,1/2-y,z
loop_
_atom_site_type_symbol
_atom_site_label
_atom_site_fract_x
_atom_site_fract_y
_atom_site_fract_z
Si Si1 0.715060 0.000000 0.443287
Si Si2 0.138664 0.891148 0.510238
Si Si3 0.493347 0.901776 0.868592
Si Si4 0.504611 0.000000 0.312999
Si Si5 0.386888 0.291963 0.878789
Si Si6 0.791365 0.672270 0.281600
Si Si7 0.145518 0.204547 0.699583
Si Si8 0.722201 0.825374 0.114508
O O1 0.803555 0.944467 0.433601
O O2 0.643357 0.000000 0.335817
O O3 0.605180 0.000000 0.565048
O O4 0.233935 0.875564 0.381457
O O5 0.127796 0.834457 0.591060
O O6 0.000000 0.907211 0.500000
O O7 0.590922 0.851110 0.821026
O O8 0.351739 0.882907 0.886054
O O9 0.519833 0.947311 0.763490
O O10 0.500000 0.925527 0.000000
O O11 0.312900 0.311256 0.783514
O O12 0.530600 0.301420 0.817610
O O13 0.361714 0.226091 0.913603
O O14 0.348176 0.328228 0.003810
O O15 0.833117 0.729340 0.342620
O O16 0.258627 0.181877 0.750481
#
# Coordination Sequence:
#
# PCOD8092634 Si02
#       8
#     4   8   8   4   8   8   8   8
#     4  11  25  46  66  89 113 167 211 265 313 372
#     4  12  24  43  65  86 120 165 213 262 307 365
#     4  12  22  40  65  93 125 164 201 259 307 374
#     4  11  25  44  66  89 125 155 209 261 323 368
#     4  10  19  35  56  87 126 165 196 244 297 360
#     4  11  22  38  59  94 128 158 208 249 310 370
#     4  11  22  37  59  92 129 165 202 253 300 370
#     4  10  21  33  59  89 123 163 200 240 299 366
#
# _framework density 19.501479
#
# number of rings (size 3 to 8) (size 9 to 14) (size 15 to 20)
#    0.000    1.000    5.714    2.143    0.000    0.000 
#    0.000    0.000    0.000    0.000    0.000    4.000 
#    0.000    0.000    0.000    0.000    0.000    0.000 
#
# Total GULP energy -347125.654178 kJ/mol
# GULP energy per Si atom -12397.344792 kJ/mol
# Density = 1.945709 g / cm^3
# Si number density = 19.501479 Si / 1000 Ang^3
#
#
#
# Elastic Constant Matrix: (Units=GPa)
#
#
# Indices 1 2 3 4 5 6 
#
# 1 87.1120 28.1925 17.9859 0.0000 3.1705 0.0000
# 2 28.1925 79.1950 15.4499 0.0000 5.4288 0.0000
# 3 17.9859 15.4499 70.2361 0.0000 -1.5947 0.0000
# 4 0.0000 0.0000 0.0000 24.0412 0.0000 1.9960
# 5 3.1705 5.4288 -1.5947 0.0000 32.2693 0.0000
# 6 0.0000 0.0000 0.0000 1.9960 0.0000 30.0826
#
#
#
# Elastic Compliance Matrix: (Units=1/GPa)
#
#
# Indices 1 2 3 4 5 6 
#
# 1 0.013394 -0.004227 -0.002517 0.000000 -0.000729 0.000000
# 2 -0.004227 0.014710 -0.002203 0.000000 -0.002168 0.000000
# 3 -0.002517 -0.002203 0.015398 0.000000 0.001379 0.000000
# 4 0.000000 0.000000 0.000000 0.041826 0.000000 -0.002775
# 5 -0.000729 -0.002168 0.001379 0.000000 0.031494 0.000000
# 6 0.000000 0.000000 0.000000 -0.002775 0.000000 0.033426
#
#
# Mechanical properties :
#
#
# Convention : Reuss Voigt Hill
#
# Bulk Modulus (GPa) = 39.04817 39.97772 39.51295
# Shear Modulus (GPa) = 28.30042 28.93962 28.62002
#
# Velocity S-wave (km/s) = 3.81359 3.85641 3.83506
# Velocity P-wave (km/s) = 6.28155 6.35402 6.31789
#
# Compressibility (1/GPa) = 0.02560939
#
# Stress axis : x y z
#
# Youngs Moduli (GPa) = 74.66240 67.98019 64.94381
#
# Poissons Ratio (x) = 0.28736 0.16343
# Poissons Ratio (y) = 0.31560 0.14304
# Poissons Ratio (z) = 0.18789 0.14973
#
# Static dielectric constant tensor:
#      x y z
#    x 3.608590 0.000000 -0.013330 
#    y 0.000000 3.613940 0.000000 
#    z -0.013330 0.000000 3.544460 
# 
# 
# High freq. dielectric constant tensor:
#      x y z
#    x 1.767860 0.000000 0.000700 
#    y 0.000000 1.742390 0.000000 
#    z 0.000700 0.000000 1.763320 
# 
# From -- ./inp_files/133903.got.cif
#   From: 2010.06.25/outbox.cif.g09.slc.cpg/sg12_67_cif.got.tgz:133903.got - 2010.06.28 00:19:55.
