data_PCOD8092255
_publ_section_title
;
Structure prediction by ZEFSAII (Michael W. Deem and Ramdas Pophale) SiO2 
 PCOD8092255
Probable space group: C 2/M
;
_chemical_formula_sum "Si O2"
_cell_formula_units_Z 48
_cell_length_a 9.938763
_cell_length_b 16.546585
_cell_length_c 21.031246
_cell_angle_alpha 90.000000
_cell_angle_beta 137.829162
_cell_angle_gamma 90.000000
_cell_volume 2321.937205
_symmetry_space_group_name_H-M "C 2/M"
_symmetry_group_IT_number 12
_symmetry_cell_setting 'monoclinic'
loop_
_space_group_symop_operation_xyz
x,y,z
-x,y,-z
-x,-y,-z
x,-y,z
1/2+x,1/2+y,z
1/2-x,1/2+y,-z
1/2-x,1/2-y,-z
1/2+x,1/2-y,z
loop_
_atom_site_type_symbol
_atom_site_label
_atom_site_fract_x
_atom_site_fract_y
_atom_site_fract_z
Si Si1 0.802825 0.596473 0.963999
Si Si2 0.722137 0.093416 0.567868
Si Si3 0.198558 0.825982 0.527323
Si Si4 0.950785 0.593295 0.278445
Si Si5 0.724405 0.595960 0.075698
Si Si6 0.421299 0.407445 0.759448
O O1 0.791969 0.500000 0.958887
O O2 0.609961 0.634768 0.860349
O O3 0.815347 0.625582 0.041020
O O4 0.000000 0.630927 0.000000
O O5 0.500000 0.132700 0.500000
O O6 0.814275 0.102389 0.529442
O O7 0.872219 0.132537 0.673228
O O8 0.702338 0.000000 0.577889
O O9 0.250000 0.750000 0.500000
O O10 0.371036 0.847551 0.638042
O O11 0.000000 0.814408 0.500000
O O12 0.025549 0.500000 0.299591
O O13 0.867884 0.627200 0.182315
O O14 0.775542 0.600177 0.267694
O O15 0.711273 0.500000 0.077774
O O16 0.500000 0.631929 0.000000
O O17 0.483549 0.500000 0.771411
#
# Coordination Sequence:
#
# PCOD8092255 Si02
#       6
#     8   8   8   8   8   8
#     4   9  16  25  40  73 121 156 178 216 272 332
#     4  10  19  35  61  88 115 149 191 239 292 350
#     4  12  27  43  59  82 113 153 200 250 301 352
#     4  10  19  34  60  89 116 151 194 239 289 348
#     4   9  15  26  48  80 117 151 183 223 277 342
#     4   9  16  28  52  83 115 155 187 218 278 343
#
# _framework density 20.672393
#
# number of rings (size 3 to 8) (size 9 to 14) (size 15 to 20)
#    0.000    2.167    3.333    1.000    0.000    2.667 
#    0.000    3.333    0.000    0.000    0.000    5.833 
#    0.000    0.000    0.000    0.000    0.000    0.167 
#
# Total GULP energy -297389.782997 kJ/mol
# GULP energy per Si atom -12391.240958 kJ/mol
# Density = 2.062534 g / cm^3
# Si number density = 20.672393 Si / 1000 Ang^3
#
#
#
# Elastic Constant Matrix: (Units=GPa)
#
#
# Indices 1 2 3 4 5 6 
#
# 1 153.7028 16.4200 83.2481 0.0000 -13.2919 0.0000
# 2 16.4200 27.1465 33.8621 0.0000 4.9401 0.0000
# 3 83.2481 33.8621 210.4335 0.0000 -23.7029 0.0000
# 4 0.0000 0.0000 0.0000 6.7142 0.0000 -1.7987
# 5 -13.2919 4.9401 -23.7029 0.0000 40.3792 0.0000
# 6 0.0000 0.0000 0.0000 -1.7987 0.0000 14.2858
#
#
#
# Elastic Compliance Matrix: (Units=1/GPa)
#
#
# Indices 1 2 3 4 5 6 
#
# 1 0.008363 -0.001673 -0.002898 0.000000 0.001256 0.000000
# 2 -0.001673 0.051186 -0.008933 0.000000 -0.012056 0.000000
# 3 -0.002898 -0.008933 0.007872 0.000000 0.004760 0.000000
# 4 0.000000 0.000000 0.000000 0.154136 0.000000 0.019407
# 5 0.001256 -0.012056 0.004760 0.000000 0.029448 0.000000
# 6 0.000000 0.000000 0.000000 0.019407 0.000000 0.072443
#
#
# Mechanical properties :
#
#
# Convention : Reuss Voigt Hill
#
# Bulk Modulus (GPa) = 24.74380 73.14926 48.94653
# Shear Modulus (GPa) = 13.73908 29.45936 21.59922
#
# Velocity S-wave (km/s) = 2.58080 3.77909 3.23590
# Velocity P-wave (km/s) = 4.56905 7.38267 6.13922
#
# Compressibility (1/GPa) = 0.04041417
#
# Stress axis : x y z
#
# Youngs Moduli (GPa) = 119.57658 19.53675 127.03191
#
# Poissons Ratio (x) = 0.03268 0.36810
# Poissons Ratio (y) = 0.19999 1.13477
# Poissons Ratio (z) = 0.34650 0.17452
#
# Static dielectric constant tensor:
#      x y z
#    x 3.900180 0.000000 -0.246590 
#    y 0.000000 3.211410 0.000000 
#    z -0.246590 0.000000 4.278480 
# 
# 
# High freq. dielectric constant tensor:
#      x y z
#    x 1.806260 0.000000 -0.016890 
#    y 0.000000 1.746360 0.000000 
#    z -0.016890 0.000000 1.830000 
# 
# From -- ./inp_files/257915.got.cif
#   From: 2010.06.25/outbox.cif.g09.slc.cpg/sg12_129_cif.got.tgz:257915.got - 2010.06.28 00:19:55.
