data_PCOD8092884
_publ_section_title
;
Structure prediction by ZEFSAII (Michael W. Deem and Ramdas Pophale) SiO2 
 PCOD8092884
Probable space group: C 2/M
;
_chemical_formula_sum "Si O2"
_cell_formula_units_Z 56
_cell_length_a 31.944974
_cell_length_b 8.502626
_cell_length_c 20.093753
_cell_angle_alpha 90.000000
_cell_angle_beta 32.234327
_cell_angle_gamma 90.000000
_cell_volume 2911.092246
_symmetry_space_group_name_H-M "C 2/M"
_symmetry_group_IT_number 12
_symmetry_cell_setting 'monoclinic'
loop_
_space_group_symop_operation_xyz
x,y,z
-x,y,-z
-x,-y,-z
x,-y,z
1/2+x,1/2+y,z
1/2-x,1/2+y,-z
1/2-x,1/2-y,-z
1/2+x,1/2-y,z
loop_
_atom_site_type_symbol
_atom_site_label
_atom_site_fract_x
_atom_site_fract_y
_atom_site_fract_z
Si Si1 0.420207 0.678273 0.916331
Si Si2 0.970229 0.683349 0.443708
Si Si3 0.390436 0.316013 0.677036
Si Si4 0.664121 0.180017 0.621657
Si Si5 0.982019 0.313852 0.098611
Si Si6 0.262168 0.687692 0.057916
Si Si7 0.425983 0.678075 0.370987
O O1 0.406307 0.500000 0.958034
O O2 0.446693 0.770159 0.947398
O O3 0.484844 0.690835 0.772348
O O4 0.342452 0.745757 0.985128
O O5 0.984390 0.500000 0.411060
O O6 0.920267 0.708140 0.577079
O O7 0.919339 0.763030 0.454780
O O8 0.054119 0.772829 0.334801
O O9 0.397314 0.500000 0.650645
O O10 0.302343 0.267740 0.809335
O O11 0.750000 0.250000 0.500000
O O12 0.602232 0.253517 0.759717
O O13 0.627067 0.203796 0.599437
O O14 0.674631 0.000000 0.625186
O O15 0.976474 0.500000 0.103595
O O16 0.000000 0.247060 0.000000
O O17 0.255984 0.500000 0.065256
O O18 0.250000 0.750000 0.000000
O O19 0.394096 0.500000 0.407325
#
# Coordination Sequence:
#
# PCOD8092884 Si02
#       7
#     8   8   8   8   8   8   8
#     4   9  20  36  56  82 112 145 184 230 275 332
#     4  11  21  36  57  81 108 143 185 231 282 334
#     4  11  22  37  55  78 110 149 188 229 278 331
#     4  10  20  36  57  83 114 147 187 236 289 343
#     4   9  19  37  60  84 111 147 189 236 287 343
#     4  11  22  37  56  82 115 149 189 235 284 334
#     4  10  19  35  58  83 110 143 184 227 277 339
#
# _framework density 19.236767
#
# number of rings (size 3 to 8) (size 9 to 14) (size 15 to 20)
#    0.000    1.857    0.000    5.571    0.000    3.714 
#    2.571    0.000    0.000    0.000    0.000    0.000 
#    0.000    0.000    0.000    0.000    0.000    0.000 
#
# Total GULP energy -347090.412413 kJ/mol
# GULP energy per Si atom -12396.086158 kJ/mol
# Density = 1.919298 g / cm^3
# Si number density = 19.236767 Si / 1000 Ang^3
#
#
#
# Elastic Constant Matrix: (Units=GPa)
#
#
# Indices 1 2 3 4 5 6 
#
# 1 124.1404 15.8211 60.8795 0.0013 -1.2056 -0.0002
# 2 15.8211 62.4626 23.5632 0.0125 -2.6157 -0.0103
# 3 60.8795 23.5632 111.5776 0.0063 -20.6692 -0.0090
# 4 0.0013 0.0125 0.0063 28.9086 -0.0216 -1.3710
# 5 -1.2056 -2.6157 -20.6692 -0.0216 27.6606 0.0045
# 6 -0.0002 -0.0103 -0.0090 -1.3710 0.0045 34.3269
#
#
#
# Elastic Compliance Matrix: (Units=1/GPa)
#
#
# Indices 1 2 3 4 5 6 
#
# 1 0.011550 -0.000448 -0.007106 -0.000002 -0.004848 -0.000001
# 2 -0.000448 0.017452 -0.003643 -0.000007 -0.001092 0.000004
# 3 -0.007106 -0.003643 0.015654 0.000007 0.011043 0.000002
# 4 -0.000002 -0.000007 0.000007 0.034657 0.000031 0.001384
# 5 -0.004848 -0.001092 0.011043 0.000031 0.044090 -0.000002
# 6 -0.000001 0.000004 0.000002 0.001384 -0.000002 0.029187
#
#
# Mechanical properties :
#
#
# Convention : Reuss Voigt Hill
#
# Bulk Modulus (GPa) = 44.91845 55.41202 50.16523
# Shear Modulus (GPa) = 27.41152 31.37368 29.39260
#
# Velocity S-wave (km/s) = 3.77895 4.04285 3.91313
# Velocity P-wave (km/s) = 6.51473 7.11763 6.82284
#
# Compressibility (1/GPa) = 0.02226257
#
# Stress axis : x y z
#
# Youngs Moduli (GPa) = 86.58003 57.30095 63.87968
#
# Poissons Ratio (x) = 0.02567 0.45390
# Poissons Ratio (y) = 0.03879 0.23273
# Poissons Ratio (z) = 0.61519 0.20876
#
# Static dielectric constant tensor:
#      x y z
#    x 3.800160 -0.000040 -0.096350 
#    y -0.000040 3.519740 0.000060 
#    z -0.096350 0.000060 3.644150 
# 
# 
# High freq. dielectric constant tensor:
#      x y z
#    x 1.749340 0.000000 -0.001440 
#    y 0.000000 1.750230 0.000000 
#    z -0.001440 0.000000 1.745060 
# 
# From -- ./inp_files/329517.got.cif
#   From: 2010.06.25/outbox.cif.g09.slc.cpg/sg12_165_cif.got.tgz:329517.got - 2010.06.28 00:19:55.
