data_PCOD8092925
_publ_section_title
;
Structure prediction by ZEFSAII (Michael W. Deem and Ramdas Pophale) SiO2 
 PCOD8092925
Probable space group: C 2/M
;
_chemical_formula_sum "Si O2"
_cell_formula_units_Z 56
_cell_length_a 23.173686
_cell_length_b 26.267363
_cell_length_c 15.073135
_cell_angle_alpha 90.000000
_cell_angle_beta 161.933412
_cell_angle_gamma 90.000000
_cell_volume 2845.429807
_symmetry_space_group_name_H-M "C 2/M"
_symmetry_group_IT_number 12
_symmetry_cell_setting 'monoclinic'
loop_
_space_group_symop_operation_xyz
x,y,z
-x,y,-z
-x,-y,-z
x,-y,z
1/2+x,1/2+y,z
1/2-x,1/2+y,-z
1/2-x,1/2-y,-z
1/2+x,1/2-y,z
loop_
_atom_site_type_symbol
_atom_site_label
_atom_site_fract_x
_atom_site_fract_y
_atom_site_fract_z
Si Si1 0.840680 0.720107 0.340534
Si Si2 0.339302 0.942745 0.590005
Si Si3 0.249780 0.941185 0.827386
Si Si4 0.524186 0.556354 0.848876
Si Si5 0.316052 0.367766 0.778847
Si Si6 0.600654 0.715825 0.829100
Si Si7 0.596304 0.400507 0.771413
O O1 0.818207 0.675106 0.378492
O O2 0.000000 0.707941 0.500000
O O3 0.900848 0.767344 0.493718
O O4 0.642753 0.726405 0.996698
O O5 0.200151 0.935572 0.470045
O O6 0.299259 0.901254 0.457638
O O7 0.317275 0.000000 0.518188
O O8 0.551922 0.934535 0.930794
O O9 0.105679 0.904200 0.568620
O O10 0.256048 0.921555 0.938889
O O11 0.183510 0.000000 0.727005
O O12 0.577313 0.500000 0.959404
O O13 0.592582 0.562416 0.849429
O O14 0.628232 0.596601 0.059676
O O15 0.500000 0.344535 0.000000
O O16 0.634892 0.656987 0.857763
O O17 0.750000 0.750000 0.000000
#
# Coordination Sequence:
#
# PCOD8092925 Si02
#       7
#     8   8   8   8   8   8   8
#     4  10  22  39  61  84 113 147 201 244 294 348
#     4   9  20  35  55  83 118 156 191 224 280 349
#     4  10  22  36  55  87 119 150 186 232 292 347
#     4  10  19  35  58  84 116 153 189 228 277 347
#     4  10  20  36  58  84 116 150 188 239 288 335
#     4  10  23  38  60  86 111 147 199 242 292 349
#     4  11  21  36  60  82 114 147 190 238 291 335
#
# _framework density 19.680682999999998
#
# number of rings (size 3 to 8) (size 9 to 14) (size 15 to 20)
#    0.000    2.000    1.429    2.143   10.000    2.286 
#    0.000    2.857    3.143    3.429    0.000    0.000 
#    0.000    0.000    0.000    0.000    0.000    0.000 
#
# Total GULP energy -346877.062167 kJ/mol
# GULP energy per Si atom -12388.466506 kJ/mol
# Density = 1.963589 g / cm^3
# Si number density = 19.680683 Si / 1000 Ang^3
#
#
#
# Elastic Constant Matrix: (Units=GPa)
#
#
# Indices 1 2 3 4 5 6 
#
# 1 47.6977 15.1902 -1.8460 -0.0001 -8.7595 0.0000
# 2 15.1902 75.9990 22.4750 0.0000 1.2584 0.0000
# 3 -1.8460 22.4750 56.8170 0.0003 -8.5680 0.0001
# 4 -0.0001 0.0000 0.0003 29.1892 0.0001 -1.9823
# 5 -8.7595 1.2584 -8.5680 0.0001 28.6255 0.0000
# 6 0.0000 0.0000 0.0001 -1.9823 0.0000 24.9834
#
#
#
# Elastic Compliance Matrix: (Units=1/GPa)
#
#
# Indices 1 2 3 4 5 6 
#
# 1 0.024966 -0.006572 0.004824 0.000000 0.009373 0.000000
# 2 -0.006572 0.016809 -0.007621 0.000000 -0.005031 0.000000
# 3 0.004824 -0.007621 0.022040 0.000000 0.008408 0.000000
# 4 0.000000 0.000000 0.000000 0.034445 0.000000 0.002733
# 5 0.009373 -0.005031 0.008408 0.000000 0.040540 0.000000
# 6 0.000000 0.000000 0.000000 0.002733 0.000000 0.040244
#
#
# Mechanical properties :
#
#
# Convention : Reuss Voigt Hill
#
# Bulk Modulus (GPa) = 22.18436 28.01691 25.10064
# Shear Modulus (GPa) = 23.49554 26.20591 24.85073
#
# Velocity S-wave (km/s) = 3.45894 3.65301 3.55730
# Velocity P-wave (km/s) = 5.22006 5.66209 5.44556
#
# Compressibility (1/GPa) = 0.04507680
#
# Stress axis : x y z
#
# Youngs Moduli (GPa) = 40.05407 59.49291 45.37256
#
# Poissons Ratio (x) = 0.39098 -0.21889
# Poissons Ratio (y) = 0.26323 0.34579
# Poissons Ratio (z) = -0.19323 0.45341
#
# Static dielectric constant tensor:
#      x y z
#    x 3.855770 0.000000 -0.257290 
#    y 0.000000 3.659500 -0.000010 
#    z -0.257290 -0.000010 3.978970 
# 
# 
# High freq. dielectric constant tensor:
#      x y z
#    x 1.759620 0.000000 -0.006850 
#    y 0.000000 1.764630 0.000000 
#    z -0.006850 0.000000 1.758870 
# 
# From -- ./inp_files/209100.got.cif
#   From: 2010.06.25/outbox.cif.g09.slc.cpg/sg12_105_cif.got.tgz:209100.got - 2010.06.28 00:19:55.
