data_PCOD8092546
_publ_section_title
;
Structure prediction by ZEFSAII (Michael W. Deem and Ramdas Pophale) SiO2 
 PCOD8092546
Probable space group: C 2/M
;
_chemical_formula_sum "Si O2"
_cell_formula_units_Z 48
_cell_length_a 25.037899
_cell_length_b 8.345243
_cell_length_c 20.616230
_cell_angle_alpha 90.000000
_cell_angle_beta 144.448305
_cell_angle_gamma 90.000000
_cell_volume 2504.661125
_symmetry_space_group_name_H-M "C 2/M"
_symmetry_group_IT_number 12
_symmetry_cell_setting 'monoclinic'
loop_
_space_group_symop_operation_xyz
x,y,z
-x,y,-z
-x,-y,-z
x,-y,z
1/2+x,1/2+y,z
1/2-x,1/2+y,-z
1/2-x,1/2-y,-z
1/2+x,1/2-y,z
loop_
_atom_site_type_symbol
_atom_site_label
_atom_site_fract_x
_atom_site_fract_y
_atom_site_fract_z
Si Si1 0.940440 0.810719 0.378765
Si Si2 0.257261 0.814328 0.631865
Si Si3 0.245747 0.686204 0.761003
Si Si4 0.066218 0.190871 0.386847
Si Si5 0.555133 0.313210 0.232868
Si Si6 0.941659 0.810402 0.002550
O O1 0.843021 0.721443 0.283215
O O2 0.000000 0.760942 0.500000
O O3 0.992129 0.746981 0.365703
O O4 0.923912 0.000000 0.361027
O O5 0.241009 0.792426 0.692079
O O6 0.167629 0.748645 0.506124
O O7 0.342308 0.711517 0.691379
O O8 0.275636 0.000000 0.635307
O O9 0.251652 0.500000 0.747622
O O10 0.335281 0.737608 0.890808
O O11 0.041628 0.261635 0.291412
O O12 0.066919 0.000000 0.388878
O O13 0.536784 0.500000 0.220834
O O14 0.482421 0.237216 0.109957
O O15 0.955472 0.000000 0.017513
O O16 0.000000 0.738959 0.000000
#
# Coordination Sequence:
#
# PCOD8092546 Si02
#       6
#     8   8   8   8   8   8
#     4  10  19  36  56  75 106 140 171 212 260 310
#     4  11  20  33  52  80 112 137 166 214 269 312
#     4  11  21  34  54  81 105 134 179 219 254 300
#     4   9  19  34  54  77 104 141 174 205 261 320
#     4  10  19  35  56  77 103 139 179 212 252 313
#     4   9  17  32  53  76 103 135 172 215 256 300
#
# _framework density 19.164269000000001
#
# number of rings (size 3 to 8) (size 9 to 14) (size 15 to 20)
#    0.000    2.000    3.333    1.500    0.000    0.333 
#    0.000    5.000    0.000    0.000    0.000    0.000 
#    0.000    0.000    0.000    0.000    0.000    0.000 
#
# Total GULP energy -297597.393333 kJ/mol
# GULP energy per Si atom -12399.891389 kJ/mol
# Density = 1.912065 g / cm^3
# Si number density = 19.164269 Si / 1000 Ang^3
#
#
#
# Elastic Constant Matrix: (Units=GPa)
#
#
# Indices 1 2 3 4 5 6 
#
# 1 117.0020 0.7953 90.3656 0.0000 -8.9251 0.0000
# 2 0.7953 15.7344 14.2604 0.0000 -0.5547 0.0000
# 3 90.3656 14.2604 180.3439 0.0000 -8.2336 0.0000
# 4 0.0000 0.0000 0.0000 19.1570 0.0000 7.4719
# 5 -8.9251 -0.5547 -8.2336 0.0000 40.7938 0.0000
# 6 0.0000 0.0000 0.0000 7.4719 0.0000 19.8959
#
#
#
# Elastic Compliance Matrix: (Units=1/GPa)
#
#
# Indices 1 2 3 4 5 6 
#
# 1 0.014620 0.006344 -0.007749 0.000000 0.001721 0.000000
# 2 0.006344 0.071215 -0.008784 0.000000 0.000584 0.000000
# 3 -0.007749 -0.008784 0.010133 0.000000 0.000230 0.000000
# 4 0.000000 0.000000 0.000000 0.061159 0.000000 -0.022968
# 5 0.001721 0.000584 0.000230 0.000000 0.024945 0.000000
# 6 0.000000 0.000000 0.000000 -0.022968 0.000000 0.058887
#
#
# Mechanical properties :
#
#
# Convention : Reuss Voigt Hill
#
# Bulk Modulus (GPa) = 13.22890 58.21365 35.72128
# Shear Modulus (GPa) = 17.45011 29.81327 23.63169
#
# Velocity S-wave (km/s) = 3.02081 3.94848 3.51538
# Velocity P-wave (km/s) = 4.36863 7.15747 5.92935
#
# Compressibility (1/GPa) = 0.07559208
#
# Stress axis : x y z
#
# Youngs Moduli (GPa) = 68.40147 14.04190 98.69093
#
# Poissons Ratio (x) = -0.08909 0.76472
# Poissons Ratio (y) = -0.43397 0.86686
# Poissons Ratio (z) = 0.53001 0.12334
#
# Static dielectric constant tensor:
#      x y z
#    x 3.663930 0.000000 -0.171750 
#    y 0.000000 3.070190 0.000000 
#    z -0.171750 0.000000 3.808490 
# 
# 
# High freq. dielectric constant tensor:
#      x y z
#    x 1.743710 0.000000 -0.001060 
#    y 0.000000 1.709510 0.000000 
#    z -0.001060 0.000000 1.751050 
# 
# From -- ./inp_files/291692.got.cif
#   From: 2010.06.25/outbox.cif.g09.slc.cpg/sg12_146_cif.got.tgz:291692.got - 2010.06.28 00:19:55.
