data_PCOD8092403
_publ_section_title
;
Structure prediction by ZEFSAII (Michael W. Deem and Ramdas Pophale) SiO2 
 PCOD8092403
Probable space group: C 2/M
;
_chemical_formula_sum "Si O2"
_cell_formula_units_Z 56
_cell_length_a 18.572032
_cell_length_b 11.550093
_cell_length_c 24.594188
_cell_angle_alpha 90.000000
_cell_angle_beta 144.619935
_cell_angle_gamma 90.000000
_cell_volume 3054.598281
_symmetry_space_group_name_H-M "C 2/M"
_symmetry_group_IT_number 12
_symmetry_cell_setting 'monoclinic'
loop_
_space_group_symop_operation_xyz
x,y,z
-x,y,-z
-x,-y,-z
x,-y,z
1/2+x,1/2+y,z
1/2-x,1/2+y,-z
1/2-x,1/2-y,-z
1/2+x,1/2-y,z
loop_
_atom_site_type_symbol
_atom_site_label
_atom_site_fract_x
_atom_site_fract_y
_atom_site_fract_z
Si Si1 0.229968 0.290883 0.905776
Si Si2 0.876327 0.868435 0.897795
Si Si3 0.139704 0.632244 0.576043
Si Si4 0.232489 0.867701 0.454486
Si Si5 0.092849 0.372206 0.922376
Si Si6 0.507067 0.626113 0.764524
Si Si7 0.631872 0.276764 0.225227
O O1 0.266037 0.361037 0.874010
O O2 0.178370 0.374945 0.920868
O O3 0.119084 0.208899 0.819414
O O4 0.350611 0.220378 0.000853
O O5 0.843027 0.804312 0.821925
O O6 0.901524 0.000000 0.897234
O O7 0.000000 0.812914 0.000000
O O8 0.161209 0.500000 0.611160
O O9 0.159314 0.634789 0.523615
O O10 0.232366 0.723154 0.662896
O O11 0.000000 0.674807 0.500000
O O12 0.250000 0.750000 0.500000
O O13 0.100569 0.850862 0.344797
O O14 0.237139 0.000000 0.485064
O O15 0.096761 0.500000 0.950356
O O16 0.947484 0.342728 0.820072
O O17 0.564205 0.500000 0.793115
O O18 0.454997 0.634359 0.794307
#
# Coordination Sequence:
#
# PCOD8092403 Si02
#       7
#     8   8   8   8   8   8   8
#     4  10  20  34  51  78 102 133 177 218 261 307
#     4  11  21  33  50  77 108 134 168 220 272 310
#     4   9  18  34  57  82 105 136 180 223 267 321
#     4   9  18  34  56  84 110 139 176 225 277 325
#     4  10  20  35  53  73 102 140 178 215 256 311
#     4   9  18  34  56  77 103 140 181 215 257 319
#     4  10  19  35  54  76 105 139 174 214 265 316
#
# _framework density 18.333016000000001
#
# number of rings (size 3 to 8) (size 9 to 14) (size 15 to 20)
#    0.000    2.286    1.429    3.000    0.000    1.143 
#    0.000   10.714    0.000    1.714    0.000    0.000 
#    0.000    0.000    0.000    0.000    0.000    0.000 
#
# Total GULP energy -346866.099792 kJ/mol
# GULP energy per Si atom -12388.074993 kJ/mol
# Density = 1.829129 g / cm^3
# Si number density = 18.333016 Si / 1000 Ang^3
#
#
#
# Elastic Constant Matrix: (Units=GPa)
#
#
# Indices 1 2 3 4 5 6 
#
# 1 87.1807 17.4159 33.6910 0.0000 0.5212 0.0000
# 2 17.4159 83.8822 34.9713 0.0000 -1.5183 0.0000
# 3 33.6910 34.9713 69.4971 0.0000 11.5706 0.0000
# 4 0.0000 0.0000 0.0000 18.3364 0.0000 -3.1121
# 5 0.5212 -1.5183 11.5706 0.0000 36.5816 0.0000
# 6 0.0000 0.0000 0.0000 -3.1121 0.0000 16.6150
#
#
#
# Elastic Compliance Matrix: (Units=1/GPa)
#
#
# Indices 1 2 3 4 5 6 
#
# 1 0.014266 0.000136 -0.007338 0.000000 0.002123 0.000000
# 2 0.000136 0.015450 -0.008389 0.000000 0.003293 0.000000
# 3 -0.007338 -0.008389 0.023443 0.000000 -0.007658 0.000000
# 4 0.000000 0.000000 0.000000 0.056327 0.000000 0.010550
# 5 0.002123 0.003293 -0.007658 0.000000 0.029865 0.000000
# 6 0.000000 0.000000 0.000000 0.010550 0.000000 0.062163
#
#
# Mechanical properties :
#
#
# Convention : Reuss Voigt Hill
#
# Bulk Modulus (GPa) = 45.50094 45.85739 45.67917
# Shear Modulus (GPa) = 20.83152 24.60538 22.71845
#
# Velocity S-wave (km/s) = 3.37454 3.66749 3.52406
# Velocity P-wave (km/s) = 6.32901 6.55758 6.44431
#
# Compressibility (1/GPa) = 0.02197757
#
# Stress axis : x y z
#
# Youngs Moduli (GPa) = 70.09495 64.72410 42.65745
#
# Poissons Ratio (x) = -0.00878 0.31301
# Poissons Ratio (y) = -0.00951 0.35783
# Poissons Ratio (z) = 0.51435 0.54294
#
# Static dielectric constant tensor:
#      x y z
#    x 3.319940 0.000000 0.108430 
#    y 0.000000 3.256700 0.000000 
#    z 0.108430 0.000000 3.387680 
# 
# 
# High freq. dielectric constant tensor:
#      x y z
#    x 1.706310 0.000000 0.009710 
#    y 0.000000 1.691230 0.000000 
#    z 0.009710 0.000000 1.703360 
# 
# From -- ./inp_files/213396.got.cif
#   From: 2010.06.25/outbox.cif.g09.slc.cpg/sg12_107_cif.got.tgz:213396.got - 2010.06.28 00:19:55.
