data_PCOD8092162
_publ_section_title
;
Structure prediction by ZEFSAII (Michael W. Deem and Ramdas Pophale) SiO2 
 PCOD8092162
Probable space group: C 2/M
;
_chemical_formula_sum "Si O2"
_cell_formula_units_Z 64
_cell_length_a 21.638760
_cell_length_b 8.451163
_cell_length_c 22.153577
_cell_angle_alpha 90.000000
_cell_angle_beta 51.864045
_cell_angle_gamma 90.000000
_cell_volume 3186.528072
_symmetry_space_group_name_H-M "C 2/M"
_symmetry_group_IT_number 12
_symmetry_cell_setting 'monoclinic'
loop_
_space_group_symop_operation_xyz
x,y,z
-x,y,-z
-x,-y,-z
x,-y,z
1/2+x,1/2+y,z
1/2-x,1/2+y,-z
1/2-x,1/2-y,-z
1/2+x,1/2-y,z
loop_
_atom_site_type_symbol
_atom_site_label
_atom_site_fract_x
_atom_site_fract_y
_atom_site_fract_z
Si Si1 0.767922 0.183968 0.664656
Si Si2 0.795860 0.818952 0.414822
Si Si3 0.235376 0.816304 0.810763
Si Si4 0.083504 0.812597 0.974623
Si Si5 0.537338 0.318922 0.637271
Si Si6 0.383135 0.686354 0.791529
Si Si7 0.661514 0.312049 0.051257
Si Si8 0.920222 0.176309 0.513904
O O1 0.717468 0.211637 0.635437
O O2 0.733878 0.283326 0.740554
O O3 0.854559 0.254690 0.596239
O O4 0.768880 0.000000 0.682661
O O5 0.750000 0.750000 0.500000
O O6 0.889582 0.809549 0.362432
O O7 0.768456 0.000000 0.421919
O O8 0.151753 0.759375 0.887348
O O9 0.305492 0.724250 0.800777
O O10 0.248081 0.000000 0.816292
O O11 0.075540 0.000000 0.982495
O O12 0.109774 0.748787 0.025402
O O13 0.000000 0.742316 0.000000
O O14 0.515065 0.500000 0.634418
O O15 0.460350 0.237198 0.713115
O O16 0.564141 0.232600 0.558652
O O17 0.393699 0.500000 0.787663
O O18 0.379012 0.749951 0.862670
O O19 0.666083 0.500000 0.045397
O O20 0.750000 0.250000 0.000000
O O21 0.000000 0.168467 0.500000
O O22 0.887313 0.000000 0.518839
#
# Coordination Sequence:
#
# PCOD8092162 Si02
#       8
#     8   8   8   8   8   8   8   8
#     4  11  22  37  58  82 112 153 197 238 287 350
#     4  11  21  37  59  82 113 153 197 241 289 343
#     4  11  22  37  58  86 119 152 189 243 302 347
#     4   9  19  36  59  86 119 158 200 242 288 352
#     4   9  18  33  54  83 111 144 191 235 276 336
#     4  10  20  35  60  88 114 149 196 243 287 346
#     4  10  19  34  59  88 115 152 194 238 291 349
#     4   9  16  29  52  77 103 140 185 228 270 324
#
# _framework density 20.084555999999999
#
# number of rings (size 3 to 8) (size 9 to 14) (size 15 to 20)
#    0.000    2.000    2.500    1.875    0.000    3.000 
#    0.000    5.000    0.000    6.375    0.000    0.000 
#    0.000    0.000    0.000    0.000    0.000    0.000 
#
# Total GULP energy -396597.791991 kJ/mol
# GULP energy per Si atom -12393.681000 kJ/mol
# Density = 2.003884 g / cm^3
# Si number density = 20.084556 Si / 1000 Ang^3
#
#
#
# Elastic Constant Matrix: (Units=GPa)
#
#
# Indices 1 2 3 4 5 6 
#
# 1 126.2934 2.5216 60.8260 -0.0003 -2.6461 -0.0003
# 2 2.5216 18.5119 9.5033 -0.0006 -3.5768 -0.0008
# 3 60.8260 9.5033 163.3381 -0.0004 0.9082 0.0003
# 4 -0.0003 -0.0006 -0.0004 25.9016 0.0000 -2.0446
# 5 -2.6461 -3.5768 0.9082 0.0000 43.1942 0.0000
# 6 -0.0003 -0.0008 0.0003 -2.0446 0.0000 28.5183
#
#
#
# Elastic Compliance Matrix: (Units=1/GPa)
#
#
# Indices 1 2 3 4 5 6 
#
# 1 0.009676 0.000695 -0.003648 0.000000 0.000727 0.000000
# 2 0.000695 0.056694 -0.003584 0.000001 0.004813 0.000002
# 3 -0.003648 -0.003584 0.007693 0.000000 -0.000682 0.000000
# 4 0.000000 0.000001 0.000000 0.038827 0.000000 0.002784
# 5 0.000727 0.004813 -0.000682 0.000000 0.023609 0.000000
# 6 0.000000 0.000002 0.000000 0.002784 0.000000 0.035265
#
#
# Mechanical properties :
#
#
# Convention : Reuss Voigt Hill
#
# Bulk Modulus (GPa) = 16.39620 50.42725 33.41172
# Shear Modulus (GPa) = 24.37021 35.20898 29.78959
#
# Velocity S-wave (km/s) = 3.48714 4.19147 3.85542
# Velocity P-wave (km/s) = 4.93911 6.97041 6.04075
#
# Compressibility (1/GPa) = 0.06098976
#
# Stress axis : x y z
#
# Youngs Moduli (GPa) = 103.34492 17.63845 129.98754
#
# Poissons Ratio (x) = -0.01226 0.47418
# Poissons Ratio (y) = -0.07183 0.46590
# Poissons Ratio (z) = 0.37699 0.06322
#
# Static dielectric constant tensor:
#      x y z
#    x 3.735940 0.000000 0.019520 
#    y 0.000000 3.377450 0.000000 
#    z 0.019520 0.000000 4.162760 
# 
# 
# High freq. dielectric constant tensor:
#      x y z
#    x 1.790370 0.000000 0.002210 
#    y 0.000000 1.738940 0.000000 
#    z 0.002210 0.000000 1.800890 
# 
# From -- ./inp_files/324123.got.cif
#   From: 2010.06.25/outbox.cif.g09.slc.cpg/sg12_163_cif.got.tgz:324123.got - 2010.06.28 00:19:55.
