data_PCOD8092190
_publ_section_title
;
Structure prediction by ZEFSAII (Michael W. Deem and Ramdas Pophale) SiO2 
 PCOD8092190
Probable space group: C 2/M
;
_chemical_formula_sum "Si O2"
_cell_formula_units_Z 64
_cell_length_a 28.069871
_cell_length_b 9.393725
_cell_length_c 14.991364
_cell_angle_alpha 90.000000
_cell_angle_beta 50.469340
_cell_angle_gamma 90.000000
_cell_volume 3048.834038
_symmetry_space_group_name_H-M "C 2/M"
_symmetry_group_IT_number 12
_symmetry_cell_setting 'monoclinic'
loop_
_space_group_symop_operation_xyz
x,y,z
-x,y,-z
-x,-y,-z
x,-y,z
1/2+x,1/2+y,z
1/2-x,1/2+y,-z
1/2-x,1/2-y,-z
1/2+x,1/2-y,z
loop_
_atom_site_type_symbol
_atom_site_label
_atom_site_fract_x
_atom_site_fract_y
_atom_site_fract_z
Si Si1 0.850730 0.839242 0.147709
Si Si2 0.023487 0.256668 0.065592
Si Si3 0.139406 0.836048 0.487933
Si Si4 0.432714 0.156332 0.805838
Si Si5 0.737254 0.333838 0.230594
Si Si6 0.468032 0.161859 0.443890
Si Si7 0.893355 0.163236 0.281744
Si Si8 0.695540 0.172020 0.115707
O O1 0.805942 0.732767 0.148048
O O2 0.856710 0.773253 0.240524
O O3 0.823854 0.000000 0.177720
O O4 0.919882 0.848834 0.024269
O O5 0.051543 0.360127 0.107628
O O6 0.966968 0.177069 0.180783
O O7 0.000000 0.330530 0.000000
O O8 0.207905 0.820002 0.364799
O O9 0.093585 0.754060 0.476935
O O10 0.132578 0.767277 0.595602
O O11 0.119074 0.000000 0.514890
O O12 0.487466 0.232438 0.685057
O O13 0.365863 0.223215 0.864383
O O14 0.429124 0.000000 0.767544
O O15 0.741244 0.500000 0.196052
O O16 0.694493 0.240888 0.215465
O O17 0.500000 0.171654 0.500000
O O18 0.449931 0.000000 0.441065
O O19 0.875834 0.000000 0.304993
O O20 0.704114 0.000000 0.108443
O O21 0.750000 0.250000 0.000000
#
# Coordination Sequence:
#
# PCOD8092190 Si02
#       8
#     8   8   8   8   8   8   8   8
#     4  10  21  37  61  89 117 156 208 253 301 365
#     4  10  19  34  59  89 121 155 193 246 304 365
#     4  10  21  38  60  84 117 158 199 249 303 356
#     4  10  21  36  55  84 119 153 192 240 298 361
#     4  11  24  41  59  86 123 160 202 250 301 361
#     4  10  20  36  58  83 113 151 195 243 297 356
#     4   9  18  36  59  86 119 154 197 253 308 358
#     4  11  23  41  64  87 119 161 204 249 299 353
#
# _framework density 20.991631999999999
#
# number of rings (size 3 to 8) (size 9 to 14) (size 15 to 20)
#    0.000    1.875    1.250    2.625    0.000    6.000 
#    0.000    5.625    0.000    0.000    0.000    0.000 
#    0.000    0.000    0.000    0.000    0.000    0.000 
#
# Total GULP energy -396451.480865 kJ/mol
# GULP energy per Si atom -12389.108777 kJ/mol
# Density = 2.094385 g / cm^3
# Si number density = 20.991632 Si / 1000 Ang^3
#
#
#
# Elastic Constant Matrix: (Units=GPa)
#
#
# Indices 1 2 3 4 5 6 
#
# 1 121.8902 34.1523 36.8906 0.0000 6.4900 0.0000
# 2 34.1523 76.0336 23.0149 0.0000 0.1173 0.0001
# 3 36.8906 23.0149 110.5828 0.0000 10.3021 0.0000
# 4 0.0000 0.0000 0.0000 25.0367 0.0000 2.2342
# 5 6.4900 0.1173 10.3021 0.0000 34.7299 0.0000
# 6 0.0000 0.0001 0.0000 2.2342 0.0000 22.1180
#
#
#
# Elastic Compliance Matrix: (Units=1/GPa)
#
#
# Indices 1 2 3 4 5 6 
#
# 1 0.010069 -0.003774 -0.002468 0.000000 -0.001137 0.000000
# 2 -0.003774 0.015475 -0.002080 0.000000 0.001270 0.000000
# 3 -0.002468 -0.002080 0.010547 0.000000 -0.002660 0.000000
# 4 0.000000 0.000000 0.000000 0.040305 0.000000 -0.004071
# 5 -0.001137 0.001270 -0.002660 0.000000 0.029791 0.000000
# 6 0.000000 0.000000 0.000000 -0.004071 0.000000 0.045623
#
#
# Mechanical properties :
#
#
# Convention : Reuss Voigt Hill
#
# Bulk Modulus (GPa) = 51.42049 55.18026 53.30037
# Shear Modulus (GPa) = 28.58198 30.67352 29.62775
#
# Velocity S-wave (km/s) = 3.69398 3.82675 3.76095
# Velocity P-wave (km/s) = 6.53780 6.77268 6.65627
#
# Compressibility (1/GPa) = 0.01944750
#
# Stress axis : x y z
#
# Youngs Moduli (GPa) = 99.31568 64.62078 94.81409
#
# Poissons Ratio (x) = 0.24388 0.23397
# Poissons Ratio (y) = 0.37482 0.19721
# Poissons Ratio (z) = 0.24507 0.13441
#
# Static dielectric constant tensor:
#      x y z
#    x 3.961020 0.000000 0.226090 
#    y 0.000000 3.498050 0.000000 
#    z 0.226090 0.000000 4.070700 
# 
# 
# High freq. dielectric constant tensor:
#      x y z
#    x 1.824480 0.000000 0.007200 
#    y 0.000000 1.789020 0.000000 
#    z 0.007200 0.000000 1.837520 
# 
# From -- ./inp_files/249810.got.cif
#   From: 2010.06.25/outbox.cif.g09.slc.cpg/sg12_125_cif.got.tgz:249810.got - 2010.06.28 00:19:55.
