data_PCOD8092541
_publ_section_title
;
Structure prediction by ZEFSAII (Michael W. Deem and Ramdas Pophale) SiO2 
 PCOD8092541
Probable space group: C 2/M
;
_chemical_formula_sum "Si O2"
_cell_formula_units_Z 64
_cell_length_a 14.183186
_cell_length_b 8.802798
_cell_length_c 31.392988
_cell_angle_alpha 90.000000
_cell_angle_beta 63.141215
_cell_angle_gamma 90.000000
_cell_volume 3496.647105
_symmetry_space_group_name_H-M "C 2/M"
_symmetry_group_IT_number 12
_symmetry_cell_setting 'monoclinic'
loop_
_space_group_symop_operation_xyz
x,y,z
-x,y,-z
-x,-y,-z
x,-y,z
1/2+x,1/2+y,z
1/2-x,1/2+y,-z
1/2-x,1/2-y,-z
1/2+x,1/2-y,z
loop_
_atom_site_type_symbol
_atom_site_label
_atom_site_fract_x
_atom_site_fract_y
_atom_site_fract_z
Si Si1 0.347677 0.319410 0.250000
Si Si2 0.899673 0.324172 0.493194
Si Si3 0.171794 0.824927 0.575590
Si Si4 0.637579 0.178759 0.250000
Si Si5 0.442641 0.178821 0.823321
Si Si6 0.822973 0.175073 0.924410
Si Si7 0.386062 0.324172 0.006806
Si Si8 0.410717 0.821180 0.323321
O O1 0.349235 0.500000 0.249999
O O2 0.241802 0.250515 0.250000
O O3 0.444628 0.260659 0.201904
O O4 0.348441 0.260664 0.298095
O O5 0.909481 0.500000 0.477947
O O6 0.896771 0.224806 0.451119
O O7 0.795387 0.295422 0.542342
O O8 0.000000 0.270281 0.500000
O O9 0.139726 0.723500 0.621862
O O10 0.148080 0.000000 0.590292
O O11 0.627612 0.230973 0.202845
O O12 0.533303 0.230963 0.297157
O O13 0.648430 0.000000 0.249997
O O14 0.383448 0.223499 0.878138
O O15 0.462986 0.000000 0.818112
O O16 0.880071 0.204578 0.957658
O O17 0.828663 0.000000 0.909708
O O18 0.700991 0.224806 0.951119
O O19 0.365375 0.500000 0.022053
O O20 0.500000 0.270282 0.000000
O O21 0.400784 0.000000 0.318113
#
# Coordination Sequence:
#
# PCOD8092541 Si02
#       8
#     8   8   8   8   8   8   8   8
#     4  10  19  35  56  77 100 129 171 216 250 288
#     4   9  19  36  55  74 101 138 174 209 256 312
#     4  10  20  34  53  78 104 132 171 216 256 296
#     4   8  18  35  54  73  98 135 171 202 244 304
#     4  10  20  36  54  75 105 139 170 203 254 312
#     4  10  20  34  53  78 104 132 171 216 256 296
#     4   9  19  36  55  74 101 138 174 209 256 312
#     4  10  20  36  54  75 105 139 170 203 254 312
#
# _framework density 18.303248
#
# number of rings (size 3 to 8) (size 9 to 14) (size 15 to 20)
#    0.000    2.500    0.000    2.625    0.000    3.500 
#    0.000   17.500    0.000    0.000    0.000    0.000 
#    0.000    0.000    0.000    0.000    0.000    0.000 
#
# Total GULP energy -396856.602145 kJ/mol
# GULP energy per Si atom -12401.768817 kJ/mol
# Density = 1.826159 g / cm^3
# Si number density = 18.303248 Si / 1000 Ang^3
#
#
#
# Elastic Constant Matrix: (Units=GPa)
#
#
# Indices 1 2 3 4 5 6 
#
# 1 162.4123 38.9731 51.1854 0.0000 -0.0026 0.0000
# 2 38.9731 65.9549 33.6504 0.0000 -0.0005 0.0000
# 3 51.1854 33.6504 105.4443 0.0000 -0.0016 0.0000
# 4 0.0000 0.0000 0.0000 35.2457 0.0000 -0.0002
# 5 -0.0026 -0.0005 -0.0016 0.0000 10.9622 0.0000
# 6 0.0000 0.0000 0.0000 -0.0002 0.0000 26.6727
#
#
#
# Elastic Compliance Matrix: (Units=1/GPa)
#
#
# Indices 1 2 3 4 5 6 
#
# 1 0.007795 -0.003196 -0.002764 0.000000 0.000001 0.000000
# 2 -0.003196 0.019421 -0.004646 0.000000 -0.000001 0.000000
# 3 -0.002764 -0.004646 0.012308 0.000000 0.000001 0.000000
# 4 0.000000 0.000000 0.000000 0.028372 0.000000 0.000000
# 5 0.000001 -0.000001 0.000001 0.000000 0.091223 0.000000
# 6 0.000000 0.000000 0.000000 0.000000 0.000000 0.037491
#
#
# Mechanical properties :
#
#
# Convention : Reuss Voigt Hill
#
# Bulk Modulus (GPa) = 54.61039 64.60328 59.60684
# Shear Modulus (GPa) = 22.32864 28.57629 25.45247
#
# Velocity S-wave (km/s) = 3.49654 3.95558 3.73312
# Velocity P-wave (km/s) = 6.79722 7.49899 7.15671
#
# Compressibility (1/GPa) = 0.01831153
#
# Stress axis : x y z
#
# Youngs Moduli (GPa) = 128.28399 51.49058 81.24647
#
# Poissons Ratio (x) = 0.16456 0.22457
# Poissons Ratio (y) = 0.41000 0.37750
# Poissons Ratio (z) = 0.35458 0.23925
#
# Static dielectric constant tensor:
#      x y z
#    x 3.605770 0.000000 0.000010 
#    y 0.000000 3.314300 0.000000 
#    z 0.000010 0.000000 3.292730 
# 
# 
# High freq. dielectric constant tensor:
#      x y z
#    x 1.713830 0.000000 0.000000 
#    y 0.000000 1.707830 0.000000 
#    z 0.000000 0.000000 1.710130 
# 
# From -- ./inp_files/375057.got.cif
#   From: 2010.06.25/outbox.cif.g09.slc.cpg/sg12_188_cif.got.tgz:375057.got - 2010.06.28 00:19:55.
