data_PCOD8092611
_publ_section_title
;
Structure prediction by ZEFSAII (Michael W. Deem and Ramdas Pophale) SiO2 
 PCOD8092611
Probable space group: C 2/M
;
_chemical_formula_sum "Si O2"
_cell_formula_units_Z 48
_cell_length_a 7.757353
_cell_length_b 21.146468
_cell_length_c 21.909627
_cell_angle_alpha 90.000000
_cell_angle_beta 41.099002
_cell_angle_gamma 90.000000
_cell_volume 2362.604640
_symmetry_space_group_name_H-M "C 2/M"
_symmetry_group_IT_number 12
_symmetry_cell_setting 'monoclinic'
loop_
_space_group_symop_operation_xyz
x,y,z
-x,y,-z
-x,-y,-z
x,-y,z
1/2+x,1/2+y,z
1/2-x,1/2+y,-z
1/2-x,1/2-y,-z
1/2+x,1/2-y,z
loop_
_atom_site_type_symbol
_atom_site_label
_atom_site_fract_x
_atom_site_fract_y
_atom_site_fract_z
Si Si1 0.140349 0.071187 0.184572
Si Si2 0.154467 0.881171 0.316357
Si Si3 0.591478 0.880329 0.293347
Si Si4 0.871698 0.694560 0.096394
Si Si5 0.227992 0.070560 0.487514
Si Si6 0.835600 0.249640 0.224273
O O1 0.867227 0.082845 0.221606
O O2 0.126982 0.081421 0.260737
O O3 0.363431 0.118167 0.097980
O O4 0.231389 0.000000 0.146982
O O5 0.402285 0.907672 0.290072
O O6 0.190298 0.806198 0.297596
O O7 0.880366 0.892358 0.424575
O O8 0.462864 0.889416 0.394545
O O9 0.625537 0.806053 0.269123
O O10 0.008228 0.725129 0.119093
O O11 0.576086 0.716856 0.195439
O O12 0.000000 0.719837 0.000000
O O13 0.000000 0.063812 0.500000
O O14 0.326553 0.000000 0.479463
#
# Coordination Sequence:
#
# PCOD8092611 Si02
#       6
#     8   8   8   8   8   8
#     4  10  22  36  56  84 109 147 189 221 276 330
#     4  10  20  36  56  80 115 149 184 229 270 319
#     4  10  20  36  56  80 115 149 184 229 270 319
#     4  10  20  35  57  81 106 139 179 231 279 332
#     4   9  18  32  53  79 107 150 193 220 262 316
#     4  10  19  35  56  82 108 142 184 221 285 330
#
# _framework density 20.316559000000002
#
# number of rings (size 3 to 8) (size 9 to 14) (size 15 to 20)
#    0.000    2.167    1.667    1.500    0.000    3.667 
#    0.000    1.667    0.000    0.000    0.000    4.667 
#    0.000    0.000    0.000    0.000    0.000    0.000 
#
# Total GULP energy -297342.060488 kJ/mol
# GULP energy per Si atom -12389.252520 kJ/mol
# Density = 2.027032 g / cm^3
# Si number density = 20.316559 Si / 1000 Ang^3
#
#
#
# Elastic Constant Matrix: (Units=GPa)
#
#
# Indices 1 2 3 4 5 6 
#
# 1 55.4980 5.8043 0.8402 -0.0001 8.1432 0.0011
# 2 5.8043 134.9195 37.6240 -0.0001 1.6113 -0.0001
# 3 0.8402 37.6240 91.2550 0.0004 14.6153 0.0000
# 4 -0.0001 -0.0001 0.0004 14.3818 -0.0001 -2.8954
# 5 8.1432 1.6113 14.6153 -0.0001 22.9986 -0.0004
# 6 0.0011 -0.0001 0.0000 -2.8954 -0.0004 14.4420
#
#
#
# Elastic Compliance Matrix: (Units=1/GPa)
#
#
# Indices 1 2 3 4 5 6 
#
# 1 0.019249 -0.001165 0.001538 0.000000 -0.007711 -0.000002
# 2 -0.001165 0.008512 -0.003862 0.000000 0.002271 0.000000
# 3 0.001538 -0.003862 0.014006 -0.000001 -0.009175 -0.000001
# 4 0.000000 0.000000 -0.000001 0.072457 0.000001 0.014527
# 5 -0.007711 0.002271 -0.009175 0.000001 0.051882 0.000002
# 6 -0.000002 0.000000 -0.000001 0.014527 0.000002 0.072155
#
#
# Mechanical properties :
#
#
# Convention : Reuss Voigt Hill
#
# Bulk Modulus (GPa) = 28.74537 41.13440 34.93989
# Shear Modulus (GPa) = 19.46774 26.19142 22.82958
#
# Velocity S-wave (km/s) = 3.09887 3.59439 3.35579
# Velocity P-wave (km/s) = 5.19456 6.12510 5.67892
#
# Compressibility (1/GPa) = 0.03478821
#
# Stress axis : x y z
#
# Youngs Moduli (GPa) = 51.95161 117.48271 71.39819
#
# Poissons Ratio (x) = 0.13686 -0.10982
# Poissons Ratio (y) = 0.06052 0.27576
# Poissons Ratio (z) = -0.07991 0.45376
#
# Static dielectric constant tensor:
#      x y z
#    x 3.683080 0.000000 0.077660 
#    y 0.000000 3.833250 0.000000 
#    z 0.077660 0.000000 3.490060 
# 
# 
# High freq. dielectric constant tensor:
#      x y z
#    x 1.796260 0.000000 0.010410 
#    y 0.000000 1.792980 0.000000 
#    z 0.010410 0.000000 1.773980 
# 
# From -- ./inp_files/196488.got.cif
#   From: 2010.06.25/outbox.cif.g09.slc.cpg/sg12_99_cif.got.tgz:196488.got - 2010.06.28 00:19:55.
