data_PCOD8092723
_publ_section_title
;
Structure prediction by ZEFSAII (Michael W. Deem and Ramdas Pophale) SiO2 
 PCOD8092723
Probable space group: C 2/M
;
_chemical_formula_sum "Si O2"
_cell_formula_units_Z 64
_cell_length_a 20.821182
_cell_length_b 8.652467
_cell_length_c 23.479125
_cell_angle_alpha 90.000000
_cell_angle_beta 130.028938
_cell_angle_gamma 90.000000
_cell_volume 3238.896414
_symmetry_space_group_name_H-M "C 2/M"
_symmetry_group_IT_number 12
_symmetry_cell_setting 'monoclinic'
loop_
_space_group_symop_operation_xyz
x,y,z
-x,y,-z
-x,-y,-z
x,-y,z
1/2+x,1/2+y,z
1/2-x,1/2+y,-z
1/2-x,1/2-y,-z
1/2+x,1/2-y,z
loop_
_atom_site_type_symbol
_atom_site_label
_atom_site_fract_x
_atom_site_fract_y
_atom_site_fract_z
Si Si1 0.367422 0.174329 0.799699
Si Si2 0.776674 0.684187 0.575297
Si Si3 0.713635 0.183292 0.649609
Si Si4 0.475460 0.678204 0.155534
Si Si5 0.821983 0.682764 0.003451
Si Si6 0.112257 0.681131 0.697671
Si Si7 0.530339 0.816990 0.303512
Si Si8 0.734365 0.175279 0.150048
O O1 0.289024 0.216688 0.716641
O O2 0.437672 0.300101 0.827636
O O3 0.343900 0.184226 0.852059
O O4 0.396348 0.000000 0.799457
O O5 0.768798 0.500000 0.572251
O O6 0.750000 0.750000 0.500000
O O7 0.710174 0.760200 0.582174
O O8 0.873058 0.740161 0.640910
O O9 0.632151 0.228130 0.642672
O O10 0.730139 0.000000 0.661952
O O11 0.452602 0.500000 0.149527
O O12 0.409282 0.759193 0.077137
O O13 0.480536 0.752108 0.220890
O O14 0.822426 0.500000 0.004531
O O15 0.750000 0.750000 0.000000
O O16 0.802620 0.745594 0.929096
O O17 0.110634 0.500000 0.700310
O O18 0.021818 0.741423 0.669810
O O19 0.186117 0.731930 0.781957
O O20 0.529404 0.000000 0.299583
O O21 0.765276 0.000000 0.159287
#
# Coordination Sequence:
#
# PCOD8092723 Si02
#       8
#     8   8   8   8   8   8   8   8
#     4  10  19  35  57  81 109 146 189 234 284 339
#     4  11  23  39  62  88 118 154 192 234 287 343
#     4  10  19  35  59  88 119 149 187 232 283 342
#     4  12  24  36  55  83 113 148 191 240 291 341
#     4  11  23  39  55  76 109 149 192 240 294 348
#     4   9  19  35  59  87 115 150 191 237 284 337
#     4  10  21  39  61  86 115 151 194 237 285 343
#     4   9  20  36  55  79 110 148 191 236 287 341
#
# _framework density 19.759817000000002
#
# number of rings (size 3 to 8) (size 9 to 14) (size 15 to 20)
#    0.000    1.750    1.250    3.375    0.000    5.500 
#    0.000    3.125    0.000    3.750    0.000    0.000 
#    0.000    0.000    0.000    0.000    0.000    0.000 
#
# Total GULP energy -396607.209285 kJ/mol
# GULP energy per Si atom -12393.975290 kJ/mol
# Density = 1.971484 g / cm^3
# Si number density = 19.759817 Si / 1000 Ang^3
#
#
#
# Elastic Constant Matrix: (Units=GPa)
#
#
# Indices 1 2 3 4 5 6 
#
# 1 120.5567 26.7076 33.6611 0.0000 -25.3731 0.0000
# 2 26.7076 29.4510 12.7675 0.0000 -7.9135 0.0000
# 3 33.6611 12.7675 88.6541 0.0000 -30.6247 0.0000
# 4 0.0000 0.0000 0.0000 28.4453 0.0000 -0.2419
# 5 -25.3731 -7.9135 -30.6247 0.0000 27.8117 0.0000
# 6 0.0000 0.0000 0.0000 -0.2419 0.0000 25.3125
#
#
#
# Elastic Compliance Matrix: (Units=1/GPa)
#
#
# Indices 1 2 3 4 5 6 
#
# 1 0.012005 -0.008509 -0.000623 0.000000 0.007846 0.000000
# 2 -0.008509 0.043205 -0.002302 0.000000 0.001996 0.000000
# 3 -0.000623 -0.002302 0.018439 0.000000 0.019081 0.000000
# 4 0.000000 0.000000 0.000000 0.035158 0.000000 0.000336
# 5 0.007846 0.001996 0.019081 0.000000 0.064693 0.000000
# 6 0.000000 0.000000 0.000000 0.000336 0.000000 0.039509
#
#
# Mechanical properties :
#
#
# Convention : Reuss Voigt Hill
#
# Bulk Modulus (GPa) = 19.69177 42.77048 31.23112
# Shear Modulus (GPa) = 19.77823 27.34895 23.56359
#
# Velocity S-wave (km/s) = 3.16718 3.72434 3.45701
# Velocity P-wave (km/s) = 4.83342 6.33928 5.63686
#
# Compressibility (1/GPa) = 0.05078264
#
# Stress axis : x y z
#
# Youngs Moduli (GPa) = 83.29928 23.14548 54.23263
#
# Poissons Ratio (x) = 0.19694 0.03376
# Poissons Ratio (y) = 0.70876 0.12485
# Poissons Ratio (z) = 0.05185 0.05328
#
# Static dielectric constant tensor:
#      x y z
#    x 4.502040 0.000000 -0.339000 
#    y 0.000000 3.584740 0.000000 
#    z -0.339000 0.000000 3.582610 
# 
# 
# High freq. dielectric constant tensor:
#      x y z
#    x 1.784880 0.000000 -0.020030 
#    y 0.000000 1.769750 0.000000 
#    z -0.020030 0.000000 1.756410 
# 
# From -- ./inp_files/320105.got.cif
#   From: 2010.06.25/outbox.cif.g09.slc.cpg/sg12_161_cif.got.tgz:320105.got - 2010.06.28 00:19:55.
