data_PCOD8092161
_publ_section_title
;
Structure prediction by ZEFSAII (Michael W. Deem and Ramdas Pophale) SiO2 
 PCOD8092161
Probable space group: C 2/M
;
_chemical_formula_sum "Si O2"
_cell_formula_units_Z 56
_cell_length_a 34.560401
_cell_length_b 8.878979
_cell_length_c 11.780503
_cell_angle_alpha 90.000000
_cell_angle_beta 125.492715
_cell_angle_gamma 90.000000
_cell_volume 2943.276422
_symmetry_space_group_name_H-M "C 2/M"
_symmetry_group_IT_number 12
_symmetry_cell_setting 'monoclinic'
loop_
_space_group_symop_operation_xyz
x,y,z
-x,y,-z
-x,-y,-z
x,-y,z
1/2+x,1/2+y,z
1/2-x,1/2+y,-z
1/2-x,1/2-y,-z
1/2+x,1/2-y,z
loop_
_atom_site_type_symbol
_atom_site_label
_atom_site_fract_x
_atom_site_fract_y
_atom_site_fract_z
Si Si1 0.342408 0.173023 0.760199
Si Si2 0.343689 0.325034 0.098648
Si Si3 0.393553 0.824324 0.618763
Si Si4 0.081783 0.324700 0.922536
Si Si5 0.268594 0.675341 0.780752
Si Si6 0.171214 0.176766 0.667740
Si Si7 0.991029 0.178253 0.857088
O O1 0.355034 0.206428 0.651757
O O2 0.298396 0.278352 0.720027
O O3 0.327755 0.000000 0.755250
O O4 0.388286 0.213653 0.913764
O O5 0.356451 0.500000 0.108195
O O6 0.389631 0.230502 0.139304
O O7 0.330268 0.279249 0.202831
O O8 0.298658 0.283263 0.943962
O O9 0.372340 0.761180 0.466201
O O10 0.441734 0.739022 0.727044
O O11 0.404822 0.000000 0.626387
O O12 0.070904 0.500000 0.892030
O O13 0.032286 0.237173 0.844877
O O14 0.255886 0.500000 0.752443
O O15 0.220612 0.769529 0.699419
O O16 0.165659 0.000000 0.638751
O O17 0.990118 0.000000 0.852043
O O18 0.000000 0.238276 0.000000
#
# Coordination Sequence:
#
# PCOD8092161 Si02
#       7
#     8   8   8   8   8   8   8
#     4   9  19  35  55  82 114 147 183 230 284 332
#     4   9  20  38  59  84 114 148 189 237 282 332
#     4  11  23  39  58  82 116 151 190 234 279 336
#     4  10  19  34  59  88 115 145 185 235 282 329
#     4  10  20  35  59  86 111 145 191 236 280 333
#     4  11  23  39  57  80 115 154 190 232 285 337
#     4  11  22  36  59  88 117 149 185 226 278 339
#
# _framework density 19.026416000000001
#
# number of rings (size 3 to 8) (size 9 to 14) (size 15 to 20)
#    0.000    1.857    1.429    2.571    0.000    4.571 
#    0.000    0.714    0.000    4.286    0.000    0.000 
#    0.000    0.000    0.000    0.000    0.000    0.000 
#
# Total GULP energy -347362.447622 kJ/mol
# GULP energy per Si atom -12405.801701 kJ/mol
# Density = 1.898311 g / cm^3
# Si number density = 19.026416 Si / 1000 Ang^3
#
#
#
# Elastic Constant Matrix: (Units=GPa)
#
#
# Indices 1 2 3 4 5 6 
#
# 1 80.4279 35.9055 23.3454 0.0000 16.7921 0.0000
# 2 35.9055 65.6684 21.4056 0.0000 6.3832 0.0000
# 3 23.3454 21.4056 64.8830 0.0000 12.8602 0.0000
# 4 0.0000 0.0000 0.0000 30.7567 0.0000 4.1704
# 5 16.7921 6.3832 12.8602 0.0000 21.6744 0.0000
# 6 0.0000 0.0000 0.0000 4.1704 0.0000 36.7831
#
#
#
# Elastic Compliance Matrix: (Units=1/GPa)
#
#
# Indices 1 2 3 4 5 6 
#
# 1 0.019251 -0.008853 -0.001775 0.000000 -0.011254 0.000000
# 2 -0.008853 0.021204 -0.004456 0.000000 0.003258 0.000000
# 3 -0.001775 -0.004456 0.019253 0.000000 -0.008736 0.000000
# 4 0.000000 0.000000 0.000000 0.033021 0.000000 -0.003744
# 5 -0.011254 0.003258 -0.008736 0.000000 0.059080 0.000000
# 6 0.000000 0.000000 0.000000 -0.003744 0.000000 0.027611
#
#
# Mechanical properties :
#
#
# Convention : Reuss Voigt Hill
#
# Bulk Modulus (GPa) = 33.85335 41.36584 37.60959
# Shear Modulus (GPa) = 22.78588 26.53104 24.65846
#
# Velocity S-wave (km/s) = 3.46438 3.73826 3.60392
# Velocity P-wave (km/s) = 5.81670 6.35777 6.09324
#
# Compressibility (1/GPa) = 0.02953918
#
# Stress axis : x y z
#
# Youngs Moduli (GPa) = 51.94620 47.15993 51.94101
#
# Poissons Ratio (x) = 0.41751 0.09221
# Poissons Ratio (y) = 0.45989 0.23144
# Poissons Ratio (z) = 0.09222 0.21014
#
# Static dielectric constant tensor:
#      x y z
#    x 3.473650 0.000000 -0.052860 
#    y 0.000000 3.495590 0.000000 
#    z -0.052860 0.000000 3.408360 
# 
# 
# High freq. dielectric constant tensor:
#      x y z
#    x 1.743940 0.000000 0.002730 
#    y 0.000000 1.748680 0.000000 
#    z 0.002730 0.000000 1.725880 
# 
# From -- ./inp_files/187725.got.cif
#   From: 2010.06.25/outbox.cif.g09.slc.cpg/sg12_94_cif.got.tgz:187725.got - 2010.06.28 00:19:55.
