data_PCOD8092408
_publ_section_title
;
Structure prediction by ZEFSAII (Michael W. Deem and Ramdas Pophale) SiO2 
 PCOD8092408
Probable space group: C 2/M
;
_chemical_formula_sum "Si O2"
_cell_formula_units_Z 64
_cell_length_a 14.042944
_cell_length_b 26.969075
_cell_length_c 10.075234
_cell_angle_alpha 90.000000
_cell_angle_beta 111.276257
_cell_angle_gamma 90.000000
_cell_volume 3555.670322
_symmetry_space_group_name_H-M "C 2/M"
_symmetry_group_IT_number 12
_symmetry_cell_setting 'monoclinic'
loop_
_space_group_symop_operation_xyz
x,y,z
-x,y,-z
-x,-y,-z
x,-y,z
1/2+x,1/2+y,z
1/2-x,1/2+y,-z
1/2-x,1/2-y,-z
1/2+x,1/2-y,z
loop_
_atom_site_type_symbol
_atom_site_label
_atom_site_fract_x
_atom_site_fract_y
_atom_site_fract_z
Si Si1 0.556833 0.834107 0.901823
Si Si2 0.942965 0.057284 0.603591
Si Si3 0.230335 0.862156 0.082980
Si Si4 0.574167 0.174029 0.422203
Si Si5 0.547325 0.713177 0.390302
Si Si6 0.080558 0.220912 0.932596
Si Si7 0.787811 0.136450 0.611673
Si Si8 0.578321 0.556808 0.924769
O O1 0.653388 0.866358 0.906822
O O2 0.473398 0.835107 0.744724
O O3 0.598192 0.779346 0.961123
O O4 0.500000 0.857831 0.000000
O O5 0.838833 0.087145 0.576940
O O6 0.000000 0.074971 0.500000
O O7 0.023658 0.067987 0.759447
O O8 0.910693 0.000000 0.580110
O O9 0.226991 0.867935 0.238927
O O10 0.183954 0.809649 0.011011
O O11 0.175505 0.908074 0.984716
O O12 0.500000 0.153978 0.500000
O O13 0.591136 0.232735 0.448465
O O14 0.679916 0.144433 0.485235
O O15 0.500000 0.689213 0.500000
O O16 0.457983 0.712343 0.236133
O O17 0.642101 0.683129 0.383474
O O18 0.000000 0.200630 0.000000
O O19 0.614727 0.500000 0.955151
O O20 0.500000 0.571125 0.000000
#
# Coordination Sequence:
#
# PCOD8092408 Si02
#       8
#     8   8   8   8   8   8   8   8
#     4  10  23  38  53  76 109 147 189 234 272 312
#     4  10  22  39  59  88 121 142 168 223 286 336
#     4  12  21  34  59  83 107 146 192 227 268 332
#     4  10  21  38  53  73 110 152 188 228 272 315
#     4  10  21  34  51  79 112 141 180 229 274 328
#     4  10  19  35  54  78 111 143 179 227 281 329
#     4  12  21  34  59  82 107 149 192 221 270 333
#     4  10  20  36  59  88 116 139 171 221 281 338
#
# _framework density 17.999420000000001
#
# number of rings (size 3 to 8) (size 9 to 14) (size 15 to 20)
#    0.000    1.500    3.750    2.250    0.000    2.000 
#    0.000    0.000    0.000    1.500    0.000    0.000 
#    0.000    0.000    0.000    0.000    0.000    0.000 
#
# Total GULP energy -396882.155315 kJ/mol
# GULP energy per Si atom -12402.567354 kJ/mol
# Density = 1.795845 g / cm^3
# Si number density = 17.999420 Si / 1000 Ang^3
#
#
#
# Elastic Constant Matrix: (Units=GPa)
#
#
# Indices 1 2 3 4 5 6 
#
# 1 126.5413 51.9251 46.2242 0.0000 -11.1117 0.0000
# 2 51.9251 75.4968 29.2323 0.0000 5.5657 0.0000
# 3 46.2242 29.2323 98.3775 0.0000 -21.3089 0.0000
# 4 0.0000 0.0000 0.0000 27.0671 0.0000 -0.6514
# 5 -11.1117 5.5657 -21.3089 0.0000 36.0864 0.0000
# 6 0.0000 0.0000 0.0000 -0.6514 0.0000 22.5961
#
#
#
# Elastic Compliance Matrix: (Units=1/GPa)
#
#
# Indices 1 2 3 4 5 6 
#
# 1 0.012366 -0.007661 -0.002813 0.000000 0.003328 0.000000
# 2 -0.007661 0.020795 -0.004340 0.000000 -0.008129 0.000000
# 3 -0.002813 -0.004340 0.014601 0.000000 0.008425 0.000000
# 4 0.000000 0.000000 0.000000 0.036971 0.000000 0.001066
# 5 0.003328 -0.008129 0.008425 0.000000 0.034965 0.000000
# 6 0.000000 0.000000 0.000000 0.001066 0.000000 0.044286
#
#
# Mechanical properties :
#
#
# Convention : Reuss Voigt Hill
#
# Bulk Modulus (GPa) = 55.14706 61.68652 58.41679
# Shear Modulus (GPa) = 25.04299 28.68555 26.86427
#
# Velocity S-wave (km/s) = 3.73409 3.99644 3.86749
# Velocity P-wave (km/s) = 7.02111 7.45930 7.24352
#
# Compressibility (1/GPa) = 0.01813333
#
# Stress axis : x y z
#
# Youngs Moduli (GPa) = 80.86601 48.08936 68.48786
#
# Poissons Ratio (x) = 0.36843 0.19265
# Poissons Ratio (y) = 0.61954 0.29723
# Poissons Ratio (z) = 0.22747 0.20871
#
# Static dielectric constant tensor:
#      x y z
#    x 3.271880 0.000000 -0.147360 
#    y 0.000000 3.199720 0.000000 
#    z -0.147360 0.000000 3.483140 
# 
# 
# High freq. dielectric constant tensor:
#      x y z
#    x 1.691020 0.000000 -0.010650 
#    y 0.000000 1.675000 0.000000 
#    z -0.010650 0.000000 1.712900 
# 
# From -- ./inp_files/67032.got.cif
#   From: 2010.06.25/outbox.cif.g09.slc.cpg/sg12_34_cif.got.tgz:67032.got - 2010.06.28 00:19:55.
