data_PCOD8092041
_publ_section_title
;
Structure prediction by ZEFSAII (Michael W. Deem and Ramdas Pophale) SiO2 
 PCOD8092041
Probable space group: C 2/M
;
_chemical_formula_sum "Si O2"
_cell_formula_units_Z 56
_cell_length_a 18.433925
_cell_length_b 13.483261
_cell_length_c 12.411340
_cell_angle_alpha 90.000000
_cell_angle_beta 109.209298
_cell_angle_gamma 90.000000
_cell_volume 2913.077193
_symmetry_space_group_name_H-M "C 2/M"
_symmetry_group_IT_number 12
_symmetry_cell_setting 'monoclinic'
loop_
_space_group_symop_operation_xyz
x,y,z
-x,y,-z
-x,-y,-z
x,-y,z
1/2+x,1/2+y,z
1/2-x,1/2+y,-z
1/2-x,1/2-y,-z
1/2+x,1/2-y,z
loop_
_atom_site_type_symbol
_atom_site_label
_atom_site_fract_x
_atom_site_fract_y
_atom_site_fract_z
Si Si1 0.728552 0.615312 0.963148
Si Si2 0.932918 0.888794 0.183671
Si Si3 0.418177 0.610776 0.425963
Si Si4 0.334387 0.883660 0.820352
Si Si5 0.941853 0.209713 0.874734
Si Si6 0.229647 0.774755 0.611279
Si Si7 0.777702 0.885339 0.799646
O O1 0.721229 0.500000 0.933844
O O2 0.642252 0.659192 0.910842
O O3 0.788079 0.657634 0.903200
O O4 0.758103 0.637128 0.098716
O O5 0.909684 0.894120 0.295260
O O6 0.007747 0.819264 0.205364
O O7 0.951016 0.000000 0.148774
O O8 0.500000 0.654782 0.500000
O O9 0.407483 0.500000 0.470169
O O10 0.355757 0.684964 0.441740
O O11 0.415095 0.824517 0.855914
O O12 0.285378 0.858809 0.689361
O O13 0.352630 0.000000 0.834566
O O14 0.868024 0.139055 0.844047
O O15 0.000000 0.188341 0.000000
O O16 0.250000 0.750000 0.500000
O O17 0.232501 0.677462 0.688154
O O18 0.766704 0.000000 0.764946
#
# Coordination Sequence:
#
# PCOD8092041 Si02
#       7
#     8   8   8   8   8   8   8
#     4   9  17  35  62  87 112 149 194 241 295 352
#     4  10  19  34  58  88 121 150 187 242 299 350
#     4  10  22  39  62  87 114 151 196 251 299 339
#     4  10  22  40  60  84 117 158 201 240 288 349
#     4  11  22  33  54  91 123 155 185 234 294 350
#     4  11  24  39  60  89 116 155 200 247 292 353
#     4  10  22  37  58  88 122 156 192 242 301 355
#
# _framework density 19.223658
#
# number of rings (size 3 to 8) (size 9 to 14) (size 15 to 20)
#    0.000    1.857    2.857    0.857    4.000    5.429 
#    0.000    0.000    0.000    1.286    0.000    0.000 
#    0.000    0.000    0.000    0.000    0.000    0.000 
#
# Total GULP energy -347113.098356 kJ/mol
# GULP energy per Si atom -12396.896370 kJ/mol
# Density = 1.917990 g / cm^3
# Si number density = 19.223658 Si / 1000 Ang^3
#
#
#
# Elastic Constant Matrix: (Units=GPa)
#
#
# Indices 1 2 3 4 5 6 
#
# 1 123.9076 59.4214 44.7057 0.0000 -2.8219 0.0000
# 2 59.4214 110.2124 36.7649 0.0000 0.7150 0.0000
# 3 44.7057 36.7649 103.3419 0.0000 -6.4135 0.0000
# 4 0.0000 0.0000 0.0000 26.2397 0.0000 9.8180
# 5 -2.8219 0.7150 -6.4135 0.0000 32.7519 0.0000
# 6 0.0000 0.0000 0.0000 9.8180 0.0000 10.6441
#
#
#
# Elastic Compliance Matrix: (Units=1/GPa)
#
#
# Indices 1 2 3 4 5 6 
#
# 1 0.011763 -0.005286 -0.003177 0.000000 0.000507 0.000000
# 2 -0.005286 0.012700 -0.002305 0.000000 -0.001184 0.000000
# 3 -0.003177 -0.002305 0.012003 0.000000 0.002127 0.000000
# 4 0.000000 0.000000 0.000000 0.058195 0.000000 -0.053679
# 5 0.000507 -0.001184 0.002127 0.000000 0.031019 0.000000
# 6 0.000000 0.000000 0.000000 -0.053679 0.000000 0.143461
#
#
# Mechanical properties :
#
#
# Convention : Reuss Voigt Hill
#
# Bulk Modulus (GPa) = 66.97541 68.80509 67.89025
# Shear Modulus (GPa) = 16.91175 27.03180 21.97177
#
# Velocity S-wave (km/s) = 2.96925 3.75397 3.38443
# Velocity P-wave (km/s) = 6.83162 7.39319 7.11794
#
# Compressibility (1/GPa) = 0.01493085
#
# Stress axis : x y z
#
# Youngs Moduli (GPa) = 85.01184 78.74170 83.31297
#
# Poissons Ratio (x) = 0.41620 0.26467
# Poissons Ratio (y) = 0.44934 0.19203
# Poissons Ratio (z) = 0.27007 0.18150
#
# Static dielectric constant tensor:
#      x y z
#    x 3.542600 0.000000 -0.032170 
#    y 0.000000 3.512930 0.000000 
#    z -0.032170 0.000000 3.490490 
# 
# 
# High freq. dielectric constant tensor:
#      x y z
#    x 1.739920 0.000000 -0.004070 
#    y 0.000000 1.741770 0.000000 
#    z -0.004070 0.000000 1.745900 
# 
# From -- ./inp_files/156161.got.cif
#   From: 2010.06.25/outbox.cif.g09.slc.cpg/sg12_79_cif.got.tgz:156161.got - 2010.06.28 00:19:55.
