data_PCOD8092652
_publ_section_title
;
Structure prediction by ZEFSAII (Michael W. Deem and Ramdas Pophale) SiO2 
 PCOD8092652
Probable space group: C 2/M
;
_chemical_formula_sum "Si O2"
_cell_formula_units_Z 56
_cell_length_a 18.772324
_cell_length_b 8.961667
_cell_length_c 17.824120
_cell_angle_alpha 90.000000
_cell_angle_beta 96.041406
_cell_angle_gamma 90.000000
_cell_volume 2981.921374
_symmetry_space_group_name_H-M "C 2/M"
_symmetry_group_IT_number 12
_symmetry_cell_setting 'monoclinic'
loop_
_space_group_symop_operation_xyz
x,y,z
-x,y,-z
-x,-y,-z
x,-y,z
1/2+x,1/2+y,z
1/2-x,1/2+y,-z
1/2-x,1/2-y,-z
1/2+x,1/2-y,z
loop_
_atom_site_type_symbol
_atom_site_label
_atom_site_fract_x
_atom_site_fract_y
_atom_site_fract_z
Si Si1 0.745562 0.679759 0.580596
Si Si2 0.965020 0.328460 0.072281
Si Si3 0.799709 0.670384 0.064042
Si Si4 0.510071 0.674068 0.767236
Si Si5 0.243186 0.662762 0.195501
Si Si6 0.850393 0.173845 0.707621
Si Si7 0.867774 0.161433 0.323392
O O1 0.748658 0.500000 0.578176
O O2 0.750000 0.750000 0.500000
O O3 0.813932 0.740279 0.634581
O O4 0.667387 0.735871 0.605800
O O5 0.987804 0.500000 0.084960
O O6 0.881135 0.310739 0.048843
O O7 0.990396 0.245942 0.150419
O O8 0.000000 0.261239 0.000000
O O9 0.776291 0.500000 0.067907
O O10 0.789748 0.748281 0.141710
O O11 0.750000 0.750000 0.000000
O O12 0.527515 0.500000 0.781733
O O13 0.435628 0.698855 0.715881
O O14 0.571245 0.747685 0.718603
O O15 0.217190 0.500000 0.161906
O O16 0.175721 0.759788 0.215420
O O17 0.295418 0.635845 0.269750
O O18 0.830171 0.000000 0.700955
O O19 0.901410 0.000000 0.348122
#
# Coordination Sequence:
#
# PCOD8092652 Si02
#       7
#     8   8   8   8   8   8   8
#     4  10  20  37  61  87 116 150 186 229 278 333
#     4  10  23  40  55  78 112 150 189 236 292 339
#     4  11  23  37  54  78 108 143 187 237 287 339
#     4  10  20  37  59  83 111 147 190 235 280 337
#     4  10  19  35  57  77 105 145 187 233 278 331
#     4  10  21  35  56  87 117 145 185 231 278 336
#     4   8  16  33  57  81 105 140 184 222 269 326
#
# _framework density 18.779836
#
# number of rings (size 3 to 8) (size 9 to 14) (size 15 to 20)
#    0.000    2.143    1.429    2.571    2.000    2.000 
#    0.000    1.429    0.000    4.286    0.000    0.000 
#    0.000    0.000    0.000    0.000    0.000    0.000 
#
# Total GULP energy -346931.166767 kJ/mol
# GULP energy per Si atom -12390.398813 kJ/mol
# Density = 1.873709 g / cm^3
# Si number density = 18.779836 Si / 1000 Ang^3
#
#
#
# Elastic Constant Matrix: (Units=GPa)
#
#
# Indices 1 2 3 4 5 6 
#
# 1 109.0054 44.9481 59.2794 0.0000 -21.4865 0.0000
# 2 44.9481 102.0354 49.2023 0.0000 -7.6897 0.0000
# 3 59.2794 49.2023 117.5644 0.0000 -28.9792 0.0000
# 4 0.0000 0.0000 0.0000 31.8923 0.0000 -1.9851
# 5 -21.4865 -7.6897 -28.9792 0.0000 34.6783 0.0000
# 6 0.0000 0.0000 0.0000 -1.9851 0.0000 24.2024
#
#
#
# Elastic Compliance Matrix: (Units=1/GPa)
#
#
# Indices 1 2 3 4 5 6 
#
# 1 0.013926 -0.003665 -0.004485 0.000000 0.004068 0.000000
# 2 -0.003665 0.013352 -0.004496 0.000000 -0.003067 0.000000
# 3 -0.004485 -0.004496 0.014759 0.000000 0.008557 0.000000
# 4 0.000000 0.000000 0.000000 0.031516 0.000000 0.002585
# 5 0.004068 -0.003067 0.008557 0.000000 0.037827 0.000000
# 6 0.000000 0.000000 0.000000 0.002585 0.000000 0.041530
#
#
# Mechanical properties :
#
#
# Convention : Reuss Voigt Hill
#
# Bulk Modulus (GPa) = 59.72458 70.60719 65.16589
# Shear Modulus (GPa) = 27.20568 29.83295 28.51932
#
# Velocity S-wave (km/s) = 3.81026 3.99000 3.90117
# Velocity P-wave (km/s) = 7.15744 7.67501 7.42074
#
# Compressibility (1/GPa) = 0.01674352
#
# Stress axis : x y z
#
# Youngs Moduli (GPa) = 71.80674 74.89549 67.75743
#
# Poissons Ratio (x) = 0.27451 0.30392
# Poissons Ratio (y) = 0.26319 0.30463
# Poissons Ratio (z) = 0.32208 0.33672
#
# Static dielectric constant tensor:
#      x y z
#    x 3.430080 0.000000 -0.117990 
#    y 0.000000 3.551870 0.000000 
#    z -0.117990 0.000000 3.165220 
# 
# 
# High freq. dielectric constant tensor:
#      x y z
#    x 1.734350 0.000000 -0.017530 
#    y 0.000000 1.722220 0.000000 
#    z -0.017530 0.000000 1.721420 
# 
# From -- ./inp_files/280451.got.cif
#   From: 2010.06.25/outbox.cif.g09.slc.cpg/sg12_141_cif.got.tgz:280451.got - 2010.06.28 00:19:55.
