data_PCOD8092699
_publ_section_title
;
Structure prediction by ZEFSAII (Michael W. Deem and Ramdas Pophale) SiO2 
 PCOD8092699
Probable space group: C 2/M
;
_chemical_formula_sum "Si O2"
_cell_formula_units_Z 64
_cell_length_a 19.576362
_cell_length_b 9.095578
_cell_length_c 24.230649
_cell_angle_alpha 90.000000
_cell_angle_beta 128.974042
_cell_angle_gamma 90.000000
_cell_volume 3354.201808
_symmetry_space_group_name_H-M "C 2/M"
_symmetry_group_IT_number 12
_symmetry_cell_setting 'monoclinic'
loop_
_space_group_symop_operation_xyz
x,y,z
-x,y,-z
-x,-y,-z
x,-y,z
1/2+x,1/2+y,z
1/2-x,1/2+y,-z
1/2-x,1/2-y,-z
1/2+x,1/2-y,z
loop_
_atom_site_type_symbol
_atom_site_label
_atom_site_fract_x
_atom_site_fract_y
_atom_site_fract_z
Si Si1 0.156004 0.832029 0.240303
Si Si2 0.959435 0.825918 0.124536
Si Si3 0.584268 0.673297 0.377130
Si Si4 0.074611 0.826154 0.497072
Si Si5 0.771780 0.674501 0.617804
Si Si6 0.416164 0.326555 0.221762
Si Si7 0.410980 0.675438 0.982239
Si Si8 0.747185 0.332464 0.171629
O O1 0.191012 0.725799 0.304995
O O2 0.218807 0.820635 0.220154
O O3 0.060423 0.775418 0.173230
O O4 0.151053 0.000000 0.260221
O O5 0.915133 0.766819 0.158196
O O6 0.956740 0.000000 0.122730
O O7 0.907826 0.767751 0.044179
O O8 0.602676 0.500000 0.383986
O O9 0.556457 0.721984 0.424689
O O10 0.673087 0.755409 0.404319
O O11 0.506858 0.721593 0.296454
O O12 0.171250 0.769949 0.563201
O O13 0.000000 0.757656 0.500000
O O14 0.071173 0.000000 0.500644
O O15 0.778336 0.500000 0.616201
O O16 0.406057 0.500000 0.219261
O O17 0.335918 0.257816 0.213340
O O18 0.411630 0.500000 0.978492
O O19 0.326501 0.736729 0.906579
O O20 0.500000 0.737089 0.000000
O O21 0.765377 0.500000 0.163813
#
# Coordination Sequence:
#
# PCOD8092699 Si02
#       8
#     8   8   8   8   8   8   8   8
#     4  10  19  35  57  80 108 143 185 225 266 323
#     4   9  16  31  54  78 103 139 187 222 257 323
#     4  10  20  38  62  80 106 150 188 220 263 324
#     4   9  20  37  57  83 112 144 183 221 264 323
#     4  11  22  35  58  87 112 141 180 229 272 313
#     4  10  21  35  54  79 109 147 181 216 268 331
#     4   9  15  28  53  80 104 135 180 230 271 315
#     4  10  21  34  54  83 110 139 179 232 279 314
#
# _framework density 19.080545999999998
#
# number of rings (size 3 to 8) (size 9 to 14) (size 15 to 20)
#    0.000    2.250    2.500    0.750    1.750    1.500 
#    0.000    0.625    0.000    3.000    0.000    0.000 
#    0.000    0.000    0.000    0.000    0.000    0.000 
#
# Total GULP energy -396754.873408 kJ/mol
# GULP energy per Si atom -12398.589794 kJ/mol
# Density = 1.903712 g / cm^3
# Si number density = 19.080546 Si / 1000 Ang^3
#
#
#
# Elastic Constant Matrix: (Units=GPa)
#
#
# Indices 1 2 3 4 5 6 
#
# 1 131.2111 32.6860 47.5044 0.0000 2.4824 0.0000
# 2 32.6860 26.8228 24.9537 0.0000 3.4242 0.0000
# 3 47.5044 24.9537 94.9026 0.0000 -12.7025 0.0000
# 4 0.0000 0.0000 0.0000 13.9550 0.0000 1.6443
# 5 2.4824 3.4242 -12.7025 0.0000 34.3395 0.0000
# 6 0.0000 0.0000 0.0000 1.6443 0.0000 27.7420
#
#
#
# Elastic Compliance Matrix: (Units=1/GPa)
#
#
# Indices 1 2 3 4 5 6 
#
# 1 0.011473 -0.011171 -0.002912 0.000000 -0.000793 0.000000
# 2 -0.011171 0.063901 -0.012578 0.000000 -0.010217 0.000000
# 3 -0.002912 -0.012578 0.016305 0.000000 0.007496 0.000000
# 4 0.000000 0.000000 0.000000 0.072163 0.000000 -0.004277
# 5 -0.000793 -0.010217 0.007496 0.000000 0.032970 0.000000
# 6 0.000000 0.000000 0.000000 -0.004277 0.000000 0.036300
#
#
# Mechanical properties :
#
#
# Convention : Reuss Voigt Hill
#
# Bulk Modulus (GPa) = 26.07046 51.46940 38.76993
# Shear Modulus (GPa) = 16.71015 25.06012 20.88514
#
# Velocity S-wave (km/s) = 2.96255 3.62800 3.31203
# Velocity P-wave (km/s) = 5.03938 6.67706 5.91517
#
# Compressibility (1/GPa) = 0.03835759
#
# Stress axis : x y z
#
# Youngs Moduli (GPa) = 87.15814 15.64931 61.33024
#
# Poissons Ratio (x) = 0.17482 0.17858
# Poissons Ratio (y) = 0.97367 0.77139
# Poissons Ratio (z) = 0.25379 0.19683
#
# Static dielectric constant tensor:
#      x y z
#    x 3.644710 0.000000 -0.093260 
#    y 0.000000 3.028520 0.000000 
#    z -0.093260 0.000000 3.734730 
# 
# 
# High freq. dielectric constant tensor:
#      x y z
#    x 1.751500 0.000000 -0.007000 
#    y 0.000000 1.691070 0.000000 
#    z -0.007000 0.000000 1.755990 
# 
# From -- ./inp_files/346124.got.cif
#   From: 2010.06.25/outbox.cif.g09.slc.cpg/sg12_174_cif.got.tgz:346124.got - 2010.06.28 00:19:55.
