data_PCOD8092298
_publ_section_title
;
Structure prediction by ZEFSAII (Michael W. Deem and Ramdas Pophale) SiO2 
 PCOD8092298
Probable space group: C 2/M
;
_chemical_formula_sum "Si O2"
_cell_formula_units_Z 48
_cell_length_a 17.837672
_cell_length_b 15.257270
_cell_length_c 12.343605
_cell_angle_alpha 90.000000
_cell_angle_beta 133.557157
_cell_angle_gamma 90.000000
_cell_volume 2434.488265
_symmetry_space_group_name_H-M "C 2/M"
_symmetry_group_IT_number 12
_symmetry_cell_setting 'monoclinic'
loop_
_space_group_symop_operation_xyz
x,y,z
-x,y,-z
-x,-y,-z
x,-y,z
1/2+x,1/2+y,z
1/2-x,1/2+y,-z
1/2-x,1/2-y,-z
1/2+x,1/2-y,z
loop_
_atom_site_type_symbol
_atom_site_label
_atom_site_fract_x
_atom_site_fract_y
_atom_site_fract_z
Si Si1 0.239241 0.776594 0.316931
Si Si2 0.588712 0.265173 0.351134
Si Si3 0.889809 0.596944 0.373011
Si Si4 0.046598 0.101627 0.664048
Si Si5 0.053855 0.599135 0.804351
Si Si6 0.264129 0.184977 0.911668
O O1 0.319490 0.721740 0.470376
O O2 0.132342 0.787967 0.275272
O O3 0.294300 0.868366 0.346538
O O4 0.215783 0.736217 0.178179
O O5 0.503300 0.337413 0.293492
O O6 0.542184 0.166290 0.303451
O O7 0.905207 0.500000 0.434889
O O8 0.870754 0.601002 0.225795
O O9 0.000000 0.648360 0.500000
O O10 0.167945 0.120986 0.794164
O O11 0.000000 0.126355 0.500000
O O12 0.025206 0.000000 0.668939
O O13 0.011175 0.500000 0.781760
O O14 0.131911 0.627414 0.976187
O O15 0.250000 0.250000 0.000000
#
# Coordination Sequence:
#
# PCOD8092298 Si02
#       6
#     8   8   8   8   8   8
#     4  11  23  38  61  93 124 168 205 248 320 366
#     4  11  23  41  63  89 129 165 206 259 304 372
#     4  10  19  34  61  91 119 156 211 264 304 360
#     4  11  23  42  67  91 123 169 215 254 302 369
#     4  11  23  40  65  94 122 162 209 261 314 360
#     4  12  22  39  66  92 125 162 206 259 305 372
#
# _framework density 19.716670000000001
#
# number of rings (size 3 to 8) (size 9 to 14) (size 15 to 20)
#    0.000    1.000    6.667    0.500    0.000    1.333 
#    0.000    5.000    0.000    1.000    0.000    0.000 
#    0.000    0.000    0.000    0.000    0.000    0.000 
#
# Total GULP energy -297439.087327 kJ/mol
# GULP energy per Si atom -12393.295305 kJ/mol
# Density = 1.967179 g / cm^3
# Si number density = 19.716670 Si / 1000 Ang^3
#
#
#
# Elastic Constant Matrix: (Units=GPa)
#
#
# Indices 1 2 3 4 5 6 
#
# 1 121.1590 60.2595 30.4297 0.0000 -15.5875 0.0000
# 2 60.2595 121.4879 35.4504 0.0000 -5.5770 0.0000
# 3 30.4297 35.4504 111.5250 0.0000 -3.7466 0.0000
# 4 0.0000 0.0000 0.0000 26.3716 0.0000 3.7755
# 5 -15.5875 -5.5770 -3.7466 0.0000 31.6402 0.0000
# 6 0.0000 0.0000 0.0000 3.7755 0.0000 19.2049
#
#
#
# Elastic Compliance Matrix: (Units=1/GPa)
#
#
# Indices 1 2 3 4 5 6 
#
# 1 0.011819 -0.005236 -0.001401 0.000000 0.004734 0.000000
# 2 -0.005236 0.011443 -0.002237 0.000000 -0.000827 0.000000
# 3 -0.001401 -0.002237 0.010063 0.000000 0.000107 0.000000
# 4 0.000000 0.000000 0.000000 0.039018 0.000000 -0.007671
# 5 0.004734 -0.000827 0.000107 0.000000 0.033804 0.000000
# 6 0.000000 0.000000 0.000000 -0.007671 0.000000 0.053578
#
#
# Mechanical properties :
#
#
# Convention : Reuss Voigt Hill
#
# Bulk Modulus (GPa) = 64.19539 67.38344 65.78942
# Shear Modulus (GPa) = 27.37240 30.64549 29.00894
#
# Velocity S-wave (km/s) = 3.73001 3.94673 3.83990
# Velocity P-wave (km/s) = 7.15404 7.41748 7.28695
#
# Compressibility (1/GPa) = 0.01557744
#
# Stress axis : x y z
#
# Youngs Moduli (GPa) = 84.61126 87.38927 99.36913
#
# Poissons Ratio (x) = 0.45757 0.13925
# Poissons Ratio (y) = 0.44303 0.22224
# Poissons Ratio (z) = 0.11857 0.19545
#
# Static dielectric constant tensor:
#      x y z
#    x 3.722530 0.000000 0.039480 
#    y 0.000000 3.613770 0.000000 
#    z 0.039480 0.000000 3.787420 
# 
# 
# High freq. dielectric constant tensor:
#      x y z
#    x 1.752830 0.000000 -0.000640 
#    y 0.000000 1.761560 0.000000 
#    z -0.000640 0.000000 1.779310 
# 
# From -- ./inp_files/166884.got.cif
#   From: 2010.06.25/outbox.cif.g09.slc.cpg/sg12_84_cif.got.tgz:166884.got - 2010.06.28 00:19:55.
