data_PCOD8092052
_publ_section_title
;
Structure prediction by ZEFSAII (Michael W. Deem and Ramdas Pophale) SiO2 
 PCOD8092052
Probable space group: C 2/M
;
_chemical_formula_sum "Si O2"
_cell_formula_units_Z 48
_cell_length_a 19.803097
_cell_length_b 8.812885
_cell_length_c 32.730298
_cell_angle_alpha 90.000000
_cell_angle_beta 154.816070
_cell_angle_gamma 90.000000
_cell_volume 2430.674259
_symmetry_space_group_name_H-M "C 2/M"
_symmetry_group_IT_number 12
_symmetry_cell_setting 'monoclinic'
loop_
_space_group_symop_operation_xyz
x,y,z
-x,y,-z
-x,-y,-z
x,-y,z
1/2+x,1/2+y,z
1/2-x,1/2+y,-z
1/2-x,1/2-y,-z
1/2+x,1/2-y,z
loop_
_atom_site_type_symbol
_atom_site_label
_atom_site_fract_x
_atom_site_fract_y
_atom_site_fract_z
Si Si1 0.186545 0.323102 0.406537
Si Si2 0.953360 0.322785 0.207067
Si Si3 0.199300 0.325494 0.210490
Si Si4 0.518666 0.177351 0.398209
Si Si5 0.179410 0.673956 0.104958
Si Si6 0.581381 0.321086 0.897277
O O1 0.228100 0.500000 0.431264
O O2 0.350124 0.229456 0.497049
O O3 0.077141 0.276944 0.384973
O O4 0.095508 0.278635 0.315442
O O5 0.953012 0.500000 0.196809
O O6 0.785689 0.281063 0.135153
O O7 0.981325 0.230491 0.181148
O O8 0.172257 0.500000 0.207755
O O9 0.355081 0.263161 0.318634
O O10 0.227729 0.304153 0.178129
O O11 0.044850 0.231156 0.138214
O O12 0.487476 0.000000 0.385367
O O13 0.202325 0.500000 0.103333
O O14 0.000000 0.726580 0.000000
O O15 0.599225 0.500000 0.908316
O O16 0.750000 0.250000 0.000000
#
# Coordination Sequence:
#
# PCOD8092052 Si02
#       6
#     8   8   8   8   8   8
#     4   9  19  35  57  88 123 158 197 244 301 359
#     4  11  22  39  62  89 121 157 199 247 301 359
#     4  11  22  38  61  89 123 160 200 248 303 358
#     4  10  19  34  58  89 123 159 200 246 299 357
#     4  10  21  36  57  86 118 152 196 249 298 353
#     4  12  26  44  64  87 120 161 205 248 300 361
#
# _framework density 19.747606999999999
#
# number of rings (size 3 to 8) (size 9 to 14) (size 15 to 20)
#    0.000    1.500    1.667    4.000    0.000    4.333 
#    0.000    0.833    0.000    5.000    0.000    0.000 
#    0.000    0.000    0.000    0.000    0.000    0.000 
#
# Total GULP energy -297747.102962 kJ/mol
# GULP energy per Si atom -12406.129290 kJ/mol
# Density = 1.970266 g / cm^3
# Si number density = 19.747607 Si / 1000 Ang^3
#
#
#
# Elastic Constant Matrix: (Units=GPa)
#
#
# Indices 1 2 3 4 5 6 
#
# 1 36.1931 20.8720 9.2614 0.0001 1.8237 -0.0001
# 2 20.8720 99.8252 42.6256 0.0003 1.8077 -0.0007
# 3 9.2614 42.6256 115.7418 -0.0002 6.0862 -0.0002
# 4 0.0001 0.0003 -0.0002 36.8758 -0.0001 3.6754
# 5 1.8237 1.8077 6.0862 -0.0001 31.3816 0.0000
# 6 -0.0001 -0.0007 -0.0002 3.6754 0.0000 33.5617
#
#
#
# Elastic Compliance Matrix: (Units=1/GPa)
#
#
# Indices 1 2 3 4 5 6 
#
# 1 0.031484 -0.006542 -0.000034 0.000000 -0.001446 0.000000
# 2 -0.006542 0.013247 -0.004380 0.000000 0.000467 0.000000
# 3 -0.000034 -0.004380 0.010348 0.000000 -0.001753 0.000000
# 4 0.000000 0.000000 0.000000 0.027417 0.000000 -0.003002
# 5 -0.001446 0.000467 -0.001753 0.000000 0.032263 0.000000
# 6 0.000000 0.000000 0.000000 -0.003002 0.000000 0.030125
#
#
# Mechanical properties :
#
#
# Convention : Reuss Voigt Hill
#
# Bulk Modulus (GPa) = 30.15023 44.14200 37.14611
# Shear Modulus (GPa) = 28.11346 32.29724 30.20535
#
# Velocity S-wave (km/s) = 3.77721 4.04852 3.91521
# Velocity P-wave (km/s) = 5.85867 6.65249 6.26816
#
# Compressibility (1/GPa) = 0.03316725
#
# Stress axis : x y z
#
# Youngs Moduli (GPa) = 31.76230 75.48834 96.63936
#
# Poissons Ratio (x) = 0.49386 0.00327
# Poissons Ratio (y) = 0.20779 0.42325
# Poissons Ratio (z) = 0.00108 0.33062
#
# Static dielectric constant tensor:
#      x y z
#    x 3.437920 0.000000 -0.061080 
#    y 0.000000 3.608050 0.000000 
#    z -0.061080 0.000000 3.749870 
# 
# 
# High freq. dielectric constant tensor:
#      x y z
#    x 1.750220 0.000000 0.000750 
#    y 0.000000 1.776240 0.000000 
#    z 0.000750 0.000000 1.785110 
# 
# From -- ./inp_files/244905.got.cif
#   From: 2010.06.25/outbox.cif.g09.slc.cpg/sg12_123_cif.got.tgz:244905.got - 2010.06.28 00:19:55.
