data_PCOD8092438
_publ_section_title
;
Structure prediction by ZEFSAII (Michael W. Deem and Ramdas Pophale) SiO2 
 PCOD8092438
Probable space group: C 2/M
;
_chemical_formula_sum "Si O2"
_cell_formula_units_Z 64
_cell_length_a 14.275480
_cell_length_b 8.686250
_cell_length_c 30.145693
_cell_angle_alpha 90.000000
_cell_angle_beta 118.308011
_cell_angle_gamma 90.000000
_cell_volume 3291.044886
_symmetry_space_group_name_H-M "C 2/M"
_symmetry_group_IT_number 12
_symmetry_cell_setting 'monoclinic'
loop_
_space_group_symop_operation_xyz
x,y,z
-x,y,-z
-x,-y,-z
x,-y,z
1/2+x,1/2+y,z
1/2-x,1/2+y,-z
1/2-x,1/2-y,-z
1/2+x,1/2-y,z
loop_
_atom_site_type_symbol
_atom_site_label
_atom_site_fract_x
_atom_site_fract_y
_atom_site_fract_z
Si Si1 0.982621 0.181938 0.628592
Si Si2 0.845940 0.683502 0.821516
Si Si3 0.938845 0.679345 0.441213
Si Si4 0.719718 0.818919 0.369721
Si Si5 0.217573 0.680956 0.097444
Si Si6 0.941940 0.181790 0.111568
Si Si7 0.208914 0.818619 0.710067
Si Si8 0.138135 0.681074 0.988763
O O1 0.877741 0.227669 0.631237
O O2 0.985316 0.264212 0.581555
O O3 0.086338 0.236845 0.679924
O O4 0.985521 0.000000 0.621236
O O5 0.846802 0.500000 0.821334
O O6 0.811895 0.753356 0.861692
O O7 0.766708 0.751888 0.766285
O O8 0.963817 0.745770 0.838042
O O9 0.913091 0.500000 0.429514
O O10 0.828739 0.772924 0.418504
O O11 0.000000 0.714401 0.500000
O O12 0.728002 0.768848 0.320087
O O13 0.701029 0.000000 0.371229
O O14 0.228629 0.500000 0.105942
O O15 0.332351 0.745103 0.107999
O O16 0.127146 0.715869 0.039334
O O17 0.949503 0.000000 0.114167
O O18 0.951339 0.239978 0.062268
O O19 0.211303 0.000000 0.714710
O O20 0.135312 0.500000 0.979340
O O21 0.250000 0.750000 0.000000
#
# Coordination Sequence:
#
# PCOD8092438 Si02
#       8
#     8   8   8   8   8   8   8   8
#     4  10  20  36  58  83 110 146 189 228 270 321
#     4  10  19  35  55  74  98 133 172 212 260 313
#     4  10  21  37  57  84 117 150 185 227 273 320
#     4  10  20  36  57  82 112 147 186 226 269 323
#     4   8  17  32  51  71  96 129 165 203 251 312
#     4  10  20  34  49  73 103 131 166 210 259 314
#     4   8  18  35  54  76 103 134 174 222 268 315
#     4   9  16  30  50  72  97 130 167 205 252 310
#
# _framework density 19.446712000000002
#
# number of rings (size 3 to 8) (size 9 to 14) (size 15 to 20)
#    0.000    2.625    0.000    3.375    0.000    3.000 
#    0.000   11.250    0.000    0.000    0.000    0.000 
#    0.000    0.000    0.000    0.000    0.000    0.000 
#
# Total GULP energy -396658.080094 kJ/mol
# GULP energy per Si atom -12395.565003 kJ/mol
# Density = 1.940245 g / cm^3
# Si number density = 19.446712 Si / 1000 Ang^3
#
#
#
# Elastic Constant Matrix: (Units=GPa)
#
#
# Indices 1 2 3 4 5 6 
#
# 1 78.3898 5.4146 42.1067 0.0000 -1.1616 0.0000
# 2 5.4146 34.1995 29.0895 0.0000 -0.0068 0.0000
# 3 42.1067 29.0895 146.1364 0.0000 1.8252 0.0000
# 4 0.0000 0.0000 0.0000 24.3738 0.0000 4.4194
# 5 -1.1616 -0.0068 1.8252 0.0000 20.1572 0.0000
# 6 0.0000 0.0000 0.0000 4.4194 0.0000 27.2395
#
#
#
# Elastic Compliance Matrix: (Units=1/GPa)
#
#
# Indices 1 2 3 4 5 6 
#
# 1 0.015198 0.001604 -0.004715 0.000000 0.001303 0.000000
# 2 0.001604 0.035378 -0.007514 0.000000 0.000785 0.000000
# 3 -0.004715 -0.007514 0.009711 0.000000 -0.001154 0.000000
# 4 0.000000 0.000000 0.000000 0.042271 0.000000 -0.006858
# 5 0.001303 0.000785 -0.001154 0.000000 0.049790 0.000000
# 6 0.000000 0.000000 0.000000 -0.006858 0.000000 0.037824
#
#
# Mechanical properties :
#
#
# Convention : Reuss Voigt Hill
#
# Bulk Modulus (GPa) = 25.61619 45.77192 35.69405
# Shear Modulus (GPa) = 22.27829 26.49510 24.38669
#
# Velocity S-wave (km/s) = 3.38835 3.69514 3.54507
# Velocity P-wave (km/s) = 5.33938 6.46480 5.92885
#
# Compressibility (1/GPa) = 0.03903782
#
# Stress axis : x y z
#
# Youngs Moduli (GPa) = 65.79960 28.26631 102.97074
#
# Poissons Ratio (x) = -0.04534 0.48546
# Poissons Ratio (y) = -0.10555 0.77374
# Poissons Ratio (z) = 0.31021 0.21240
#
# Static dielectric constant tensor:
#      x y z
#    x 3.575400 0.000000 -0.047960 
#    y 0.000000 3.368140 0.000000 
#    z -0.047960 0.000000 3.968320 
# 
# 
# High freq. dielectric constant tensor:
#      x y z
#    x 1.753870 0.000000 0.002860 
#    y 0.000000 1.739470 0.000000 
#    z 0.002860 0.000000 1.762710 
# 
# From -- ./inp_files/375107.got.cif
#   From: 2010.06.25/outbox.cif.g09.slc.cpg/sg12_188_cif.got.tgz:375107.got - 2010.06.28 00:19:55.
