data_PCOD8092682
_publ_section_title
;
Structure prediction by ZEFSAII (Michael W. Deem and Ramdas Pophale) SiO2 
 PCOD8092682
Probable space group: C 2/M
;
_chemical_formula_sum "Si O2"
_cell_formula_units_Z 56
_cell_length_a 29.425842
_cell_length_b 8.871364
_cell_length_c 21.658922
_cell_angle_alpha 90.000000
_cell_angle_beta 30.428947
_cell_angle_gamma 90.000000
_cell_volume 2863.580504
_symmetry_space_group_name_H-M "C 2/M"
_symmetry_group_IT_number 12
_symmetry_cell_setting 'monoclinic'
loop_
_space_group_symop_operation_xyz
x,y,z
-x,y,-z
-x,-y,-z
x,-y,z
1/2+x,1/2+y,z
1/2-x,1/2+y,-z
1/2-x,1/2-y,-z
1/2+x,1/2-y,z
loop_
_atom_site_type_symbol
_atom_site_label
_atom_site_fract_x
_atom_site_fract_y
_atom_site_fract_z
Si Si1 0.720617 0.174497 0.379785
Si Si2 0.736912 0.178596 0.796468
Si Si3 0.365930 0.826850 0.293525
Si Si4 0.384753 0.676219 0.852031
Si Si5 0.537941 0.824317 0.018346
Si Si6 0.220921 0.676772 0.128970
Si Si7 0.070205 0.326955 0.651026
O O1 0.718965 0.270389 0.319362
O O2 0.799973 0.221219 0.332918
O O3 0.625436 0.203992 0.524136
O O4 0.733875 0.000000 0.348075
O O5 0.790763 0.247295 0.790703
O O6 0.741687 0.000000 0.795273
O O7 0.635347 0.244174 0.919494
O O8 0.468869 0.792548 0.154163
O O9 0.362684 0.791649 0.370279
O O10 0.340661 0.000000 0.308023
O O11 0.378298 0.500000 0.845830
O O12 0.359810 0.764846 0.819104
O O13 0.484748 0.719245 0.754641
O O14 0.316383 0.722412 0.986807
O O15 0.553130 0.000000 0.988462
O O16 0.500000 0.749501 0.000000
O O17 0.210683 0.500000 0.149033
O O18 0.037538 0.500000 0.693601
#
# Coordination Sequence:
#
# PCOD8092682 Si02
#       7
#     8   8   8   8   8   8   8
#     4  11  23  37  52  78 116 153 192 237 285 332
#     4  11  21  36  59  83 112 152 194 231 277 338
#     4  10  19  35  57  79 107 148 195 235 280 339
#     4  10  21  38  62  90 116 144 184 229 276 334
#     4   9  16  29  51  79 107 138 180 228 275 323
#     4  10  21  38  61  89 120 146 175 225 287 339
#     4  10  22  38  57  80 111 153 193 235 286 333
#
# _framework density 19.555937
#
# number of rings (size 3 to 8) (size 9 to 14) (size 15 to 20)
#    0.000    1.857    1.429    3.000    0.000    4.571 
#    0.000    2.857    0.000    4.286    0.000    0.000 
#    0.000    0.000    0.000    0.000    0.000    0.000 
#
# Total GULP energy -347277.918320 kJ/mol
# GULP energy per Si atom -12402.782797 kJ/mol
# Density = 1.951143 g / cm^3
# Si number density = 19.555937 Si / 1000 Ang^3
#
#
#
# Elastic Constant Matrix: (Units=GPa)
#
#
# Indices 1 2 3 4 5 6 
#
# 1 107.5636 39.0606 28.6660 -0.0044 20.0489 0.0023
# 2 39.0606 73.3889 25.3975 0.0145 7.5331 -0.0005
# 3 28.6660 25.3975 54.7572 0.0043 9.8914 -0.0009
# 4 -0.0044 0.0145 0.0043 27.2131 0.0019 1.1583
# 5 20.0489 7.5331 9.8914 0.0019 26.8998 -0.0019
# 6 0.0023 -0.0005 -0.0009 1.1583 -0.0019 36.0813
#
#
#
# Elastic Compliance Matrix: (Units=1/GPa)
#
#
# Indices 1 2 3 4 5 6 
#
# 1 0.013453 -0.005275 -0.003269 0.000006 -0.007348 -0.000002
# 2 -0.005275 0.018391 -0.005943 -0.000010 0.000966 0.000001
# 3 -0.003269 -0.005943 0.023554 -0.000001 -0.004560 0.000001
# 4 0.000006 -0.000010 -0.000001 0.036797 -0.000004 -0.001181
# 5 -0.007348 0.000966 -0.004560 -0.000004 0.044058 0.000003
# 6 -0.000002 0.000001 0.000001 -0.001181 0.000003 0.027753
#
#
# Mechanical properties :
#
#
# Convention : Reuss Voigt Hill
#
# Bulk Modulus (GPa) = 37.84426 46.88424 42.36425
# Shear Modulus (GPa) = 24.77843 27.54455 26.16149
#
# Velocity S-wave (km/s) = 3.56343 3.75707 3.66153
# Velocity P-wave (km/s) = 6.02698 6.54578 6.29173
#
# Compressibility (1/GPa) = 0.02642409
#
# Stress axis : x y z
#
# Youngs Moduli (GPa) = 74.33284 54.37424 42.45524
#
# Poissons Ratio (x) = 0.28681 0.13879
# Poissons Ratio (y) = 0.39209 0.25233
# Poissons Ratio (z) = 0.24299 0.32317
#
# Static dielectric constant tensor:
#      x y z
#    x 3.519780 0.000000 0.114040 
#    y 0.000000 3.395480 0.000010 
#    z 0.114040 0.000010 3.511460 
# 
# 
# High freq. dielectric constant tensor:
#      x y z
#    x 1.763430 0.000000 0.011100 
#    y 0.000000 1.750890 0.000000 
#    z 0.011100 0.000000 1.754480 
# 
# From -- ./inp_files/238934.got.cif
#   From: 2010.06.25/outbox.cif.g09.slc.cpg/sg12_120_cif.got.tgz:238934.got - 2010.06.28 00:19:55.
