data_PCOD8092006
_publ_section_title
;
Structure prediction by ZEFSAII (Michael W. Deem and Ramdas Pophale) SiO2 
 PCOD8092006
Probable space group: C 2/M
;
_chemical_formula_sum "Si O2"
_cell_formula_units_Z 56
_cell_length_a 19.324559
_cell_length_b 9.095253
_cell_length_c 20.890717
_cell_angle_alpha 90.000000
_cell_angle_beta 125.383263
_cell_angle_gamma 90.000000
_cell_volume 2993.598513
_symmetry_space_group_name_H-M "C 2/M"
_symmetry_group_IT_number 12
_symmetry_cell_setting 'monoclinic'
loop_
_space_group_symop_operation_xyz
x,y,z
-x,y,-z
-x,-y,-z
x,-y,z
1/2+x,1/2+y,z
1/2-x,1/2+y,-z
1/2-x,1/2-y,-z
1/2+x,1/2-y,z
loop_
_atom_site_type_symbol
_atom_site_label
_atom_site_fract_x
_atom_site_fract_y
_atom_site_fract_z
Si Si1 0.083881 0.328159 0.364030
Si Si2 0.337688 0.670808 0.038590
Si Si3 0.738110 0.171518 0.357367
Si Si4 0.076052 0.827772 0.494437
Si Si5 0.142638 0.170403 0.198278
Si Si6 0.488839 0.333353 0.207947
Si Si7 0.900177 0.664550 0.950732
O O1 0.075298 0.500000 0.370163
O O2 0.175543 0.286185 0.382794
O O3 0.069444 0.251524 0.423498
O O4 0.009189 0.276465 0.276569
O O5 0.322665 0.500000 0.018812
O O6 0.394219 0.698243 0.132221
O O7 0.250000 0.750000 0.000000
O O8 0.383802 0.735560 0.002471
O O9 0.833939 0.213018 0.426218
O O10 0.715972 0.266755 0.283385
O O11 0.727496 0.000000 0.334993
O O12 0.000000 0.773978 0.500000
O O13 0.068623 0.000000 0.477444
O O14 0.144044 0.261259 0.133827
O O15 0.051760 0.193456 0.182432
O O16 0.161278 0.000000 0.193875
O O17 0.498390 0.500000 0.238382
O O18 0.861926 0.500000 0.937920
O O19 0.000000 0.654724 0.000000
#
# Coordination Sequence:
#
# PCOD8092006 Si02
#       7
#     8   8   8   8   8   8   8
#     4  10  20  34  58  86 110 140 182 234 280 325
#     4  11  23  40  59  83 116 154 196 239 288 343
#     4   9  19  36  57  83 112 143 185 232 278 333
#     4  10  21  38  58  80 111 150 184 220 275 340
#     4  10  19  34  58  87 114 145 188 238 287 334
#     4   9  19  36  58  82 112 148 187 230 280 340
#     4  11  22  36  59  87 116 152 193 239 288 338
#
# _framework density 18.706583999999999
#
# number of rings (size 3 to 8) (size 9 to 14) (size 15 to 20)
#    0.000    2.000    1.429    2.143    0.000    3.714 
#    2.571    0.000    0.000    0.000    0.000    0.000 
#    0.000    0.000    0.000    0.000    0.000    0.000 
#
# Total GULP energy -347263.543014 kJ/mol
# GULP energy per Si atom -12402.269393 kJ/mol
# Density = 1.866401 g / cm^3
# Si number density = 18.706584 Si / 1000 Ang^3
#
#
#
# Elastic Constant Matrix: (Units=GPa)
#
#
# Indices 1 2 3 4 5 6 
#
# 1 84.2715 47.1024 57.0694 0.0000 7.5080 0.0000
# 2 47.1024 100.3584 69.4258 0.0000 -2.2841 0.0000
# 3 57.0694 69.4258 119.2888 0.0000 -1.3905 0.0000
# 4 0.0000 0.0000 0.0000 37.2464 0.0000 -5.6741
# 5 7.5080 -2.2841 -1.3905 0.0000 27.4635 0.0000
# 6 0.0000 0.0000 0.0000 -5.6741 0.0000 28.5090
#
#
#
# Elastic Compliance Matrix: (Units=1/GPa)
#
#
# Indices 1 2 3 4 5 6 
#
# 1 0.019567 -0.004682 -0.006707 0.000000 -0.006078 0.000000
# 2 -0.004682 0.017822 -0.008105 0.000000 0.002352 0.000000
# 3 -0.006707 -0.008105 0.016332 0.000000 0.001986 0.000000
# 4 0.000000 0.000000 0.000000 0.027688 0.000000 0.005511
# 5 -0.006078 0.002352 0.001986 0.000000 0.038370 0.000000
# 6 0.000000 0.000000 0.000000 0.005511 0.000000 0.036173
#
#
# Mechanical properties :
#
#
# Convention : Reuss Voigt Hill
#
# Bulk Modulus (GPa) = 67.87568 72.34599 70.11084
# Shear Modulus (GPa) = 25.01855 27.33185 26.17520
#
# Velocity S-wave (km/s) = 3.66104 3.82656 3.74471
# Velocity P-wave (km/s) = 7.36438 7.63423 7.50052
#
# Compressibility (1/GPa) = 0.01473282
#
# Stress axis : x y z
#
# Youngs Moduli (GPa) = 51.10645 56.10951 61.22949
#
# Poissons Ratio (x) = 0.26272 0.41066
# Poissons Ratio (y) = 0.23929 0.49627
# Poissons Ratio (z) = 0.34277 0.45477
#
# Static dielectric constant tensor:
#      x y z
#    x 3.228550 0.000000 0.070930 
#    y 0.000000 3.716030 0.000000 
#    z 0.070930 0.000000 3.475150 
# 
# 
# High freq. dielectric constant tensor:
#      x y z
#    x 1.709550 0.000000 0.000180 
#    y 0.000000 1.735570 0.000000 
#    z 0.000180 0.000000 1.735430 
# 
# From -- ./inp_files/319718.got.cif
#   From: 2010.06.25/outbox.cif.g09.slc.cpg/sg12_160_cif.got.tgz:319718.got - 2010.06.28 00:19:55.
