data_PCOD8092292
_publ_section_title
;
Structure prediction by ZEFSAII (Michael W. Deem and Ramdas Pophale) SiO2 
 PCOD8092292
Probable space group: C 2/M
;
_chemical_formula_sum "Si O2"
_cell_formula_units_Z 44
_cell_length_a 13.434393
_cell_length_b 24.357518
_cell_length_c 15.727178
_cell_angle_alpha 90.000000
_cell_angle_beta 150.115680
_cell_angle_gamma 90.000000
_cell_volume 2564.186494
_symmetry_space_group_name_H-M "C 2/M"
_symmetry_group_IT_number 12
_symmetry_cell_setting 'monoclinic'
loop_
_space_group_symop_operation_xyz
x,y,z
-x,y,-z
-x,-y,-z
x,-y,z
1/2+x,1/2+y,z
1/2-x,1/2+y,-z
1/2-x,1/2-y,-z
1/2+x,1/2-y,z
loop_
_atom_site_type_symbol
_atom_site_label
_atom_site_fract_x
_atom_site_fract_y
_atom_site_fract_z
Si Si1 0.198253 0.185779 0.978697
Si Si2 0.202218 0.563498 0.199153
Si Si3 0.994243 0.138903 0.331782
Si Si4 0.318052 0.728483 0.321147
Si Si5 0.628105 0.854568 0.293857
Si Si6 0.000000 0.796249 0.000000
O O1 0.069299 0.161752 0.806118
O O2 0.250000 0.250000 0.000000
O O3 0.393115 0.148144 0.140309
O O4 0.054938 0.172637 0.953811
O O5 0.229685 0.500000 0.241360
O O6 0.386188 0.581339 0.274143
O O7 0.189025 0.595510 0.277952
O O8 0.000000 0.576644 0.000000
O O9 0.236878 0.136656 0.520761
O O10 0.923940 0.177901 0.354975
O O11 0.500000 0.763078 0.500000
O O12 0.165178 0.704946 0.277816
O O13 0.200210 0.761566 0.163180
#
# Coordination Sequence:
#
# PCOD8092292 Si02
#       6
#     8   8   8   8   8   4
#     4  12  22  34  52  69 104 144 191 225 267 313
#     4  10  19  34  61  90 115 139 169 216 278 339
#     4  10  20  34  52  76 110 142 172 215 269 325
#     4   9  17  29  47  72  98 131 175 212 254 306
#     4  10  20  34  52  76 110 142 172 215 269 325
#     4  12  22  32  48  70  94 140 180 234 250 298
#
# _framework density 17.159438000000002
#
# number of rings (size 3 to 8) (size 9 to 14) (size 15 to 20)
#    0.000    1.636    5.455    1.636    2.545    3.636 
#    0.000    0.000    0.000    0.000    0.000    2.545 
#    0.000    2.909    0.000    0.000    0.000    0.000 
#
# Total GULP energy -272577.282891 kJ/mol
# GULP energy per Si atom -12389.876495 kJ/mol
# Density = 1.712038 g / cm^3
# Si number density = 17.159438 Si / 1000 Ang^3
#
#
#
# Elastic Constant Matrix: (Units=GPa)
#
#
# Indices 1 2 3 4 5 6 
#
# 1 92.8153 25.4698 37.1477 0.0003 -6.5906 0.0002
# 2 25.4698 50.9812 35.4485 0.0002 -7.9880 0.0001
# 3 37.1477 35.4485 151.2036 0.0008 -19.2142 0.0005
# 4 0.0003 0.0002 0.0008 35.9813 0.0005 9.4198
# 5 -6.5906 -7.9880 -19.2142 0.0005 17.4650 0.0003
# 6 0.0002 0.0001 0.0005 9.4198 0.0003 21.4079
#
#
#
# Elastic Compliance Matrix: (Units=1/GPa)
#
#
# Indices 1 2 3 4 5 6 
#
# 1 0.012972 -0.005059 -0.001945 0.000000 0.000442 0.000000
# 2 -0.005059 0.025861 -0.004138 0.000000 0.005366 0.000000
# 3 -0.001945 -0.004138 0.008984 0.000000 0.007257 0.000000
# 4 0.000000 0.000000 0.000000 0.031411 -0.000001 -0.013821
# 5 0.000442 0.005366 0.007257 -0.000001 0.067862 -0.000001
# 6 0.000000 0.000000 0.000000 -0.013821 -0.000001 0.052793
#
#
# Mechanical properties :
#
#
# Convention : Reuss Voigt Hill
#
# Bulk Modulus (GPa) = 39.16576 54.57022 46.86799
# Shear Modulus (GPa) = 21.67529 28.09979 24.88754
#
# Velocity S-wave (km/s) = 3.55797 4.05108 3.81250
# Velocity P-wave (km/s) = 6.30500 7.33162 6.83760
#
# Compressibility (1/GPa) = 0.02553250
#
# Stress axis : x y z
#
# Youngs Moduli (GPa) = 77.08823 38.66865 111.31310
#
# Poissons Ratio (x) = 0.19564 0.21648
# Poissons Ratio (y) = 0.39002 0.46060
# Poissons Ratio (z) = 0.14992 0.16001
#
# Static dielectric constant tensor:
#      x y z
#    x 0.941720 0.000010 2.145100 
#    y 0.000010 2.849800 -0.000010 
#    z 2.145100 -0.000010 1.436510 
# 
# 
# High freq. dielectric constant tensor:
#      x y z
#    x 1.636140 0.000000 -0.006870 
#    y 0.000000 1.609110 0.000000 
#    z -0.006870 0.000000 1.696800 
# 
# From -- ./inp_files/209218.got.cif
#   From: 2010.06.25/outbox.cif.g09.slc.cpg/sg12_105_cif.got.tgz:209218.got - 2010.06.28 00:19:55.
