data_PCOD8092609
_publ_section_title
;
Structure prediction by ZEFSAII (Michael W. Deem and Ramdas Pophale) SiO2 
 PCOD8092609
Probable space group: C 2/M
;
_chemical_formula_sum "Si O2"
_cell_formula_units_Z 56
_cell_length_a 33.898615
_cell_length_b 7.835731
_cell_length_c 20.618382
_cell_angle_alpha 90.000000
_cell_angle_beta 146.114691
_cell_angle_gamma 90.000000
_cell_volume 3053.416612
_symmetry_space_group_name_H-M "C 2/M"
_symmetry_group_IT_number 12
_symmetry_cell_setting 'monoclinic'
loop_
_space_group_symop_operation_xyz
x,y,z
-x,y,-z
-x,-y,-z
x,-y,z
1/2+x,1/2+y,z
1/2-x,1/2+y,-z
1/2-x,1/2-y,-z
1/2+x,1/2-y,z
loop_
_atom_site_type_symbol
_atom_site_label
_atom_site_fract_x
_atom_site_fract_y
_atom_site_fract_z
Si Si1 0.538312 0.193313 0.988206
Si Si2 0.185658 0.306596 0.368694
Si Si3 0.112523 0.000000 0.633004
Si Si4 0.476001 0.807869 0.644452
Si Si5 0.970583 0.000000 0.358099
Si Si6 0.314857 0.308756 0.773244
Si Si7 0.545686 0.305303 0.243749
Si Si8 0.165042 0.302252 0.625570
O O1 0.515637 0.299384 0.894159
O O2 0.512277 0.000000 0.942988
O O3 0.500000 0.270774 0.000000
O O4 0.623010 0.195048 0.111424
O O5 0.195682 0.500000 0.359418
O O6 0.250000 0.250000 0.500000
O O7 0.182469 0.191260 0.300753
O O8 0.114639 0.290185 0.312629
O O9 0.038374 0.000000 0.495837
O O10 0.153857 0.174147 0.670753
O O11 0.099656 0.000000 0.692972
O O12 0.529487 0.671467 0.685460
O O13 0.480279 0.789654 0.727394
O O14 0.395851 0.774093 0.511160
O O15 0.499961 0.000000 0.657947
O O16 0.328612 0.500000 0.815891
O O17 0.238477 0.245691 0.692984
O O18 0.563840 0.500000 0.285526
O O19 0.165871 0.500000 0.650623
#
# Coordination Sequence:
#
# PCOD8092609 Si02
#       8
#     8   8   4   8   4   8   8   8
#     4  11  23  38  55  76 104 143 188 239 282 327
#     4  12  24  36  52  76 105 146 189 229 277 329
#     4   9  18  32  58  80 121 146 180 220 274 337
#     4  10  19  35  56  81 117 150 182 228 276 332
#     4   9  18  34  52  90 113 148 182 220 272 341
#     4  11  22  37  55  77 107 142 188 235 277 325
#     4  12  23  37  56  77 108 146 189 235 280 327
#     4   9  20  34  54  83 115 149 183 225 276 332
#
# _framework density 18.340109999999999
#
# number of rings (size 3 to 8) (size 9 to 14) (size 15 to 20)
#    0.000    1.429    2.143    4.286    2.000    2.286 
#    0.000    2.857    0.000    0.000    0.000    1.000 
#    0.000    0.000    0.000    0.000    0.000    0.000 
#
# Total GULP energy -347269.831277 kJ/mol
# GULP energy per Si atom -12402.493974 kJ/mol
# Density = 1.829837 g / cm^3
# Si number density = 18.340110 Si / 1000 Ang^3
#
#
#
# Elastic Constant Matrix: (Units=GPa)
#
#
# Indices 1 2 3 4 5 6 
#
# 1 127.6912 45.2511 32.9552 0.0000 -14.4222 0.0000
# 2 45.2511 104.6909 18.3394 0.0001 -2.1198 0.0000
# 3 32.9552 18.3394 83.5030 0.0000 -7.4957 0.0000
# 4 0.0000 0.0001 0.0000 22.6844 0.0000 0.5628
# 5 -14.4222 -2.1198 -7.4957 0.0000 8.6790 0.0000
# 6 0.0000 0.0000 0.0000 0.5628 0.0000 28.2975
#
#
#
# Elastic Compliance Matrix: (Units=1/GPa)
#
#
# Indices 1 2 3 4 5 6 
#
# 1 0.011846 -0.004395 -0.002211 0.000000 0.016702 0.000000
# 2 -0.004395 0.011567 -0.001310 0.000000 -0.005609 0.000000
# 3 -0.002211 -0.001310 0.013851 0.000000 0.007969 0.000000
# 4 0.000000 0.000000 0.000000 0.044105 0.000000 -0.000877
# 5 0.016702 -0.005609 0.007969 0.000000 0.148487 0.000000
# 6 0.000000 0.000000 0.000000 -0.000877 0.000000 0.035356
#
#
# Mechanical properties :
#
#
# Convention : Reuss Voigt Hill
#
# Bulk Modulus (GPa) = 46.65399 56.55295 51.60347
# Shear Modulus (GPa) = 17.34987 26.55483 21.95235
#
# Velocity S-wave (km/s) = 3.07906 3.80927 3.46346
# Velocity P-wave (km/s) = 6.17529 7.08872 6.64772
#
# Compressibility (1/GPa) = 0.02143440
#
# Stress axis : x y z
#
# Youngs Moduli (GPa) = 84.41877 86.45045 72.19697
#
# Poissons Ratio (x) = 0.37993 0.15960
# Poissons Ratio (y) = 0.37100 0.09454
# Poissons Ratio (z) = 0.18661 0.11321
#
# Static dielectric constant tensor:
#      x y z
#    x 3.377290 0.000000 -0.012990 
#    y 0.000000 3.408870 0.000000 
#    z -0.012990 0.000000 3.157820 
# 
# 
# High freq. dielectric constant tensor:
#      x y z
#    x 1.691610 0.000000 -0.001550 
#    y 0.000000 1.729350 0.000000 
#    z -0.001550 0.000000 1.686720 
# 
# From -- ./inp_files/292629.got.cif
#   From: 2010.06.25/outbox.cif.g09.slc.cpg/sg12_147_cif.got.tgz:292629.got - 2010.06.28 00:19:55.
