data_PCOD8092030
_publ_section_title
;
Structure prediction by ZEFSAII (Michael W. Deem and Ramdas Pophale) SiO2 
 PCOD8092030
Probable space group: C 2/M
;
_chemical_formula_sum "Si O2"
_cell_formula_units_Z 52
_cell_length_a 5.257220
_cell_length_b 30.038406
_cell_length_c 16.891320
_cell_angle_alpha 90.000000
_cell_angle_beta 56.539494
_cell_angle_gamma 90.000000
_cell_volume 2225.364763
_symmetry_space_group_name_H-M "C 2/M"
_symmetry_group_IT_number 12
_symmetry_cell_setting 'monoclinic'
loop_
_space_group_symop_operation_xyz
x,y,z
-x,y,-z
-x,-y,-z
x,-y,z
1/2+x,1/2+y,z
1/2-x,1/2+y,-z
1/2-x,1/2-y,-z
1/2+x,1/2-y,z
loop_
_atom_site_type_symbol
_atom_site_label
_atom_site_fract_x
_atom_site_fract_y
_atom_site_fract_z
Si Si1 0.428269 0.370062 0.169906
Si Si2 0.103113 0.398138 0.372595
Si Si3 0.692570 0.222895 0.229532
Si Si4 0.855660 0.306036 0.444632
Si Si5 0.000000 0.403924 0.000000
Si Si6 0.130754 0.949721 0.344645
Si Si7 0.386531 0.949916 0.863404
O O1 0.366937 0.375129 0.273653
O O2 0.272984 0.323445 0.170966
O O3 0.308089 0.414156 0.149244
O O4 0.780769 0.369863 0.084834
O O5 0.299579 0.425539 0.404021
O O6 0.908282 0.358887 0.444391
O O7 0.871681 0.429043 0.364171
O O8 0.502003 0.251649 0.199681
O O9 0.503329 0.214640 0.341543
O O10 0.500000 0.296542 0.500000
O O11 0.000000 0.283844 0.500000
O O12 0.858499 0.437534 0.960215
O O13 0.268659 0.947905 0.231469
O O14 0.074256 0.000000 0.381788
O O15 0.256718 0.000000 0.873354
#
# Coordination Sequence:
#
# PCOD8092030 Si02
#       7
#     8   8   8   8   4   8   8
#     4  10  24  40  63  90 133 175 224 268 332 387
#     4  10  20  38  59  86 126 169 212 261 323 389
#     4  11  26  46  73  99 133 174 218 270 328 396
#     4  11  23  40  68 102 130 159 201 262 334 401
#     4  12  21  38  62  92 136 174 220 280 325 394
#     4  10  19  34  58  87 122 172 225 265 311 380
#     4  10  22  37  60  95 135 173 220 280 337 384
#
# _framework density 23.366955000000001
#
# number of rings (size 3 to 8) (size 9 to 14) (size 15 to 20)
#    0.000    1.538    1.538    3.000    2.154    6.769 
#    0.000    0.769    0.000    9.231    0.000    0.000 
#    0.000    0.000    0.000    0.000    0.000    0.000 
#
# Total GULP energy -322284.955014 kJ/mol
# GULP energy per Si atom -12395.575193 kJ/mol
# Density = 2.331377 g / cm^3
# Si number density = 23.366955 Si / 1000 Ang^3
#
#
#
# Elastic Constant Matrix: (Units=GPa)
#
#
# Indices 1 2 3 4 5 6 
#
# 1 129.7350 35.3537 31.2026 0.0000 -19.1668 0.0000
# 2 35.3537 145.6423 44.1232 0.0000 -20.7905 0.0000
# 3 31.2026 44.1232 34.0541 0.0000 -1.9678 0.0000
# 4 0.0000 0.0000 0.0000 0.0087 0.0000 -2.0105
# 5 -19.1668 -20.7905 -1.9678 0.0000 30.3999 0.0000
# 6 0.0000 0.0000 0.0000 -2.0105 0.0000 55.8417
#
#
#
# Elastic Compliance Matrix: (Units=1/GPa)
#
#
# Indices 1 2 3 4 5 6 
#
# 1 0.011354 0.002276 -0.012897 0.000000 0.007880 0.000000
# 2 0.002276 0.013362 -0.018857 0.000000 0.009352 0.000000
# 3 -0.012897 -0.018857 0.064642 0.000000 -0.016844 0.000000
# 4 0.000000 0.000000 0.000000-15.707577 0.000000 -0.565529
# 5 0.007880 0.009352 -0.016844 0.000000 0.043169 0.000000
# 6 0.000000 0.000000 0.000000 -0.565529 0.000000 -0.002453
#
#
# Mechanical properties :
#
#
# Convention : Reuss Voigt Hill
#
# Bulk Modulus (GPa) = 32.89373 58.97673 45.93523
# Shear Modulus (GPa) = -0.32241 30.50019 15.08889
#
# Velocity S-wave (km/s) = -0.37185 3.61677 2.54389
# Velocity P-wave (km/s) = 3.73138 6.53724 5.32254
#
# Compressibility (1/GPa) = 0.03040093
#
# Stress axis : x y z
#
# Youngs Moduli (GPa) = 88.07633 74.84068 15.46987
#
# Poissons Ratio (x) = -0.17033 0.19951
# Poissons Ratio (y) = -0.20046 0.29172
# Poissons Ratio (z) = 1.13589 1.41131
#
# Static dielectric constant tensor:
#      x y z
#    x 4.004910 0.000000 -0.105450 
#    y 0.000000 4.357690 0.000000 
#    z -0.105450 0.000000 4.634480 
# 
# 
# High freq. dielectric constant tensor:
#      x y z
#    x 1.912420 0.000000 -0.007610 
#    y 0.000000 1.938890 0.000000 
#    z -0.007610 0.000000 1.920470 
# 
# From -- ./inp_files/298351.got.cif
#   From: 2010.06.25/outbox.cif.g09.slc.cpg/sg12_150_cif.got.tgz:298351.got - 2010.06.28 00:19:55.
