data_PCOD8092151
_publ_section_title
;
Structure prediction by ZEFSAII (Michael W. Deem and Ramdas Pophale) SiO2 
 PCOD8092151
Probable space group: C 2/M
;
_chemical_formula_sum "Si O2"
_cell_formula_units_Z 64
_cell_length_a 29.692162
_cell_length_b 9.090074
_cell_length_c 23.601557
_cell_angle_alpha 90.000000
_cell_angle_beta 149.940485
_cell_angle_gamma 90.000000
_cell_volume 3190.805401
_symmetry_space_group_name_H-M "C 2/M"
_symmetry_group_IT_number 12
_symmetry_cell_setting 'monoclinic'
loop_
_space_group_symop_operation_xyz
x,y,z
-x,y,-z
-x,-y,-z
x,-y,z
1/2+x,1/2+y,z
1/2-x,1/2+y,-z
1/2-x,1/2-y,-z
1/2+x,1/2-y,z
loop_
_atom_site_type_symbol
_atom_site_label
_atom_site_fract_x
_atom_site_fract_y
_atom_site_fract_z
Si Si1 0.632292 0.328017 0.078416
Si Si2 0.306579 0.168142 0.199094
Si Si3 0.834755 0.829236 0.117216
Si Si4 0.112690 0.825412 0.481233
Si Si5 0.469138 0.169164 0.841118
Si Si6 0.024213 0.172839 0.270165
Si Si7 0.041572 0.160985 0.604754
Si Si8 0.199828 0.669386 0.264208
O O1 0.613503 0.500000 0.067493
O O2 0.705262 0.303289 0.108358
O O3 0.669505 0.262198 0.177006
O O4 0.541693 0.251033 0.959325
O O5 0.341489 0.277253 0.188555
O O6 0.378803 0.221902 0.323987
O O7 0.319150 0.000000 0.194778
O O8 0.923864 0.786064 0.180318
O O9 0.816251 0.000000 0.092971
O O10 0.750000 0.750000 0.000000
O O11 0.094543 0.778150 0.395993
O O12 0.207922 0.765147 0.608644
O O13 0.030967 0.767117 0.430976
O O14 0.114386 0.000000 0.486541
O O15 0.456168 0.239057 0.765445
O O16 0.373862 0.183804 0.767416
O O17 0.499156 0.000000 0.867638
O O18 0.032475 0.000000 0.266300
O O19 0.000000 0.127413 0.500000
O O20 0.074361 0.000000 0.664249
O O21 0.211423 0.500000 0.257636
#
# Coordination Sequence:
#
# PCOD8092151 Si02
#       8
#     8   8   8   8   8   8   8   8
#     4  11  24  41  61  88 122 159 200 245 302 369
#     4  11  23  37  55  84 120 154 191 236 291 346
#     4  11  22  37  58  85 117 154 200 242 287 349
#     4   9  18  37  61  87 120 159 200 243 294 357
#     4  11  24  40  61  91 120 152 201 256 308 356
#     4  10  21  39  61  85 120 162 202 244 294 358
#     4  10  19  34  59  87 115 155 201 237 283 352
#     4  10  22  41  65  90 118 154 199 254 306 355
#
# _framework density 20.057632000000002
#
# number of rings (size 3 to 8) (size 9 to 14) (size 15 to 20)
#    0.000    1.625    1.250    3.375    0.000   10.250 
#    0.000    1.250    0.000    0.000    0.000    0.000 
#    0.000    0.000    0.000    0.000    0.000    0.000 
#
# Total GULP energy -396692.187785 kJ/mol
# GULP energy per Si atom -12396.630868 kJ/mol
# Density = 2.001198 g / cm^3
# Si number density = 20.057632 Si / 1000 Ang^3
#
#
#
# Elastic Constant Matrix: (Units=GPa)
#
#
# Indices 1 2 3 4 5 6 
#
# 1 78.5205 43.9018 29.2744 0.0000 -8.0675 0.0000
# 2 43.9018 66.1470 42.4191 0.0000 -0.8610 0.0000
# 3 29.2744 42.4191 126.6786 0.0000 -4.0318 0.0000
# 4 0.0000 0.0000 0.0000 22.2456 0.0000 -4.7628
# 5 -8.0675 -0.8610 -4.0318 0.0000 35.1599 0.0000
# 6 0.0000 0.0000 0.0000 -4.7628 0.0000 32.9824
#
#
#
# Elastic Compliance Matrix: (Units=1/GPa)
#
#
# Indices 1 2 3 4 5 6 
#
# 1 0.020928 -0.013781 -0.000080 0.000000 0.004455 0.000000
# 2 -0.013781 0.028329 -0.006403 0.000000 -0.003203 0.000000
# 3 -0.000080 -0.006403 0.010088 0.000000 0.000982 0.000000
# 4 0.000000 0.000000 0.000000 0.046387 0.000000 0.006698
# 5 0.004455 -0.003203 0.000982 0.000000 0.029498 0.000000
# 6 0.000000 0.000000 0.000000 0.006698 0.000000 0.031286
#
#
# Mechanical properties :
#
#
# Convention : Reuss Voigt Hill
#
# Bulk Modulus (GPa) = 53.14424 55.83739 54.49081
# Shear Modulus (GPa) = 23.43937 28.46097 25.95017
#
# Velocity S-wave (km/s) = 3.42219 3.77099 3.60082
# Velocity P-wave (km/s) = 6.49372 6.84540 6.67188
#
# Compressibility (1/GPa) = 0.01881672
#
# Stress axis : x y z
#
# Youngs Moduli (GPa) = 47.78281 35.29978 99.12837
#
# Poissons Ratio (x) = 0.48645 0.00793
# Poissons Ratio (y) = 0.65848 0.63476
# Poissons Ratio (z) = 0.00382 0.22604
#
# Static dielectric constant tensor:
#      x y z
#    x 3.568470 0.000000 0.074820 
#    y 0.000000 3.545920 0.000000 
#    z 0.074820 0.000000 3.789550 
# 
# 
# High freq. dielectric constant tensor:
#      x y z
#    x 1.785990 0.000000 -0.003900 
#    y 0.000000 1.770840 0.000000 
#    z -0.003900 0.000000 1.800560 
# 
# From -- ./inp_files/353511.got.cif
#   From: 2010.06.25/outbox.cif.g09.slc.cpg/sg12_177_cif.got.tgz:353511.got - 2010.06.28 00:19:55.
