data_PCOD8092815
_publ_section_title
;
Structure prediction by ZEFSAII (Michael W. Deem and Ramdas Pophale) SiO2 
 PCOD8092815
Probable space group: C 2/M
;
_chemical_formula_sum "Si O2"
_cell_formula_units_Z 56
_cell_length_a 16.078306
_cell_length_b 9.331285
_cell_length_c 19.206997
_cell_angle_alpha 90.000000
_cell_angle_beta 90.445825
_cell_angle_gamma 90.000000
_cell_volume 2881.562641
_symmetry_space_group_name_H-M "C 2/M"
_symmetry_group_IT_number 12
_symmetry_cell_setting 'monoclinic'
loop_
_space_group_symop_operation_xyz
x,y,z
-x,y,-z
-x,-y,-z
x,-y,z
1/2+x,1/2+y,z
1/2-x,1/2+y,-z
1/2-x,1/2-y,-z
1/2+x,1/2-y,z
loop_
_atom_site_type_symbol
_atom_site_label
_atom_site_fract_x
_atom_site_fract_y
_atom_site_fract_z
Si Si1 0.074350 0.162246 0.208746
Si Si2 0.335169 0.335559 0.082494
Si Si3 0.670666 0.337606 0.073405
Si Si4 0.346050 0.166202 0.348503
Si Si5 0.502463 0.332432 0.581452
Si Si6 0.837510 0.165215 0.654250
Si Si7 0.082081 0.663772 0.797089
O O1 0.100449 0.193609 0.129774
O O2 0.150548 0.185914 0.262618
O O3 0.004041 0.272583 0.231634
O O4 0.040254 0.000000 0.215584
O O5 0.334066 0.500000 0.106051
O O6 0.242518 0.275926 0.086499
O O7 0.394273 0.249881 0.133963
O O8 0.368800 0.318625 0.003612
O O9 0.705872 0.500000 0.082566
O O10 0.416379 0.255796 0.387699
O O11 0.253599 0.227940 0.367271
O O12 0.352236 0.180552 0.264812
O O13 0.356214 0.000000 0.370112
O O14 0.500000 0.303224 0.500000
O O15 0.510575 0.500000 0.599780
O O16 0.416500 0.267582 0.613296
O O17 0.834243 0.000000 0.633778
O O18 0.070013 0.500000 0.818808
#
# Coordination Sequence:
#
# PCOD8092815 Si02
#       7
#     8   8   8   8   8   8   8
#     4  10  19  35  58  78 105 147 191 232 283 343
#     4  10  20  34  53  77 107 144 186 233 287 343
#     4   9  19  35  54  77 105 141 188 237 283 340
#     4  10  21  38  60  84 113 152 194 233 277 337
#     4  10  21  38  60  88 120 149 184 232 281 336
#     4   9  18  35  59  83 112 152 189 224 281 341
#     4  11  22  35  53  79 111 143 188 243 287 331
#
# _framework density 19.433899
#
# number of rings (size 3 to 8) (size 9 to 14) (size 15 to 20)
#    0.000    2.143    1.429    1.714    0.000    5.429 
#    0.000    4.286    0.000    0.000    0.000    0.000 
#    0.000    0.000    0.000    0.000    0.000    0.000 
#
# Total GULP energy -347111.054300 kJ/mol
# GULP energy per Si atom -12396.823368 kJ/mol
# Density = 1.938967 g / cm^3
# Si number density = 19.433899 Si / 1000 Ang^3
#
#
#
# Elastic Constant Matrix: (Units=GPa)
#
#
# Indices 1 2 3 4 5 6 
#
# 1 150.1394 53.7860 57.0024 0.0000 2.8677 0.0000
# 2 53.7860 87.0060 42.4717 0.0000 4.3863 0.0000
# 3 57.0024 42.4717 100.4172 0.0000 -1.5946 0.0000
# 4 0.0000 0.0000 0.0000 21.8676 0.0000 4.4274
# 5 2.8677 4.3863 -1.5946 0.0000 25.7824 0.0000
# 6 0.0000 0.0000 0.0000 4.4274 0.0000 32.1798
#
#
#
# Elastic Compliance Matrix: (Units=1/GPa)
#
#
# Indices 1 2 3 4 5 6 
#
# 1 0.009531 -0.004053 -0.003706 0.000000 -0.000600 0.000000
# 2 -0.004053 0.016419 -0.004686 0.000000 -0.002632 0.000000
# 3 -0.003706 -0.004686 0.014077 0.000000 0.002080 0.000000
# 4 0.000000 0.000000 0.000000 0.047040 0.000000 -0.006472
# 5 -0.000600 -0.002632 0.002080 0.000000 0.039429 0.000000
# 6 0.000000 0.000000 0.000000 -0.006472 0.000000 0.031966
#
#
# Mechanical properties :
#
#
# Convention : Reuss Voigt Hill
#
# Bulk Modulus (GPa) = 66.05695 71.56475 68.81085
# Shear Modulus (GPa) = 26.53999 28.25282 27.39640
#
# Velocity S-wave (km/s) = 3.69949 3.81700 3.75870
# Velocity P-wave (km/s) = 7.23275 7.50537 7.37032
#
# Compressibility (1/GPa) = 0.01513845
#
# Stress axis : x y z
#
# Youngs Moduli (GPa) = 104.92514 60.90604 71.03901
#
# Poissons Ratio (x) = 0.24683 0.26324
# Poissons Ratio (y) = 0.42522 0.33286
# Poissons Ratio (z) = 0.38881 0.28539
#
# Static dielectric constant tensor:
#      x y z
#    x 3.561990 0.000000 -0.116110 
#    y 0.000000 3.462360 0.000000 
#    z -0.116110 0.000000 3.626360 
# 
# 
# High freq. dielectric constant tensor:
#      x y z
#    x 1.754150 0.000000 -0.001130 
#    y 0.000000 1.738670 0.000000 
#    z -0.001130 0.000000 1.761760 
# 
# From -- ./inp_files/308951.got.cif
#   From: 2010.06.25/outbox.cif.g09.slc.cpg/sg12_155_cif.got.tgz:308951.got - 2010.06.28 00:19:55.
