data_PCOD8092314
_publ_section_title
;
Structure prediction by ZEFSAII (Michael W. Deem and Ramdas Pophale) SiO2 
 PCOD8092314
Probable space group: C 2/M
;
_chemical_formula_sum "Si O2"
_cell_formula_units_Z 56
_cell_length_a 16.481744
_cell_length_b 17.277020
_cell_length_c 11.626347
_cell_angle_alpha 90.000000
_cell_angle_beta 128.897198
_cell_angle_gamma 90.000000
_cell_volume 2576.604279
_symmetry_space_group_name_H-M "C 2/M"
_symmetry_group_IT_number 12
_symmetry_cell_setting 'monoclinic'
loop_
_space_group_symop_operation_xyz
x,y,z
-x,y,-z
-x,-y,-z
x,-y,z
1/2+x,1/2+y,z
1/2-x,1/2+y,-z
1/2-x,1/2-y,-z
1/2+x,1/2-y,z
loop_
_atom_site_type_symbol
_atom_site_label
_atom_site_fract_x
_atom_site_fract_y
_atom_site_fract_z
Si Si1 0.050577 0.807049 0.200929
Si Si2 0.265579 0.411212 0.684266
Si Si3 0.557233 0.088644 0.377788
Si Si4 0.256216 0.832362 0.892374
Si Si5 0.408100 0.217615 0.219422
Si Si6 0.639522 0.411710 0.992130
Si Si7 0.905865 0.358368 0.842846
O O1 0.152153 0.859432 0.313405
O O2 0.082021 0.734522 0.150058
O O3 0.006764 0.774380 0.283761
O O4 0.959985 0.859879 0.063489
O O5 0.286078 0.500000 0.667289
O O6 0.149085 0.386755 0.545661
O O7 0.276793 0.399040 0.831558
O O8 0.454351 0.139436 0.316833
O O9 0.597571 0.101943 0.284075
O O10 0.523623 0.000000 0.365635
O O11 0.180729 0.760901 0.785292
O O12 0.297273 0.875369 0.814422
O O13 0.358161 0.799564 0.048952
O O14 0.192871 0.889562 0.919043
O O15 0.601953 0.500000 0.950813
O O16 0.000000 0.395540 0.000000
#
# Coordination Sequence:
#
# PCOD8092314 Si02
#       7
#     8   8   8   8   8   8   8
#     4  10  19  34  62  86 110 143 190 242 284 326
#     4  10  21  36  57  85 118 153 188 231 282 340
#     4  10  22  39  58  83 117 156 191 229 282 339
#     4  10  20  36  58  87 114 142 187 236 288 331
#     4   9  20  35  57  81 112 150 183 233 279 333
#     4  10  21  35  58  88 115 147 186 233 286 340
#     4  11  20  36  61  87 109 145 189 242 284 331
#
# _framework density 21.734031999999999
#
# number of rings (size 3 to 8) (size 9 to 14) (size 15 to 20)
#    0.000    2.000    2.857    1.714    4.000    4.857 
#    0.000    0.714    3.143    5.143    0.000    9.000 
#    0.000    0.000    0.000    0.000    0.000    0.000 
#
# Total GULP energy -347107.449095 kJ/mol
# GULP energy per Si atom -12396.694611 kJ/mol
# Density = 2.168456 g / cm^3
# Si number density = 21.734032 Si / 1000 Ang^3
#
#
#
# Elastic Constant Matrix: (Units=GPa)
#
#
# Indices 1 2 3 4 5 6 
#
# 1 83.7717 22.4593 25.5940 0.0000 11.7366 0.0000
# 2 22.4593 94.6068 47.4779 0.0000 24.1102 0.0000
# 3 25.5940 47.4779 91.6099 0.0000 22.3945 0.0000
# 4 0.0000 0.0000 0.0000 28.1240 0.0000 13.4569
# 5 11.7366 24.1102 22.3945 0.0000 30.5135 0.0000
# 6 0.0000 0.0000 0.0000 13.4569 0.0000 22.0127
#
#
#
# Elastic Compliance Matrix: (Units=1/GPa)
#
#
# Indices 1 2 3 4 5 6 
#
# 1 0.013375 -0.001355 -0.002484 0.000000 -0.002251 0.000000
# 2 -0.001355 0.015822 -0.005962 0.000000 -0.007605 0.000000
# 3 -0.002484 -0.005962 0.016226 0.000000 -0.006242 0.000000
# 4 0.000000 0.000000 0.000000 0.050258 0.000000 -0.030724
# 5 -0.002251 -0.007605 -0.006242 0.000000 0.044228 0.000000
# 6 0.000000 0.000000 0.000000 -0.030724 0.000000 0.064210
#
#
# Mechanical properties :
#
#
# Convention : Reuss Voigt Hill
#
# Bulk Modulus (GPa) = 38.73056 51.22785 44.97921
# Shear Modulus (GPa) = 21.52134 27.76054 24.64094
#
# Velocity S-wave (km/s) = 3.15018 3.57779 3.37077
# Velocity P-wave (km/s) = 5.57588 6.37879 5.99080
#
# Compressibility (1/GPa) = 0.02581940
#
# Stress axis : x y z
#
# Youngs Moduli (GPa) = 74.76765 63.20361 61.63015
#
# Poissons Ratio (x) = 0.08563 0.15311
# Poissons Ratio (y) = 0.10130 0.36746
# Poissons Ratio (z) = 0.18575 0.37684
#
# Static dielectric constant tensor:
#      x y z
#    x 3.867750 0.000000 0.207280 
#    y 0.000000 3.952230 0.000000 
#    z 0.207280 0.000000 3.620870 
# 
# 
# High freq. dielectric constant tensor:
#      x y z
#    x 1.863340 0.000000 0.013550 
#    y 0.000000 1.852660 0.000000 
#    z 0.013550 0.000000 1.815480 
# 
# From -- ./inp_files/158313.got.cif
#   From: 2010.06.25/outbox.cif.g09.slc.cpg/sg12_80_cif.got.tgz:158313.got - 2010.06.28 00:19:55.
