data_PCOD8092878
_publ_section_title
;
Structure prediction by ZEFSAII (Michael W. Deem and Ramdas Pophale) SiO2 
 PCOD8092878
Probable space group: C 2/M
;
_chemical_formula_sum "Si O2"
_cell_formula_units_Z 48
_cell_length_a 24.687999
_cell_length_b 9.188351
_cell_length_c 20.165585
_cell_angle_alpha 90.000000
_cell_angle_beta 144.795551
_cell_angle_gamma 90.000000
_cell_volume 2637.123174
_symmetry_space_group_name_H-M "C 2/M"
_symmetry_group_IT_number 12
_symmetry_cell_setting 'monoclinic'
loop_
_space_group_symop_operation_xyz
x,y,z
-x,y,-z
-x,-y,-z
x,-y,z
1/2+x,1/2+y,z
1/2-x,1/2+y,-z
1/2-x,1/2-y,-z
1/2+x,1/2-y,z
loop_
_atom_site_type_symbol
_atom_site_label
_atom_site_fract_x
_atom_site_fract_y
_atom_site_fract_z
Si Si1 0.704330 0.167907 0.893636
Si Si2 0.302184 0.167548 0.733533
Si Si3 0.000763 0.667528 0.271948
Si Si4 0.319192 0.672075 0.881579
Si Si5 0.314533 0.669812 0.511716
Si Si6 0.507580 0.168973 0.888698
O O1 0.592671 0.194878 0.778581
O O2 0.748875 0.222642 0.869439
O O3 0.727196 0.000000 0.928378
O O4 0.750000 0.250000 0.000000
O O5 0.277257 0.266511 0.771415
O O6 0.223908 0.198660 0.600140
O O7 0.402685 0.211446 0.804166
O O8 0.301923 0.000000 0.755462
O O9 0.034678 0.500000 0.309190
O O10 0.080224 0.770067 0.381404
O O11 0.978367 0.710287 0.173890
O O12 0.327320 0.500000 0.884818
O O13 0.422274 0.737421 0.996548
O O14 0.313858 0.500000 0.528661
O O15 0.250000 0.750000 0.500000
O O16 0.529128 0.000000 0.923262
#
# Coordination Sequence:
#
# PCOD8092878 Si02
#       6
#     8   8   8   8   8   8
#     4  10  21  37  58  83 114 148 189 232 279 336
#     4  10  22  39  56  79 113 153 189 222 278 347
#     4  10  20  37  59  85 114 148 187 233 283 331
#     4  11  23  36  54  86 117 146 188 235 280 330
#     4  11  22  38  60  86 114 147 190 235 279 335
#     4  10  19  35  58  82 113 152 185 223 282 344
#
# _framework density 18.201653
#
# number of rings (size 3 to 8) (size 9 to 14) (size 15 to 20)
#    0.000    1.667    3.333    1.500    0.000    6.000 
#    0.000    0.833    0.000    5.000    0.000    0.000 
#    0.000    0.000    0.000    0.000    0.000    0.000 
#
# Total GULP energy -297724.694325 kJ/mol
# GULP energy per Si atom -12405.195597 kJ/mol
# Density = 1.816023 g / cm^3
# Si number density = 18.201653 Si / 1000 Ang^3
#
#
#
# Elastic Constant Matrix: (Units=GPa)
#
#
# Indices 1 2 3 4 5 6 
#
# 1 88.3334 45.5895 33.9046 0.0000 -5.4567 0.0000
# 2 45.5895 83.3511 57.8293 0.0000 -6.7256 0.0000
# 3 33.9046 57.8293 102.1077 0.0000 -4.7438 0.0000
# 4 0.0000 0.0000 0.0000 37.3271 0.0000 -1.8576
# 5 -5.4567 -6.7256 -4.7438 0.0000 25.5567 0.0000
# 6 0.0000 0.0000 0.0000 -1.8576 0.0000 28.9743
#
#
#
# Elastic Compliance Matrix: (Units=1/GPa)
#
#
# Indices 1 2 3 4 5 6 
#
# 1 0.015826 -0.008163 -0.000579 0.000000 0.001123 0.000000
# 2 -0.008163 0.024229 -0.010890 0.000000 0.002612 0.000000
# 3 -0.000579 -0.010890 0.016154 0.000000 0.000009 0.000000
# 4 0.000000 0.000000 0.000000 0.026876 0.000000 0.001723
# 5 0.001123 0.002612 0.000009 0.000000 0.040057 0.000000
# 6 0.000000 0.000000 0.000000 0.001723 0.000000 0.034624
#
#
# Mechanical properties :
#
#
# Convention : Reuss Voigt Hill
#
# Bulk Modulus (GPa) = 59.02209 60.93768 59.97989
# Shear Modulus (GPa) = 24.66950 27.46954 26.06952
#
# Velocity S-wave (km/s) = 3.68549 3.88903 3.78863
# Velocity P-wave (km/s) = 7.11391 7.32925 7.22238
#
# Compressibility (1/GPa) = 0.01694281
#
# Stress axis : x y z
#
# Youngs Moduli (GPa) = 63.18844 41.27300 61.90387
#
# Poissons Ratio (x) = 0.33693 0.03586
# Poissons Ratio (y) = 0.51584 0.67415
# Poissons Ratio (z) = 0.03660 0.44947
#
# Static dielectric constant tensor:
#      x y z
#    x 3.500340 0.000000 0.022350 
#    y 0.000000 3.362710 0.000000 
#    z 0.022350 0.000000 3.346370 
# 
# 
# High freq. dielectric constant tensor:
#      x y z
#    x 1.707970 0.000000 0.000330 
#    y 0.000000 1.706240 0.000000 
#    z 0.000330 0.000000 1.703290 
# 
# From -- ./inp_files/327173.got.cif
#   From: 2010.06.25/outbox.cif.g09.slc.cpg/sg12_164_cif.got.tgz:327173.got - 2010.06.28 00:19:55.
