data_PCOD8092822
_publ_section_title
;
Structure prediction by ZEFSAII (Michael W. Deem and Ramdas Pophale) SiO2 
 PCOD8092822
Probable space group: C 2/M
;
_chemical_formula_sum "Si O2"
_cell_formula_units_Z 56
_cell_length_a 16.514537
_cell_length_b 23.791919
_cell_length_c 7.963629
_cell_angle_alpha 90.000000
_cell_angle_beta 114.760964
_cell_angle_gamma 90.000000
_cell_volume 2841.337972
_symmetry_space_group_name_H-M "C 2/M"
_symmetry_group_IT_number 12
_symmetry_cell_setting 'monoclinic'
loop_
_space_group_symop_operation_xyz
x,y,z
-x,y,-z
-x,-y,-z
x,-y,z
1/2+x,1/2+y,z
1/2-x,1/2+y,-z
1/2-x,1/2-y,-z
1/2+x,1/2-y,z
loop_
_atom_site_type_symbol
_atom_site_label
_atom_site_fract_x
_atom_site_fract_y
_atom_site_fract_z
Si Si1 0.742024 0.630864 0.668350
Si Si2 0.176366 0.762787 0.802804
Si Si3 0.096043 0.437541 0.545365
Si Si4 0.771116 0.652923 0.305143
Si Si5 0.415997 0.659298 0.049190
Si Si6 0.587484 0.564079 0.684961
Si Si7 0.095275 0.562899 0.147501
O O1 0.713663 0.689150 0.718839
O O2 0.757063 0.645298 0.489051
O O3 0.666453 0.584112 0.631105
O O4 0.829435 0.607468 0.843072
O O5 0.164804 0.706779 0.679938
O O6 0.088652 0.787197 0.824962
O O7 0.250000 0.750000 0.000000
O O8 0.102473 0.500000 0.629226
O O9 0.172459 0.401398 0.704638
O O10 0.105773 0.439724 0.355321
O O11 0.000000 0.410493 0.500000
O O12 0.675785 0.656379 0.133837
O O13 0.424168 0.601378 0.158091
O O14 0.500000 0.667754 0.000000
O O15 0.500000 0.569421 0.500000
O O16 0.604821 0.500000 0.757104
O O17 0.110868 0.500000 0.086630
O O18 0.000000 0.585659 0.000000
#
# Coordination Sequence:
#
# PCOD8092822 Si02
#       7
#     8   8   8   8   8   8   8
#     4  10  19  35  58  79 109 147 183 229 284 334
#     4   9  20  37  55  79 110 143 186 235 279 333
#     4   9  19  35  54  79 110 141 175 219 270 325
#     4  10  20  37  59  83 111 144 187 232 282 339
#     4  10  21  38  58  81 112 149 189 235 283 333
#     4  10  21  36  55  82 114 147 186 229 276 335
#     4   9  18  32  52  78 106 138 177 219 266 324
#
# _framework density 19.709025
#
# number of rings (size 3 to 8) (size 9 to 14) (size 15 to 20)
#    0.000    2.429    0.000    1.714    0.000    4.857 
#    0.000   14.286    0.000    0.000    0.000    0.000 
#    0.000    0.000    0.000    0.000    0.000    0.000 
#
# Total GULP energy -346956.412911 kJ/mol
# GULP energy per Si atom -12391.300461 kJ/mol
# Density = 1.966417 g / cm^3
# Si number density = 19.709025 Si / 1000 Ang^3
#
#
#
# Elastic Constant Matrix: (Units=GPa)
#
#
# Indices 1 2 3 4 5 6 
#
# 1 134.3214 78.4764 39.8574 0.0000 2.3394 0.0000
# 2 78.4764 137.0650 50.3027 0.0000 3.7807 0.0000
# 3 39.8574 50.3027 67.7467 0.0000 8.3781 0.0000
# 4 0.0000 0.0000 0.0000 15.8422 0.0000 8.2634
# 5 2.3394 3.7807 8.3781 0.0000 33.4022 0.0000
# 6 0.0000 0.0000 0.0000 8.2634 0.0000 13.0824
#
#
#
# Elastic Compliance Matrix: (Units=1/GPa)
#
#
# Indices 1 2 3 4 5 6 
#
# 1 0.011514 -0.005632 -0.002654 0.000000 0.000497 0.000000
# 2 -0.005632 0.012802 -0.006256 0.000000 0.000515 0.000000
# 3 -0.002654 -0.006256 0.021524 0.000000 -0.004505 0.000000
# 4 0.000000 0.000000 0.000000 0.094138 0.000000 -0.059462
# 5 0.000497 0.000515 -0.004505 0.000000 0.030975 0.000000
# 6 0.000000 0.000000 0.000000 -0.059462 0.000000 0.113998
#
#
# Mechanical properties :
#
#
# Convention : Reuss Voigt Hill
#
# Bulk Modulus (GPa) = 59.67538 75.15621 67.41580
# Shear Modulus (GPa) = 15.64356 23.83181 19.73768
#
# Velocity S-wave (km/s) = 2.82037 3.48110 3.16801
# Velocity P-wave (km/s) = 6.39921 7.37381 6.90373
#
# Compressibility (1/GPa) = 0.01675733
#
# Stress axis : x y z
#
# Youngs Moduli (GPa) = 86.84931 78.11131 46.45956
#
# Poissons Ratio (x) = 0.43995 0.12328
# Poissons Ratio (y) = 0.48916 0.29064
# Poissons Ratio (z) = 0.23046 0.48865
#
# Static dielectric constant tensor:
#      x y z
#    x 3.906920 0.000000 -0.087990 
#    y 0.000000 4.204100 0.000000 
#    z -0.087990 0.000000 3.573600 
# 
# 
# High freq. dielectric constant tensor:
#      x y z
#    x 1.772940 0.000000 -0.004850 
#    y 0.000000 1.775570 0.000000 
#    z -0.004850 0.000000 1.760760 
# 
# From -- ./inp_files/65743.got.cif
#   From: 2010.06.25/outbox.cif.g09.slc.cpg/sg12_33_cif.got.tgz:65743.got - 2010.06.28 00:19:55.
