data_PCOD8092165
_publ_section_title
;
Structure prediction by ZEFSAII (Michael W. Deem and Ramdas Pophale) SiO2 
 PCOD8092165
Probable space group: C 2/M
;
_chemical_formula_sum "Si O2"
_cell_formula_units_Z 64
_cell_length_a 27.190317
_cell_length_b 12.882053
_cell_length_c 15.013029
_cell_angle_alpha 90.000000
_cell_angle_beta 142.190786
_cell_angle_gamma 90.000000
_cell_volume 3223.682925
_symmetry_space_group_name_H-M "C 2/M"
_symmetry_group_IT_number 12
_symmetry_cell_setting 'monoclinic'
loop_
_space_group_symop_operation_xyz
x,y,z
-x,y,-z
-x,-y,-z
x,-y,z
1/2+x,1/2+y,z
1/2-x,1/2+y,-z
1/2-x,1/2-y,-z
1/2+x,1/2-y,z
loop_
_atom_site_type_symbol
_atom_site_label
_atom_site_fract_x
_atom_site_fract_y
_atom_site_fract_z
Si Si1 0.771718 0.735478 0.402277
Si Si2 0.006794 0.382061 0.908785
Si Si3 0.830614 0.276276 0.162608
Si Si4 0.585631 0.384697 0.604577
Si Si5 0.326263 0.115796 0.636861
Si Si6 0.416434 0.383188 0.605505
Si Si7 0.082005 0.770687 0.881528
Si Si8 0.758356 0.119302 0.822609
O O1 0.693829 0.807307 0.309277
O O2 0.772468 0.640418 0.473051
O O3 0.849071 0.804069 0.543158
O O4 0.769340 0.690723 0.299703
O O5 0.040143 0.500000 0.956585
O O6 0.067183 0.312844 0.937537
O O7 0.918840 0.375527 0.740154
O O8 0.000000 0.340091 0.000000
O O9 0.846723 0.178430 0.248575
O O10 0.898843 0.291158 0.184183
O O11 0.812032 0.372997 0.202372
O O12 0.750000 0.250000 0.000000
O O13 0.500000 0.330321 0.500000
O O14 0.585402 0.500000 0.646466
O O15 0.601978 0.388588 0.524598
O O16 0.306256 0.000000 0.641210
O O17 0.407332 0.500000 0.632725
O O18 0.505070 0.343094 0.756102
O O19 0.156327 0.842741 0.016904
O O20 0.765862 0.000000 0.803429
#
# Coordination Sequence:
#
# PCOD8092165 Si02
#       8
#     8   8   8   8   8   8   8   8
#     4  11  21  38  62  87 121 160 199 250 295 364
#     4  10  21  39  62  87 118 158 199 245 304 360
#     4  10  22  37  57  86 121 158 196 241 295 361
#     4  10  19  34  59  88 118 153 196 245 298 347
#     4  10  21  37  60  88 118 157 201 248 298 351
#     4  11  21  35  61  92 121 158 202 251 300 350
#     4  11  22  40  63  90 122 157 202 251 300 358
#     4  11  24  41  60  85 123 164 197 244 309 366
#
# _framework density 19.853069999999999
#
# number of rings (size 3 to 8) (size 9 to 14) (size 15 to 20)
#    0.000    1.500    3.750    1.875    0.000    2.500 
#    0.000    2.500    0.000    2.625    0.000    0.000 
#    0.000    0.000    0.000    0.000    0.000    0.000 
#
# Total GULP energy -396612.405662 kJ/mol
# GULP energy per Si atom -12394.137677 kJ/mol
# Density = 1.980788 g / cm^3
# Si number density = 19.853070 Si / 1000 Ang^3
#
#
#
# Elastic Constant Matrix: (Units=GPa)
#
#
# Indices 1 2 3 4 5 6 
#
# 1 98.1469 48.0732 17.9967 0.0000 -10.8459 0.0000
# 2 48.0732 107.4991 40.6701 0.0000 -1.6735 0.0000
# 3 17.9967 40.6701 85.2820 0.0000 -3.3010 0.0000
# 4 0.0000 0.0000 0.0000 21.8576 0.0000 11.0681
# 5 -10.8459 -1.6735 -3.3010 0.0000 32.9821 0.0000
# 6 0.0000 0.0000 0.0000 11.0681 0.0000 19.2644
#
#
#
# Elastic Compliance Matrix: (Units=1/GPa)
#
#
# Indices 1 2 3 4 5 6 
#
# 1 0.013598 -0.006090 0.000197 0.000000 0.004182 0.000000
# 2 -0.006090 0.014078 -0.005500 0.000000 -0.001839 0.000000
# 3 0.000197 -0.005500 0.014354 0.000000 0.001222 0.000000
# 4 0.000000 0.000000 0.000000 0.064522 0.000000 -0.037070
# 5 0.004182 -0.001839 0.001222 0.000000 0.031724 0.000000
# 6 0.000000 0.000000 0.000000 -0.037070 0.000000 0.073207
#
#
# Mechanical properties :
#
#
# Convention : Reuss Voigt Hill
#
# Bulk Modulus (GPa) = 51.96434 56.04534 54.00484
# Shear Modulus (GPa) = 20.77410 27.10002 23.93706
#
# Velocity S-wave (km/s) = 3.23831 3.69864 3.47610
# Velocity P-wave (km/s) = 6.34141 6.82138 6.58577
#
# Compressibility (1/GPa) = 0.01924397
#
# Stress axis : x y z
#
# Youngs Moduli (GPa) = 73.54036 71.03274 69.66545
#
# Poissons Ratio (x) = 0.43261 -0.01371
# Poissons Ratio (y) = 0.44788 0.38313
# Poissons Ratio (z) = -0.01447 0.39065
#
# Static dielectric constant tensor:
#      x y z
#    x 3.876770 0.000000 0.045460 
#    y 0.000000 3.712260 0.000000 
#    z 0.045460 0.000000 3.505420 
# 
# 
# High freq. dielectric constant tensor:
#      x y z
#    x 1.778180 0.000000 -0.001450 
#    y 0.000000 1.765020 0.000000 
#    z -0.001450 0.000000 1.775280 
# 
# From -- ./inp_files/245998.got.cif
#   From: 2010.06.25/outbox.cif.g09.slc.cpg/sg12_123_cif.got.tgz:245998.got - 2010.06.28 00:19:55.
