data_PCOD8092630
_publ_section_title
;
Structure prediction by ZEFSAII (Michael W. Deem and Ramdas Pophale) SiO2 
 PCOD8092630
Probable space group: C 2/M
;
_chemical_formula_sum "Si O2"
_cell_formula_units_Z 64
_cell_length_a 31.429458
_cell_length_b 8.425581
_cell_length_c 24.333304
_cell_angle_alpha 90.000000
_cell_angle_beta 28.251995
_cell_angle_gamma 90.000000
_cell_volume 3050.145270
_symmetry_space_group_name_H-M "C 2/M"
_symmetry_group_IT_number 12
_symmetry_cell_setting 'monoclinic'
loop_
_space_group_symop_operation_xyz
x,y,z
-x,y,-z
-x,-y,-z
x,-y,z
1/2+x,1/2+y,z
1/2-x,1/2+y,-z
1/2-x,1/2-y,-z
1/2+x,1/2-y,z
loop_
_atom_site_type_symbol
_atom_site_label
_atom_site_fract_x
_atom_site_fract_y
_atom_site_fract_z
Si Si1 0.753532 0.812073 0.729424
Si Si2 0.438953 0.189016 0.019858
Si Si3 0.848353 0.188330 0.905451
Si Si4 0.593226 0.687567 0.366787
Si Si5 0.642897 0.317525 0.491993
Si Si6 0.846602 0.318971 0.404116
Si Si7 0.961223 0.315534 0.678863
Si Si8 0.028968 0.689331 0.141128
O O1 0.658905 0.740261 0.855296
O O2 0.828574 0.741567 0.684229
O O3 0.775313 0.769152 0.641254
O O4 0.754586 0.000000 0.734184
O O5 0.438985 0.000000 0.021390
O O6 0.500000 0.256228 0.000000
O O7 0.468379 0.246005 0.925605
O O8 0.920038 0.265788 0.783451
O O9 0.884304 0.238947 0.925176
O O10 0.847965 0.000000 0.901113
O O11 0.750000 0.250000 0.000000
O O12 0.500000 0.738826 0.500000
O O13 0.600463 0.500000 0.350007
O O14 0.606829 0.774029 0.292830
O O15 0.651650 0.500000 0.501191
O O16 0.640481 0.200516 0.545960
O O17 0.549736 0.290086 0.565797
O O18 0.843446 0.500000 0.390393
O O19 0.750000 0.250000 0.500000
O O20 0.933390 0.244658 0.273838
O O21 0.985310 0.500000 0.653189
O O22 0.035241 0.500000 0.138976
#
# Coordination Sequence:
#
# PCOD8092630 Si02
#       8
#     8   8   8   8   8   8   8   8
#     4   9  19  34  57  88 121 160 209 254 305 373
#     4   9  19  36  61  91 122 160 207 259 307 360
#     4  12  26  44  67  92 125 170 214 262 321 385
#     4  10  19  35  56  85 122 164 208 250 302 370
#     4  11  21  38  63  91 123 162 206 259 317 377
#     4  11  24  40  62  93 126 162 206 263 324 387
#     4  12  24  39  59  89 127 165 208 257 315 378
#     4  10  22  41  65  97 131 163 212 269 317 377
#
# _framework density 20.982607000000002
#
# number of rings (size 3 to 8) (size 9 to 14) (size 15 to 20)
#    0.000    1.500    2.500    3.000    3.500    0.750 
#    0.000    0.000    0.000    1.875    0.000    0.000 
#    0.000    0.000    0.000    0.000    0.000    0.000 
#
# Total GULP energy -396728.094308 kJ/mol
# GULP energy per Si atom -12397.752947 kJ/mol
# Density = 2.093485 g / cm^3
# Si number density = 20.982607 Si / 1000 Ang^3
#
#
#
# Elastic Constant Matrix: (Units=GPa)
#
#
# Indices 1 2 3 4 5 6 
#
# 1 156.0068 15.1364 76.8604 -0.0174 0.5281 0.0026
# 2 15.1364 46.6530 17.9121 -0.1511 -0.0238 0.0653
# 3 76.8604 17.9121 149.0485 -0.0932 -4.8645 0.0343
# 4 -0.0174 -0.1511 -0.0932 21.9352 0.0258 1.5463
# 5 0.5281 -0.0238 -4.8645 0.0258 41.9444 -0.0057
# 6 0.0026 0.0653 0.0343 1.5463 -0.0057 31.1436
#
#
#
# Elastic Compliance Matrix: (Units=1/GPa)
#
#
# Indices 1 2 3 4 5 6 
#
# 1 0.008667 -0.001141 -0.004352 -0.000019 -0.000615 0.000007
# 2 -0.001141 0.022626 -0.002138 0.000150 -0.000221 -0.000052
# 3 -0.004352 -0.002138 0.009247 0.000020 0.001126 -0.000006
# 4 -0.000019 0.000150 0.000020 0.045750 -0.000026 -0.002272
# 5 -0.000615 -0.000221 0.001126 -0.000026 0.023979 0.000005
# 6 0.000007 -0.000052 -0.000006 -0.002272 0.000005 0.032222
#
#
# Mechanical properties :
#
#
# Convention : Reuss Voigt Hill
#
# Bulk Modulus (GPa) = 39.56011 63.50292 51.53152
# Shear Modulus (GPa) = 30.08769 35.12459 32.60614
#
# Velocity S-wave (km/s) = 3.79084 4.09588 3.94631
# Velocity P-wave (km/s) = 6.16890 7.25937 6.73624
#
# Compressibility (1/GPa) = 0.02527799
#
# Stress axis : x y z
#
# Youngs Moduli (GPa) = 115.37958 44.19628 108.14030
#
# Poissons Ratio (x) = 0.05044 0.47066
# Poissons Ratio (y) = 0.13169 0.23117
# Poissons Ratio (z) = 0.50216 0.09448
#
# Static dielectric constant tensor:
#      x y z
#    x 4.174100 -0.000050 -0.073060 
#    y -0.000050 3.400560 0.000110 
#    z -0.073060 0.000110 4.062980 
# 
# 
# High freq. dielectric constant tensor:
#      x y z
#    x 1.836650 0.000000 0.001550 
#    y 0.000000 1.788510 0.000010 
#    z 0.001550 0.000010 1.827240 
# 
# From -- ./inp_files/353419.got.cif
#   From: 2010.06.25/outbox.cif.g09.slc.cpg/sg12_177_cif.got.tgz:353419.got - 2010.06.28 00:19:55.
