data_PCOD8092262
_publ_section_title
;
Structure prediction by ZEFSAII (Michael W. Deem and Ramdas Pophale) SiO2 
 PCOD8092262
Probable space group: C 2/M
;
_chemical_formula_sum "Si O2"
_cell_formula_units_Z 56
_cell_length_a 14.079025
_cell_length_b 19.268404
_cell_length_c 14.270197
_cell_angle_alpha 90.000000
_cell_angle_beta 41.506025
_cell_angle_gamma 90.000000
_cell_volume 2565.455451
_symmetry_space_group_name_H-M "C 2/M"
_symmetry_group_IT_number 12
_symmetry_cell_setting 'monoclinic'
loop_
_space_group_symop_operation_xyz
x,y,z
-x,y,-z
-x,-y,-z
x,-y,z
1/2+x,1/2+y,z
1/2-x,1/2+y,-z
1/2-x,1/2-y,-z
1/2+x,1/2-y,z
loop_
_atom_site_type_symbol
_atom_site_label
_atom_site_fract_x
_atom_site_fract_y
_atom_site_fract_z
Si Si1 0.882207 0.077580 0.160272
Si Si2 0.152623 0.761896 0.373668
Si Si3 0.669486 0.921140 0.600083
Si Si4 0.602472 0.873495 0.288673
Si Si5 0.150175 0.179700 0.643515
Si Si6 0.408064 0.851087 0.153322
Si Si7 0.094956 0.272076 0.140070
O O1 0.727889 0.073723 0.222885
O O2 0.882616 0.128578 0.246783
O O3 0.920481 0.000000 0.166183
O O4 0.000000 0.105214 0.000000
O O5 0.110463 0.692014 0.350771
O O6 0.231362 0.738311 0.413438
O O7 0.254967 0.815220 0.239808
O O8 0.000000 0.800738 0.500000
O O9 0.551731 0.912429 0.602689
O O10 0.796105 0.865982 0.484530
O O11 0.613418 0.906539 0.746969
O O12 0.726226 0.000000 0.554316
O O13 0.619745 0.845400 0.171294
O O14 0.999310 0.217465 0.728101
O O15 0.504135 0.785359 0.113506
O O16 0.500000 0.885747 0.000000
O O17 0.250000 0.250000 0.000000
#
# Coordination Sequence:
#
# PCOD8092262 Si02
#       7
#     8   8   8   8   8   8   8
#     4  10  20  34  53  80 120 160 192 231 283 353
#     4  10  19  34  60  89 121 148 180 248 310 364
#     4  11  23  39  59  83 119 162 207 248 287 348
#     4  10  20  33  56  86 112 147 194 234 296 349
#     4  10  21  35  56  86 121 153 195 237 298 360
#     4  10  23  39  58  87 119 156 204 251 307 358
#     4  10  20  34  59  87 118 147 186 245 307 361
#
# _framework density 21.828482000000001
#
# number of rings (size 3 to 8) (size 9 to 14) (size 15 to 20)
#    0.000    1.857    1.429    2.571    2.000    6.000 
#    0.000    2.143    0.000    1.286    0.000    0.000 
#    0.000    0.000    0.000    0.000    0.000    0.000 
#
# Total GULP energy -346949.290951 kJ/mol
# GULP energy per Si atom -12391.046105 kJ/mol
# Density = 2.177880 g / cm^3
# Si number density = 21.828482 Si / 1000 Ang^3
#
#
#
# Elastic Constant Matrix: (Units=GPa)
#
#
# Indices 1 2 3 4 5 6 
#
# 1 49.0848 10.2327 28.5580 0.0032 -13.1692 -0.0010
# 2 10.2327 81.4898 25.4279 0.0024 -6.5356 -0.0006
# 3 28.5580 25.4279 121.9658 0.0040 -14.6422 -0.0016
# 4 0.0032 0.0024 0.0040 26.1878 -0.0025 -8.6579
# 5 -13.1692 -6.5356 -14.6422 -0.0025 38.9408 0.0013
# 6 -0.0010 -0.0006 -0.0016 -8.6579 0.0013 16.8863
#
#
#
# Elastic Compliance Matrix: (Units=1/GPa)
#
#
# Indices 1 2 3 4 5 6 
#
# 1 0.025191 -0.001118 -0.004886 -0.000002 0.006495 0.000000
# 2 -0.001118 0.013231 -0.002383 -0.000001 0.000947 0.000000
# 3 -0.004886 -0.002383 0.010047 0.000000 0.001726 0.000000
# 4 -0.000002 -0.000001 0.000000 0.045980 0.000001 0.023575
# 5 0.006495 0.000947 0.001726 0.000001 0.028684 -0.000001
# 6 0.000000 0.000000 0.000000 0.023575 -0.000001 0.071307
#
#
# Mechanical properties :
#
#
# Convention : Reuss Voigt Hill
#
# Bulk Modulus (GPa) = 31.54973 42.33082 36.94027
# Shear Modulus (GPa) = 22.54501 28.95777 25.75139
#
# Velocity S-wave (km/s) = 3.21725 3.64621 3.43842
# Velocity P-wave (km/s) = 5.31843 6.09598 5.72044
#
# Compressibility (1/GPa) = 0.03169599
#
# Stress axis : x y z
#
# Youngs Moduli (GPa) = 39.69685 75.57784 99.53235
#
# Poissons Ratio (x) = 0.08448 0.48628
# Poissons Ratio (y) = 0.04437 0.23720
# Poissons Ratio (z) = 0.19395 0.18011
#
# Static dielectric constant tensor:
#      x y z
#    x 4.045460 0.000010 -0.115630 
#    y 0.000010 3.013710 0.000000 
#    z -0.115630 0.000000 4.016540 
# 
# 
# High freq. dielectric constant tensor:
#      x y z
#    x 1.848480 0.000000 -0.007120 
#    y 0.000000 1.832000 0.000000 
#    z -0.007120 0.000000 1.866250 
# 
# From -- ./inp_files/217653.got.cif
#   From: 2010.06.25/outbox.cif.g09.slc.cpg/sg12_109_cif.got.tgz:217653.got - 2010.06.28 00:19:55.
