data_PCOD8092711
_publ_section_title
;
Structure prediction by ZEFSAII (Michael W. Deem and Ramdas Pophale) SiO2 
 PCOD8092711
Probable space group: C 2/M
;
_chemical_formula_sum "Si O2"
_cell_formula_units_Z 48
_cell_length_a 15.879867
_cell_length_b 8.932000
_cell_length_c 28.915510
_cell_angle_alpha 90.000000
_cell_angle_beta 144.386831
_cell_angle_gamma 90.000000
_cell_volume 2388.254257
_symmetry_space_group_name_H-M "C 2/M"
_symmetry_group_IT_number 12
_symmetry_cell_setting 'monoclinic'
loop_
_space_group_symop_operation_xyz
x,y,z
-x,y,-z
-x,-y,-z
x,-y,z
1/2+x,1/2+y,z
1/2-x,1/2+y,-z
1/2-x,1/2-y,-z
1/2+x,1/2-y,z
loop_
_atom_site_type_symbol
_atom_site_label
_atom_site_fract_x
_atom_site_fract_y
_atom_site_fract_z
Si Si1 0.096460 0.177541 0.002015
Si Si2 0.864668 0.178029 0.410188
Si Si3 0.382410 0.677455 0.312787
Si Si4 0.084822 0.672284 0.836729
Si Si5 0.069523 0.671779 0.324492
Si Si6 0.092076 0.176423 0.167784
O O1 0.258971 0.239495 0.079937
O O2 0.101968 0.000000 0.009103
O O3 0.000000 0.245958 0.000000
O O4 0.027376 0.228830 0.922865
O O5 0.881704 0.237200 0.365310
O O6 0.717830 0.237031 0.368790
O O7 0.000000 0.238517 0.500000
O O8 0.860322 0.000000 0.407042
O O9 0.377103 0.500000 0.308259
O O10 0.526108 0.734411 0.350576
O O11 0.244021 0.745264 0.224540
O O12 0.067221 0.500000 0.844833
O O13 0.058984 0.686085 0.770470
O O14 0.962882 0.770674 0.806980
O O15 0.091352 0.500000 0.349294
O O16 0.116482 0.000000 0.177244
#
# Coordination Sequence:
#
# PCOD8092711 Si02
#       6
#     8   8   8   8   8   8
#     4   9  18  32  51  76 108 147 193 237 279 332
#     4   9  19  38  62  86 115 151 189 230 284 348
#     4  11  22  38  60  87 116 152 192 236 286 339
#     4  10  19  35  57  80 111 152 194 234 283 338
#     4  10  20  37  61  87 115 153 192 231 284 343
#     4  11  21  34  55  82 112 150 193 238 284 333
#
# _framework density 20.098362000000002
#
# number of rings (size 3 to 8) (size 9 to 14) (size 15 to 20)
#    0.000    2.000    1.667    2.500    0.000    4.000 
#    0.000    0.833    0.000    7.000    0.000    0.000 
#    0.000    0.000    0.000    0.000    0.000    0.000 
#
# Total GULP energy -297631.495139 kJ/mol
# GULP energy per Si atom -12401.312297 kJ/mol
# Density = 2.005262 g / cm^3
# Si number density = 20.098362 Si / 1000 Ang^3
#
#
#
# Elastic Constant Matrix: (Units=GPa)
#
#
# Indices 1 2 3 4 5 6 
#
# 1 159.1530 40.8336 54.2204 0.0000 4.9945 0.0000
# 2 40.8336 51.7938 28.3969 0.0000 -0.8469 0.0000
# 3 54.2204 28.3969 120.4282 0.0000 10.5693 0.0000
# 4 0.0000 0.0000 0.0000 17.1639 0.0000 3.6698
# 5 4.9945 -0.8469 10.5693 0.0000 24.5787 0.0000
# 6 0.0000 0.0000 0.0000 3.6698 0.0000 32.5475
#
#
#
# Elastic Compliance Matrix: (Units=1/GPa)
#
#
# Indices 1 2 3 4 5 6 
#
# 1 0.008542 -0.005375 -0.002504 0.000000 -0.000844 0.000000
# 2 -0.005375 0.025791 -0.003986 0.000000 0.003695 0.000000
# 3 -0.002504 -0.003986 0.010744 0.000000 -0.004249 0.000000
# 4 0.000000 0.000000 0.000000 0.059701 0.000000 -0.006731
# 5 -0.000844 0.003695 -0.004249 0.000000 0.042811 0.000000
# 6 0.000000 0.000000 0.000000 -0.006731 0.000000 0.031483
#
#
# Mechanical properties :
#
#
# Convention : Reuss Voigt Hill
#
# Bulk Modulus (GPa) = 46.84651 64.25297 55.54974
# Shear Modulus (GPa) = 23.81880 28.71962 26.26921
#
# Velocity S-wave (km/s) = 3.44628 3.78425 3.61921
# Velocity P-wave (km/s) = 6.26059 7.15072 6.72041
#
# Compressibility (1/GPa) = 0.02134631
#
# Stress axis : x y z
#
# Youngs Moduli (GPa) = 117.06810 38.77373 93.07598
#
# Poissons Ratio (x) = 0.20842 0.23309
# Poissons Ratio (y) = 0.62926 0.37097
# Poissons Ratio (z) = 0.29318 0.15454
#
# Static dielectric constant tensor:
#      x y z
#    x 3.738090 0.000000 0.066630 
#    y 0.000000 3.202060 0.000000 
#    z 0.066630 0.000000 3.773480 
# 
# 
# High freq. dielectric constant tensor:
#      x y z
#    x 1.795860 0.000000 0.003880 
#    y 0.000000 1.742440 0.000000 
#    z 0.003880 0.000000 1.786790 
# 
# From -- ./inp_files/308594.got.cif
#   From: 2010.06.25/outbox.cif.g09.slc.cpg/sg12_155_cif.got.tgz:308594.got - 2010.06.28 00:19:55.
