data_PCOD8092721
_publ_section_title
;
Structure prediction by ZEFSAII (Michael W. Deem and Ramdas Pophale) SiO2 
 PCOD8092721
Probable space group: C 2/M
;
_chemical_formula_sum "Si O2"
_cell_formula_units_Z 64
_cell_length_a 28.038547
_cell_length_b 9.321125
_cell_length_c 23.816609
_cell_angle_alpha 90.000000
_cell_angle_beta 32.994478
_cell_angle_gamma 90.000000
_cell_volume 3389.597012
_symmetry_space_group_name_H-M "C 2/M"
_symmetry_group_IT_number 12
_symmetry_cell_setting 'monoclinic'
loop_
_space_group_symop_operation_xyz
x,y,z
-x,y,-z
-x,-y,-z
x,-y,z
1/2+x,1/2+y,z
1/2-x,1/2+y,-z
1/2-x,1/2-y,-z
1/2+x,1/2-y,z
loop_
_atom_site_type_symbol
_atom_site_label
_atom_site_fract_x
_atom_site_fract_y
_atom_site_fract_z
Si Si1 0.505207 0.329416 0.931891
Si Si2 0.513841 0.331311 0.422464
Si Si3 0.086303 0.330365 0.161022
Si Si4 0.150336 0.833652 0.993954
Si Si5 0.325838 0.665397 0.301364
Si Si6 0.348262 0.835570 0.781483
Si Si7 0.655715 0.333784 0.477283
Si Si8 0.091310 0.163747 0.662624
O O1 0.505167 0.500000 0.933340
O O2 0.593480 0.273351 0.814917
O O3 0.500000 0.266191 0.000000
O O4 0.421443 0.275733 0.979335
O O5 0.500000 0.284575 0.500000
O O6 0.526746 0.500000 0.403259
O O7 0.601684 0.258181 0.313616
O O8 0.431037 0.277186 0.468225
O O9 0.086029 0.500000 0.152198
O O10 0.126707 0.285669 0.180706
O O11 0.988298 0.272409 0.253172
O O12 0.146238 0.257993 0.054648
O O13 0.245303 0.812626 0.872664
O O14 0.133325 0.000000 0.026040
O O15 0.309498 0.500000 0.303080
O O16 0.238787 0.750437 0.370639
O O17 0.344705 0.688085 0.348387
O O18 0.375552 0.000000 0.745729
O O19 0.670739 0.500000 0.449483
O O20 0.646175 0.302549 0.552714
O O21 0.055311 0.000000 0.697361
#
# Coordination Sequence:
#
# PCOD8092721 Si02
#       8
#     8   8   8   8   8   8   8   8
#     4   9  18  34  56  80 106 141 186 228 266 319
#     4  10  22  40  60  81 110 151 192 229 274 331
#     4  11  21  33  54  86 116 142 181 230 280 331
#     4  10  20  37  58  80 113 150 184 224 278 339
#     4  10  20  34  56  84 110 141 184 227 272 326
#     4  10  22  37  57  86 113 144 185 233 281 326
#     4  10  21  36  56  81 111 146 181 222 278 331
#     4  10  19  35  57  81 108 147 185 218 277 340
#
# _framework density 18.8813
#
# number of rings (size 3 to 8) (size 9 to 14) (size 15 to 20)
#    0.000    2.000    2.500    1.125    0.000    3.750 
#    0.000    1.250    0.000    1.500    0.000    0.000 
#    0.000    0.000    0.000    0.000    0.000    0.000 
#
# Total GULP energy -396921.678023 kJ/mol
# GULP energy per Si atom -12403.802438 kJ/mol
# Density = 1.883833 g / cm^3
# Si number density = 18.881300 Si / 1000 Ang^3
#
#
#
# Elastic Constant Matrix: (Units=GPa)
#
#
# Indices 1 2 3 4 5 6 
#
# 1 71.6228 28.1222 62.0977 0.0277 12.5511 -0.0131
# 2 28.1222 51.3921 48.1624 0.0345 1.1755 -0.0093
# 3 62.0977 48.1624 139.3454 0.0564 0.4531 -0.0340
# 4 0.0277 0.0345 0.0564 34.9118 -0.0360 -5.5074
# 5 12.5511 1.1755 0.4531 -0.0360 34.8291 0.0167
# 6 -0.0131 -0.0093 -0.0340 -5.5074 0.0167 13.2606
#
#
#
# Elastic Compliance Matrix: (Units=1/GPa)
#
#
# Indices 1 2 3 4 5 6 
#
# 1 0.026022 -0.004721 -0.009935 -0.000009 -0.009089 0.000005
# 2 -0.004721 0.029662 -0.008151 -0.000013 0.000806 -0.000011
# 3 -0.009935 -0.008151 0.014409 -0.000001 0.003668 0.000016
# 4 -0.000009 -0.000013 -0.000001 0.030652 0.000029 0.012730
# 5 -0.009089 0.000806 0.003668 0.000029 0.031912 -0.000027
# 6 0.000005 -0.000011 0.000016 0.012730 -0.000027 0.080699
#
#
# Mechanical properties :
#
#
# Convention : Reuss Voigt Hill
#
# Bulk Modulus (GPa) = 40.85084 59.90276 50.37680
# Shear Modulus (GPa) = 18.71747 24.86550 21.79148
#
# Velocity S-wave (km/s) = 3.15194 3.63290 3.40094
# Velocity P-wave (km/s) = 5.91007 7.02795 6.49311
#
# Compressibility (1/GPa) = 0.02447930
#
# Stress axis : x y z
#
# Youngs Moduli (GPa) = 38.42836 33.71345 69.39945
#
# Poissons Ratio (x) = 0.15915 0.68951
# Poissons Ratio (y) = 0.18141 0.56567
# Poissons Ratio (z) = 0.38180 0.27480
#
# Static dielectric constant tensor:
#      x y z
#    x 3.543400 -0.000010 0.052030 
#    y -0.000010 3.256020 0.000020 
#    z 0.052030 0.000020 3.447920 
# 
# 
# High freq. dielectric constant tensor:
#      x y z
#    x 1.735440 0.000000 -0.002780 
#    y 0.000000 1.711650 0.000000 
#    z -0.002780 0.000000 1.740280 
# 
# From -- ./inp_files/249060.got.cif
#   From: 2010.06.25/outbox.cif.g09.slc.cpg/sg12_125_cif.got.tgz:249060.got - 2010.06.28 00:19:55.
