data_PCOD8092412
_publ_section_title
;
Structure prediction by ZEFSAII (Michael W. Deem and Ramdas Pophale) SiO2 
 PCOD8092412
Probable space group: C 2/M
;
_chemical_formula_sum "Si O2"
_cell_formula_units_Z 64
_cell_length_a 29.286597
_cell_length_b 14.804214
_cell_length_c 19.639649
_cell_angle_alpha 90.000000
_cell_angle_beta 156.544592
_cell_angle_gamma 90.000000
_cell_volume 3389.295936
_symmetry_space_group_name_H-M "C 2/M"
_symmetry_group_IT_number 12
_symmetry_cell_setting 'monoclinic'
loop_
_space_group_symop_operation_xyz
x,y,z
-x,y,-z
-x,-y,-z
x,-y,z
1/2+x,1/2+y,z
1/2-x,1/2+y,-z
1/2-x,1/2-y,-z
1/2+x,1/2-y,z
loop_
_atom_site_type_symbol
_atom_site_label
_atom_site_fract_x
_atom_site_fract_y
_atom_site_fract_z
Si Si1 0.239815 0.729752 0.212706
Si Si2 0.130879 0.103948 0.993233
Si Si3 0.896777 0.746220 0.553685
Si Si4 0.322621 0.839282 0.582365
Si Si5 0.969770 0.604199 0.037419
Si Si6 0.142430 0.812837 0.866216
Si Si7 0.125526 0.102295 0.700800
Si Si8 0.379139 0.403450 0.625945
O O1 0.197860 0.827848 0.132741
O O2 0.334327 0.758575 0.396706
O O3 0.292069 0.675366 0.220993
O O4 0.141607 0.666206 0.108090
O O5 0.162517 0.000000 0.054255
O O6 0.163116 0.123220 0.959134
O O7 0.996571 0.125472 0.824006
O O8 0.866384 0.663251 0.563781
O O9 0.850133 0.837313 0.524698
O O10 0.033222 0.747549 0.728988
O O11 0.250000 0.750000 0.500000
O O12 0.430094 0.853448 0.779255
O O13 0.225902 0.914996 0.463898
O O14 0.946754 0.500000 0.028280
O O15 0.000000 0.607458 0.000000
O O16 0.120873 0.880123 0.774567
O O17 0.250000 0.750000 0.000000
O O18 0.000000 0.115771 0.500000
O O19 0.169478 0.000000 0.747509
O O20 0.400246 0.500000 0.619720
#
# Coordination Sequence:
#
# PCOD8092412 Si02
#       8
#     8   8   8   8   8   8   8   8
#     4  12  22  39  59  84 123 154 195 245 295 352
#     4  10  22  39  62  86 112 154 206 248 285 346
#     4  10  22  35  57  86 113 157 194 234 294 353
#     4  10  19  35  54  80 116 154 196 233 287 350
#     4  11  23  37  58  90 124 158 193 241 307 365
#     4  11  20  38  64  86 116 153 194 244 297 350
#     4  11  23  38  60  91 121 150 190 242 300 355
#     4   9  18  35  59  84 109 145 195 246 292 341
#
# _framework density 18.882978000000001
#
# number of rings (size 3 to 8) (size 9 to 14) (size 15 to 20)
#    0.000    1.500    2.500    4.875    0.000    2.500 
#    0.000    1.250    0.000    6.000    0.000    0.000 
#    0.000    0.000    0.000    0.000    0.000    0.000 
#
# Total GULP energy -396603.280699 kJ/mol
# GULP energy per Si atom -12393.852522 kJ/mol
# Density = 1.884000 g / cm^3
# Si number density = 18.882978 Si / 1000 Ang^3
#
#
#
# Elastic Constant Matrix: (Units=GPa)
#
#
# Indices 1 2 3 4 5 6 
#
# 1 91.7411 26.1696 37.4565 0.0000 2.4033 0.0000
# 2 26.1696 80.5814 35.0320 0.0000 -8.4750 0.0000
# 3 37.4565 35.0320 86.2857 0.0000 4.7329 0.0000
# 4 0.0000 0.0000 0.0000 22.4436 0.0000 -2.0250
# 5 2.4033 -8.4750 4.7329 0.0000 33.5728 0.0000
# 6 0.0000 0.0000 0.0000 -2.0250 0.0000 27.2458
#
#
#
# Elastic Compliance Matrix: (Units=1/GPa)
#
#
# Indices 1 2 3 4 5 6 
#
# 1 0.013599 -0.002385 -0.004886 0.000000 -0.000887 0.000000
# 2 -0.002385 0.016263 -0.005847 0.000000 0.005100 0.000000
# 3 -0.004886 -0.005847 0.016272 0.000000 -0.003420 0.000000
# 4 0.000000 0.000000 0.000000 0.044857 0.000000 0.003334
# 5 -0.000887 0.005100 -0.003420 0.000000 0.031619 0.000000
# 6 0.000000 0.000000 0.000000 0.003334 0.000000 0.036951
#
#
# Mechanical properties :
#
#
# Convention : Reuss Voigt Hill
#
# Bulk Modulus (GPa) = 50.25986 50.65828 50.45907
# Shear Modulus (GPa) = 25.98353 27.31579 26.64966
#
# Velocity S-wave (km/s) = 3.71351 3.80752 3.76081
# Velocity P-wave (km/s) = 6.71276 6.79819 6.75561
#
# Compressibility (1/GPa) = 0.01989659
#
# Stress axis : x y z
#
# Youngs Moduli (GPa) = 73.53559 61.48989 61.45552
#
# Poissons Ratio (x) = 0.14668 0.30028
# Poissons Ratio (y) = 0.17541 0.35933
# Poissons Ratio (z) = 0.35930 0.35953
#
# Static dielectric constant tensor:
#      x y z
#    x 3.816940 0.000000 0.333470 
#    y 0.000000 4.328230 0.000000 
#    z 0.333470 0.000000 3.622670 
# 
# 
# High freq. dielectric constant tensor:
#      x y z
#    x 1.733920 0.000000 0.008660 
#    y 0.000000 1.730750 0.000000 
#    z 0.008660 0.000000 1.739890 
# 
# From -- ./inp_files/330387.got.cif
#   From: 2010.06.25/outbox.cif.g09.slc.cpg/sg12_166_cif.got.tgz:330387.got - 2010.06.28 00:19:55.
