data_PCOD8092009
_publ_section_title
;
Structure prediction by ZEFSAII (Michael W. Deem and Ramdas Pophale) SiO2 
 PCOD8092009
Probable space group: C 2/M
;
_chemical_formula_sum "Si O2"
_cell_formula_units_Z 56
_cell_length_a 20.452191
_cell_length_b 8.840484
_cell_length_c 29.981458
_cell_angle_alpha 90.000000
_cell_angle_beta 146.524399
_cell_angle_gamma 90.000000
_cell_volume 2990.050913
_symmetry_space_group_name_H-M "C 2/M"
_symmetry_group_IT_number 12
_symmetry_cell_setting 'monoclinic'
loop_
_space_group_symop_operation_xyz
x,y,z
-x,y,-z
-x,-y,-z
x,-y,z
1/2+x,1/2+y,z
1/2-x,1/2+y,-z
1/2-x,1/2-y,-z
1/2+x,1/2-y,z
loop_
_atom_site_type_symbol
_atom_site_label
_atom_site_fract_x
_atom_site_fract_y
_atom_site_fract_z
Si Si1 0.672569 0.821436 0.732638
Si Si2 0.317559 0.322421 0.165256
Si Si3 0.453008 0.324453 0.758712
Si Si4 0.062366 0.678191 0.991740
Si Si5 0.781745 0.173478 0.582412
Si Si6 0.601087 0.821283 0.180111
Si Si7 0.570364 0.324357 0.419667
O O1 0.687549 0.762604 0.791076
O O2 0.774711 0.757532 0.759127
O O3 0.548775 0.769502 0.640851
O O4 0.679335 0.000000 0.736392
O O5 0.323705 0.500000 0.179820
O O6 0.430385 0.270174 0.201196
O O7 0.201178 0.279253 0.070384
O O8 0.463613 0.500000 0.778262
O O9 0.338178 0.296493 0.662680
O O10 0.442668 0.221261 0.795882
O O11 0.045399 0.500000 0.983558
O O12 0.998141 0.740562 0.910971
O O13 0.000000 0.749800 0.000000
O O14 0.665717 0.277079 0.511449
O O15 0.878970 0.215270 0.600381
O O16 0.742931 0.000000 0.554282
O O17 0.617821 0.000000 0.185909
O O18 0.540672 0.500000 0.407723
#
# Coordination Sequence:
#
# PCOD8092009 Si02
#       7
#     8   8   8   8   8   8   8
#     4  12  23  36  57  87 117 149 193 243 289 338
#     4  10  19  37  62  85 113 154 195 234 286 345
#     4  10  21  38  58  84 121 157 188 230 289 345
#     4   9  17  33  60  86 111 147 195 240 285 340
#     4   9  18  34  56  85 118 152 186 230 286 339
#     4  11  23  39  59  83 115 155 196 238 288 347
#     4  10  19  34  58  87 115 149 191 236 283 337
#
# _framework density 18.728777000000001
#
# number of rings (size 3 to 8) (size 9 to 14) (size 15 to 20)
#    0.000    1.857    2.857    2.143    0.000    2.286 
#    0.000    2.857    0.000    4.286    0.000    0.000 
#    0.000    0.000    0.000    0.000    0.000    0.000 
#
# Total GULP energy -347280.102272 kJ/mol
# GULP energy per Si atom -12402.860795 kJ/mol
# Density = 1.868615 g / cm^3
# Si number density = 18.728777 Si / 1000 Ang^3
#
#
#
# Elastic Constant Matrix: (Units=GPa)
#
#
# Indices 1 2 3 4 5 6 
#
# 1 83.9727 30.7723 36.3697 0.0000 -0.0578 0.0000
# 2 30.7723 69.4331 31.1645 0.0000 5.5177 -0.0002
# 3 36.3697 31.1645 102.3088 0.0000 1.4175 0.0001
# 4 0.0000 0.0000 0.0000 23.4801 0.0000 -3.1599
# 5 -0.0578 5.5177 1.4175 0.0000 28.3758 0.0000
# 6 0.0000 -0.0002 0.0001 -3.1599 0.0000 30.2657
#
#
#
# Elastic Compliance Matrix: (Units=1/GPa)
#
#
# Indices 1 2 3 4 5 6 
#
# 1 0.015529 -0.005208 -0.003951 0.000000 0.001242 0.000000
# 2 -0.005208 0.018687 -0.003793 0.000000 -0.003455 0.000000
# 3 -0.003951 -0.003793 0.012333 0.000000 0.000113 0.000000
# 4 0.000000 0.000000 0.000000 0.043196 0.000000 0.004510
# 5 0.001242 -0.003455 0.000113 0.000000 0.035910 0.000000
# 6 0.000000 0.000000 0.000000 0.004510 0.000000 0.033512
#
#
# Mechanical properties :
#
#
# Convention : Reuss Voigt Hill
#
# Bulk Modulus (GPa) = 48.43773 50.25860 49.34817
# Shear Modulus (GPa) = 26.04796 26.91820 26.48308
#
# Velocity S-wave (km/s) = 3.73339 3.79524 3.76444
# Velocity P-wave (km/s) = 6.67107 6.78958 6.73058
#
# Compressibility (1/GPa) = 0.02064507
#
# Stress axis : x y z
#
# Youngs Moduli (GPa) = 64.39470 53.51173 81.08372
#
# Poissons Ratio (x) = 0.27867 0.32039
# Poissons Ratio (y) = 0.33534 0.30758
# Poissons Ratio (z) = 0.25445 0.20299
#
# Static dielectric constant tensor:
#      x y z
#    x 3.308190 0.000000 0.099720 
#    y 0.000000 3.275970 0.000000 
#    z 0.099720 0.000000 3.689900 
# 
# 
# High freq. dielectric constant tensor:
#      x y z
#    x 1.711150 0.000000 0.007540 
#    y 0.000000 1.713010 0.000000 
#    z 0.007540 0.000000 1.743290 
# 
# From -- ./inp_files/275678.got.cif
#   From: 2010.06.25/outbox.cif.g09.slc.cpg/sg12_138_cif.got.tgz:275678.got - 2010.06.28 00:19:55.
