data_PCOD8092141
_publ_section_title
;
Structure prediction by ZEFSAII (Michael W. Deem and Ramdas Pophale) SiO2 
 PCOD8092141
Probable space group: C 2/M
;
_chemical_formula_sum "Si O2"
_cell_formula_units_Z 56
_cell_length_a 27.410623
_cell_length_b 8.381245
_cell_length_c 13.711653
_cell_angle_alpha 90.000000
_cell_angle_beta 60.272011
_cell_angle_gamma 90.000000
_cell_volume 2735.468763
_symmetry_space_group_name_H-M "C 2/M"
_symmetry_group_IT_number 12
_symmetry_cell_setting 'monoclinic'
loop_
_space_group_symop_operation_xyz
x,y,z
-x,y,-z
-x,-y,-z
x,-y,z
1/2+x,1/2+y,z
1/2-x,1/2+y,-z
1/2-x,1/2-y,-z
1/2+x,1/2-y,z
loop_
_atom_site_type_symbol
_atom_site_label
_atom_site_fract_x
_atom_site_fract_y
_atom_site_fract_z
Si Si1 0.381297 0.189861 0.187283
Si Si2 0.807323 0.186164 0.899094
Si Si3 0.476043 0.810494 0.237849
Si Si4 0.330151 0.186173 0.665863
Si Si5 0.236294 0.685840 0.619302
Si Si6 0.548407 0.190014 0.522400
Si Si7 0.599442 0.189294 0.052269
O O1 0.430798 0.259228 0.206405
O O2 0.322049 0.260734 0.283575
O O3 0.381639 0.000000 0.190828
O O4 0.391473 0.246404 0.067161
O O5 0.820264 0.283149 0.788814
O O6 0.856795 0.215522 0.925928
O O7 0.801742 0.000000 0.880249
O O8 0.750000 0.250000 0.000000
O O9 0.461880 0.742615 0.358942
O O10 0.537746 0.754976 0.145520
O O11 0.472792 0.000000 0.241378
O O12 0.285186 0.279174 0.646651
O O13 0.391614 0.250482 0.575747
O O14 0.324375 0.000000 0.648543
O O15 0.227677 0.500000 0.618019
O O16 0.250000 0.750000 0.500000
O O17 0.500000 0.259185 0.500000
O O18 0.546225 0.000000 0.524264
O O19 0.608275 0.000000 0.056550
#
# Coordination Sequence:
#
# PCOD8092141 Si02
#       7
#     8   8   8   8   8   8   8
#     4   9  18  32  53  82 112 145 188 239 287 336
#     4  12  25  41  60  83 114 150 191 236 286 345
#     4   9  16  29  53  85 116 146 187 236 281 331
#     4  11  22  38  61  87 116 150 190 237 291 345
#     4  11  22  37  57  82 116 155 197 243 291 343
#     4   9  17  30  52  83 115 148 188 233 281 341
#     4  10  19  34  59  87 113 144 187 239 292 340
#
# _framework density 20.471812
#
# number of rings (size 3 to 8) (size 9 to 14) (size 15 to 20)
#    0.000    1.857    0.000    5.143    0.000    7.429 
#    0.000    0.714    0.000   14.571    0.000    0.000 
#    0.000    0.000    0.000    0.000    0.000    0.000 
#
# Total GULP energy -347287.194618 kJ/mol
# GULP energy per Si atom -12403.114093 kJ/mol
# Density = 2.042522 g / cm^3
# Si number density = 20.471812 Si / 1000 Ang^3
#
#
#
# Elastic Constant Matrix: (Units=GPa)
#
#
# Indices 1 2 3 4 5 6 
#
# 1 179.2187 5.8838 87.3909 0.0000 -7.0005 0.0000
# 2 5.8838 29.0039 5.1157 0.0000 -5.7596 0.0000
# 3 87.3909 5.1157 195.2362 0.0000 -8.7506 0.0000
# 4 0.0000 0.0000 0.0000 22.3743 0.0000 1.8345
# 5 -7.0005 -5.7596 -8.7506 0.0000 50.1951 0.0000
# 6 0.0000 0.0000 0.0000 1.8345 0.0000 28.1175
#
#
#
# Elastic Compliance Matrix: (Units=1/GPa)
#
#
# Indices 1 2 3 4 5 6 
#
# 1 0.007167 -0.000825 -0.003170 0.000000 0.000352 0.000000
# 2 -0.000825 0.035486 -0.000386 0.000000 0.003889 0.000000
# 3 -0.003170 -0.000386 0.006581 0.000000 0.000661 0.000000
# 4 0.000000 0.000000 0.000000 0.044935 0.000000 -0.002932
# 5 0.000352 0.003889 0.000661 0.000000 0.020533 0.000000
# 6 0.000000 0.000000 0.000000 -0.002932 0.000000 0.035756
#
#
# Mechanical properties :
#
#
# Convention : Reuss Voigt Hill
#
# Bulk Modulus (GPa) = 24.70948 66.69329 45.70139
# Shear Modulus (GPa) = 28.95021 40.47527 34.71274
#
# Velocity S-wave (km/s) = 3.76460 4.45131 4.12228
# Velocity P-wave (km/s) = 5.56709 7.68555 6.71045
#
# Compressibility (1/GPa) = 0.04047030
#
# Stress axis : x y z
#
# Youngs Moduli (GPa) = 139.53603 28.18023 151.95473
#
# Poissons Ratio (x) = 0.02324 0.48177
# Poissons Ratio (y) = 0.11507 0.05871
# Poissons Ratio (z) = 0.44240 0.01089
#
# Static dielectric constant tensor:
#      x y z
#    x 3.621670 0.000000 0.476270 
#    y 0.000000 3.231740 0.000000 
#    z 0.476270 0.000000 3.113330 
# 
# 
# High freq. dielectric constant tensor:
#      x y z
#    x 1.821150 0.000000 -0.001440 
#    y 0.000000 1.755200 0.000000 
#    z -0.001440 0.000000 1.821890 
# 
# From -- ./inp_files/180709.got.cif
#   From: 2010.06.25/outbox.cif.g09.slc.cpg/sg12_91_cif.got.tgz:180709.got - 2010.06.28 00:19:55.
