data_PCOD8092744
_publ_section_title
;
Structure prediction by ZEFSAII (Michael W. Deem and Ramdas Pophale) SiO2 
 PCOD8092744
Probable space group: C 2/M
;
_chemical_formula_sum "Si O2"
_cell_formula_units_Z 64
_cell_length_a 20.718023
_cell_length_b 9.293809
_cell_length_c 19.057372
_cell_angle_alpha 90.000000
_cell_angle_beta 69.974049
_cell_angle_gamma 90.000000
_cell_volume 3447.618769
_symmetry_space_group_name_H-M "C 2/M"
_symmetry_group_IT_number 12
_symmetry_cell_setting 'monoclinic'
loop_
_space_group_symop_operation_xyz
x,y,z
-x,y,-z
-x,-y,-z
x,-y,z
1/2+x,1/2+y,z
1/2-x,1/2+y,-z
1/2-x,1/2-y,-z
1/2+x,1/2-y,z
loop_
_atom_site_type_symbol
_atom_site_label
_atom_site_fract_x
_atom_site_fract_y
_atom_site_fract_z
Si Si1 0.425127 0.829604 0.700228
Si Si2 0.315470 0.337341 0.995596
Si Si3 0.782847 0.669481 0.693777
Si Si4 0.066869 0.339688 0.803531
Si Si5 0.588521 0.158714 0.133990
Si Si6 0.560264 0.331635 0.665243
Si Si7 0.214090 0.831943 0.575854
Si Si8 0.329842 0.663145 0.155088
O O1 0.361834 0.776200 0.674585
O O2 0.405365 0.789749 0.787573
O O3 0.495677 0.747974 0.651690
O O4 0.439342 0.000000 0.688665
O O5 0.308000 0.500000 0.972831
O O6 0.320817 0.327242 0.076349
O O7 0.250000 0.250000 0.000000
O O8 0.379772 0.271642 0.931163
O O9 0.786253 0.500000 0.687816
O O10 0.746162 0.729735 0.637056
O O11 0.738600 0.714762 0.778363
O O12 0.093264 0.500000 0.773067
O O13 0.073072 0.231629 0.736860
O O14 0.109997 0.273775 0.850583
O O15 0.989986 0.350733 0.859702
O O16 0.623178 0.000000 0.113696
O O17 0.543100 0.500000 0.677079
O O18 0.632239 0.305235 0.598412
O O19 0.250000 0.750000 0.500000
O O20 0.230733 0.000000 0.563691
O O21 0.348698 0.500000 0.171163
#
# Coordination Sequence:
#
# PCOD8092744 Si02
#       8
#     8   8   8   8   8   8   8   8
#     4   9  18  34  59  84 108 146 192 232 270 321
#     4  11  23  36  53  75 104 144 185 230 282 331
#     4   9  17  35  59  81 107 142 185 228 274 326
#     4  10  20  34  55  82 107 140 183 228 274 321
#     4   9  19  35  52  75 110 144 179 226 276 324
#     4  10  19  35  57  82 115 149 181 221 276 332
#     4  10  21  37  59  84 111 147 181 222 275 329
#     4  10  20  36  56  77 105 142 184 230 277 326
#
# _framework density 18.563538000000001
#
# number of rings (size 3 to 8) (size 9 to 14) (size 15 to 20)
#    0.000    2.250    1.250    2.625    0.000    7.000 
#    0.000    4.375    0.000    3.750    0.000    0.000 
#    0.000    0.000    0.000    0.000    0.000    0.000 
#
# Total GULP energy -396666.844736 kJ/mol
# GULP energy per Si atom -12395.838898 kJ/mol
# Density = 1.852129 g / cm^3
# Si number density = 18.563538 Si / 1000 Ang^3
#
#
#
# Elastic Constant Matrix: (Units=GPa)
#
#
# Indices 1 2 3 4 5 6 
#
# 1 124.0655 50.2515 41.5215 0.0000 -6.9648 0.0000
# 2 50.2515 87.6630 48.1561 0.0000 -11.5993 -0.0001
# 3 41.5215 48.1561 93.4932 0.0000 -15.0606 0.0000
# 4 0.0000 0.0000 0.0000 31.0286 0.0000 -3.0672
# 5 -6.9648 -11.5993 -15.0606 0.0000 17.4204 0.0000
# 6 0.0000 -0.0001 0.0000 -3.0672 0.0000 33.0775
#
#
#
# Elastic Compliance Matrix: (Units=1/GPa)
#
#
# Indices 1 2 3 4 5 6 
#
# 1 0.010844 -0.005046 -0.002393 0.000000 -0.001093 0.000000
# 2 -0.005046 0.018510 -0.006544 0.000000 0.004650 0.000000
# 3 -0.002393 -0.006544 0.016583 0.000000 0.009022 0.000000
# 4 0.000000 0.000000 0.000000 0.032526 0.000000 0.003016
# 5 -0.001093 0.004650 0.009022 0.000000 0.067863 0.000000
# 6 0.000000 0.000000 0.000000 0.003016 0.000000 0.030512
#
#
# Mechanical properties :
#
#
# Convention : Reuss Voigt Hill
#
# Bulk Modulus (GPa) = 55.64663 65.00888 60.32775
# Shear Modulus (GPa) = 23.71987 27.32479 25.52233
#
# Velocity S-wave (km/s) = 3.57846 3.84078 3.71194
# Velocity P-wave (km/s) = 6.86406 7.40030 7.13722
#
# Compressibility (1/GPa) = 0.01797054
#
# Stress axis : x y z
#
# Youngs Moduli (GPa) = 92.22057 54.02474 60.30396
#
# Poissons Ratio (x) = 0.27262 0.14429
# Poissons Ratio (y) = 0.46536 0.39463
# Poissons Ratio (z) = 0.22066 0.35354
#
# Static dielectric constant tensor:
#      x y z
#    x 3.727990 0.000000 -0.124360 
#    y 0.000000 3.406950 0.000000 
#    z -0.124360 0.000000 3.273100 
# 
# 
# High freq. dielectric constant tensor:
#      x y z
#    x 1.730300 0.000000 -0.009130 
#    y 0.000000 1.713460 0.000000 
#    z -0.009130 0.000000 1.700320 
# 
# From -- ./inp_files/319834.got.cif
#   From: 2010.06.25/outbox.cif.g09.slc.cpg/sg12_160_cif.got.tgz:319834.got - 2010.06.28 00:19:55.
