data_PCOD8092332
_publ_section_title
;
Structure prediction by ZEFSAII (Michael W. Deem and Ramdas Pophale) SiO2 
 PCOD8092332
Probable space group: C 2/M
;
_chemical_formula_sum "Si O2"
_cell_formula_units_Z 44
_cell_length_a 8.392684
_cell_length_b 27.516061
_cell_length_c 11.727298
_cell_angle_alpha 90.000000
_cell_angle_beta 51.505953
_cell_angle_gamma 90.000000
_cell_volume 2119.655853
_symmetry_space_group_name_H-M "C 2/M"
_symmetry_group_IT_number 12
_symmetry_cell_setting 'monoclinic'
loop_
_space_group_symop_operation_xyz
x,y,z
-x,y,-z
-x,-y,-z
x,-y,z
1/2+x,1/2+y,z
1/2-x,1/2+y,-z
1/2-x,1/2-y,-z
1/2+x,1/2-y,z
loop_
_atom_site_type_symbol
_atom_site_label
_atom_site_fract_x
_atom_site_fract_y
_atom_site_fract_z
Si Si1 0.761476 0.500000 0.982183
Si Si2 0.000000 0.919882 0.000000
Si Si3 0.763899 0.500000 0.236928
Si Si4 0.614879 0.648718 0.131738
Si Si5 0.476039 0.822116 0.805149
Si Si6 0.308046 0.605394 0.659156
Si Si7 0.362470 0.728781 0.172409
O O1 0.696039 0.452824 0.939260
O O2 0.663506 0.500000 0.154147
O O3 0.998533 0.500000 0.888260
O O4 0.962240 0.885560 0.126025
O O5 0.704373 0.547020 0.337697
O O6 0.673771 0.621454 0.218975
O O7 0.484772 0.697627 0.213963
O O8 0.821809 0.659363 0.970335
O O9 0.605494 0.867954 0.699564
O O10 0.642772 0.784907 0.786394
O O11 0.360101 0.793654 0.754531
O O12 0.500000 0.622393 0.500000
O O13 0.500000 0.723422 0.000000
#
# Coordination Sequence:
#
# PCOD8092332 Si02
#       7
#     4   4   4   8   8   8   8
#     4  10  22  34  65  98 117 150 200 263 305 355
#     4  11  18  36  60  98 126 148 192 255 312 350
#     4  11  23  40  63  88 122 155 204 249 305 362
#     4  11  20  37  65  93 126 157 199 250 304 359
#     4  11  21  38  63  94 122 160 204 256 301 356
#     4  12  26  42  60  86 125 167 205 246 302 364
#     4  10  19  34  63  97 125 151 202 257 307 351
#
# _framework density 20.758087
#
# number of rings (size 3 to 8) (size 9 to 14) (size 15 to 20)
#    0.000    1.091    4.545    6.273    2.545    0.000 
#    0.000    4.545    0.000    1.091    0.000    0.000 
#    0.000    0.000    0.000    0.000    0.000    0.000 
#
# Total GULP energy -272705.852501 kJ/mol
# GULP energy per Si atom -12395.720568 kJ/mol
# Density = 2.071084 g / cm^3
# Si number density = 20.758087 Si / 1000 Ang^3
#
#
#
# Elastic Constant Matrix: (Units=GPa)
#
#
# Indices 1 2 3 4 5 6 
#
# 1 83.4620 38.0567 23.8255 0.0000 -16.7555 0.0000
# 2 38.0567 140.6568 30.7432 0.0000 -13.5676 0.0000
# 3 23.8255 30.7432 62.2129 0.0000 -22.8837 0.0000
# 4 0.0000 0.0000 0.0000 22.2467 0.0000 -11.3981
# 5 -16.7555 -13.5676 -22.8837 0.0000 12.7145 0.0000
# 6 0.0000 0.0000 0.0000 -11.3981 0.0000 42.6207
#
#
#
# Elastic Compliance Matrix: (Units=1/GPa)
#
#
# Indices 1 2 3 4 5 6 
#
# 1 0.018001 -0.003198 0.006382 0.000000 0.031796 0.000000
# 2 -0.003198 0.008615 -0.003554 0.000000 -0.001419 0.000000
# 3 0.006382 -0.003554 0.050549 0.000000 0.095596 0.000000
# 4 0.000000 0.000000 0.000000 0.052087 0.000000 0.013930
# 5 0.031796 -0.001419 0.095596 0.000000 0.291092 0.000000
# 6 0.000000 0.000000 0.000000 0.013930 0.000000 0.027188
#
#
# Mechanical properties :
#
#
# Convention : Reuss Voigt Hill
#
# Bulk Modulus (GPa) = 13.08484 52.39803 32.74144
# Shear Modulus (GPa) = 10.55415 28.43016 19.49215
#
# Velocity S-wave (km/s) = 2.25730 3.70482 3.06766
# Velocity P-wave (km/s) = 3.62092 6.60287 5.32489
#
# Compressibility (1/GPa) = 0.07642432
#
# Stress axis : x y z
#
# Youngs Moduli (GPa) = 55.55154 116.07878 19.78284
#
# Poissons Ratio (x) = 0.37127 -0.12626
# Poissons Ratio (y) = 0.17768 0.07031
# Poissons Ratio (z) = -0.35454 0.41255
#
# Static dielectric constant tensor:
#      x y z
#    x 4.064020 0.000000 0.001650 
#    y 0.000000 4.301160 0.000000 
#    z 0.001650 0.000000 3.123490 
# 
# 
# High freq. dielectric constant tensor:
#      x y z
#    x 1.826070 0.000000 -0.002970 
#    y 0.000000 1.843750 0.000000 
#    z -0.002970 0.000000 1.735930 
# 
# From -- ./inp_files/124098.got.cif
#   From: 2010.06.25/outbox.cif.g09.slc.cpg/sg12_63_cif.got.tgz:124098.got - 2010.06.28 00:19:55.
