data_PCOD8092779
_publ_section_title
;
Structure prediction by ZEFSAII (Michael W. Deem and Ramdas Pophale) SiO2 
 PCOD8092779
Probable space group: C 2/M
;
_chemical_formula_sum "Si O2"
_cell_formula_units_Z 56
_cell_length_a 15.297873
_cell_length_b 8.855546
_cell_length_c 24.254567
_cell_angle_alpha 90.000000
_cell_angle_beta 62.467364
_cell_angle_gamma 90.000000
_cell_volume 2913.667426
_symmetry_space_group_name_H-M "C 2/M"
_symmetry_group_IT_number 12
_symmetry_cell_setting 'monoclinic'
loop_
_space_group_symop_operation_xyz
x,y,z
-x,y,-z
-x,-y,-z
x,-y,z
1/2+x,1/2+y,z
1/2-x,1/2+y,-z
1/2-x,1/2-y,-z
1/2+x,1/2-y,z
loop_
_atom_site_type_symbol
_atom_site_label
_atom_site_fract_x
_atom_site_fract_y
_atom_site_fract_z
Si Si1 0.485401 0.320794 0.348250
Si Si2 0.184465 0.324279 0.865995
Si Si3 0.499384 0.321668 0.123202
Si Si4 0.654698 0.175815 0.001925
Si Si5 0.734222 0.320850 0.564031
Si Si6 0.083985 0.177686 0.431796
Si Si7 0.906818 0.820426 0.791005
O O1 0.488465 0.500000 0.346818
O O2 0.372376 0.266130 0.383166
O O3 0.546446 0.263729 0.383499
O O4 0.536027 0.253618 0.278582
O O5 0.174694 0.500000 0.853967
O O6 0.114222 0.227747 0.846732
O O7 0.294413 0.264259 0.822815
O O8 0.153716 0.293205 0.937520
O O9 0.510646 0.500000 0.115413
O O10 0.556621 0.246705 0.055799
O O11 0.542098 0.259906 0.168400
O O12 0.657370 0.000000 0.014626
O O13 0.750000 0.250000 0.000000
O O14 0.739179 0.500000 0.556934
O O15 0.750000 0.250000 0.500000
O O16 0.815714 0.264468 0.583328
O O17 0.000000 0.219646 0.500000
O O18 0.106084 0.000000 0.426030
O O19 0.910339 0.000000 0.789724
#
# Coordination Sequence:
#
# PCOD8092779 Si02
#       7
#     8   8   8   8   8   8   8
#     4   9  19  36  58  80 111 153 188 225 279 341
#     4  10  21  38  58  82 112 148 188 232 281 333
#     4  11  22  37  58  86 115 149 190 233 280 334
#     4  11  21  36  59  86 114 147 188 237 289 336
#     4  11  21  35  57  86 114 146 185 230 284 335
#     4  10  19  35  57  84 112 144 185 228 278 335
#     4   9  19  38  58  78 111 154 192 225 276 340
#
# _framework density 19.219763
#
# number of rings (size 3 to 8) (size 9 to 14) (size 15 to 20)
#    0.000    1.857    2.857    1.714    0.000    4.286 
#    0.000    0.000    0.000    6.000    0.000    0.000 
#    0.000    0.000    0.000    0.000    0.000    0.000 
#
# Total GULP energy -347273.922228 kJ/mol
# GULP energy per Si atom -12402.640080 kJ/mol
# Density = 1.917602 g / cm^3
# Si number density = 19.219763 Si / 1000 Ang^3
#
#
#
# Elastic Constant Matrix: (Units=GPa)
#
#
# Indices 1 2 3 4 5 6 
#
# 1 176.1021 41.3298 78.2406 0.0000 -17.0790 0.0000
# 2 41.3298 46.7317 38.1532 0.0000 -4.9626 0.0000
# 3 78.2406 38.1532 154.3771 0.0000 -13.9467 0.0000
# 4 0.0000 0.0000 0.0000 16.9032 0.0000 -2.7630
# 5 -17.0790 -4.9626 -13.9467 0.0000 21.1298 0.0000
# 6 0.0000 0.0000 0.0000 -2.7630 0.0000 37.7971
#
#
#
# Elastic Compliance Matrix: (Units=1/GPa)
#
#
# Indices 1 2 3 4 5 6 
#
# 1 0.008383 -0.004786 -0.002717 0.000000 0.003858 0.000000
# 2 -0.004786 0.029624 -0.004909 0.000000 -0.000151 0.000000
# 3 -0.002717 -0.004909 0.009321 0.000000 0.002803 0.000000
# 4 0.000000 0.000000 0.000000 0.059876 0.000000 0.004377
# 5 0.003858 -0.000151 0.002803 0.000000 0.052260 0.000000
# 6 0.000000 0.000000 0.000000 0.004377 0.000000 0.026777
#
#
# Mechanical properties :
#
#
# Convention : Reuss Voigt Hill
#
# Bulk Modulus (GPa) = 44.43869 76.96198 60.70034
# Shear Modulus (GPa) = 22.87624 29.79850 26.33737
#
# Velocity S-wave (km/s) = 3.45374 3.94180 3.70581
# Velocity P-wave (km/s) = 6.25108 7.80045 7.06835
#
# Compressibility (1/GPa) = 0.02250291
#
# Stress axis : x y z
#
# Youngs Moduli (GPa) = 119.28544 33.75698 107.28005
#
# Poissons Ratio (x) = 0.16156 0.29152
# Poissons Ratio (y) = 0.57089 0.52667
# Poissons Ratio (z) = 0.32414 0.16572
#
# Static dielectric constant tensor:
#      x y z
#    x 3.716780 0.000000 -0.022650 
#    y 0.000000 3.413850 0.000000 
#    z -0.022650 0.000000 3.668460 
# 
# 
# High freq. dielectric constant tensor:
#      x y z
#    x 1.766280 0.000000 -0.002420 
#    y 0.000000 1.720430 0.000000 
#    z -0.002420 0.000000 1.748110 
# 
# From -- ./inp_files/338453.got.cif
#   From: 2010.06.25/outbox.cif.g09.slc.cpg/sg12_170_cif.got.tgz:338453.got - 2010.06.28 00:19:55.
