data_PCOD8092339
_publ_section_title
;
Structure prediction by ZEFSAII (Michael W. Deem and Ramdas Pophale) SiO2 
 PCOD8092339
Probable space group: C 2/M
;
_chemical_formula_sum "Si O2"
_cell_formula_units_Z 64
_cell_length_a 9.429480
_cell_length_b 25.690619
_cell_length_c 20.934166
_cell_angle_alpha 90.000000
_cell_angle_beta 44.745558
_cell_angle_gamma 90.000000
_cell_volume 3569.979734
_symmetry_space_group_name_H-M "C 2/M"
_symmetry_group_IT_number 12
_symmetry_cell_setting 'monoclinic'
loop_
_space_group_symop_operation_xyz
x,y,z
-x,y,-z
-x,-y,-z
x,-y,z
1/2+x,1/2+y,z
1/2-x,1/2+y,-z
1/2-x,1/2-y,-z
1/2+x,1/2-y,z
loop_
_atom_site_type_symbol
_atom_site_label
_atom_site_fract_x
_atom_site_fract_y
_atom_site_fract_z
Si Si1 0.263836 0.442837 0.088845
Si Si2 0.481743 0.335685 0.190220
Si Si3 0.913772 0.828779 0.711108
Si Si4 0.283838 0.758215 0.562990
Si Si5 0.828771 0.856749 0.601353
Si Si6 0.183063 0.154209 0.992576
Si Si7 0.489040 0.215358 0.829455
Si Si8 0.393092 0.871333 0.756418
O O1 0.163158 0.500000 0.111651
O O2 0.186827 0.398631 0.064005
O O3 0.209046 0.421528 0.177240
O O4 0.500000 0.448294 0.000000
O O5 0.563050 0.362127 0.230215
O O6 0.520044 0.274621 0.188713
O O7 0.248599 0.351947 0.255954
O O8 0.604501 0.353004 0.088936
O O9 0.903304 0.864461 0.650907
O O10 0.714299 0.794501 0.780815
O O11 0.109908 0.792490 0.648325
O O12 0.500000 0.786946 0.500000
O O13 0.250000 0.750000 0.500000
O O14 0.295543 0.704449 0.598825
O O15 0.615977 0.886427 0.658627
O O16 0.000000 0.880354 0.500000
O O17 0.332897 0.203496 0.937711
O O18 0.000000 0.159419 0.000000
O O19 0.419496 0.177631 0.794916
#
# Coordination Sequence:
#
# PCOD8092339 Si02
#       8
#     8   8   8   8   8   8   8   8
#     4   9  16  33  59  81 101 125 169 227 276 309
#     4  12  20  30  48  71 104 139 183 212 249 301
#     4  11  22  30  44  72  92 138 182 218 257 296
#     4  11  20  33  49  66  96 139 192 226 255 300
#     4  10  20  35  47  66 104 139 172 217 267 301
#     4  10  19  35  49  75 103 135 175 216 258 309
#     4  10  20  33  47  63 105 146 175 209 252 303
#     4  10  20  34  52  77 104 135 181 222 253 311
#
# _framework density 17.927273
#
# number of rings (size 3 to 8) (size 9 to 14) (size 15 to 20)
#    0.000    1.625    6.250    3.375    1.750    0.500 
#    0.000    0.000    0.000    0.375    0.000   23.625 
#    0.000    1.000    0.000    0.000    0.000    3.000 
#
# Total GULP energy -396441.232963 kJ/mol
# GULP energy per Si atom -12388.788530 kJ/mol
# Density = 1.788647 g / cm^3
# Si number density = 17.927273 Si / 1000 Ang^3
#
#
#
# Elastic Constant Matrix: (Units=GPa)
#
#
# Indices 1 2 3 4 5 6 
#
# 1 104.4091 18.3109 46.5347 0.0000 12.0356 0.0000
# 2 18.3109 51.5621 23.8047 0.0000 -5.4038 0.0000
# 3 46.5347 23.8047 113.9251 0.0000 1.1010 0.0000
# 4 0.0000 0.0000 0.0000 2.8662 0.0000 1.4153
# 5 12.0356 -5.4038 1.1010 0.0000 39.4743 0.0000
# 6 0.0000 0.0000 0.0000 1.4153 0.0000 6.3716
#
#
#
# Elastic Compliance Matrix: (Units=1/GPa)
#
#
# Indices 1 2 3 4 5 6 
#
# 1 0.012546 -0.002806 -0.004499 0.000000 -0.004084 0.000000
# 2 -0.002806 0.022470 -0.003588 0.000000 0.004032 0.000000
# 3 -0.004499 -0.003588 0.011359 0.000000 0.000564 0.000000
# 4 0.000000 0.000000 0.000000 0.391877 0.000000 -0.087048
# 5 -0.004084 0.004032 0.000564 0.000000 0.027114 0.000000
# 6 0.000000 0.000000 0.000000 -0.087048 0.000000 0.176282
#
#
# Mechanical properties :
#
#
# Convention : Reuss Voigt Hill
#
# Bulk Modulus (GPa) = 40.66809 49.68856 45.17832
# Shear Modulus (GPa) = 7.44457 21.82549 14.63503
#
# Velocity S-wave (km/s) = 2.04002 3.49298 2.86029
# Velocity P-wave (km/s) = 5.31819 6.63662 6.01365
#
# Compressibility (1/GPa) = 0.02458930
#
# Stress axis : x y z
#
# Youngs Moduli (GPa) = 79.70878 44.50464 88.03249
#
# Poissons Ratio (x) = 0.12490 0.39603
# Poissons Ratio (y) = 0.22369 0.31583
# Poissons Ratio (z) = 0.35858 0.15967
#
# Static dielectric constant tensor:
#      x y z
#    x 3.410540 0.000000 -0.163020 
#    y 0.000000 3.141930 0.000000 
#    z -0.163020 0.000000 3.979020 
# 
# 
# High freq. dielectric constant tensor:
#      x y z
#    x 1.686240 0.000000 -0.005690 
#    y 0.000000 1.623620 0.000000 
#    z -0.005690 0.000000 1.717650 
# 
# From -- ./inp_files/302632.got.cif
#   From: 2010.06.25/outbox.cif.g09.slc.cpg/sg12_152_cif.got.tgz:302632.got - 2010.06.28 00:19:55.
