data_PCOD8092997
_publ_section_title
;
Structure prediction by ZEFSAII (Michael W. Deem and Ramdas Pophale) SiO2 
 PCOD8092997
Probable space group: C 2/M
;
_chemical_formula_sum "Si O2"
_cell_formula_units_Z 64
_cell_length_a 24.300930
_cell_length_b 8.916455
_cell_length_c 15.436464
_cell_angle_alpha 90.000000
_cell_angle_beta 89.521039
_cell_angle_gamma 90.000000
_cell_volume 3344.627578
_symmetry_space_group_name_H-M "C 2/M"
_symmetry_group_IT_number 12
_symmetry_cell_setting 'monoclinic'
loop_
_space_group_symop_operation_xyz
x,y,z
-x,y,-z
-x,-y,-z
x,-y,z
1/2+x,1/2+y,z
1/2-x,1/2+y,-z
1/2-x,1/2-y,-z
1/2+x,1/2-y,z
loop_
_atom_site_type_symbol
_atom_site_label
_atom_site_fract_x
_atom_site_fract_y
_atom_site_fract_z
Si Si1 0.889017 0.323386 0.647420
Si Si2 0.116540 0.177367 0.652070
Si Si3 0.063089 0.321968 0.000745
Si Si4 0.502360 0.336056 0.399575
Si Si5 0.189820 0.679150 0.506098
Si Si6 0.367216 0.675147 0.151036
Si Si7 0.751062 0.324648 0.908724
Si Si8 0.865775 0.321738 0.837834
O O1 0.883505 0.500000 0.650379
O O2 0.950810 0.281605 0.623041
O O3 0.845604 0.262814 0.576513
O O4 0.878859 0.254252 0.743004
O O5 0.161106 0.265412 0.594517
O O6 0.120913 0.223877 0.751650
O O7 0.055762 0.232048 0.628227
O O8 0.125273 0.000000 0.637047
O O9 0.065946 0.500000 0.997383
O O10 0.093836 0.262304 0.915601
O O11 0.092509 0.261299 0.088261
O O12 0.000000 0.265293 0.000000
O O13 0.500000 0.361926 0.500000
O O14 0.512976 0.500000 0.355390
O O15 0.194354 0.500000 0.507234
O O16 0.250000 0.750000 0.500000
O O17 0.377250 0.500000 0.135037
O O18 0.303773 0.720493 0.140753
O O19 0.756129 0.500000 0.922940
O O20 0.804138 0.264822 0.856971
O O21 0.750000 0.250000 0.000000
O O22 0.869703 0.500000 0.835658
#
# Coordination Sequence:
#
# PCOD8092997 Si02
#       8
#     8   8   8   8   8   8   8   8
#     4  10  22  38  60  86 112 149 194 234 278 337
#     4  10  22  40  60  83 116 155 191 231 286 345
#     4  10  21  37  57  81 113 152 188 229 283 338
#     4  10  20  37  60  84 114 149 186 235 290 335
#     4  11  24  40  60  86 117 153 192 236 285 337
#     4  10  22  37  58  85 112 150 190 231 284 337
#     4  10  19  35  59  81 107 143 187 233 282 332
#     4   9  19  36  56  81 112 146 184 230 282 333
#
# _framework density 19.135164
#
# number of rings (size 3 to 8) (size 9 to 14) (size 15 to 20)
#    0.000    2.000    2.500    0.375    3.500    2.000 
#    0.000    1.250    0.000    0.000    0.000    0.000 
#    0.000    0.000    0.000    0.000    0.000    0.000 
#
# Total GULP energy -396734.974320 kJ/mol
# GULP energy per Si atom -12397.967948 kJ/mol
# Density = 1.909161 g / cm^3
# Si number density = 19.135164 Si / 1000 Ang^3
#
#
#
# Elastic Constant Matrix: (Units=GPa)
#
#
# Indices 1 2 3 4 5 6 
#
# 1 166.8042 32.6889 73.2845 0.0000 0.9936 0.0000
# 2 32.6889 26.4921 28.7234 0.0000 -0.9156 0.0000
# 3 73.2845 28.7234 148.5462 0.0000 -1.1147 0.0000
# 4 0.0000 0.0000 0.0000 26.8461 0.0000 -9.2054
# 5 0.9936 -0.9156 -1.1147 0.0000 34.0440 0.0000
# 6 0.0000 0.0000 0.0000 -9.2054 0.0000 29.6561
#
#
#
# Elastic Compliance Matrix: (Units=1/GPa)
#
#
# Indices 1 2 3 4 5 6 
#
# 1 0.008762 -0.007768 -0.002825 0.000000 -0.000557 0.000000
# 2 -0.007768 0.054679 -0.006730 0.000000 0.001477 0.000000
# 3 -0.002825 -0.006730 0.009428 0.000000 0.000210 0.000000
# 4 0.000000 0.000000 0.000000 0.041686 0.000000 0.012940
# 5 -0.000557 0.001477 0.000210 0.000000 0.029437 0.000000
# 6 0.000000 0.000000 0.000000 0.012940 0.000000 0.037736
#
#
# Mechanical properties :
#
#
# Convention : Reuss Voigt Hill
#
# Bulk Modulus (GPa) = 26.16084 67.91511 47.03798
# Shear Modulus (GPa) = 21.82313 31.91895 26.87104
#
# Velocity S-wave (km/s) = 3.38075 4.08864 3.75143
# Velocity P-wave (km/s) = 5.37965 7.60649 6.58784
#
# Compressibility (1/GPa) = 0.03822507
#
# Stress axis : x y z
#
# Youngs Moduli (GPa) = 114.13390 18.28840 106.06338
#
# Poissons Ratio (x) = 0.14206 0.29960
# Poissons Ratio (y) = 0.88656 0.71378
# Poissons Ratio (z) = 0.32239 0.12308
#
# Static dielectric constant tensor:
#      x y z
#    x 3.714690 0.000000 0.120860 
#    y 0.000000 -13.291790 0.000000 
#    z 0.120860 0.000000 3.722160 
# 
# 
# High freq. dielectric constant tensor:
#      x y z
#    x 1.760270 0.000000 0.004670 
#    y 0.000000 1.719160 0.000000 
#    z 0.004670 0.000000 1.755780 
# 
# From -- ./inp_files/238605.got.cif
#   From: 2010.06.25/outbox.cif.g09.slc.cpg/sg12_120_cif.got.tgz:238605.got - 2010.06.28 00:19:55.
