data_PCOD8092077
_publ_section_title
;
Structure prediction by ZEFSAII (Michael W. Deem and Ramdas Pophale) SiO2 
 PCOD8092077
Probable space group: C 2/M
;
_chemical_formula_sum "Si O2"
_cell_formula_units_Z 48
_cell_length_a 21.287692
_cell_length_b 11.356919
_cell_length_c 20.636576
_cell_angle_alpha 90.000000
_cell_angle_beta 30.883509
_cell_angle_gamma 90.000000
_cell_volume 2560.903159
_symmetry_space_group_name_H-M "C 2/M"
_symmetry_group_IT_number 12
_symmetry_cell_setting 'monoclinic'
loop_
_space_group_symop_operation_xyz
x,y,z
-x,y,-z
-x,-y,-z
x,-y,z
1/2+x,1/2+y,z
1/2-x,1/2+y,-z
1/2-x,1/2-y,-z
1/2+x,1/2-y,z
loop_
_atom_site_type_symbol
_atom_site_label
_atom_site_fract_x
_atom_site_fract_y
_atom_site_fract_z
Si Si1 0.352078 0.500000 0.628125
Si Si2 0.560492 0.632669 0.876686
Si Si3 0.522268 0.865888 0.389175
Si Si4 0.855190 0.632811 0.849290
Si Si5 0.628320 0.000000 0.926592
Si Si6 0.622851 0.211623 0.031235
Si Si7 0.180268 0.742145 0.358763
O O1 0.500000 0.500000 0.500000
O O2 0.258643 0.500000 0.773088
O O3 0.320639 0.379195 0.618946
O O4 0.589858 0.500000 0.829440
O O5 0.475105 0.688356 0.897747
O O6 0.681872 0.707499 0.774132
O O7 0.500000 0.636735 0.000000
O O8 0.539314 0.848781 0.297562
O O9 0.381634 0.834254 0.529398
O O10 0.608705 0.778764 0.354280
O O11 0.551929 0.000000 0.383877
O O12 0.801443 0.500000 0.892678
O O13 0.913948 0.652925 0.867787
O O14 0.753272 0.727565 0.922875
O O15 0.500000 0.000000 0.000000
O O16 0.627607 0.884026 0.970812
#
# Coordination Sequence:
#
# PCOD8092077 Si02
#       7
#     4   8   8   8   4   8   8
#     4  12  22  34  56  88 130 160 199 243 306 372
#     4  11  22  37  60  87 117 150 194 253 309 367
#     4  10  19  34  59  82 114 151 197 245 297 348
#     4  10  21  39  58  85 115 159 204 251 295 360
#     4  12  24  40  62  94 132 165 200 259 318 372
#     4  11  22  37  60  86 119 158 202 246 304 367
#     4  11  21  36  56  88 119 153 193 248 304 362
#
# _framework density 18.743387999999999
#
# number of rings (size 3 to 8) (size 9 to 14) (size 15 to 20)
#    0.000    1.167    2.500    7.000    0.000    2.667 
#    0.000    0.833    0.000    0.000    0.000    0.000 
#    0.000    0.000    0.000    0.000    0.000    0.000 
#
# Total GULP energy -297490.716562 kJ/mol
# GULP energy per Si atom -12395.446523 kJ/mol
# Density = 1.870073 g / cm^3
# Si number density = 18.743388 Si / 1000 Ang^3
#
#
#
# Elastic Constant Matrix: (Units=GPa)
#
#
# Indices 1 2 3 4 5 6 
#
# 1 82.9139 37.0543 43.5068 0.0000 11.3324 0.0000
# 2 37.0543 126.8934 34.2114 0.0000 2.0424 0.0001
# 3 43.5068 34.2114 113.1903 -0.0001 5.6403 0.0001
# 4 0.0000 0.0000 -0.0001 31.3698 0.0000 -4.4740
# 5 11.3324 2.0424 5.6403 0.0000 33.2843 0.0000
# 6 0.0000 0.0001 0.0001 -4.4740 0.0000 29.4388
#
#
#
# Elastic Compliance Matrix: (Units=1/GPa)
#
#
# Indices 1 2 3 4 5 6 
#
# 1 0.017012 -0.003476 -0.005255 0.000000 -0.004688 0.000000
# 2 -0.003476 0.009290 -0.001515 0.000000 0.000870 0.000000
# 3 -0.005255 -0.001515 0.011314 0.000000 -0.000035 0.000000
# 4 0.000000 0.000000 0.000000 0.032584 0.000000 0.004952
# 5 -0.004688 0.000870 -0.000035 0.000000 0.031593 0.000000
# 6 0.000000 0.000000 0.000000 0.004952 0.000000 0.034721
#
#
# Mechanical properties :
#
#
# Convention : Reuss Voigt Hill
#
# Bulk Modulus (GPa) = 58.39429 61.39361 59.89395
# Shear Modulus (GPa) = 30.72866 32.70024 31.71445
#
# Velocity S-wave (km/s) = 4.05339 4.18141 4.11790
# Velocity P-wave (km/s) = 7.28896 7.49254 7.39145
#
# Compressibility (1/GPa) = 0.01712496
#
# Stress axis : x y z
#
# Youngs Moduli (GPa) = 58.78196 107.64182 88.38428
#
# Poissons Ratio (x) = 0.37411 0.46444
# Poissons Ratio (y) = 0.20430 0.13393
# Poissons Ratio (z) = 0.30889 0.16312
#
# Static dielectric constant tensor:
#      x y z
#    x 3.127220 0.000000 0.307970 
#    y 0.000000 3.868530 0.000000 
#    z 0.307970 0.000000 3.490420 
# 
# 
# High freq. dielectric constant tensor:
#      x y z
#    x 1.696050 0.000000 0.005850 
#    y 0.000000 1.754810 0.000000 
#    z 0.005850 0.000000 1.735230 
# 
# From -- ./inp_files/321198.got.cif
#   From: 2010.06.25/outbox.cif.g09.slc.cpg/sg12_161_cif.got.tgz:321198.got - 2010.06.28 00:19:55.
