data_PCOD8092416
_publ_section_title
;
Structure prediction by ZEFSAII (Michael W. Deem and Ramdas Pophale) SiO2 
 PCOD8092416
Probable space group: C 2/M
;
_chemical_formula_sum "Si O2"
_cell_formula_units_Z 60
_cell_length_a 15.767845
_cell_length_b 19.475152
_cell_length_c 23.875525
_cell_angle_alpha 90.000000
_cell_angle_beta 153.713577
_cell_angle_gamma 90.000000
_cell_volume 3246.918234
_symmetry_space_group_name_H-M "C 2/M"
_symmetry_group_IT_number 12
_symmetry_cell_setting 'monoclinic'
loop_
_space_group_symop_operation_xyz
x,y,z
-x,y,-z
-x,-y,-z
x,-y,z
1/2+x,1/2+y,z
1/2-x,1/2+y,-z
1/2-x,1/2-y,-z
1/2+x,1/2-y,z
loop_
_atom_site_type_symbol
_atom_site_label
_atom_site_fract_x
_atom_site_fract_y
_atom_site_fract_z
Si Si1 0.205913 0.376938 0.897545
Si Si2 0.940226 0.075449 0.835267
Si Si3 0.407540 0.081281 0.293510
Si Si4 0.890141 0.691824 0.767500
Si Si5 0.500000 0.733397 0.500000
Si Si6 0.013441 0.174255 0.778428
Si Si7 0.305005 0.191056 0.488596
Si Si8 0.404560 0.232188 0.002659
O O1 0.149036 0.400325 0.802701
O O2 0.313390 0.303994 0.966825
O O3 0.012559 0.374960 0.821045
O O4 0.357585 0.430112 0.012649
O O5 0.773900 0.104094 0.776956
O O6 0.950151 0.119623 0.786016
O O7 0.882169 0.000000 0.781004
O O8 0.585927 0.128315 0.416936
O O9 0.456388 0.000000 0.327846
O O10 0.663223 0.683196 0.622424
O O11 0.958358 0.750635 0.766131
O O12 0.932072 0.710558 0.856642
O O13 0.573748 0.781096 0.492692
O O14 0.896391 0.159598 0.652268
O O15 0.241786 0.172982 0.903154
O O16 0.250000 0.250000 0.500000
O O17 0.500000 0.241318 0.000000
#
# Coordination Sequence:
#
# PCOD8092416 Si02
#       8
#     8   8   8   8   4   8   8   8
#     4  11  20  35  54  82 116 146 186 231 288 346
#     4  11  21  35  56  81 115 154 184 224 278 344
#     4  11  23  36  55  86 118 152 190 230 283 346
#     4  10  19  35  54  81 115 145 179 237 291 337
#     4  10  22  34  55  84 117 148 190 232 292 350
#     4  10  20  37  51  81 111 145 187 227 280 342
#     4  11  23  38  59  82 119 155 192 235 287 341
#     4  11  20  31  58  84 110 142 184 240 297 331
#
# _framework density 18.479061000000002
#
# number of rings (size 3 to 8) (size 9 to 14) (size 15 to 20)
#    0.000    1.333    2.667    6.400    3.733    1.600 
#    0.000    1.667    0.000    0.400    0.000   11.667 
#    0.000    0.000    0.000    0.000    0.000    0.000 
#
# Total GULP energy -371891.706086 kJ/mol
# GULP energy per Si atom -12396.390203 kJ/mol
# Density = 1.843700 g / cm^3
# Si number density = 18.479061 Si / 1000 Ang^3
#
#
#
# Elastic Constant Matrix: (Units=GPa)
#
#
# Indices 1 2 3 4 5 6 
#
# 1 52.5842 17.4639 25.9575 0.0025 -2.0764 -0.0005
# 2 17.4639 56.1095 31.6392 0.0069 0.5724 0.0016
# 3 25.9575 31.6392 159.4762 -0.0264 -3.1923 0.0106
# 4 0.0025 0.0069 -0.0264 -163.9984 -0.0009 46.9999
# 5 -2.0764 0.5724 -3.1923 -0.0009 32.1072 0.0015
# 6 -0.0005 0.0016 0.0106 46.9999 0.0015 12.0211
#
#
#
# Elastic Compliance Matrix: (Units=1/GPa)
#
#
# Indices 1 2 3 4 5 6 
#
# 1 0.022120 -0.005497 -0.002484 0.000001 0.001282 0.000001
# 2 -0.005497 0.021452 -0.003383 0.000001 -0.001074 -0.000003
# 3 -0.002484 -0.003383 0.007359 -0.000001 0.000631 0.000000
# 4 0.000001 0.000001 -0.000001 -0.002876 -0.000001 0.011243
# 5 0.001282 -0.001074 0.000631 -0.000001 0.031310 -0.000002
# 6 0.000001 -0.000003 0.000000 0.011243 -0.000002 0.039230
#
#
# Mechanical properties :
#
#
# Convention : Reuss Voigt Hill
#
# Bulk Modulus (GPa) = 35.45815 46.47680 40.96747
# Shear Modulus (GPa) = 33.17346 -11.10006 11.03670
#
# Velocity S-wave (km/s) = 4.24157 -2.45354 2.44653
# Velocity P-wave (km/s) = 6.57402 4.14478 5.49531
#
# Compressibility (1/GPa) = 0.02820226
#
# Stress axis : x y z
#
# Youngs Moduli (GPa) = 45.20879 46.61662 135.89544
#
# Poissons Ratio (x) = 0.25625 0.33758
# Poissons Ratio (y) = 0.24851 0.45969
# Poissons Ratio (z) = 0.11230 0.15769
#
# Static dielectric constant tensor:
#      x y z
#    x 3.463580 0.000010 0.237750 
#    y 0.000010 3.401110 0.000020 
#    z 0.237750 0.000020 4.042720 
# 
# 
# High freq. dielectric constant tensor:
#      x y z
#    x 1.714120 0.000000 -0.004410 
#    y 0.000000 1.679780 0.000000 
#    z -0.004410 0.000000 1.739290 
# 
# From -- ./inp_files/312155.got.cif
#   From: 2010.06.25/outbox.cif.g09.slc.cpg/sg12_157_cif.got.tgz:312155.got - 2010.06.28 00:19:55.
