data_PCOD8092233
_publ_section_title
;
Structure prediction by ZEFSAII (Michael W. Deem and Ramdas Pophale) SiO2 
 PCOD8092233
Probable space group: C 2/M
;
_chemical_formula_sum "Si O2"
_cell_formula_units_Z 64
_cell_length_a 26.556848
_cell_length_b 14.479055
_cell_length_c 9.384190
_cell_angle_alpha 90.000000
_cell_angle_beta 66.279201
_cell_angle_gamma 90.000000
_cell_volume 3303.541535
_symmetry_space_group_name_H-M "C 2/M"
_symmetry_group_IT_number 12
_symmetry_cell_setting 'monoclinic'
loop_
_space_group_symop_operation_xyz
x,y,z
-x,y,-z
-x,-y,-z
x,-y,z
1/2+x,1/2+y,z
1/2-x,1/2+y,-z
1/2-x,1/2-y,-z
1/2+x,1/2-y,z
loop_
_atom_site_type_symbol
_atom_site_label
_atom_site_fract_x
_atom_site_fract_y
_atom_site_fract_z
Si Si1 0.983824 0.231938 0.354913
Si Si2 0.118857 0.604043 0.187234
Si Si3 0.755593 0.748760 0.662090
Si Si4 0.416563 0.392411 0.812505
Si Si5 0.986611 0.603475 0.859093
Si Si6 0.192023 0.106432 0.919068
Si Si7 0.269047 0.107069 0.084967
Si Si8 0.879237 0.232132 0.612798
O O1 0.918752 0.206302 0.432606
O O2 0.000000 0.234189 0.500000
O O3 0.025394 0.161174 0.226100
O O4 0.983502 0.332782 0.288333
O O5 0.121839 0.500000 0.248530
O O6 0.078492 0.605813 0.097097
O O7 0.097988 0.676777 0.329050
O O8 0.177297 0.638183 0.063023
O O9 0.750000 0.750000 0.500000
O O10 0.719673 0.663332 0.760589
O O11 0.732955 0.841307 0.761690
O O12 0.819536 0.741423 0.625891
O O13 0.430226 0.500000 0.774407
O O14 0.383367 0.355760 0.712627
O O15 0.374241 0.377946 0.993665
O O16 0.010414 0.500000 0.815328
O O17 0.000000 0.642240 0.000000
O O18 0.205706 0.000000 0.871499
O O19 0.218209 0.135091 0.041723
O O20 0.270366 0.000000 0.121859
#
# Coordination Sequence:
#
# PCOD8092233 Si02
#       8
#     8   8   8   8   8   8   8   8
#     4  10  21  36  57  86 115 156 197 240 291 355
#     4  10  19  34  60  86 111 148 196 244 286 352
#     4  12  25  37  57  91 127 155 187 246 314 366
#     4  10  20  37  64  90 111 149 211 263 290 333
#     4  10  21  36  55  84 117 151 190 238 297 355
#     4  10  20  38  65  88 113 156 206 251 295 356
#     4  10  20  36  60  84 109 153 204 242 285 355
#     4  11  21  37  55  87 120 154 197 237 300 361
#
# _framework density 19.373149000000002
#
# number of rings (size 3 to 8) (size 9 to 14) (size 15 to 20)
#    0.000    1.625    5.000    1.125    0.000    4.500 
#    0.000    0.000    0.000    0.375    0.000    0.000 
#    0.000    0.000    0.000    0.000    0.000    0.000 
#
# Total GULP energy -396587.571843 kJ/mol
# GULP energy per Si atom -12393.361620 kJ/mol
# Density = 1.932905 g / cm^3
# Si number density = 19.373149 Si / 1000 Ang^3
#
#
#
# Elastic Constant Matrix: (Units=GPa)
#
#
# Indices 1 2 3 4 5 6 
#
# 1 74.1702 32.6721 41.4189 0.0000 -20.6550 0.0000
# 2 32.6721 103.4482 56.1391 0.0000 -8.0579 0.0000
# 3 41.4189 56.1391 96.5531 0.0000 -19.6858 0.0000
# 4 0.0000 0.0000 0.0000 20.6499 0.0000 -3.9380
# 5 -20.6550 -8.0579 -19.6858 0.0000 37.0881 0.0000
# 6 0.0000 0.0000 0.0000 -3.9380 0.0000 15.6602
#
#
#
# Elastic Compliance Matrix: (Units=1/GPa)
#
#
# Indices 1 2 3 4 5 6 
#
# 1 0.019794 -0.002764 -0.005336 0.000000 0.007591 0.000000
# 2 -0.002764 0.014579 -0.007803 0.000000 -0.002514 0.000000
# 3 -0.005336 -0.007803 0.018201 0.000000 0.004994 0.000000
# 4 0.000000 0.000000 0.000000 0.050866 0.000000 0.012791
# 5 0.007591 -0.002514 0.004994 0.000000 0.033295 0.000000
# 6 0.000000 0.000000 0.000000 0.012791 0.000000 0.067072
#
#
# Mechanical properties :
#
#
# Convention : Reuss Voigt Hill
#
# Bulk Modulus (GPa) = 48.15500 59.40353 53.77927
# Shear Modulus (GPa) = 20.61550 24.27574 22.44562
#
# Velocity S-wave (km/s) = 3.26564 3.54370 3.40751
# Velocity P-wave (km/s) = 6.25537 6.89007 6.58038
#
# Compressibility (1/GPa) = 0.02076628
#
# Stress axis : x y z
#
# Youngs Moduli (GPa) = 50.52035 68.59395 54.94134
#
# Poissons Ratio (x) = 0.18963 0.29318
# Poissons Ratio (y) = 0.13966 0.42871
# Poissons Ratio (z) = 0.26958 0.53525
#
# Static dielectric constant tensor:
#      x y z
#    x 3.738860 0.000000 -0.479050 
#    y 0.000000 3.592100 0.000000 
#    z -0.479050 0.000000 3.609830 
# 
# 
# High freq. dielectric constant tensor:
#      x y z
#    x 1.745020 0.000000 -0.032210 
#    y 0.000000 1.761310 0.000000 
#    z -0.032210 0.000000 1.735790 
# 
# From -- ./inp_files/111635.got.cif
#   From: 2010.06.25/outbox.cif.g09.slc.cpg/sg12_56_cif.got.tgz:111635.got - 2010.06.28 00:19:55.
