data_PCOD8092636
_publ_section_title
;
Structure prediction by ZEFSAII (Michael W. Deem and Ramdas Pophale) SiO2 
 PCOD8092636
Probable space group: C 2/M
;
_chemical_formula_sum "Si O2"
_cell_formula_units_Z 44
_cell_length_a 19.554239
_cell_length_b 12.171379
_cell_length_c 25.249732
_cell_angle_alpha 90.000000
_cell_angle_beta 21.882012
_cell_angle_gamma 90.000000
_cell_volume 2239.714994
_symmetry_space_group_name_H-M "C 2/M"
_symmetry_group_IT_number 12
_symmetry_cell_setting 'monoclinic'
loop_
_space_group_symop_operation_xyz
x,y,z
-x,y,-z
-x,-y,-z
x,-y,z
1/2+x,1/2+y,z
1/2-x,1/2+y,-z
1/2-x,1/2-y,-z
1/2+x,1/2-y,z
loop_
_atom_site_type_symbol
_atom_site_label
_atom_site_fract_x
_atom_site_fract_y
_atom_site_fract_z
Si Si1 0.956617 0.777934 0.190990
Si Si2 0.191135 0.734852 0.119169
Si Si3 0.938552 0.500000 0.661542
Si Si4 0.741144 0.500000 0.907949
Si Si5 0.864225 0.125259 0.549111
Si Si6 0.437678 0.233589 0.396691
Si Si7 0.837421 0.000000 0.232906
O O1 0.827139 0.676283 0.295558
O O2 0.837646 0.888565 0.267628
O O3 0.081290 0.800607 0.153166
O O4 0.089291 0.744048 0.045956
O O5 0.166331 0.603461 0.129260
O O6 0.112394 0.764411 0.233848
O O7 0.775705 0.500000 0.820728
O O8 0.846703 0.500000 0.669679
O O9 0.060819 0.608888 0.582386
O O10 0.522099 0.500000 0.066369
O O11 0.951075 0.184987 0.436215
O O12 0.000000 0.136848 0.500000
O O13 0.828776 0.000000 0.558546
O O14 0.250000 0.250000 0.500000
#
# Coordination Sequence:
#
# PCOD8092636 Si02
#       7
#     8   8   4   4   8   8   4
#     4  10  20  37  61  88 126 156 198 248 304 367
#     4   9  19  36  59  95 117 158 200 247 303 355
#     4  10  21  35  60  87 121 158 193 242 311 361
#     4   8  17  32  60  86 120 153 196 242 295 363
#     4  11  25  43  62  84 119 167 209 250 307 369
#     4  11  22  39  63  91 122 157 203 252 301 362
#     4  10  19  35  56  91 125 153 189 248 307 367
#
# _framework density 19.645357000000001
#
# number of rings (size 3 to 8) (size 9 to 14) (size 15 to 20)
#    0.000    2.000    1.818    1.364    2.545    0.727 
#    3.273    4.545    0.000    2.182    0.000    0.000 
#    0.000    0.000    0.000    0.000    0.000    0.000 
#
# Total GULP energy -272700.757149 kJ/mol
# GULP energy per Si atom -12395.488961 kJ/mol
# Density = 1.960064 g / cm^3
# Si number density = 19.645357 Si / 1000 Ang^3
#
#
#
# Elastic Constant Matrix: (Units=GPa)
#
#
# Indices 1 2 3 4 5 6 
#
# 1 97.7032 66.3066 36.3502 0.0007 4.1373 0.0014
# 2 66.3066 129.4446 53.4301 -0.0910 10.2341 0.0279
# 3 36.3502 53.4301 109.7707 -0.1023 26.5995 0.0277
# 4 0.0007 -0.0910 -0.1023 24.9479 0.0444 -0.8720
# 5 4.1373 10.2341 26.5995 0.0444 35.9174 0.0017
# 6 0.0014 0.0279 0.0277 -0.8720 0.0017 37.1179
#
#
#
# Elastic Compliance Matrix: (Units=1/GPa)
#
#
# Indices 1 2 3 4 5 6 
#
# 1 0.016019 -0.007480 -0.002112 -0.000039 0.001850 0.000006
# 2 -0.007480 0.013184 -0.003947 0.000032 0.000028 -0.000006
# 3 -0.002112 -0.003947 0.013892 0.000058 -0.008920 -0.000006
# 4 -0.000039 0.000032 0.000058 0.040117 -0.000097 0.000942
# 5 0.001850 0.000028 -0.008920 -0.000097 0.034227 0.000003
# 6 0.000006 -0.000006 -0.000006 0.000942 0.000003 0.026963
#
#
# Mechanical properties :
#
#
# Convention : Reuss Voigt Hill
#
# Bulk Modulus (GPa) = 62.43524 72.12134 67.27829
# Shear Modulus (GPa) = 28.27751 31.65207 29.96479
#
# Velocity S-wave (km/s) = 3.79806 4.01830 3.90973
# Velocity P-wave (km/s) = 7.14729 7.63677 7.39608
#
# Compressibility (1/GPa) = 0.01601660
#
# Stress axis : x y z
#
# Youngs Moduli (GPa) = 62.42639 75.85060 71.98340
#
# Poissons Ratio (x) = 0.56736 0.15204
# Poissons Ratio (y) = 0.46695 0.28411
# Poissons Ratio (z) = 0.13186 0.29938
#
# Static dielectric constant tensor:
#      x y z
#    x 3.499180 0.000010 0.223510 
#    y 0.000010 3.700360 0.000140 
#    z 0.223510 0.000140 3.334960 
# 
# 
# High freq. dielectric constant tensor:
#      x y z
#    x 1.755010 0.000000 0.009670 
#    y 0.000000 1.761760 0.000010 
#    z 0.009670 0.000010 1.775000 
# 
# From -- ./inp_files/365971.got.cif
#   From: 2010.06.25/outbox.cif.g09.slc.cpg/sg12_183_cif.got.tgz:365971.got - 2010.06.28 00:19:55.
