data_PCOD8092954
_publ_section_title
;
Structure prediction by ZEFSAII (Michael W. Deem and Ramdas Pophale) SiO2 
 PCOD8092954
Probable space group: C 2/M
;
_chemical_formula_sum "Si O2"
_cell_formula_units_Z 56
_cell_length_a 26.642891
_cell_length_b 12.969515
_cell_length_c 9.643693
_cell_angle_alpha 90.000000
_cell_angle_beta 61.285222
_cell_angle_gamma 90.000000
_cell_volume 2922.530708
_symmetry_space_group_name_H-M "C 2/M"
_symmetry_group_IT_number 12
_symmetry_cell_setting 'monoclinic'
loop_
_space_group_symop_operation_xyz
x,y,z
-x,y,-z
-x,-y,-z
x,-y,z
1/2+x,1/2+y,z
1/2-x,1/2+y,-z
1/2-x,1/2-y,-z
1/2+x,1/2-y,z
loop_
_atom_site_type_symbol
_atom_site_label
_atom_site_fract_x
_atom_site_fract_y
_atom_site_fract_z
Si Si1 0.303485 0.621318 0.329409
Si Si2 0.485362 0.206667 0.860458
Si Si3 0.418888 0.120760 0.444102
Si Si4 0.097300 0.387396 0.224488
Si Si5 0.185728 0.220604 0.116473
Si Si6 0.606835 0.616588 0.018264
Si Si7 0.692258 0.240713 0.413059
O O1 0.289100 0.500000 0.357375
O O2 0.362781 0.640556 0.168871
O O3 0.309704 0.668456 0.473073
O O4 0.252940 0.682911 0.319410
O O5 0.543881 0.201729 0.695273
O O6 0.447760 0.116024 0.841721
O O7 0.500000 0.183677 0.000000
O O8 0.449873 0.313172 0.887821
O O9 0.432287 0.141892 0.589080
O O10 0.353542 0.150649 0.496348
O O11 0.429200 0.000000 0.391625
O O12 0.123335 0.500000 0.203729
O O13 0.150784 0.319443 0.113038
O O14 0.178522 0.199684 0.288898
O O15 0.250000 0.250000 0.000000
O O16 0.156409 0.127406 0.070339
O O17 0.584091 0.500000 0.053765
#
# Coordination Sequence:
#
# PCOD8092954 Si02
#       7
#     8   8   8   8   8   8   8
#     4  10  20  36  57  81 114 153 188 228 281 340
#     4  11  22  36  56  80 114 144 187 235 284 322
#     4  10  20  36  58  82 110 148 188 228 281 341
#     4   9  20  36  56  81 109 145 186 225 279 346
#     4  10  19  35  58  86 115 146 184 231 285 331
#     4  10  22  39  59  82 113 152 194 231 277 338
#     4  10  20  35  59  83 116 145 189 236 279 340
#
# _framework density 19.161474999999999
#
# number of rings (size 3 to 8) (size 9 to 14) (size 15 to 20)
#    0.000    2.000    1.429    2.143    0.000    4.286 
#    0.000    0.714    0.000   11.143    0.000    0.000 
#    0.000    0.000    0.000    0.000    0.000    0.000 
#
# Total GULP energy -347016.236519 kJ/mol
# GULP energy per Si atom -12393.437019 kJ/mol
# Density = 1.911786 g / cm^3
# Si number density = 19.161475 Si / 1000 Ang^3
#
#
#
# Elastic Constant Matrix: (Units=GPa)
#
#
# Indices 1 2 3 4 5 6 
#
# 1 70.9916 5.0509 37.7694 0.0000 7.5899 0.0000
# 2 5.0509 73.9575 42.6869 0.0000 -3.1755 0.0000
# 3 37.7694 42.6869 82.9128 0.0000 -1.1719 0.0000
# 4 0.0000 0.0000 0.0000 27.6026 0.0000 -0.5069
# 5 7.5899 -3.1755 -1.1719 0.0000 40.8575 0.0000
# 6 0.0000 0.0000 0.0000 -0.5069 0.0000 22.2270
#
#
#
# Elastic Compliance Matrix: (Units=1/GPa)
#
#
# Indices 1 2 3 4 5 6 
#
# 1 0.020639 0.005529 -0.012302 0.000000 -0.003757 0.000000
# 2 0.005529 0.020779 -0.013214 0.000000 0.000209 0.000000
# 3 -0.012302 -0.013214 0.024496 0.000000 0.001961 0.000000
# 4 0.000000 0.000000 0.000000 0.036244 0.000000 0.000827
# 5 -0.003757 0.000209 0.001961 0.000000 0.025246 0.000000
# 6 0.000000 0.000000 0.000000 0.000827 0.000000 0.045009
#
#
# Mechanical properties :
#
#
# Convention : Reuss Voigt Hill
#
# Bulk Modulus (GPa) = 38.54796 44.31958 41.43377
# Shear Modulus (GPa) = 22.62108 27.62773 25.12441
#
# Velocity S-wave (km/s) = 3.43964 3.80127 3.62497
# Velocity P-wave (km/s) = 5.99466 6.51506 6.26027
#
# Compressibility (1/GPa) = 0.02594171
#
# Stress axis : x y z
#
# Youngs Moduli (GPa) = 48.45119 48.12437 40.82376
#
# Poissons Ratio (x) = -0.26610 0.50220
# Poissons Ratio (y) = -0.26791 0.53945
# Poissons Ratio (z) = 0.59604 0.63592
#
# Static dielectric constant tensor:
#      x y z
#    x 3.718120 0.000000 0.080330 
#    y 0.000000 3.327470 0.000000 
#    z 0.080330 0.000000 3.597630 
# 
# 
# High freq. dielectric constant tensor:
#      x y z
#    x 1.755070 0.000000 0.002630 
#    y 0.000000 1.730850 0.000000 
#    z 0.002630 0.000000 1.747960 
# 
# From -- ./inp_files/104416.got.cif
#   From: 2010.06.25/outbox.cif.g09.slc.cpg/sg12_53_cif.got.tgz:104416.got - 2010.06.28 00:19:55.
