data_PCOD8092463
_publ_section_title
;
Structure prediction by ZEFSAII (Michael W. Deem and Ramdas Pophale) SiO2 
 PCOD8092463
Probable space group: C 2/M
;
_chemical_formula_sum "Si O2"
_cell_formula_units_Z 48
_cell_length_a 16.788613
_cell_length_b 13.877374
_cell_length_c 11.005500
_cell_angle_alpha 90.000000
_cell_angle_beta 88.429294
_cell_angle_gamma 90.000000
_cell_volume 2563.118449
_symmetry_space_group_name_H-M "C 2/M"
_symmetry_group_IT_number 12
_symmetry_cell_setting 'monoclinic'
loop_
_space_group_symop_operation_xyz
x,y,z
-x,y,-z
-x,-y,-z
x,-y,z
1/2+x,1/2+y,z
1/2-x,1/2+y,-z
1/2-x,1/2-y,-z
1/2+x,1/2-y,z
loop_
_atom_site_type_symbol
_atom_site_label
_atom_site_fract_x
_atom_site_fract_y
_atom_site_fract_z
Si Si1 0.139706 0.392916 0.093325
Si Si2 0.584328 0.111696 0.556164
Si Si3 0.587031 0.292891 0.989978
Si Si4 0.787098 0.390005 0.654204
Si Si5 0.165352 0.258095 0.741053
Si Si6 0.727976 0.391175 0.107330
O O1 0.103403 0.500000 0.078842
O O2 0.157492 0.369719 0.231957
O O3 0.078399 0.316866 0.039480
O O4 0.222967 0.381999 0.019152
O O5 0.500000 0.140439 0.500000
O O6 0.657746 0.130473 0.463265
O O7 0.599315 0.181167 0.670141
O O8 0.581347 0.000000 0.598488
O O9 0.620443 0.296251 0.852063
O O10 0.500000 0.340452 0.000000
O O11 0.640809 0.352056 0.081436
O O12 0.756266 0.500000 0.656555
O O13 0.709516 0.321330 0.655497
O O14 0.232672 0.330392 0.787087
O O15 0.722179 0.500000 0.154675
#
# Coordination Sequence:
#
# PCOD8092463 Si02
#       6
#     8   8   8   8   8   8
#     4   9  17  33  54  75 102 138 179 219 262 318
#     4  10  23  38  55  84 113 138 174 226 281 319
#     4  11  22  33  51  82 114 141 176 222 274 319
#     4  10  19  35  59  79 104 144 184 221 261 318
#     4  11  20  37  59  79 106 147 186 220 261 322
#     4  10  19  35  55  77 108 143 183 222 261 319
#
# _framework density 18.727187000000001
#
# number of rings (size 3 to 8) (size 9 to 14) (size 15 to 20)
#    0.000    1.833    3.333    2.000    2.333    1.333 
#    0.000    0.000    0.000    0.500    0.000    0.000 
#    0.000    0.000    0.000    0.000    0.000    0.000 
#
# Total GULP energy -297629.237493 kJ/mol
# GULP energy per Si atom -12401.218229 kJ/mol
# Density = 1.868456 g / cm^3
# Si number density = 18.727187 Si / 1000 Ang^3
#
#
#
# Elastic Constant Matrix: (Units=GPa)
#
#
# Indices 1 2 3 4 5 6 
#
# 1 110.2372 41.5528 23.6122 0.0000 15.3448 0.0000
# 2 41.5528 74.8386 25.5814 0.0000 0.7769 0.0000
# 3 23.6122 25.5814 51.7138 0.0000 10.1483 0.0000
# 4 0.0000 0.0000 0.0000 25.3165 0.0000 4.2440
# 5 15.3448 0.7769 10.1483 0.0000 22.3784 0.0000
# 6 0.0000 0.0000 0.0000 4.2440 0.0000 22.9924
#
#
#
# Elastic Compliance Matrix: (Units=1/GPa)
#
#
# Indices 1 2 3 4 5 6 
#
# 1 0.012984 -0.006799 -0.000949 0.000000 -0.008237 0.000000
# 2 -0.006799 0.019874 -0.008239 0.000000 0.007709 0.000000
# 3 -0.000949 -0.008239 0.025974 0.000000 -0.010842 0.000000
# 4 0.000000 0.000000 0.000000 0.040761 0.000000 -0.007524
# 5 -0.008237 0.007709 -0.010842 0.000000 0.054983 0.000000
# 6 0.000000 0.000000 0.000000 -0.007524 0.000000 0.044881
#
#
# Mechanical properties :
#
#
# Convention : Reuss Voigt Hill
#
# Bulk Modulus (GPa) = 37.23404 46.47582 41.85493
# Shear Modulus (GPa) = 20.80010 23.87369 22.33689
#
# Velocity S-wave (km/s) = 3.33632 3.57433 3.45737
# Velocity P-wave (km/s) = 5.89634 6.47345 6.19163
#
# Compressibility (1/GPa) = 0.02685714
#
# Stress axis : x y z
#
# Youngs Moduli (GPa) = 77.01753 50.31795 38.50060
#
# Poissons Ratio (x) = 0.34213 0.03652
# Poissons Ratio (y) = 0.52368 0.31721
# Poissons Ratio (z) = 0.07305 0.41457
#
# Static dielectric constant tensor:
#      x y z
#    x 3.223950 0.000000 -0.034430 
#    y 0.000000 3.615360 0.000000 
#    z -0.034430 0.000000 3.322180 
# 
# 
# High freq. dielectric constant tensor:
#      x y z
#    x 1.710590 0.000000 0.001080 
#    y 0.000000 1.727590 0.000000 
#    z 0.001080 0.000000 1.719220 
# 
# From -- ./inp_files/104933.got.cif
#   From: 2010.06.25/outbox.cif.g09.slc.cpg/sg12_53_cif.got.tgz:104933.got - 2010.06.28 00:19:55.
