data_PCOD8092689
_publ_section_title
;
Structure prediction by ZEFSAII (Michael W. Deem and Ramdas Pophale) SiO2 
 PCOD8092689
Probable space group: C 2/M
;
_chemical_formula_sum "Si O2"
_cell_formula_units_Z 56
_cell_length_a 29.458411
_cell_length_b 8.911163
_cell_length_c 21.478939
_cell_angle_alpha 90.000000
_cell_angle_beta 30.368474
_cell_angle_gamma 90.000000
_cell_volume 2850.548702
_symmetry_space_group_name_H-M "C 2/M"
_symmetry_group_IT_number 12
_symmetry_cell_setting 'monoclinic'
loop_
_space_group_symop_operation_xyz
x,y,z
-x,y,-z
-x,-y,-z
x,-y,z
1/2+x,1/2+y,z
1/2-x,1/2+y,-z
1/2-x,1/2-y,-z
1/2+x,1/2-y,z
loop_
_atom_site_type_symbol
_atom_site_label
_atom_site_fract_x
_atom_site_fract_y
_atom_site_fract_z
Si Si1 0.778456 0.675427 0.870504
Si Si2 0.871994 0.172071 0.297307
Si Si3 0.956903 0.171585 0.986723
Si Si4 0.070746 0.672042 0.652607
Si Si5 0.276935 0.172419 0.622895
Si Si6 0.230046 0.323329 0.803805
Si Si7 0.385869 0.324806 0.847738
O O1 0.791660 0.500000 0.845067
O O2 0.784754 0.754808 0.796587
O O3 0.859578 0.735350 0.816798
O O4 0.683235 0.713614 0.015180
O O5 0.865411 0.273932 0.366527
O O6 0.800901 0.232417 0.330990
O O7 0.972273 0.187209 0.152286
O O8 0.849416 0.000000 0.341194
O O9 0.923632 0.000000 0.033243
O O10 0.873056 0.274367 0.069890
O O11 0.000000 0.227928 0.000000
O O12 0.042506 0.500000 0.696756
O O13 0.126104 0.690057 0.523448
O O14 0.983794 0.776032 0.753663
O O15 0.276970 0.269608 0.685046
O O16 0.256248 0.000000 0.664562
O O17 0.236050 0.500000 0.800701
O O18 0.384991 0.500000 0.833407
#
# Coordination Sequence:
#
# PCOD8092689 Si02
#       7
#     8   8   8   8   8   8   8
#     4  10  21  39  64  89 116 151 187 228 285 347
#     4  10  20  36  59  82 110 153 198 239 285 336
#     4  10  19  35  57  79 111 154 192 229 279 340
#     4  11  23  37  58  85 115 151 193 240 286 338
#     4  10  22  41  58  77 112 159 201 235 280 342
#     4  12  24  36  56  87 120 151 189 240 291 337
#     4  10  21  39  63  90 118 147 185 234 286 338
#
# _framework density 19.645341999999999
#
# number of rings (size 3 to 8) (size 9 to 14) (size 15 to 20)
#    0.000    1.571    1.429    3.857    0.000    7.714 
#    0.000    0.714    0.000    4.286    0.000    0.000 
#    0.000    0.000    0.000    0.000    0.000    0.000 
#
# Total GULP energy -347380.451114 kJ/mol
# GULP energy per Si atom -12406.444683 kJ/mol
# Density = 1.960063 g / cm^3
# Si number density = 19.645342 Si / 1000 Ang^3
#
#
#
# Elastic Constant Matrix: (Units=GPa)
#
#
# Indices 1 2 3 4 5 6 
#
# 1 118.3164 53.5426 24.4722 -0.0031 17.7340 0.0022
# 2 53.5426 98.6720 26.7074 -0.0005 13.1571 0.0023
# 3 24.4722 26.7074 54.3034 0.0082 7.5896 -0.0009
# 4 -0.0031 -0.0005 0.0082 25.4957 0.0030 1.7421
# 5 17.7340 13.1571 7.5896 0.0030 26.2355 -0.0026
# 6 0.0022 0.0023 -0.0009 1.7421 -0.0026 37.0957
#
#
#
# Elastic Compliance Matrix: (Units=1/GPa)
#
#
# Indices 1 2 3 4 5 6 
#
# 1 0.012017 -0.005297 -0.002133 0.000003 -0.004850 -0.000001
# 2 -0.005297 0.014529 -0.004419 0.000001 -0.002427 -0.000001
# 3 -0.002133 -0.004419 0.021925 -0.000007 -0.002685 0.000001
# 4 0.000003 0.000001 -0.000007 0.039349 -0.000005 -0.001848
# 5 -0.004850 -0.002427 -0.002685 -0.000005 0.043388 0.000004
# 6 -0.000001 -0.000001 0.000001 -0.001848 0.000004 0.027044
#
#
# Mechanical properties :
#
#
# Convention : Reuss Voigt Hill
#
# Bulk Modulus (GPa) = 40.36637 53.41512 46.89075
# Shear Modulus (GPa) = 26.28724 28.87002 27.57863
#
# Velocity S-wave (km/s) = 3.66196 3.83764 3.75083
# Velocity P-wave (km/s) = 6.20259 6.84729 6.53290
#
# Compressibility (1/GPa) = 0.02477309
#
# Stress axis : x y z
#
# Youngs Moduli (GPa) = 83.21576 68.82966 45.61050
#
# Poissons Ratio (x) = 0.36458 0.09727
# Poissons Ratio (y) = 0.44079 0.20156
# Poissons Ratio (z) = 0.17747 0.30417
#
# Static dielectric constant tensor:
#      x y z
#    x 3.622860 -0.000010 0.099530 
#    y -0.000010 3.515530 0.000020 
#    z 0.099530 0.000020 3.453320 
# 
# 
# High freq. dielectric constant tensor:
#      x y z
#    x 1.770000 0.000000 0.007090 
#    y 0.000000 1.764150 0.000000 
#    z 0.007090 0.000000 1.757890 
# 
# From -- ./inp_files/238943.got.cif
#   From: 2010.06.25/outbox.cif.g09.slc.cpg/sg12_120_cif.got.tgz:238943.got - 2010.06.28 00:19:55.
