data_PCOD8092948
_publ_section_title
;
Structure prediction by ZEFSAII (Michael W. Deem and Ramdas Pophale) SiO2 
 PCOD8092948
Probable space group: C 2/M
;
_chemical_formula_sum "Si O2"
_cell_formula_units_Z 64
_cell_length_a 15.326239
_cell_length_b 8.625321
_cell_length_c 23.899838
_cell_angle_alpha 90.000000
_cell_angle_beta 90.750738
_cell_angle_gamma 90.000000
_cell_volume 3159.137551
_symmetry_space_group_name_H-M "C 2/M"
_symmetry_group_IT_number 12
_symmetry_cell_setting 'monoclinic'
loop_
_space_group_symop_operation_xyz
x,y,z
-x,y,-z
-x,-y,-z
x,-y,z
1/2+x,1/2+y,z
1/2-x,1/2+y,-z
1/2-x,1/2-y,-z
1/2+x,1/2-y,z
loop_
_atom_site_type_symbol
_atom_site_label
_atom_site_fract_x
_atom_site_fract_y
_atom_site_fract_z
Si Si1 0.410441 0.676455 0.374860
Si Si2 0.242773 0.319260 0.560818
Si Si3 0.857042 0.318028 0.139059
Si Si4 0.339249 0.316307 0.862784
Si Si5 0.335145 0.818677 0.746881
Si Si6 0.897237 0.820119 0.640529
Si Si7 0.851495 0.319537 0.264286
Si Si8 0.512354 0.816974 0.064392
O O1 0.380925 0.500000 0.384179
O O2 0.350979 0.783728 0.413106
O O3 0.511655 0.701195 0.391919
O O4 0.402629 0.717129 0.309358
O O5 0.255131 0.500000 0.554918
O O6 0.250000 0.250000 0.500000
O O7 0.319946 0.253219 0.600811
O O8 0.854384 0.500000 0.130444
O O9 0.759396 0.254995 0.125586
O O10 0.885609 0.275949 0.202599
O O11 0.928776 0.248410 0.097317
O O12 0.340284 0.500000 0.853993
O O13 0.374929 0.233952 0.806749
O O14 0.400068 0.267181 0.914555
O O15 0.402465 0.779937 0.697701
O O16 0.250505 0.716886 0.732519
O O17 0.313307 0.000000 0.748172
O O18 0.882055 0.000000 0.655562
O O19 0.865744 0.500000 0.277870
O O20 0.522865 0.000000 0.073715
O O21 0.500000 0.773358 0.000000
#
# Coordination Sequence:
#
# PCOD8092948 Si02
#       8
#     8   8   8   8   8   8   8   8
#     4  11  23  39  61  92 123 157 204 248 297 361
#     4  11  24  44  67  88 122 167 207 255 305 354
#     4   8  18  36  56  80 115 157 193 236 299 360
#     4  10  21  38  58  82 116 156 197 244 302 362
#     4  11  21  35  60  90 121 156 200 248 301 362
#     4  10  23  41  61  89 126 163 198 244 306 361
#     4  10  19  35  58  85 122 160 196 242 305 361
#     4  10  21  38  59  85 117 155 202 251 298 357
#
# _framework density 20.258693999999998
#
# number of rings (size 3 to 8) (size 9 to 14) (size 15 to 20)
#    0.000    1.875    1.250    3.375    1.750    2.750 
#    0.000    5.625    0.000    0.000    0.000    0.000 
#    0.000    0.000    0.000    0.000    0.000    0.000 
#
# Total GULP energy -396853.761888 kJ/mol
# GULP energy per Si atom -12401.680059 kJ/mol
# Density = 2.021258 g / cm^3
# Si number density = 20.258694 Si / 1000 Ang^3
#
#
#
# Elastic Constant Matrix: (Units=GPa)
#
#
# Indices 1 2 3 4 5 6 
#
# 1 89.7316 18.4102 46.1818 0.0000 -12.6332 0.0000
# 2 18.4102 45.6041 27.0228 0.0000 0.0514 0.0000
# 3 46.1818 27.0228 117.7265 0.0000 -12.1870 0.0000
# 4 0.0000 0.0000 0.0000 32.1300 0.0000 4.1075
# 5 -12.6332 0.0514 -12.1870 0.0000 26.4589 0.0000
# 6 0.0000 0.0000 0.0000 4.1075 0.0000 25.0582
#
#
#
# Elastic Compliance Matrix: (Units=1/GPa)
#
#
# Indices 1 2 3 4 5 6 
#
# 1 0.014874 -0.003310 -0.004556 0.000000 0.005009 0.000000
# 2 -0.003310 0.026326 -0.005159 0.000000 -0.004008 0.000000
# 3 -0.004556 -0.005159 0.011805 0.000000 0.003272 0.000000
# 4 0.000000 0.000000 0.000000 0.031790 0.000000 -0.005211
# 5 0.005009 -0.004008 0.003272 0.000000 0.041701 0.000000
# 6 0.000000 0.000000 0.000000 -0.005211 0.000000 0.040761
#
#
# Mechanical properties :
#
#
# Convention : Reuss Voigt Hill
#
# Bulk Modulus (GPa) = 37.10211 48.47687 42.78949
# Shear Modulus (GPa) = 24.71678 27.49257 26.10468
#
# Velocity S-wave (km/s) = 3.49672 3.68785 3.59356
# Velocity P-wave (km/s) = 5.88699 6.48957 6.19561
#
# Compressibility (1/GPa) = 0.02695264
#
# Stress axis : x y z
#
# Youngs Moduli (GPa) = 67.23255 37.98562 84.71332
#
# Poissons Ratio (x) = 0.12574 0.38598
# Poissons Ratio (y) = 0.22256 0.43705
# Poissons Ratio (z) = 0.30633 0.19597
#
# Static dielectric constant tensor:
#      x y z
#    x 3.905870 0.000000 -0.015240 
#    y 0.000000 3.476410 0.000000 
#    z -0.015240 0.000000 3.756630 
# 
# 
# High freq. dielectric constant tensor:
#      x y z
#    x 1.794740 0.000000 -0.002070 
#    y 0.000000 1.779500 0.000000 
#    z -0.002070 0.000000 1.787450 
# 
# From -- ./inp_files/338754.got.cif
#   From: 2010.06.25/outbox.cif.g09.slc.cpg/sg12_170_cif.got.tgz:338754.got - 2010.06.28 00:19:55.
