data_PCOD8092936
_publ_section_title
;
Structure prediction by ZEFSAII (Michael W. Deem and Ramdas Pophale) SiO2 
 PCOD8092936
Probable space group: C 2/M
;
_chemical_formula_sum "Si O2"
_cell_formula_units_Z 56
_cell_length_a 28.499390
_cell_length_b 8.973762
_cell_length_c 19.520175
_cell_angle_alpha 90.000000
_cell_angle_beta 36.219435
_cell_angle_gamma 90.000000
_cell_volume 2949.800447
_symmetry_space_group_name_H-M "C 2/M"
_symmetry_group_IT_number 12
_symmetry_cell_setting 'monoclinic'
loop_
_space_group_symop_operation_xyz
x,y,z
-x,y,-z
-x,-y,-z
x,-y,z
1/2+x,1/2+y,z
1/2-x,1/2+y,-z
1/2-x,1/2-y,-z
1/2+x,1/2-y,z
loop_
_atom_site_type_symbol
_atom_site_label
_atom_site_fract_x
_atom_site_fract_y
_atom_site_fract_z
Si Si1 0.558179 0.174926 0.870330
Si Si2 0.022061 0.328882 0.176730
Si Si3 0.506289 0.674886 0.332692
Si Si4 0.194711 0.827314 0.778243
Si Si5 0.147878 0.673797 0.241846
Si Si6 0.693199 0.827906 0.922336
Si Si7 0.624506 0.169406 0.427418
O O1 0.519514 0.222790 0.844321
O O2 0.641012 0.263312 0.780181
O O3 0.575570 0.000000 0.853105
O O4 0.500000 0.223962 0.000000
O O5 0.000906 0.500000 0.217637
O O6 0.987703 0.226577 0.277468
O O7 0.116696 0.307760 0.060258
O O8 0.519123 0.500000 0.320446
O O9 0.586083 0.754482 0.263037
O O10 0.432670 0.716897 0.467278
O O11 0.172986 0.738814 0.872288
O O12 0.286565 0.804860 0.649739
O O13 0.176617 0.000000 0.812954
O O14 0.154281 0.500000 0.218517
O O15 0.234057 0.744342 0.127007
O O16 0.120137 0.704237 0.351982
O O17 0.715343 0.000000 0.886114
O O18 0.596386 0.000000 0.474511
#
# Coordination Sequence:
#
# PCOD8092936 Si02
#       7
#     8   8   8   8   8   8   8
#     4  10  19  36  60  87 114 147 190 231 279 335
#     4  10  22  39  58  80 115 156 187 227 285 339
#     4  12  25  38  56  83 113 149 193 237 280 332
#     4  10  20  34  57  89 118 147 183 232 286 333
#     4  10  21  38  61  86 113 148 188 232 285 337
#     4  10  19  35  58  85 115 148 189 234 279 332
#     4   9  20  39  60  82 112 149 189 230 279 336
#
# _framework density 18.984334
#
# number of rings (size 3 to 8) (size 9 to 14) (size 15 to 20)
#    0.000    1.857    1.429    3.857    0.000    7.714 
#    0.000    0.714    0.000    0.000    0.000    0.000 
#    0.000    0.000    0.000    0.000    0.000    0.000 
#
# Total GULP energy -347332.954408 kJ/mol
# GULP energy per Si atom -12404.748372 kJ/mol
# Density = 1.894113 g / cm^3
# Si number density = 18.984334 Si / 1000 Ang^3
#
#
#
# Elastic Constant Matrix: (Units=GPa)
#
#
# Indices 1 2 3 4 5 6 
#
# 1 110.9625 44.6032 24.3750 -0.0104 -3.0815 0.0074
# 2 44.6032 106.9940 26.6541 -0.0035 0.4634 -0.0001
# 3 24.3750 26.6541 30.9123 -0.0059 2.1867 0.0032
# 4 -0.0104 -0.0035 -0.0059 31.3927 0.0018 -4.1715
# 5 -3.0815 0.4634 2.1867 0.0018 21.7031 0.0001
# 6 0.0074 -0.0001 0.0032 -4.1715 0.0001 36.0263
#
#
#
# Elastic Compliance Matrix: (Units=1/GPa)
#
#
# Indices 1 2 3 4 5 6 
#
# 1 0.011874 -0.003292 -0.006696 0.000002 0.002431 -0.000002
# 2 -0.003292 0.012829 -0.008474 -0.000001 0.000112 0.000001
# 3 -0.006696 -0.008474 0.045314 0.000005 -0.005335 -0.000002
# 4 0.000002 -0.000001 0.000005 0.032352 -0.000003 0.003746
# 5 0.002431 0.000112 -0.005335 -0.000003 0.046957 -0.000001
# 6 -0.000002 0.000001 -0.000002 0.003746 -0.000001 0.028191
#
#
# Mechanical properties :
#
#
# Convention : Reuss Voigt Hill
#
# Bulk Modulus (GPa) = 30.21851 48.90374 39.56112
# Shear Modulus (GPa) = 22.17566 28.04018 25.10792
#
# Velocity S-wave (km/s) = 3.42146 3.84737 3.64065
# Velocity P-wave (km/s) = 5.61789 6.74924 6.20939
#
# Compressibility (1/GPa) = 0.03309230
#
# Stress axis : x y z
#
# Youngs Moduli (GPa) = 84.21852 77.94623 22.06844
#
# Poissons Ratio (x) = 0.25663 0.14777
# Poissons Ratio (y) = 0.27728 0.18701
# Poissons Ratio (z) = 0.56392 0.66051
#
# Static dielectric constant tensor:
#      x y z
#    x 3.545040 -0.000020 -0.126340 
#    y -0.000020 3.476570 0.000020 
#    z -0.126340 0.000020 3.299710 
# 
# 
# High freq. dielectric constant tensor:
#      x y z
#    x 1.742230 0.000000 -0.010770 
#    y 0.000000 1.742250 0.000000 
#    z -0.010770 0.000000 1.724660 
# 
# From -- ./inp_files/288239.got.cif
#   From: 2010.06.25/outbox.cif.g09.slc.cpg/sg12_145_cif.got.tgz:288239.got - 2010.06.28 00:19:55.
