data_PCOD8092387
_publ_section_title
;
Structure prediction by ZEFSAII (Michael W. Deem and Ramdas Pophale) SiO2 
 PCOD8092387
Probable space group: C 2/M
;
_chemical_formula_sum "Si O2"
_cell_formula_units_Z 64
_cell_length_a 30.551490
_cell_length_b 13.856111
_cell_length_c 18.170610
_cell_angle_alpha 90.000000
_cell_angle_beta 152.024167
_cell_angle_gamma 90.000000
_cell_volume 3608.343348
_symmetry_space_group_name_H-M "C 2/M"
_symmetry_group_IT_number 12
_symmetry_cell_setting 'monoclinic'
loop_
_space_group_symop_operation_xyz
x,y,z
-x,y,-z
-x,-y,-z
x,-y,z
1/2+x,1/2+y,z
1/2-x,1/2+y,-z
1/2-x,1/2-y,-z
1/2+x,1/2-y,z
loop_
_atom_site_type_symbol
_atom_site_label
_atom_site_fract_x
_atom_site_fract_y
_atom_site_fract_z
Si Si1 0.110880 0.108534 0.861704
Si Si2 0.208205 0.888981 0.316406
Si Si3 0.086670 0.386725 0.326653
Si Si4 0.981189 0.297894 0.299438
Si Si5 0.446898 0.742060 0.847196
Si Si6 0.089222 0.605664 0.582304
Si Si7 0.899082 0.891843 0.985548
Si Si8 0.686042 0.887106 0.865403
O O1 0.027917 0.181697 0.717734
O O2 0.139447 0.119233 0.989504
O O3 0.075531 0.000000 0.792016
O O4 0.205077 0.131919 0.954978
O O5 0.315328 0.862332 0.489160
O O6 0.144329 0.821001 0.271687
O O7 0.188127 0.000000 0.308288
O O8 0.185586 0.869540 0.196682
O O9 0.071002 0.500000 0.292534
O O10 0.082911 0.337709 0.240932
O O11 0.004481 0.343597 0.255166
O O12 0.879550 0.336689 0.172148
O O13 0.065031 0.322160 0.480002
O O14 0.514374 0.678628 0.896930
O O15 0.500000 0.774214 0.000000
O O16 0.118442 0.500000 0.592694
O O17 0.167031 0.649378 0.752969
O O18 0.000000 0.590564 0.500000
O O19 0.936382 0.000000 0.026408
O O20 0.661898 0.000000 0.831638
#
# Coordination Sequence:
#
# PCOD8092387 Si02
#       8
#     8   8   8   8   8   8   8   8
#     4  10  20  32  49  74 102 130 168 206 244 293
#     4   9  19  33  54  78  99 123 160 211 257 294
#     4  11  22  33  49  77 104 131 167 203 244 295
#     4  11  19  32  49  73 106 134 162 200 250 296
#     4  10  19  35  54  72 100 134 166 198 248 301
#     4   8  15  28  48  73  97 124 159 198 245 291
#     4   9  17  32  52  76 100 124 159 209 256 292
#     4   9  18  32  52  77 102 130 164 206 251 291
#
# _framework density 17.736671999999999
#
# number of rings (size 3 to 8) (size 9 to 14) (size 15 to 20)
#    0.000    2.375    1.250    3.000    1.750    1.750 
#    0.000    0.000    0.000    3.375    0.000    3.500 
#    0.000    0.000    0.000    0.000    0.000    0.000 
#
# Total GULP energy -396674.078662 kJ/mol
# GULP energy per Si atom -12396.064958 kJ/mol
# Density = 1.769630 g / cm^3
# Si number density = 17.736672 Si / 1000 Ang^3
#
#
#
# Elastic Constant Matrix: (Units=GPa)
#
#
# Indices 1 2 3 4 5 6 
#
# 1 74.0238 41.6813 25.5114 0.0000 0.0156 0.0000
# 2 41.6813 102.7323 52.0529 0.0000 -0.1320 0.0000
# 3 25.5114 52.0529 66.1429 0.0000 -0.3719 0.0000
# 4 0.0000 0.0000 0.0000 25.6063 0.0000 -2.5374
# 5 0.0156 -0.1320 -0.3719 0.0000 20.3208 0.0000
# 6 0.0000 0.0000 0.0000 -2.5374 0.0000 24.8746
#
#
#
# Elastic Compliance Matrix: (Units=1/GPa)
#
#
# Indices 1 2 3 4 5 6 
#
# 1 0.017659 -0.006176 -0.001951 0.000000 -0.000089 0.000000
# 2 -0.006176 0.018350 -0.012059 0.000000 -0.000097 0.000000
# 3 -0.001951 -0.012059 0.025364 0.000000 0.000387 0.000000
# 4 0.000000 0.000000 0.000000 0.039452 0.000000 0.004024
# 5 -0.000089 -0.000097 0.000387 0.000000 0.049217 0.000000
# 6 0.000000 0.000000 0.000000 0.004024 0.000000 0.040612
#
#
# Mechanical properties :
#
#
# Convention : Reuss Voigt Hill
#
# Bulk Modulus (GPa) = 47.61968 53.48778 50.55373
# Shear Modulus (GPa) = 21.00588 22.40389 21.70489
#
# Velocity S-wave (km/s) = 3.44513 3.55792 3.50198
# Velocity P-wave (km/s) = 6.53694 6.86298 6.70194
#
# Compressibility (1/GPa) = 0.02099972
#
# Stress axis : x y z
#
# Youngs Moduli (GPa) = 56.62698 54.49525 39.42597
#
# Poissons Ratio (x) = 0.33659 0.07692
# Poissons Ratio (y) = 0.34975 0.47546
# Poissons Ratio (z) = 0.11048 0.65718
#
# Static dielectric constant tensor:
#      x y z
#    x 3.247580 0.000000 -0.030140 
#    y 0.000000 3.207640 0.000000 
#    z -0.030140 0.000000 3.377250 
# 
# 
# High freq. dielectric constant tensor:
#      x y z
#    x 1.685560 0.000000 0.005860 
#    y 0.000000 1.672850 0.000000 
#    z 0.005860 0.000000 1.671680 
# 
# From -- ./inp_files/296703.got.cif
#   From: 2010.06.25/outbox.cif.g09.slc.cpg/sg12_149_cif.got.tgz:296703.got - 2010.06.28 00:19:55.
