data_PCOD8092617
_publ_section_title
;
Structure prediction by ZEFSAII (Michael W. Deem and Ramdas Pophale) SiO2 
 PCOD8092617
Probable space group: C 2/M
;
_chemical_formula_sum "Si O2"
_cell_formula_units_Z 64
_cell_length_a 31.737254
_cell_length_b 13.830694
_cell_length_c 9.763150
_cell_angle_alpha 90.000000
_cell_angle_beta 132.024113
_cell_angle_gamma 90.000000
_cell_volume 3183.553120
_symmetry_space_group_name_H-M "C 2/M"
_symmetry_group_IT_number 12
_symmetry_cell_setting 'monoclinic'
loop_
_space_group_symop_operation_xyz
x,y,z
-x,y,-z
-x,-y,-z
x,-y,z
1/2+x,1/2+y,z
1/2-x,1/2+y,-z
1/2-x,1/2-y,-z
1/2+x,1/2-y,z
loop_
_atom_site_type_symbol
_atom_site_label
_atom_site_fract_x
_atom_site_fract_y
_atom_site_fract_z
Si Si1 0.574120 0.113194 0.921993
Si Si2 0.154764 0.890190 0.944643
Si Si3 0.975769 0.261070 0.598660
Si Si4 0.885265 0.392731 0.288125
Si Si5 0.388572 0.612726 0.447255
Si Si6 0.169243 0.736508 0.202222
Si Si7 0.704889 0.289637 0.570212
Si Si8 0.716487 0.106541 0.760469
O O1 0.518708 0.181742 0.792969
O O2 0.608037 0.128255 0.855714
O O3 0.559132 0.000000 0.919900
O O4 0.620298 0.156449 0.129139
O O5 0.121240 0.861831 0.734253
O O6 0.139177 0.000000 0.957264
O O7 0.141564 0.813917 0.035773
O O8 0.220305 0.882046 0.048163
O O9 0.922128 0.329460 0.469026
O O10 0.948779 0.165828 0.613624
O O11 0.000000 0.237872 0.500000
O O12 0.906275 0.500000 0.366213
O O13 0.819882 0.374279 0.182072
O O14 0.397866 0.500000 0.492151
O O15 0.333962 0.643526 0.418009
O O16 0.227530 0.684478 0.276051
O O17 0.182595 0.798273 0.366999
O O18 0.699651 0.178061 0.602461
O O19 0.705214 0.000000 0.675005
#
# Coordination Sequence:
#
# PCOD8092617 Si02
#       8
#     8   8   8   8   8   8   8   8
#     4  10  21  35  57  87 116 149 193 235 283 347
#     4   9  19  34  55  85 116 148 192 240 289 341
#     4  10  19  35  56  82 120 154 188 241 300 347
#     4   9  16  28  52  84 114 147 184 231 291 343
#     4  11  23  38  60  88 114 149 199 250 292 344
#     4  10  22  38  59  85 120 161 189 235 293 351
#     4  10  22  38  57  86 121 157 194 231 292 355
#     4   9  17  30  53  82 115 149 185 232 287 346
#
# _framework density 20.103324000000001
#
# number of rings (size 3 to 8) (size 9 to 14) (size 15 to 20)
#    0.000    2.250    1.250    1.875    1.750    4.250 
#    0.000    3.750    0.000    1.500    0.000    0.000 
#    0.000    0.000    0.000    0.000    0.000    0.000 
#
# Total GULP energy -396535.868301 kJ/mol
# GULP energy per Si atom -12391.745884 kJ/mol
# Density = 2.005757 g / cm^3
# Si number density = 20.103324 Si / 1000 Ang^3
#
#
#
# Elastic Constant Matrix: (Units=GPa)
#
#
# Indices 1 2 3 4 5 6 
#
# 1 44.7878 40.1281 17.8776 0.0000 8.4631 0.0000
# 2 40.1281 109.6120 49.3653 0.0000 15.2143 0.0000
# 3 17.8776 49.3653 69.4601 0.0000 10.0153 0.0000
# 4 0.0000 0.0000 0.0000 22.9348 0.0000 8.3525
# 5 8.4631 15.2143 10.0153 0.0000 23.7643 0.0000
# 6 0.0000 0.0000 0.0000 8.3525 0.0000 28.1908
#
#
#
# Elastic Compliance Matrix: (Units=1/GPa)
#
#
# Indices 1 2 3 4 5 6 
#
# 1 0.033667 -0.011892 0.000444 0.000000 -0.004564 0.000000
# 2 -0.011892 0.018169 -0.009354 0.000000 -0.003455 0.000000
# 3 0.000444 -0.009354 0.021389 0.000000 -0.003184 0.000000
# 4 0.000000 0.000000 0.000000 0.048876 0.000000 -0.014481
# 5 -0.004564 -0.003455 -0.003184 0.000000 0.047259 0.000000
# 6 0.000000 0.000000 0.000000 -0.014481 0.000000 0.039763
#
#
# Mechanical properties :
#
#
# Convention : Reuss Voigt Hill
#
# Bulk Modulus (GPa) = 31.62287 48.73353 40.17820
# Shear Modulus (GPa) = 19.13758 22.74391 20.94074
#
# Velocity S-wave (km/s) = 3.08873 3.36720 3.23097
# Velocity P-wave (km/s) = 5.33710 6.27786 5.82650
#
# Compressibility (1/GPa) = 0.03162268
#
# Stress axis : x y z
#
# Youngs Moduli (GPa) = 29.70248 55.03965 46.75274
#
# Poissons Ratio (x) = 0.65453 -0.02078
# Poissons Ratio (y) = 0.35322 0.43731
# Poissons Ratio (z) = -0.01320 0.51482
#
# Static dielectric constant tensor:
#      x y z
#    x 3.660270 0.000000 0.213320 
#    y 0.000000 3.881720 0.000000 
#    z 0.213320 0.000000 3.413710 
# 
# 
# High freq. dielectric constant tensor:
#      x y z
#    x 1.772500 0.000000 0.020140 
#    y 0.000000 1.791080 0.000000 
#    z 0.020140 0.000000 1.760270 
# 
# From -- ./inp_files/112044.got.cif
#   From: 2010.06.25/outbox.cif.g09.slc.cpg/sg12_57_cif.got.tgz:112044.got - 2010.06.28 00:19:55.
