data_PCOD8092102
_publ_section_title
;
Structure prediction by ZEFSAII (Michael W. Deem and Ramdas Pophale) SiO2 
 PCOD8092102
Probable space group: C 2/M
;
_chemical_formula_sum "Si O2"
_cell_formula_units_Z 40
_cell_length_a 9.720967
_cell_length_b 15.326095
_cell_length_c 15.139188
_cell_angle_alpha 90.000000
_cell_angle_beta 115.799345
_cell_angle_gamma 90.000000
_cell_volume 2030.683637
_symmetry_space_group_name_H-M "C 2/M"
_symmetry_group_IT_number 12
_symmetry_cell_setting 'monoclinic'
loop_
_space_group_symop_operation_xyz
x,y,z
-x,y,-z
-x,-y,-z
x,-y,z
1/2+x,1/2+y,z
1/2-x,1/2+y,-z
1/2-x,1/2-y,-z
1/2+x,1/2-y,z
loop_
_atom_site_type_symbol
_atom_site_label
_atom_site_fract_x
_atom_site_fract_y
_atom_site_fract_z
Si Si1 0.552776 0.599605 0.422625
Si Si2 0.160238 0.831332 0.782247
Si Si3 0.900069 0.600372 0.553238
Si Si4 0.436004 0.000000 0.121492
Si Si5 0.972995 0.669732 0.762563
Si Si6 0.756888 0.500000 0.903109
O O1 0.500000 0.640651 0.500000
O O2 0.494652 0.500000 0.399653
O O3 0.473914 0.652821 0.324224
O O4 0.732611 0.608751 0.466221
O O5 0.322597 0.814493 0.780233
O O6 0.165759 0.912193 0.851858
O O7 0.097784 0.745635 0.814532
O O8 0.937000 0.500000 0.588662
O O9 0.923992 0.659822 0.646321
O O10 0.000000 0.635183 0.500000
O O11 0.434927 0.915832 0.183014
O O12 0.586348 0.000000 0.105138
O O13 0.287296 0.000000 0.016632
#
# Coordination Sequence:
#
# PCOD8092102 Si02
#       6
#     8   8   8   4   8   4
#     4  10  19  34  59  84 117 164 201 239 284 343
#     4  11  23  38  61  93 121 155 200 245 292 356
#     4  10  21  36  57  87 122 163 201 239 289 349
#     4   9  20  42  69  85 116 157 195 251 302 355
#     4  11  23  39  61  91 122 156 200 243 296 352
#     4   9  20  42  67  90 112 154 205 243 300 358
#
# _framework density 19.697800000000001
#
# number of rings (size 3 to 8) (size 9 to 14) (size 15 to 20)
#    0.000    1.800    4.000    0.000    2.800    2.400 
#    0.000    1.000    0.000    1.200    0.000    0.000 
#    0.000    0.000    0.000    0.000    0.000    0.000 
#
# Total GULP energy -247974.562910 kJ/mol
# GULP energy per Si atom -12398.728145 kJ/mol
# Density = 1.965297 g / cm^3
# Si number density = 19.697800 Si / 1000 Ang^3
#
#
#
# Elastic Constant Matrix: (Units=GPa)
#
#
# Indices 1 2 3 4 5 6 
#
# 1 91.3205 45.3332 28.9295 0.0000 -0.6927 0.0000
# 2 45.3332 136.7235 52.6110 0.0000 10.6947 0.0000
# 3 28.9295 52.6110 102.3170 0.0000 12.5403 0.0000
# 4 0.0000 0.0000 0.0000 15.3048 0.0000 15.1974
# 5 -0.6927 10.6947 12.5403 0.0000 15.9514 0.0000
# 6 0.0000 0.0000 0.0000 15.1974 0.0000 60.2941
#
#
#
# Elastic Compliance Matrix: (Units=1/GPa)
#
#
# Indices 1 2 3 4 5 6 
#
# 1 0.013770 -0.004027 -0.002464 0.000000 0.005235 0.000000
# 2 -0.004027 0.010401 -0.003689 0.000000 -0.004248 0.000000
# 3 -0.002464 -0.003689 0.013365 0.000000 -0.008141 0.000000
# 4 0.000000 0.000000 0.000000 0.087152 0.000000 -0.021967
# 5 0.005235 -0.004248 -0.008141 0.000000 0.072166 0.000000
# 6 0.000000 0.000000 0.000000 -0.021967 0.000000 0.022122
#
#
# Mechanical properties :
#
#
# Convention : Reuss Voigt Hill
#
# Bulk Modulus (GPa) = 58.22262 64.90092 61.56177
# Shear Modulus (GPa) = 20.40305 31.87589 26.13947
#
# Velocity S-wave (km/s) = 3.22188 4.02711 3.64679
# Velocity P-wave (km/s) = 6.59263 7.39211 7.00379
#
# Compressibility (1/GPa) = 0.01717545
#
# Stress axis : x y z
#
# Youngs Moduli (GPa) = 72.62245 96.14462 74.82291
#
# Poissons Ratio (x) = 0.38716 0.18439
# Poissons Ratio (y) = 0.29244 0.27601
# Poissons Ratio (z) = 0.17897 0.35467
#
# Static dielectric constant tensor:
#      x y z
#    x 3.420200 0.000000 0.069230 
#    y 0.000000 3.703160 0.000000 
#    z 0.069230 0.000000 3.685910 
# 
# 
# High freq. dielectric constant tensor:
#      x y z
#    x 1.752130 0.000000 0.006760 
#    y 0.000000 1.773430 0.000000 
#    z 0.006760 0.000000 1.760180 
# 
# From -- ./inp_files/194587.got.cif
#   From: 2010.06.25/outbox.cif.g09.slc.cpg/sg12_98_cif.got.tgz:194587.got - 2010.06.28 00:19:55.
