data_PCOD8092415
_publ_section_title
;
Structure prediction by ZEFSAII (Michael W. Deem and Ramdas Pophale) SiO2 
 PCOD8092415
Probable space group: C 2/M
;
_chemical_formula_sum "Si O2"
_cell_formula_units_Z 44
_cell_length_a 9.320210
_cell_length_b 22.879302
_cell_length_c 11.341766
_cell_angle_alpha 90.000000
_cell_angle_beta 67.026641
_cell_angle_gamma 90.000000
_cell_volume 2226.695827
_symmetry_space_group_name_H-M "C 2/M"
_symmetry_group_IT_number 12
_symmetry_cell_setting 'monoclinic'
loop_
_space_group_symop_operation_xyz
x,y,z
-x,y,-z
-x,-y,-z
x,-y,z
1/2+x,1/2+y,z
1/2-x,1/2+y,-z
1/2-x,1/2-y,-z
1/2+x,1/2-y,z
loop_
_atom_site_type_symbol
_atom_site_label
_atom_site_fract_x
_atom_site_fract_y
_atom_site_fract_z
Si Si1 0.139585 0.931066 0.534705
Si Si2 0.364900 0.724659 0.868116
Si Si3 0.708554 0.566995 0.768118
Si Si4 0.000000 0.864615 0.000000
Si Si5 0.579695 0.179043 0.847713
Si Si6 0.560350 0.933228 0.708382
O O1 0.135164 0.906509 0.670371
O O2 0.306861 0.915381 0.426641
O O3 0.000000 0.903592 0.500000
O O4 0.117712 0.000000 0.547662
O O5 0.485235 0.776410 0.790747
O O6 0.260706 0.700390 0.793171
O O7 0.250000 0.750000 0.000000
O O8 0.456671 0.672005 0.899166
O O9 0.659782 0.500000 0.795208
O O10 0.894370 0.573681 0.698836
O O11 0.645473 0.597296 0.907268
O O12 0.571820 0.111726 0.812622
O O13 0.500000 0.184146 0.000000
O O14 0.583924 0.000000 0.747294
#
# Coordination Sequence:
#
# PCOD8092415 Si02
#       6
#     8   8   8   4   8   8
#     4   9  19  37  57  82 114 155 199 236 288 352
#     4  10  19  35  54  81 109 155 198 234 283 340
#     4  10  21  36  57  86 122 155 189 239 295 353
#     4  12  21  34  60  88 117 150 196 240 294 346
#     4  10  20  35  56  85 114 154 196 238 288 344
#     4  10  21  37  59  87 117 153 195 240 294 349
#
# _framework density 19.76022
#
# number of rings (size 3 to 8) (size 9 to 14) (size 15 to 20)
#    0.000    2.000    2.727    3.000    2.545    2.545 
#    0.000    0.909    0.000    1.091    4.727    0.000 
#    0.000    0.000    0.000    0.000    0.000    0.000 
#
# Total GULP energy -272642.081532 kJ/mol
# GULP energy per Si atom -12392.821888 kJ/mol
# Density = 1.971524 g / cm^3
# Si number density = 19.760220 Si / 1000 Ang^3
#
#
#
# Elastic Constant Matrix: (Units=GPa)
#
#
# Indices 1 2 3 4 5 6 
#
# 1 114.4371 48.7133 26.9145 0.0000 -5.5872 0.0000
# 2 48.7133 96.8138 30.6814 0.0000 2.6546 0.0000
# 3 26.9145 30.6814 61.3128 0.0000 -12.9114 0.0000
# 4 0.0000 0.0000 0.0000 8.7368 0.0000 5.7045
# 5 -5.5872 2.6546 -12.9114 0.0000 26.2782 0.0000
# 6 0.0000 0.0000 0.0000 5.7045 0.0000 25.1515
#
#
#
# Elastic Compliance Matrix: (Units=1/GPa)
#
#
# Indices 1 2 3 4 5 6 
#
# 1 0.011533 -0.005211 -0.002039 0.000000 0.001977 0.000000
# 2 -0.005211 0.015186 -0.006545 0.000000 -0.005858 0.000000
# 3 -0.002039 -0.006545 0.022897 0.000000 0.011478 0.000000
# 4 0.000000 0.000000 0.000000 0.134356 0.000000 -0.030473
# 5 0.001977 -0.005858 0.011478 0.000000 0.044706 0.000000
# 6 0.000000 0.000000 0.000000 -0.030473 0.000000 0.046670
#
#
# Mechanical properties :
#
#
# Convention : Reuss Voigt Hill
#
# Bulk Modulus (GPa) = 45.40102 53.90910 49.65506
# Shear Modulus (GPa) = 16.11452 23.11692 19.61572
#
# Velocity S-wave (km/s) = 2.85880 3.42405 3.15411
# Velocity P-wave (km/s) = 5.82433 6.55538 6.20064
#
# Compressibility (1/GPa) = 0.02202594
#
# Stress axis : x y z
#
# Youngs Moduli (GPa) = 86.71087 65.85026 43.67372
#
# Poissons Ratio (x) = 0.34314 0.08903
# Poissons Ratio (y) = 0.45184 0.28586
# Poissons Ratio (z) = 0.17677 0.43101
#
# Static dielectric constant tensor:
#      x y z
#    x 4.211380 0.000000 -0.089230 
#    y 0.000000 3.243560 0.000000 
#    z -0.089230 0.000000 3.243610 
# 
# 
# High freq. dielectric constant tensor:
#      x y z
#    x 1.787540 0.000000 -0.013910 
#    y 0.000000 1.759220 0.000000 
#    z -0.013910 0.000000 1.729280 
# 
# From -- ./inp_files/122348.got.cif
#   From: 2010.06.25/outbox.cif.g09.slc.cpg/sg12_62_cif.got.tgz:122348.got - 2010.06.28 00:19:55.
