data_PCOD8092352
_publ_section_title
;
Structure prediction by ZEFSAII (Michael W. Deem and Ramdas Pophale) SiO2 
 PCOD8092352
Probable space group: C 2/M
;
_chemical_formula_sum "Si O2"
_cell_formula_units_Z 48
_cell_length_a 16.943254
_cell_length_b 30.453136
_cell_length_c 5.345536
_cell_angle_alpha 90.000000
_cell_angle_beta 71.609324
_cell_angle_gamma 90.000000
_cell_volume 2617.297399
_symmetry_space_group_name_H-M "C 2/M"
_symmetry_group_IT_number 12
_symmetry_cell_setting 'monoclinic'
loop_
_space_group_symop_operation_xyz
x,y,z
-x,y,-z
-x,-y,-z
x,-y,z
1/2+x,1/2+y,z
1/2-x,1/2+y,-z
1/2-x,1/2-y,-z
1/2+x,1/2-y,z
loop_
_atom_site_type_symbol
_atom_site_label
_atom_site_fract_x
_atom_site_fract_y
_atom_site_fract_z
Si Si1 0.417953 0.550588 0.832046
Si Si2 0.719652 0.199760 0.030346
Si Si3 0.472377 0.178390 0.777623
Si Si4 0.040775 0.772818 0.709225
Si Si5 0.195151 0.824646 0.554851
Si Si6 0.899826 0.914186 0.350174
O O1 0.445635 0.500000 0.804366
O O2 0.500059 0.581209 0.749941
O O3 0.364775 0.561855 0.636009
O O4 0.364775 0.561855 0.134440
O O5 0.620769 0.196150 0.129232
O O6 0.750335 0.174465 0.248056
O O7 0.750000 0.250000 0.000000
O O8 0.750333 0.174466 0.751267
O O9 0.500000 0.151304 0.500000
O O10 0.532826 0.220617 0.717175
O O11 0.500000 0.151304 0.000000
O O12 0.139639 0.780619 0.610362
O O13 0.000000 0.793944 0.500000
O O14 0.000000 0.793944 0.000000
O O15 0.129326 0.864233 0.620672
#
# Coordination Sequence:
#
# PCOD8092352 Si02
#       6
#     8   8   8   8   8   8
#     4  10  19  35  54  77 107 142 181 211 243 319
#     4  12  23  38  51  70  99 135 172 225 292 334
#     4  10  19  35  52  69  84 120 174 218 257 320
#     4  10  20  32  48  66  88 121 165 219 266 301
#     4  12  24  35  52  74 105 131 173 231 289 307
#     4  10  20  31  50  76 101 134 178 212 264 295
#
# _framework density 18.339528000000001
#
# number of rings (size 3 to 8) (size 9 to 14) (size 15 to 20)
#    0.000    1.333    0.000   10.000    4.667    0.000 
#    0.000    0.000    0.000    0.000    0.000    0.000 
#    0.000    0.000    0.000    0.000    0.000  343.333 
#
# Total GULP energy -297410.280987 kJ/mol
# GULP energy per Si atom -12392.095041 kJ/mol
# Density = 1.829779 g / cm^3
# Si number density = 18.339528 Si / 1000 Ang^3
#
#
#
# Elastic Constant Matrix: (Units=GPa)
#
#
# Indices 1 2 3 4 5 6 
#
# 1 58.1646 7.6250 38.6672 0.0000 16.1717 0.0000
# 2 7.6250 59.4729 18.3802 0.0000 5.0318 0.0000
# 3 38.6672 18.3802 183.2637 0.0000 42.3593 0.0000
# 4 0.0000 0.0000 0.0000 17.9823 0.0000 3.5208
# 5 16.1717 5.0318 42.3593 0.0000 39.2834 0.0000
# 6 0.0000 0.0000 0.0000 3.5208 0.0000 10.4574
#
#
#
# Elastic Compliance Matrix: (Units=1/GPa)
#
#
# Indices 1 2 3 4 5 6 
#
# 1 0.020828 -0.001285 -0.003093 0.000000 -0.005075 0.000000
# 2 -0.001285 0.017438 -0.001444 0.000000 -0.000148 0.000000
# 3 -0.003093 -0.001444 0.007881 0.000000 -0.007040 0.000000
# 4 0.000000 0.000000 0.000000 0.059535 0.000000 -0.020044
# 5 -0.005075 -0.000148 -0.007040 0.000000 0.035156 0.000000
# 6 0.000000 0.000000 0.000000 -0.020044 0.000000 0.102375
#
#
# Mechanical properties :
#
#
# Convention : Reuss Voigt Hill
#
# Bulk Modulus (GPa) = 28.98198 47.80511 38.39355
# Shear Modulus (GPa) = 18.77184 29.29320 24.03252
#
# Velocity S-wave (km/s) = 3.20280 4.00092 3.62390
# Velocity P-wave (km/s) = 5.43273 6.88959 6.20407
#
# Compressibility (1/GPa) = 0.03450420
#
# Stress axis : x y z
#
# Youngs Moduli (GPa) = 48.01228 57.34668 126.88426
#
# Poissons Ratio (x) = 0.07370 0.39241
# Poissons Ratio (y) = 0.06171 0.18316
# Poissons Ratio (z) = 0.14849 0.08278
#
# Static dielectric constant tensor:
#      x y z
#    x 3.415090 0.000000 0.796340 
#    y 0.000000 2.860880 0.000000 
#    z 0.796340 0.000000 5.117080 
# 
# 
# High freq. dielectric constant tensor:
#      x y z
#    x 1.684470 0.000000 0.032450 
#    y 0.000000 1.643840 0.000000 
#    z 0.032450 0.000000 1.753820 
# 
# From -- ./inp_files/12778.got.cif
#   From: 2010.06.25/outbox.cif.g09.slc.cpg/sg12_7_cif.got.tgz:12778.got - 2010.06.28 00:19:55.
