data_PCOD8092129
_publ_section_title
;
Structure prediction by ZEFSAII (Michael W. Deem and Ramdas Pophale) SiO2 
 PCOD8092129
Probable space group: C 2/M
;
_chemical_formula_sum "Si O2"
_cell_formula_units_Z 56
_cell_length_a 28.733317
_cell_length_b 9.188847
_cell_length_c 11.637684
_cell_angle_alpha 90.000000
_cell_angle_beta 69.440216
_cell_angle_gamma 90.000000
_cell_volume 2876.943108
_symmetry_space_group_name_H-M "C 2/M"
_symmetry_group_IT_number 12
_symmetry_cell_setting 'monoclinic'
loop_
_space_group_symop_operation_xyz
x,y,z
-x,y,-z
-x,-y,-z
x,-y,z
1/2+x,1/2+y,z
1/2-x,1/2+y,-z
1/2-x,1/2-y,-z
1/2+x,1/2-y,z
loop_
_atom_site_type_symbol
_atom_site_label
_atom_site_fract_x
_atom_site_fract_y
_atom_site_fract_z
Si Si1 0.236098 0.668104 0.842502
Si Si2 0.597606 0.829227 0.672405
Si Si3 0.441269 0.834942 0.048504
Si Si4 0.919670 0.828401 0.842426
Si Si5 0.323257 0.830603 0.879054
Si Si6 0.290698 0.830407 0.390509
Si Si7 0.485050 0.670758 0.386581
O O1 0.252819 0.500000 0.831712
O O2 0.283982 0.767725 0.822340
O O3 0.212817 0.712297 0.740563
O O4 0.194703 0.698689 0.975120
O O5 0.579429 0.777830 0.813059
O O6 0.655204 0.786139 0.608834
O O7 0.566213 0.748207 0.602379
O O8 0.588761 0.000000 0.665671
O O9 0.422845 0.000000 0.038846
O O10 0.500000 0.827607 0.000000
O O11 0.419645 0.727772 0.972278
O O12 0.875020 0.751597 0.812816
O O13 0.971265 0.783597 0.738132
O O14 0.911036 0.000000 0.847554
O O15 0.330548 0.000000 0.846853
O O16 0.250000 0.750000 0.500000
O O17 0.281361 0.000000 0.413887
O O18 0.500000 0.723767 0.500000
O O19 0.475118 0.500000 0.392470
#
# Coordination Sequence:
#
# PCOD8092129 Si02
#       7
#     8   8   8   8   8   8   8
#     4   9  19  38  59  81 113 149 185 232 287 338
#     4  10  21  39  61  86 114 146 186 235 285 334
#     4  10  19  34  59  86 114 146 183 230 285 339
#     4  11  22  35  55  84 117 150 188 230 278 337
#     4  10  20  35  59  86 114 146 185 232 285 341
#     4  10  22  39  59  83 114 150 191 235 280 333
#     4  10  23  41  57  77 111 153 192 229 273 331
#
# _framework density 19.465105000000001
#
# number of rings (size 3 to 8) (size 9 to 14) (size 15 to 20)
#    0.000    2.000    1.429    1.714    0.000    6.857 
#    0.000    5.714    0.000    0.000    0.000    0.000 
#    0.000    0.000    0.000    0.000    0.000    0.000 
#
# Total GULP energy -347326.532001 kJ/mol
# GULP energy per Si atom -12404.519000 kJ/mol
# Density = 1.942080 g / cm^3
# Si number density = 19.465105 Si / 1000 Ang^3
#
#
#
# Elastic Constant Matrix: (Units=GPa)
#
#
# Indices 1 2 3 4 5 6 
#
# 1 154.6602 67.0901 59.2273 0.0000 5.2095 0.0000
# 2 67.0901 73.4029 35.1050 0.0000 3.1192 0.0000
# 3 59.2273 35.1050 88.8777 0.0000 6.5135 0.0000
# 4 0.0000 0.0000 0.0000 29.7877 0.0000 2.5126
# 5 5.2095 3.1192 6.5135 0.0000 30.1241 0.0000
# 6 0.0000 0.0000 0.0000 2.5126 0.0000 40.8495
#
#
#
# Elastic Compliance Matrix: (Units=1/GPa)
#
#
# Indices 1 2 3 4 5 6 
#
# 1 0.012032 -0.008829 -0.004517 0.000000 -0.000190 0.000000
# 2 -0.008829 0.023278 -0.003298 0.000000 -0.000170 0.000000
# 3 -0.004517 -0.003298 0.015731 0.000000 -0.002279 0.000000
# 4 0.000000 0.000000 0.000000 0.033746 0.000000 -0.002076
# 5 -0.000190 -0.000170 -0.002279 0.000000 0.033739 0.000000
# 6 0.000000 0.000000 0.000000 -0.002076 0.000000 0.024608
#
#
# Mechanical properties :
#
#
# Convention : Reuss Voigt Hill
#
# Bulk Modulus (GPa) = 56.32916 71.08727 63.70822
# Shear Modulus (GPa) = 27.42155 30.52016 28.97086
#
# Velocity S-wave (km/s) = 3.75741 3.96402 3.86210
# Velocity P-wave (km/s) = 6.91560 7.58623 7.25867
#
# Compressibility (1/GPa) = 0.01775279
#
# Stress axis : x y z
#
# Youngs Moduli (GPa) = 83.11391 42.95988 63.56845
#
# Poissons Ratio (x) = 0.37928 0.28712
# Poissons Ratio (y) = 0.73379 0.20967
# Poissons Ratio (z) = 0.37540 0.14169
#
# Static dielectric constant tensor:
#      x y z
#    x 3.611830 0.000000 -0.090370 
#    y 0.000000 3.462260 0.000000 
#    z -0.090370 0.000000 3.343190 
# 
# 
# High freq. dielectric constant tensor:
#      x y z
#    x 1.771200 0.000000 -0.000450 
#    y 0.000000 1.751920 0.000000 
#    z -0.000450 0.000000 1.750600 
# 
# From -- ./inp_files/180759.got.cif
#   From: 2010.06.25/outbox.cif.g09.slc.cpg/sg12_91_cif.got.tgz:180759.got - 2010.06.28 00:19:55.
