data_PCOD8092205
_publ_section_title
;
Structure prediction by ZEFSAII (Michael W. Deem and Ramdas Pophale) SiO2 
 PCOD8092205
Probable space group: C 2/M
;
_chemical_formula_sum "Si O2"
_cell_formula_units_Z 64
_cell_length_a 30.376961
_cell_length_b 8.969027
_cell_length_c 19.005663
_cell_angle_alpha 90.000000
_cell_angle_beta 141.716134
_cell_angle_gamma 90.000000
_cell_volume 3208.149979
_symmetry_space_group_name_H-M "C 2/M"
_symmetry_group_IT_number 12
_symmetry_cell_setting 'monoclinic'
loop_
_space_group_symop_operation_xyz
x,y,z
-x,y,-z
-x,-y,-z
x,-y,z
1/2+x,1/2+y,z
1/2-x,1/2+y,-z
1/2-x,1/2-y,-z
1/2+x,1/2-y,z
loop_
_atom_site_type_symbol
_atom_site_label
_atom_site_fract_x
_atom_site_fract_y
_atom_site_fract_z
Si Si1 0.943886 0.673530 0.635099
Si Si2 0.318367 0.827171 0.248274
Si Si3 0.067005 0.327607 0.213804
Si Si4 0.072001 0.172286 0.997631
Si Si5 0.826384 0.172859 0.001553
Si Si6 0.326391 0.324253 0.747033
Si Si7 0.597714 0.170924 0.782543
Si Si8 0.819868 0.176370 0.396780
O O1 0.930233 0.500000 0.599586
O O2 0.944664 0.701461 0.718967
O O3 0.884054 0.776288 0.527017
O O4 0.018576 0.731409 0.697025
O O5 0.246244 0.764021 0.122842
O O6 0.383396 0.807293 0.275634
O O7 0.336574 0.731927 0.339344
O O8 0.308200 0.000000 0.257571
O O9 0.077885 0.500000 0.209819
O O10 0.136834 0.238214 0.277162
O O11 0.999024 0.268910 0.085306
O O12 0.050293 0.000000 0.977860
O O13 0.108891 0.205535 0.969689
O O14 0.125721 0.219749 0.126187
O O15 0.815649 0.000000 0.002939
O O16 0.842823 0.248126 0.096377
O O17 0.315336 0.500000 0.726502
O O18 0.250636 0.248900 0.660528
O O19 0.600975 0.000000 0.809639
O O20 0.811676 0.000000 0.386553
#
# Coordination Sequence:
#
# PCOD8092205 Si02
#       8
#     8   8   8   8   8   8   8   8
#     4  10  23  43  62  84 119 161 202 248 301 356
#     4  10  21  40  63  89 124 163 200 241 299 365
#     4  11  23  39  62  93 125 157 200 250 297 350
#     4  10  20  36  60  89 122 164 200 235 297 364
#     4  10  19  34  59  90 125 161 197 241 298 358
#     4  11  23  42  65  89 123 162 199 241 299 366
#     4  10  21  38  63  92 121 160 205 245 295 356
#     4  12  26  42  63  89 116 153 205 257 303 352
#
# _framework density 19.949192
#
# number of rings (size 3 to 8) (size 9 to 14) (size 15 to 20)
#    0.000    1.500    2.500    2.625    0.000    6.000 
#    0.000    2.500    0.000    0.000    0.000    0.000 
#    0.000    0.000    0.000    0.000    0.000    0.000 
#
# Total GULP energy -396980.874600 kJ/mol
# GULP energy per Si atom -12405.652331 kJ/mol
# Density = 1.990379 g / cm^3
# Si number density = 19.949192 Si / 1000 Ang^3
#
#
#
# Elastic Constant Matrix: (Units=GPa)
#
#
# Indices 1 2 3 4 5 6 
#
# 1 89.5565 43.2247 36.8122 0.0000 14.4037 0.0000
# 2 43.2247 90.7267 50.3317 0.0000 6.6624 0.0000
# 3 36.8122 50.3317 100.2565 0.0000 18.0571 0.0000
# 4 0.0000 0.0000 0.0000 32.2206 0.0000 -3.1222
# 5 14.4037 6.6624 18.0571 0.0000 15.5517 0.0000
# 6 0.0000 0.0000 0.0000 -3.1222 0.0000 29.1023
#
#
#
# Elastic Compliance Matrix: (Units=1/GPa)
#
#
# Indices 1 2 3 4 5 6 
#
# 1 0.016525 -0.006678 -0.000599 0.000000 -0.011749 0.000000
# 2 -0.006678 0.018086 -0.008024 0.000000 0.007754 0.000000
# 3 -0.000599 -0.008024 0.017074 0.000000 -0.015833 0.000000
# 4 0.000000 0.000000 0.000000 0.031362 0.000000 0.003365
# 5 -0.011749 0.007754 -0.015833 0.000000 0.090244 0.000000
# 6 0.000000 0.000000 0.000000 0.003365 0.000000 0.034722
#
#
# Mechanical properties :
#
#
# Convention : Reuss Voigt Hill
#
# Bulk Modulus (GPa) = 47.43172 60.14185 53.78679
# Shear Modulus (GPa) = 20.35467 25.38634 22.87051
#
# Velocity S-wave (km/s) = 3.19772 3.57115 3.38958
# Velocity P-wave (km/s) = 6.12060 6.87147 6.50688
#
# Compressibility (1/GPa) = 0.02108294
#
# Stress axis : x y z
#
# Youngs Moduli (GPa) = 60.51394 55.29230 58.56750
#
# Poissons Ratio (x) = 0.36923 0.03509
# Poissons Ratio (y) = 0.40410 0.46995
# Poissons Ratio (z) = 0.03626 0.44367
#
# Static dielectric constant tensor:
#      x y z
#    x 3.805190 0.000000 0.067890 
#    y 0.000000 3.540270 0.000000 
#    z 0.067890 0.000000 3.527760 
# 
# 
# High freq. dielectric constant tensor:
#      x y z
#    x 1.795140 0.000000 0.003370 
#    y 0.000000 1.770150 0.000000 
#    z 0.003370 0.000000 1.774190 
# 
# From -- ./inp_files/295640.got.cif
#   From: 2010.06.25/outbox.cif.g09.slc.cpg/sg12_148_cif.got.tgz:295640.got - 2010.06.28 00:19:55.
