data_PCOD8092391
_publ_section_title
;
Structure prediction by ZEFSAII (Michael W. Deem and Ramdas Pophale) SiO2 
 PCOD8092391
Probable space group: C 2/M
;
_chemical_formula_sum "Si O2"
_cell_formula_units_Z 56
_cell_length_a 14.428035
_cell_length_b 9.144413
_cell_length_c 29.467213
_cell_angle_alpha 90.000000
_cell_angle_beta 53.698897
_cell_angle_gamma 90.000000
_cell_volume 3133.230439
_symmetry_space_group_name_H-M "C 2/M"
_symmetry_group_IT_number 12
_symmetry_cell_setting 'monoclinic'
loop_
_space_group_symop_operation_xyz
x,y,z
-x,y,-z
-x,-y,-z
x,-y,z
1/2+x,1/2+y,z
1/2-x,1/2+y,-z
1/2-x,1/2-y,-z
1/2+x,1/2-y,z
loop_
_atom_site_type_symbol
_atom_site_label
_atom_site_fract_x
_atom_site_fract_y
_atom_site_fract_z
Si Si1 0.708798 0.826806 0.557335
Si Si2 0.907500 0.670851 0.063107
Si Si3 0.886353 0.332267 0.561975
Si Si4 0.948036 0.328801 0.154416
Si Si5 0.324087 0.171350 0.859589
Si Si6 0.454695 0.170993 0.643015
Si Si7 0.784373 0.672217 0.768104
O O1 0.750000 0.750000 0.500000
O O2 0.790779 0.781796 0.574362
O O3 0.583524 0.766215 0.607562
O O4 0.708495 0.000000 0.549203
O O5 0.883946 0.500000 0.064246
O O6 0.957888 0.707896 0.098184
O O7 0.787661 0.750747 0.087414
O O8 0.000000 0.727901 0.000000
O O9 0.846014 0.500000 0.567223
O O10 0.903627 0.291910 0.609010
O O11 0.000000 0.304131 0.500000
O O12 0.930652 0.500000 0.168033
O O13 0.837750 0.246788 0.206632
O O14 0.062225 0.272142 0.147184
O O15 0.333742 0.210650 0.803531
O O16 0.308074 0.000000 0.872010
O O17 0.374929 0.238586 0.705613
O O18 0.461339 0.000000 0.649523
O O19 0.766493 0.500000 0.767267
#
# Coordination Sequence:
#
# PCOD8092391 Si02
#       7
#     8   8   8   8   8   8   8
#     4  11  21  35  54  77 102 132 167 205 251 305
#     4   9  18  32  49  72 103 136 169 205 248 297
#     4  10  19  35  54  72  98 133 164 199 251 304
#     4   9  18  33  51  72 101 133 164 209 258 292
#     4   9  18  32  51  73  99 132 167 205 250 295
#     4   9  19  35  53  72 100 133 162 201 256 306
#     4   9  18  34  53  72  95 129 170 205 245 302
#
# _framework density 17.872926
#
# number of rings (size 3 to 8) (size 9 to 14) (size 15 to 20)
#    0.000    2.571    1.429    0.429    0.000    2.857 
#    0.000    3.571    0.000    0.000    0.000    0.000 
#    0.000    0.000    0.000    0.000    0.000    0.000 
#
# Total GULP energy -347191.641999 kJ/mol
# GULP energy per Si atom -12399.701500 kJ/mol
# Density = 1.783225 g / cm^3
# Si number density = 17.872926 Si / 1000 Ang^3
#
#
#
# Elastic Constant Matrix: (Units=GPa)
#
#
# Indices 1 2 3 4 5 6 
#
# 1 145.3287 42.4552 82.5648 0.0000 -24.1770 0.0000
# 2 42.4552 40.5930 40.9125 0.0001 -10.0723 0.0001
# 3 82.5648 40.9125 166.7644 0.0000 -15.4598 0.0000
# 4 0.0000 0.0001 0.0000 20.7450 0.0000 -6.4143
# 5 -24.1770 -10.0723 -15.4598 0.0000 20.4465 0.0000
# 6 0.0000 0.0001 0.0000 -6.4143 0.0000 29.4461
#
#
#
# Elastic Compliance Matrix: (Units=1/GPa)
#
#
# Indices 1 2 3 4 5 6 
#
# 1 0.012461 -0.007325 -0.003593 0.000000 0.008410 0.000000
# 2 -0.007325 0.039416 -0.005427 0.000000 0.006653 0.000000
# 3 -0.003593 -0.005427 0.009103 0.000000 -0.000039 0.000000
# 4 0.000000 0.000000 0.000000 0.051686 0.000000 0.011259
# 5 0.008410 0.006653 -0.000039 0.000000 0.062100 0.000000
# 6 0.000000 0.000000 0.000000 0.011259 0.000000 0.036413
#
#
# Mechanical properties :
#
#
# Convention : Reuss Voigt Hill
#
# Bulk Modulus (GPa) = 35.34680 76.06123 55.70401
# Shear Modulus (GPa) = 19.73966 26.57776 23.15871
#
# Velocity S-wave (km/s) = 3.32692 3.86040 3.60355
# Velocity P-wave (km/s) = 5.88027 7.90692 6.96767
#
# Compressibility (1/GPa) = 0.02829111
#
# Stress axis : x y z
#
# Youngs Moduli (GPa) = 80.25073 25.37053 109.85390
#
# Poissons Ratio (x) = 0.18584 0.39468
# Poissons Ratio (y) = 0.58783 0.59614
# Poissons Ratio (z) = 0.28832 0.13768
#
# Static dielectric constant tensor:
#      x y z
#    x 3.397840 0.000000 -0.026020 
#    y 0.000000 3.146260 0.000000 
#    z -0.026020 0.000000 3.498830 
# 
# 
# High freq. dielectric constant tensor:
#      x y z
#    x 1.698000 0.000000 -0.001330 
#    y 0.000000 1.672480 0.000000 
#    z -0.001330 0.000000 1.695760 
# 
# From -- ./inp_files/359658.got.cif
#   From: 2010.06.25/outbox.cif.g09.slc.cpg/sg12_180_cif.got.tgz:359658.got - 2010.06.28 00:19:55.
