data_PCOD8092191
_publ_section_title
;
Structure prediction by ZEFSAII (Michael W. Deem and Ramdas Pophale) SiO2 
 PCOD8092191
Probable space group: C 2/M
;
_chemical_formula_sum "Si O2"
_cell_formula_units_Z 48
_cell_length_a 20.171849
_cell_length_b 8.869397
_cell_length_c 24.444857
_cell_angle_alpha 90.000000
_cell_angle_beta 34.640402
_cell_angle_gamma 90.000000
_cell_volume 2485.992068
_symmetry_space_group_name_H-M "C 2/M"
_symmetry_group_IT_number 12
_symmetry_cell_setting 'monoclinic'
loop_
_space_group_symop_operation_xyz
x,y,z
-x,y,-z
-x,-y,-z
x,-y,z
1/2+x,1/2+y,z
1/2-x,1/2+y,-z
1/2-x,1/2-y,-z
1/2+x,1/2-y,z
loop_
_atom_site_type_symbol
_atom_site_label
_atom_site_fract_x
_atom_site_fract_y
_atom_site_fract_z
Si Si1 0.431245 0.675701 0.396692
Si Si2 0.900226 0.321652 0.108986
Si Si3 0.347877 0.175273 0.897052
Si Si4 0.826573 0.326010 0.784700
Si Si5 0.265306 0.327335 0.410851
Si Si6 0.932665 0.825410 0.202812
O O1 0.459482 0.500000 0.381025
O O2 0.550791 0.765851 0.320365
O O3 0.367438 0.720505 0.383576
O O4 0.348003 0.723449 0.503716
O O5 0.896468 0.500000 0.112267
O O6 0.775197 0.261775 0.176509
O O7 0.931179 0.264433 0.147889
O O8 0.000000 0.262401 0.000000
O O9 0.311949 0.199720 0.858971
O O10 0.468171 0.259993 0.825455
O O11 0.360855 0.000000 0.903207
O O12 0.250000 0.250000 0.000000
O O13 0.816836 0.500000 0.775297
O O14 0.229972 0.500000 0.446231
O O15 0.311014 0.305347 0.317997
O O16 0.958731 0.000000 0.173061
#
# Coordination Sequence:
#
# PCOD8092191 Si02
#       6
#     8   8   8   8   8   8
#     4  10  19  34  59  89 121 156 194 241 294 352
#     4  11  25  43  62  85 118 160 202 247 299 356
#     4  11  23  37  58  87 118 152 196 248 298 350
#     4  11  23  39  60  87 119 157 199 245 296 353
#     4   9  19  35  57  88 122 156 192 238 296 353
#     4  11  22  39  62  88 120 156 197 244 296 354
#
# _framework density 19.308188000000001
#
# number of rings (size 3 to 8) (size 9 to 14) (size 15 to 20)
#    0.000    1.500    1.667    3.500    0.000    8.000 
#    0.000    0.833    0.000    5.000    0.000    0.000 
#    0.000    0.000    0.000    0.000    0.000    0.000 
#
# Total GULP energy -297719.798484 kJ/mol
# GULP energy per Si atom -12404.991603 kJ/mol
# Density = 1.926424 g / cm^3
# Si number density = 19.308188 Si / 1000 Ang^3
#
#
#
# Elastic Constant Matrix: (Units=GPa)
#
#
# Indices 1 2 3 4 5 6 
#
# 1 39.9853 15.8297 10.4459 -0.0001 -0.3045 0.0001
# 2 15.8297 71.7318 33.6353 0.0004 -1.3200 -0.0001
# 3 10.4459 33.6353 94.8136 0.0005 4.9330 0.0000
# 4 -0.0001 0.0004 0.0005 38.3866 0.0000 -2.6047
# 5 -0.3045 -1.3200 4.9330 0.0000 24.3525 0.0000
# 6 0.0001 -0.0001 0.0000 -2.6047 0.0000 33.0359
#
#
#
# Elastic Compliance Matrix: (Units=1/GPa)
#
#
# Indices 1 2 3 4 5 6 
#
# 1 0.027492 -0.005561 -0.001070 0.000000 0.000259 0.000000
# 2 -0.005561 0.017957 -0.005867 0.000000 0.002092 0.000000
# 3 -0.001070 -0.005867 0.012899 0.000000 -0.002944 0.000000
# 4 0.000000 0.000000 0.000000 0.026191 0.000000 0.002065
# 5 0.000259 0.002092 -0.002944 0.000000 0.041777 0.000000
# 6 0.000000 0.000000 0.000000 0.002065 0.000000 0.030433
#
#
# Mechanical properties :
#
#
# Convention : Reuss Voigt Hill
#
# Bulk Modulus (GPa) = 29.98074 36.26139 33.12107
# Shear Modulus (GPa) = 25.92541 28.92964 27.42753
#
# Velocity S-wave (km/s) = 3.66828 3.87500 3.77306
# Velocity P-wave (km/s) = 5.78817 6.23233 6.01435
#
# Compressibility (1/GPa) = 0.03335474
#
# Stress axis : x y z
#
# Youngs Moduli (GPa) = 36.37425 55.68769 77.52395
#
# Poissons Ratio (x) = 0.30965 0.08293
# Poissons Ratio (y) = 0.20226 0.45480
# Poissons Ratio (z) = 0.03891 0.32670
#
# Static dielectric constant tensor:
#      x y z
#    x 3.357520 0.000000 0.054010 
#    y 0.000000 3.654790 0.000000 
#    z 0.054010 0.000000 3.664990 
# 
# 
# High freq. dielectric constant tensor:
#      x y z
#    x 1.733900 0.000000 0.002560 
#    y 0.000000 1.764970 0.000000 
#    z 0.002560 0.000000 1.766280 
# 
# From -- ./inp_files/221716.got.cif
#   From: 2010.06.25/outbox.cif.g09.slc.cpg/sg12_111_cif.got.tgz:221716.got - 2010.06.28 00:19:55.
