data_PCOD8092261
_publ_section_title
;
Structure prediction by ZEFSAII (Michael W. Deem and Ramdas Pophale) SiO2 
 PCOD8092261
Probable space group: C 2/M
;
_chemical_formula_sum "Si O2"
_cell_formula_units_Z 44
_cell_length_a 9.005634
_cell_length_b 26.855391
_cell_length_c 12.076977
_cell_angle_alpha 90.000000
_cell_angle_beta 49.625721
_cell_angle_gamma 90.000000
_cell_volume 2225.161906
_symmetry_space_group_name_H-M "C 2/M"
_symmetry_group_IT_number 12
_symmetry_cell_setting 'monoclinic'
loop_
_space_group_symop_operation_xyz
x,y,z
-x,y,-z
-x,-y,-z
x,-y,z
1/2+x,1/2+y,z
1/2-x,1/2+y,-z
1/2-x,1/2-y,-z
1/2+x,1/2-y,z
loop_
_atom_site_type_symbol
_atom_site_label
_atom_site_fract_x
_atom_site_fract_y
_atom_site_fract_z
Si Si1 0.147515 0.803130 0.528713
Si Si2 0.553562 0.890077 0.603760
Si Si3 0.500000 0.750414 0.000000
Si Si4 0.634447 0.688867 0.140439
Si Si5 0.718621 0.500000 0.929624
Si Si6 0.455406 0.000000 0.395634
Si Si7 0.782638 0.893966 0.058037
O O1 0.250000 0.750000 0.500000
O O2 0.299904 0.846955 0.428317
O O3 0.000000 0.795813 0.500000
O O4 0.030552 0.823340 0.691314
O O5 0.500000 0.884198 0.500000
O O6 0.362204 0.880739 0.771280
O O7 0.646171 0.946078 0.583555
O O8 0.527533 0.718261 0.095285
O O9 0.305917 0.781478 0.118373
O O10 0.740105 0.641115 0.036719
O O11 0.765135 0.448736 0.971128
O O12 0.833507 0.500000 0.759738
O O13 0.500000 0.500000 0.000000
O O14 0.500000 0.000000 0.500000
O O15 0.000000 0.890484 0.000000
#
# Coordination Sequence:
#
# PCOD8092261 Si02
#       7
#     8   8   4   8   4   4   8
#     4  12  27  42  61  88 125 161 203 248 307 363
#     4  10  21  37  62  90 124 161 203 253 301 356
#     4  10  24  38  62  82 114 152 196 240 288 352
#     4  11  23  40  61  85 117 152 200 238 301 349
#     4   8  16  30  52  87 118 148 190 249 292 341
#     4   8  16  34  57  86 118 158 202 246 298 353
#     4  10  19  34  60  89 120 153 199 245 298 349
#
# _framework density 19.773842999999999
#
# number of rings (size 3 to 8) (size 9 to 14) (size 15 to 20)
#    0.000    1.818    0.909    2.727    7.636    1.455 
#    0.000    0.455    0.000    0.545    0.000    0.000 
#    0.000    0.000    0.000    0.000    0.000    0.000 
#
# Total GULP energy -272545.117601 kJ/mol
# GULP energy per Si atom -12388.414436 kJ/mol
# Density = 1.972884 g / cm^3
# Si number density = 19.773843 Si / 1000 Ang^3
#
#
#
# Elastic Constant Matrix: (Units=GPa)
#
#
# Indices 1 2 3 4 5 6 
#
# 1 93.8915 57.0548 31.0091 0.0000 -5.7265 0.0000
# 2 57.0548 182.2790 65.2500 0.0000 -7.7173 0.0000
# 3 31.0091 65.2500 133.6051 0.0000 -6.2611 0.0000
# 4 0.0000 0.0000 0.0000 19.7545 0.0000 -13.2847
# 5 -5.7265 -7.7173 -6.2611 0.0000 21.9110 0.0000
# 6 0.0000 0.0000 0.0000 -13.2847 0.0000 13.7863
#
#
#
# Elastic Compliance Matrix: (Units=1/GPa)
#
#
# Indices 1 2 3 4 5 6 
#
# 1 0.013404 -0.003677 -0.001228 0.000000 0.001857 0.000000
# 2 -0.003677 0.007702 -0.002864 0.000000 0.000933 0.000000
# 3 -0.001228 -0.002864 0.009230 0.000000 0.001308 0.000000
# 4 0.000000 0.000000 0.000000 0.143822 0.000000 0.138589
# 5 0.001857 0.000933 0.001308 0.000000 0.046827 0.000000
# 6 0.000000 0.000000 0.000000 0.138589 0.000000 0.206083
#
#
# Mechanical properties :
#
#
# Convention : Reuss Voigt Hill
#
# Bulk Modulus (GPa) = 67.58311 79.60037 73.59174
# Shear Modulus (GPa) = 11.17220 28.18780 19.68000
#
# Velocity S-wave (km/s) = 2.37955 3.77969 3.15819
# Velocity P-wave (km/s) = 6.46544 7.70654 7.11311
#
# Compressibility (1/GPa) = 0.01479660
#
# Stress axis : x y z
#
# Youngs Moduli (GPa) = 74.60441 129.83720 108.34363
#
# Poissons Ratio (x) = 0.47746 0.13305
# Poissons Ratio (y) = 0.27435 0.31032
# Poissons Ratio (z) = 0.09162 0.37189
#
# Static dielectric constant tensor:
#      x y z
#    x 2.994430 0.000000 -0.269190 
#    y 0.000000 4.644290 0.000000 
#    z -0.269190 0.000000 3.551820 
# 
# 
# High freq. dielectric constant tensor:
#      x y z
#    x 1.730290 0.000000 -0.008680 
#    y 0.000000 1.796530 0.000000 
#    z -0.008680 0.000000 1.787660 
# 
# From -- ./inp_files/124113.got.cif
#   From: 2010.06.25/outbox.cif.g09.slc.cpg/sg12_63_cif.got.tgz:124113.got - 2010.06.28 00:19:55.
