data_PCOD8092484
_publ_section_title
;
Structure prediction by ZEFSAII (Michael W. Deem and Ramdas Pophale) SiO2 
 PCOD8092484
Probable space group: C 2/M
;
_chemical_formula_sum "Si O2"
_cell_formula_units_Z 48
_cell_length_a 11.309514
_cell_length_b 17.255833
_cell_length_c 20.416864
_cell_angle_alpha 90.000000
_cell_angle_beta 38.893480
_cell_angle_gamma 90.000000
_cell_volume 2501.737555
_symmetry_space_group_name_H-M "C 2/M"
_symmetry_group_IT_number 12
_symmetry_cell_setting 'monoclinic'
loop_
_space_group_symop_operation_xyz
x,y,z
-x,y,-z
-x,-y,-z
x,-y,z
1/2+x,1/2+y,z
1/2-x,1/2+y,-z
1/2-x,1/2-y,-z
1/2+x,1/2-y,z
loop_
_atom_site_type_symbol
_atom_site_label
_atom_site_fract_x
_atom_site_fract_y
_atom_site_fract_z
Si Si1 0.030497 0.302276 0.586229
Si Si2 0.163954 0.915068 0.606037
Si Si3 0.027175 0.683983 0.737242
Si Si4 0.891569 0.843945 0.239343
Si Si5 0.649463 0.589162 0.878438
Si Si6 0.420206 0.367301 0.600000
O O1 0.180803 0.351176 0.479835
O O2 0.091742 0.293798 0.635785
O O3 0.833348 0.344409 0.667422
O O4 0.014774 0.217760 0.562325
O O5 0.064752 0.899904 0.718755
O O6 0.988538 0.916613 0.631966
O O7 0.259280 0.000000 0.564651
O O8 0.009569 0.761249 0.789436
O O9 0.193149 0.632753 0.697677
O O10 0.832347 0.637778 0.821132
O O11 0.954709 0.877803 0.141868
O O12 0.709293 0.500000 0.841197
O O13 0.500000 0.597243 0.000000
O O14 0.500000 0.407288 0.500000
#
# Coordination Sequence:
#
# PCOD8092484 Si02
#       6
#     8   8   8   8   8   8
#     4  10  19  35  55  79 112 154 194 230 276 330
#     4  12  23  33  51  82 121 161 197 234 283 341
#     4  10  20  37  63  85 113 153 197 238 286 346
#     4  10  21  37  60  85 113 148 196 243 289 345
#     4  10  23  43  66  89 114 146 190 252 313 353
#     4  11  20  34  53  77 115 158 192 225 271 336
#
# _framework density 19.186665000000001
#
# number of rings (size 3 to 8) (size 9 to 14) (size 15 to 20)
#    0.000    1.500    3.333    3.500    0.000    5.667 
#    0.000    0.000    0.000    0.000    0.000    3.500 
#    0.000    0.000    0.000    0.000    0.000    0.000 
#
# Total GULP energy -297523.563827 kJ/mol
# GULP energy per Si atom -12396.815159 kJ/mol
# Density = 1.914300 g / cm^3
# Si number density = 19.186665 Si / 1000 Ang^3
#
#
#
# Elastic Constant Matrix: (Units=GPa)
#
#
# Indices 1 2 3 4 5 6 
#
# 1 111.4565 49.7680 44.3501 0.0003 16.5259 0.0003
# 2 49.7680 86.0217 40.7591 0.0000 2.4819 0.0000
# 3 44.3501 40.7591 77.0527 -0.0024 16.4688 0.0001
# 4 0.0003 0.0000 -0.0024 19.9454 0.0001 -0.4150
# 5 16.5259 2.4819 16.4688 0.0001 33.7808 0.0001
# 6 0.0003 0.0000 0.0001 -0.4150 0.0001 14.6969
#
#
#
# Elastic Compliance Matrix: (Units=1/GPa)
#
#
# Indices 1 2 3 4 5 6 
#
# 1 0.013871 -0.006094 -0.003802 -0.000001 -0.004485 0.000000
# 2 -0.006094 0.018506 -0.007399 -0.000001 0.005229 0.000000
# 3 -0.003802 -0.007399 0.020726 0.000003 -0.007701 0.000000
# 4 -0.000001 -0.000001 0.000003 0.050166 -0.000001 0.001416
# 5 -0.004485 0.005229 -0.007701 -0.000001 0.035167 0.000000
# 6 0.000000 0.000000 0.000000 0.001416 0.000000 0.068081
#
#
# Mechanical properties :
#
#
# Convention : Reuss Voigt Hill
#
# Bulk Modulus (GPa) = 54.01572 60.47613 57.24593
# Shear Modulus (GPa) = 20.22012 22.99487 21.60749
#
# Velocity S-wave (km/s) = 3.24985 3.46567 3.35949
# Velocity P-wave (km/s) = 6.50353 6.89948 6.70442
#
# Compressibility (1/GPa) = 0.01851313
#
# Stress axis : x y z
#
# Youngs Moduli (GPa) = 72.09237 54.03704 48.24854
#
# Poissons Ratio (x) = 0.32933 0.18342
# Poissons Ratio (y) = 0.43937 0.35699
# Poissons Ratio (z) = 0.27406 0.39981
#
# Static dielectric constant tensor:
#      x y z
#    x 4.034520 0.000000 0.214310 
#    y 0.000000 3.457990 0.000000 
#    z 0.214310 0.000000 3.219620 
# 
# 
# High freq. dielectric constant tensor:
#      x y z
#    x 1.772090 0.000000 0.014570 
#    y 0.000000 1.741730 0.000000 
#    z 0.014570 0.000000 1.706680 
# 
# From -- ./inp_files/132655.got.cif
#   From: 2010.06.25/outbox.cif.g09.slc.cpg/sg12_67_cif.got.tgz:132655.got - 2010.06.28 00:19:55.
