data_PCOD8092616
_publ_section_title
;
Structure prediction by ZEFSAII (Michael W. Deem and Ramdas Pophale) SiO2 
 PCOD8092616
Probable space group: C 2/M
;
_chemical_formula_sum "Si O2"
_cell_formula_units_Z 48
_cell_length_a 13.260420
_cell_length_b 17.366790
_cell_length_c 11.672443
_cell_angle_alpha 90.000000
_cell_angle_beta 75.814112
_cell_angle_gamma 90.000000
_cell_volume 2606.087415
_symmetry_space_group_name_H-M "C 2/M"
_symmetry_group_IT_number 12
_symmetry_cell_setting 'monoclinic'
loop_
_space_group_symop_operation_xyz
x,y,z
-x,y,-z
-x,-y,-z
x,-y,z
1/2+x,1/2+y,z
1/2-x,1/2+y,-z
1/2-x,1/2-y,-z
1/2+x,1/2-y,z
loop_
_atom_site_type_symbol
_atom_site_label
_atom_site_fract_x
_atom_site_fract_y
_atom_site_fract_z
Si Si1 0.703353 0.164689 0.510881
Si Si2 0.528348 0.414645 0.187162
Si Si3 0.714326 0.731619 0.883196
Si Si4 0.000000 0.803263 0.000000
Si Si5 0.788253 0.911746 0.262724
Si Si6 0.660927 0.334564 0.325680
Si Si7 0.500000 0.226199 0.500000
O O1 0.750000 0.250000 0.500000
O O2 0.725605 0.117307 0.390171
O O3 0.762512 0.125103 0.601945
O O4 0.577352 0.172454 0.555606
O O5 0.548170 0.500000 0.134040
O O6 0.558336 0.356225 0.077687
O O7 0.409564 0.404305 0.259812
O O8 0.601913 0.402057 0.275957
O O9 0.589468 0.747331 0.915281
O O10 0.737541 0.642755 0.839383
O O11 0.765478 0.787629 0.778961
O O12 0.750000 0.750000 0.000000
O O13 0.757116 0.000000 0.242379
O O14 0.572601 0.277869 0.399187
#
# Coordination Sequence:
#
# PCOD8092616 Si02
#       7
#     8   8   8   4   8   8   4
#     4  10  19  35  56  82 114 152 193 241 287 342
#     4  10  20  34  54  84 118 148 185 237 295 351
#     4  11  21  37  56  87 115 152 194 238 288 345
#     4  10  21  34  56  80 115 154 192 228 283 352
#     4  10  21  38  59  85 119 154 194 241 297 352
#     4  11  21  34  58  87 116 149 195 243 296 340
#     4  10  20  34  58  82 110 152 194 240 280 344
#
# _framework density 18.418416000000001
#
# number of rings (size 3 to 8) (size 9 to 14) (size 15 to 20)
#    0.000    1.667    5.000    2.250    2.333    1.333 
#    0.000    2.500    0.000    0.000    0.000    1.167 
#    0.000    0.000    0.000    0.000    0.000    0.000 
#
# Total GULP energy -297422.596931 kJ/mol
# GULP energy per Si atom -12392.608205 kJ/mol
# Density = 1.837649 g / cm^3
# Si number density = 18.418416 Si / 1000 Ang^3
#
#
#
# Elastic Constant Matrix: (Units=GPa)
#
#
# Indices 1 2 3 4 5 6 
#
# 1 120.7520 32.7713 49.8069 0.0000 7.9316 0.0000
# 2 32.7713 68.5560 31.6233 0.0000 -0.4015 0.0000
# 3 49.8069 31.6233 109.6703 0.0000 -1.2969 0.0000
# 4 0.0000 0.0000 0.0000 19.8839 0.0000 3.6133
# 5 7.9316 -0.4015 -1.2969 0.0000 43.6650 0.0000
# 6 0.0000 0.0000 0.0000 3.6133 0.0000 24.5206
#
#
#
# Elastic Compliance Matrix: (Units=1/GPa)
#
#
# Indices 1 2 3 4 5 6 
#
# 1 0.011018 -0.003413 -0.004045 0.000000 -0.002153 0.000000
# 2 -0.003413 0.017882 -0.003598 0.000000 0.000678 0.000000
# 3 -0.004045 -0.003598 0.012005 0.000000 0.001058 0.000000
# 4 0.000000 0.000000 0.000000 0.051676 0.000000 -0.007615
# 5 -0.002153 0.000678 0.001058 0.000000 0.023330 0.000000
# 6 0.000000 0.000000 0.000000 -0.007615 0.000000 0.041904
#
#
# Mechanical properties :
#
#
# Convention : Reuss Voigt Hill
#
# Bulk Modulus (GPa) = 53.21371 58.59792 55.90581
# Shear Modulus (GPa) = 26.85402 29.93234 28.39318
#
# Velocity S-wave (km/s) = 3.82252 4.03567 3.93054
# Velocity P-wave (km/s) = 6.95963 7.32116 7.14268
#
# Compressibility (1/GPa) = 0.01879215
#
# Stress axis : x y z
#
# Youngs Moduli (GPa) = 90.76350 55.92220 83.29718
#
# Poissons Ratio (x) = 0.19089 0.33693
# Poissons Ratio (y) = 0.30982 0.29970
# Poissons Ratio (z) = 0.36713 0.20121
#
# Static dielectric constant tensor:
#      x y z
#    x 2.686450 0.000000 1.800860 
#    y 0.000000 3.253490 0.000000 
#    z 1.800860 0.000000 1.814780 
# 
# 
# High freq. dielectric constant tensor:
#      x y z
#    x 1.717860 0.000000 -0.000540 
#    y 0.000000 1.682240 0.000000 
#    z -0.000540 0.000000 1.720800 
# 
# From -- ./inp_files/144818.got.cif
#   From: 2010.06.25/outbox.cif.g09.slc.cpg/sg12_73_cif.got.tgz:144818.got - 2010.06.28 00:19:55.
