data_PCOD8092766
_publ_section_title
;
Structure prediction by ZEFSAII (Michael W. Deem and Ramdas Pophale) SiO2 
 PCOD8092766
Probable space group: C 2/M
;
_chemical_formula_sum "Si O2"
_cell_formula_units_Z 56
_cell_length_a 22.200117
_cell_length_b 8.911329
_cell_length_c 14.777039
_cell_angle_alpha 90.000000
_cell_angle_beta 112.748132
_cell_angle_gamma 90.000000
_cell_volume 2695.980045
_symmetry_space_group_name_H-M "C 2/M"
_symmetry_group_IT_number 12
_symmetry_cell_setting 'monoclinic'
loop_
_space_group_symop_operation_xyz
x,y,z
-x,y,-z
-x,-y,-z
x,-y,z
1/2+x,1/2+y,z
1/2-x,1/2+y,-z
1/2-x,1/2-y,-z
1/2+x,1/2-y,z
loop_
_atom_site_type_symbol
_atom_site_label
_atom_site_fract_x
_atom_site_fract_y
_atom_site_fract_z
Si Si1 0.336911 0.324060 0.254665
Si Si2 0.486711 0.321504 0.090471
Si Si3 0.114687 0.169911 0.256145
Si Si4 0.653037 0.321821 0.943716
Si Si5 0.575644 0.822190 0.552893
Si Si6 0.214719 0.169895 0.160368
Si Si7 0.821720 0.323652 0.542705
O O1 0.346337 0.500000 0.272370
O O2 0.328146 0.270621 0.145634
O O3 0.397823 0.244366 0.337595
O O4 0.266805 0.266640 0.250124
O O5 0.485216 0.500000 0.082185
O O6 0.540827 0.276019 0.196219
O O7 0.418780 0.254055 0.084544
O O8 0.500000 0.250547 0.000000
O O9 0.147802 0.175078 0.176881
O O10 0.146746 0.286095 0.343095
O O11 0.118723 0.000000 0.297923
O O12 0.650897 0.500000 0.950974
O O13 0.700989 0.262083 0.051230
O O14 0.500000 0.765694 0.500000
O O15 0.626176 0.765988 0.503637
O O16 0.576261 0.000000 0.557565
O O17 0.241216 0.000000 0.169103
O O18 0.811376 0.500000 0.525783
O O19 0.750000 0.250000 0.500000
#
# Coordination Sequence:
#
# PCOD8092766 Si02
#       7
#     8   8   8   8   8   8   8
#     4  11  23  36  56  86 116 147 187 239 290 329
#     4   9  15  29  53  82 113 146 185 230 274 328
#     4  10  20  33  59  90 114 146 189 234 283 336
#     4   9  18  32  52  82 117 149 187 229 274 332
#     4  10  24  46  65  82 112 156 201 241 290 356
#     4  10  19  35  57  83 117 157 192 222 269 342
#     4  11  24  42  64  88 116 151 194 245 298 350
#
# _framework density 20.771667999999998
#
# number of rings (size 3 to 8) (size 9 to 14) (size 15 to 20)
#    0.000    2.000    1.429    2.143    2.000    5.429 
#    0.000    0.714    0.000    1.286    0.000    0.000 
#    0.000    0.000    0.000    0.000    0.000    0.000 
#
# Total GULP energy -347018.713168 kJ/mol
# GULP energy per Si atom -12393.525470 kJ/mol
# Density = 2.072439 g / cm^3
# Si number density = 20.771668 Si / 1000 Ang^3
#
#
#
# Elastic Constant Matrix: (Units=GPa)
#
#
# Indices 1 2 3 4 5 6 
#
# 1 111.1758 26.9208 48.3454 0.0000 24.9596 0.0000
# 2 26.9208 25.8320 27.1395 0.0000 4.8263 0.0000
# 3 48.3454 27.1395 128.5631 0.0000 23.1391 0.0000
# 4 0.0000 0.0000 0.0000 33.1642 0.0000 3.2206
# 5 24.9596 4.8263 23.1391 0.0000 39.9949 0.0000
# 6 0.0000 0.0000 0.0000 3.2206 0.0000 18.1478
#
#
#
# Elastic Compliance Matrix: (Units=1/GPa)
#
#
# Indices 1 2 3 4 5 6 
#
# 1 0.013952 -0.011619 -0.001651 0.000000 -0.006350 0.000000
# 2 -0.011619 0.059421 -0.009141 0.000000 0.005369 0.000000
# 3 -0.001651 -0.009141 0.011101 0.000000 -0.004289 0.000000
# 4 0.000000 0.000000 0.000000 0.030682 0.000000 -0.005445
# 5 -0.006350 0.005369 -0.004289 0.000000 0.030799 0.000000
# 6 0.000000 0.000000 0.000000 -0.005445 0.000000 0.056069
#
#
# Mechanical properties :
#
#
# Convention : Reuss Voigt Hill
#
# Bulk Modulus (GPa) = 25.21955 52.26469 38.74212
# Shear Modulus (GPa) = 19.22623 29.13907 24.18265
#
# Velocity S-wave (km/s) = 3.04567 3.74950 3.41576
# Velocity P-wave (km/s) = 4.95336 6.63032 5.85222
#
# Compressibility (1/GPa) = 0.03965177
#
# Stress axis : x y z
#
# Youngs Moduli (GPa) = 71.67610 16.82920 90.08507
#
# Poissons Ratio (x) = 0.19554 0.14872
# Poissons Ratio (y) = 0.83280 0.82344
# Poissons Ratio (z) = 0.11833 0.15383
#
# Static dielectric constant tensor:
#      x y z
#    x 4.049160 0.000000 0.067450 
#    y 0.000000 3.298980 0.000000 
#    z 0.067450 0.000000 3.807960 
# 
# 
# High freq. dielectric constant tensor:
#      x y z
#    x 1.826630 0.000000 0.011290 
#    y 0.000000 1.770670 0.000000 
#    z 0.011290 0.000000 1.823780 
# 
# From -- ./inp_files/238875.got.cif
#   From: 2010.06.25/outbox.cif.g09.slc.cpg/sg12_120_cif.got.tgz:238875.got - 2010.06.28 00:19:55.
