data_PCOD8092542
_publ_section_title
;
Structure prediction by ZEFSAII (Michael W. Deem and Ramdas Pophale) SiO2 
 PCOD8092542
Probable space group: C 2/M
;
_chemical_formula_sum "Si O2"
_cell_formula_units_Z 64
_cell_length_a 14.190480
_cell_length_b 8.779462
_cell_length_c 29.317709
_cell_angle_alpha 90.000000
_cell_angle_beta 74.409317
_cell_angle_gamma 90.000000
_cell_volume 3518.149791
_symmetry_space_group_name_H-M "C 2/M"
_symmetry_group_IT_number 12
_symmetry_cell_setting 'monoclinic'
loop_
_space_group_symop_operation_xyz
x,y,z
-x,y,-z
-x,-y,-z
x,-y,z
1/2+x,1/2+y,z
1/2-x,1/2+y,-z
1/2-x,1/2-y,-z
1/2+x,1/2-y,z
loop_
_atom_site_type_symbol
_atom_site_label
_atom_site_fract_x
_atom_site_fract_y
_atom_site_fract_z
Si Si1 0.597997 0.821811 0.299714
Si Si2 0.092936 0.322107 0.619414
Si Si3 0.366438 0.680032 0.801497
Si Si4 0.827598 0.679130 0.126014
Si Si5 0.798353 0.820643 0.632216
Si Si6 0.282753 0.319480 0.948459
Si Si7 0.538857 0.818468 0.125318
Si Si8 0.488664 0.321410 0.552193
O O1 0.492210 0.780155 0.333955
O O2 0.607961 0.726910 0.252631
O O3 0.682320 0.769045 0.323493
O O4 0.609065 0.000000 0.288167
O O5 0.098190 0.500000 0.609776
O O6 0.195316 0.261908 0.626028
O O7 0.073153 0.245736 0.573293
O O8 0.378427 0.500000 0.806537
O O9 0.255868 0.733307 0.827607
O O10 0.440278 0.763554 0.826178
O O11 0.836514 0.500000 0.127311
O O12 0.797367 0.729230 0.078922
O O13 0.932173 0.748236 0.125963
O O14 0.881438 0.778072 0.584695
O O15 0.796851 0.000000 0.643126
O O16 0.292284 0.500000 0.951019
O O17 0.387149 0.251820 0.920909
O O18 0.250000 0.250000 0.000000
O O19 0.544526 0.000000 0.122196
O O20 0.500000 0.252365 0.500000
O O21 0.505018 0.500000 0.549058
#
# Coordination Sequence:
#
# PCOD8092542 Si02
#       8
#     8   8   8   8   8   8   8   8
#     4  10  20  34  51  74 100 128 166 209 246 288
#     4   9  19  34  51  71  98 132 168 203 245 300
#     4  10  20  36  54  75 103 135 166 202 250 303
#     4   8  18  35  54  73 100 135 168 200 246 304
#     4   9  18  34  52  70  97 133 166 200 248 302
#     4  10  20  36  54  77 106 138 172 209 252 299
#     4  10  19  35  56  77 100 132 170 209 248 293
#     4   9  18  32  50  73 100 128 162 206 252 296
#
# _framework density 18.191379999999999
#
# number of rings (size 3 to 8) (size 9 to 14) (size 15 to 20)
#    0.000    2.625    0.000    2.250    0.000    3.250 
#    0.000   15.000    0.000    0.000    0.000    0.000 
#    0.000    0.000    0.000    0.000    0.000    0.000 
#
# Total GULP energy -396815.907413 kJ/mol
# GULP energy per Si atom -12400.497107 kJ/mol
# Density = 1.814998 g / cm^3
# Si number density = 18.191380 Si / 1000 Ang^3
#
#
#
# Elastic Constant Matrix: (Units=GPa)
#
#
# Indices 1 2 3 4 5 6 
#
# 1 160.6519 33.8094 62.8752 0.0000 14.1294 0.0000
# 2 33.8094 52.1263 34.8867 0.0000 1.1747 0.0000
# 3 62.8752 34.8867 138.0766 0.0000 7.2879 0.0000
# 4 0.0000 0.0000 0.0000 33.1386 0.0000 4.0805
# 5 14.1294 1.1747 7.2879 0.0000 14.3112 0.0000
# 6 0.0000 0.0000 0.0000 4.0805 0.0000 25.7587
#
#
#
# Elastic Compliance Matrix: (Units=1/GPa)
#
#
# Indices 1 2 3 4 5 6 
#
# 1 0.008638 -0.003680 -0.002640 0.000000 -0.006881 0.000000
# 2 -0.003680 0.024674 -0.004771 0.000000 0.004038 0.000000
# 3 -0.002640 -0.004771 0.009754 0.000000 -0.001969 0.000000
# 4 0.000000 0.000000 0.000000 0.030777 0.000000 -0.004875
# 5 -0.006881 0.004038 -0.001969 0.000000 0.077341 0.000000
# 6 0.000000 0.000000 0.000000 -0.004875 0.000000 0.039594
#
#
# Mechanical properties :
#
#
# Convention : Reuss Voigt Hill
#
# Bulk Modulus (GPa) = 47.88906 68.22193 58.05550
# Shear Modulus (GPa) = 22.73543 29.26060 25.99801
#
# Velocity S-wave (km/s) = 3.53907 4.01495 3.78450
# Velocity P-wave (km/s) = 6.56371 7.68614 7.14700
#
# Compressibility (1/GPa) = 0.02088159
#
# Stress axis : x y z
#
# Youngs Moduli (GPa) = 115.77151 40.52920 102.52137
#
# Poissons Ratio (x) = 0.14916 0.27068
# Poissons Ratio (y) = 0.42608 0.48916
# Poissons Ratio (z) = 0.30566 0.19338
#
# Static dielectric constant tensor:
#      x y z
#    x 3.637260 0.000000 0.037970 
#    y 0.000000 3.251710 0.000000 
#    z 0.037970 0.000000 3.399930 
# 
# 
# High freq. dielectric constant tensor:
#      x y z
#    x 1.708740 0.000000 0.003400 
#    y 0.000000 1.698530 0.000000 
#    z 0.003400 0.000000 1.708690 
# 
# From -- ./inp_files/359848.got.cif
#   From: 2010.06.25/outbox.cif.g09.slc.cpg/sg12_180_cif.got.tgz:359848.got - 2010.06.28 00:19:55.
