data_PCOD8092603
_publ_section_title
;
Structure prediction by ZEFSAII (Michael W. Deem and Ramdas Pophale) SiO2 
 PCOD8092603
Probable space group: C 2/M
;
_chemical_formula_sum "Si O2"
_cell_formula_units_Z 40
_cell_length_a 28.775453
_cell_length_b 17.770542
_cell_length_c 12.372572
_cell_angle_alpha 90.000000
_cell_angle_beta 159.754698
_cell_angle_gamma 90.000000
_cell_volume 2189.320267
_symmetry_space_group_name_H-M "C 2/M"
_symmetry_group_IT_number 12
_symmetry_cell_setting 'monoclinic'
loop_
_space_group_symop_operation_xyz
x,y,z
-x,y,-z
-x,-y,-z
x,-y,z
1/2+x,1/2+y,z
1/2-x,1/2+y,-z
1/2-x,1/2-y,-z
1/2+x,1/2-y,z
loop_
_atom_site_type_symbol
_atom_site_label
_atom_site_fract_x
_atom_site_fract_y
_atom_site_fract_z
Si Si1 0.145510 0.657300 0.355744
Si Si2 0.358656 0.667219 0.640874
Si Si3 0.398740 0.412906 0.511683
Si Si4 0.701462 0.585997 0.122238
Si Si5 0.846803 0.180622 0.189685
O O1 0.244259 0.640608 0.472552
O O2 0.148278 0.744156 0.396824
O O3 0.183741 0.608452 0.543005
O O4 0.000000 0.631193 0.000000
O O5 0.332387 0.625268 0.471156
O O6 0.500000 0.643183 0.000000
O O7 0.358359 0.500000 0.420194
O O8 0.340763 0.374596 0.278303
O O9 0.558405 0.401364 0.867228
O O10 0.720194 0.500000 0.127467
O O11 0.714741 0.636387 0.045349
O O12 0.000000 0.207086 0.500000
O O13 0.750000 0.250000 0.000000
#
# Coordination Sequence:
#
# PCOD8092603 Si02
#       5
#     8   8   8   8   8
#     4  10  21  35  55  82 115 149 185 227 273 326
#     4  10  19  35  56  81 111 147 189 229 268 322
#     4  10  20  35  59  86 110 142 188 232 272 324
#     4  10  20  36  58  83 113 146 184 229 276 327
#     4  10  21  39  62  85 109 143 185 229 276 328
#
# _framework density 18.270510999999999
#
# number of rings (size 3 to 8) (size 9 to 14) (size 15 to 20)
#    0.000    2.000    2.000    1.800    0.000    4.000 
#    3.600    0.000    0.000    1.200    0.000    0.000 
#    0.000    0.000    0.000    0.000    0.000    0.000 
#
# Total GULP energy -248080.995422 kJ/mol
# GULP energy per Si atom -12404.049771 kJ/mol
# Density = 1.822893 g / cm^3
# Si number density = 18.270511 Si / 1000 Ang^3
#
#
#
# Elastic Constant Matrix: (Units=GPa)
#
#
# Indices 1 2 3 4 5 6 
#
# 1 134.9744 75.9848 71.1545 0.0000 -11.5944 0.0000
# 2 75.9848 109.1753 57.0259 0.0000 -6.0861 0.0000
# 3 71.1545 57.0259 118.9172 0.0000 -5.3211 0.0000
# 4 0.0000 0.0000 0.0000 24.2712 0.0000 -2.3863
# 5 -11.5944 -6.0861 -5.3211 0.0000 28.8965 0.0000
# 6 0.0000 0.0000 0.0000 -2.3863 0.0000 16.8668
#
#
#
# Elastic Compliance Matrix: (Units=1/GPa)
#
#
# Indices 1 2 3 4 5 6 
#
# 1 0.014398 -0.007222 -0.005003 0.000000 0.003335 0.000000
# 2 -0.007222 0.015909 -0.003315 0.000000 -0.000158 0.000000
# 3 -0.005003 -0.003315 0.012978 0.000000 -0.000316 0.000000
# 4 0.000000 0.000000 0.000000 0.041782 0.000000 0.005911
# 5 0.003335 -0.000158 -0.000316 0.000000 0.035853 0.000000
# 6 0.000000 0.000000 0.000000 0.005911 0.000000 0.060124
#
#
# Mechanical properties :
#
#
# Convention : Reuss Voigt Hill
#
# Bulk Modulus (GPa) = 81.92614 85.71081 83.81847
# Shear Modulus (GPa) = 23.12760 24.60035 23.86397
#
# Velocity S-wave (km/s) = 3.56173 3.67338 3.61799
# Velocity P-wave (km/s) = 7.86464 8.06260 7.96424
#
# Compressibility (1/GPa) = 0.01220612
#
# Stress axis : x y z
#
# Youngs Moduli (GPa) = 69.45281 62.85927 77.05354
#
# Poissons Ratio (x) = 0.45397 0.38548
# Poissons Ratio (y) = 0.50159 0.25540
# Poissons Ratio (z) = 0.34746 0.20835
#
# Static dielectric constant tensor:
#      x y z
#    x 3.375700 0.000000 -0.024110 
#    y 0.000000 3.282810 0.000000 
#    z -0.024110 0.000000 3.327540 
# 
# 
# High freq. dielectric constant tensor:
#      x y z
#    x 1.714990 0.000000 -0.013240 
#    y 0.000000 1.706930 0.000000 
#    z -0.013240 0.000000 1.702900 
# 
# From -- ./inp_files/118902.got.cif
#   From: 2010.06.25/outbox.cif.g09.slc.cpg/sg12_60_cif.got.tgz:118902.got - 2010.06.28 00:19:55.
