data_PCOD8092950
_publ_section_title
;
Structure prediction by ZEFSAII (Michael W. Deem and Ramdas Pophale) SiO2 
 PCOD8092950
Probable space group: C 2/M
;
_chemical_formula_sum "Si O2"
_cell_formula_units_Z 44
_cell_length_a 10.164232
_cell_length_b 16.468120
_cell_length_c 16.292451
_cell_angle_alpha 90.000000
_cell_angle_beta 130.321620
_cell_angle_gamma 90.000000
_cell_volume 2079.226001
_symmetry_space_group_name_H-M "C 2/M"
_symmetry_group_IT_number 12
_symmetry_cell_setting 'monoclinic'
loop_
_space_group_symop_operation_xyz
x,y,z
-x,y,-z
-x,-y,-z
x,-y,z
1/2+x,1/2+y,z
1/2-x,1/2+y,-z
1/2-x,1/2-y,-z
1/2+x,1/2-y,z
loop_
_atom_site_type_symbol
_atom_site_label
_atom_site_fract_x
_atom_site_fract_y
_atom_site_fract_z
Si Si1 0.650424 0.596705 0.259473
Si Si2 0.326101 0.822116 0.477408
Si Si3 0.119115 0.139082 0.977017
Si Si4 0.008371 0.593743 0.688947
Si Si5 0.007168 0.592522 0.139469
Si Si6 0.500000 0.206906 0.000000
O O1 0.653398 0.500000 0.275053
O O2 0.680569 0.641324 0.358819
O O3 0.472306 0.627181 0.148257
O O4 0.803171 0.626564 0.260285
O O5 0.500000 0.794550 0.500000
O O6 0.250000 0.750000 0.500000
O O7 0.372652 0.891694 0.561954
O O8 0.300748 0.095043 0.044197
O O9 0.138216 0.235604 0.008437
O O10 0.000000 0.097112 0.000000
O O11 0.027000 0.500000 0.714241
O O12 0.947487 0.630110 0.752349
O O13 0.072062 0.500000 0.153768
O O14 0.095077 0.649218 0.105624
#
# Coordination Sequence:
#
# PCOD8092950 Si02
#       6
#     8   8   8   8   8   4
#     4  10  19  35  58  86 111 143 189 240 280 328
#     4  10  22  38  58  84 113 147 188 237 287 342
#     4  10  21  34  57  82 114 144 187 233 281 327
#     4   9  18  34  59  81 108 144 190 234 275 327
#     4  11  21  37  58  83 116 154 190 231 283 347
#     4  10  23  36  51  82 120 156 188 226 285 346
#
# _framework density 21.161719999999999
#
# number of rings (size 3 to 8) (size 9 to 14) (size 15 to 20)
#    0.545    1.455    1.818    1.909    2.545    2.909 
#    3.273    0.000    0.000    2.182    0.000    0.000 
#    0.000    0.000    0.000    0.000    0.000    0.000 
#
# Total GULP energy -272614.099874 kJ/mol
# GULP energy per Si atom -12391.549994 kJ/mol
# Density = 2.111355 g / cm^3
# Si number density = 21.161720 Si / 1000 Ang^3
#
#
#
# Elastic Constant Matrix: (Units=GPa)
#
#
# Indices 1 2 3 4 5 6 
#
# 1 43.2917 19.8361 32.8127 0.0000 -11.3444 0.0000
# 2 19.8361 82.4059 30.9865 0.0000 -20.7787 0.0000
# 3 32.8127 30.9865 157.6501 0.0000 -17.8178 0.0000
# 4 0.0000 0.0000 0.0000 33.9901 0.0000 -16.7811
# 5 -11.3444 -20.7787 -17.8178 0.0000 32.8007 0.0000
# 6 0.0000 0.0000 0.0000 -16.7811 0.0000 13.7862
#
#
#
# Elastic Compliance Matrix: (Units=1/GPa)
#
#
# Indices 1 2 3 4 5 6 
#
# 1 0.030008 -0.004100 -0.004859 0.000000 0.005142 0.000000
# 2 -0.004100 0.015571 -0.001335 0.000000 0.007721 0.000000
# 3 -0.004859 -0.001335 0.007811 0.000000 0.001717 0.000000
# 4 0.000000 0.000000 0.000000 0.073727 0.000000 0.089744
# 5 0.005142 0.007721 0.001717 0.000000 0.038089 0.000000
# 6 0.000000 0.000000 0.000000 0.089744 0.000000 0.181776
#
#
# Mechanical properties :
#
#
# Convention : Reuss Voigt Hill
#
# Bulk Modulus (GPa) = 30.48488 50.06870 40.27679
# Shear Modulus (GPa) = 13.20999 29.42956 21.31977
#
# Velocity S-wave (km/s) = 2.50119 3.73325 3.17751
# Velocity P-wave (km/s) = 4.77265 6.50341 5.70406
#
# Compressibility (1/GPa) = 0.03280315
#
# Stress axis : x y z
#
# Youngs Moduli (GPa) = 33.32487 64.22397 128.02765
#
# Poissons Ratio (x) = 0.26330 0.62205
# Poissons Ratio (y) = 0.13662 0.17086
# Poissons Ratio (z) = 0.16192 0.08571
#
# Static dielectric constant tensor:
#      x y z
#    x 3.536020 0.000000 -0.358010 
#    y 0.000000 3.736770 0.000000 
#    z -0.358010 0.000000 4.374630 
# 
# 
# High freq. dielectric constant tensor:
#      x y z
#    x 1.795590 0.000000 -0.026040 
#    y 0.000000 1.821710 0.000000 
#    z -0.026040 0.000000 1.842390 
# 
# From -- ./inp_files/205759.got.cif
#   From: 2010.06.25/outbox.cif.g09.slc.cpg/sg12_103_cif.got.tgz:205759.got - 2010.06.28 00:19:55.
