data_PCOD8092548
_publ_section_title
;
Structure prediction by ZEFSAII (Michael W. Deem and Ramdas Pophale) SiO2 
 PCOD8092548
Probable space group: C 2/M
;
_chemical_formula_sum "Si O2"
_cell_formula_units_Z 56
_cell_length_a 23.606495
_cell_length_b 9.035780
_cell_length_c 14.735343
_cell_angle_alpha 90.000000
_cell_angle_beta 70.584696
_cell_angle_gamma 90.000000
_cell_volume 2964.358768
_symmetry_space_group_name_H-M "C 2/M"
_symmetry_group_IT_number 12
_symmetry_cell_setting 'monoclinic'
loop_
_space_group_symop_operation_xyz
x,y,z
-x,y,-z
-x,-y,-z
x,-y,z
1/2+x,1/2+y,z
1/2-x,1/2+y,-z
1/2-x,1/2-y,-z
1/2+x,1/2-y,z
loop_
_atom_site_type_symbol
_atom_site_label
_atom_site_fract_x
_atom_site_fract_y
_atom_site_fract_z
Si Si1 0.187215 0.173535 0.825750
Si Si2 0.425510 0.326356 0.630272
Si Si3 0.439686 0.674339 0.417813
Si Si4 0.008249 0.327818 0.094688
Si Si5 0.321527 0.828954 0.795018
Si Si6 0.897644 0.323962 0.268196
Si Si7 0.356272 0.828919 0.971768
O O1 0.257922 0.208893 0.783984
O O2 0.158673 0.260375 0.756985
O O3 0.160769 0.226672 0.935409
O O4 0.174236 0.000000 0.823533
O O5 0.422097 0.500000 0.643701
O O6 0.491080 0.272261 0.628775
O O7 0.415963 0.283250 0.530291
O O8 0.373539 0.257999 0.717703
O O9 0.434212 0.500000 0.403211
O O10 0.397364 0.761680 0.370291
O O11 0.993509 0.500000 0.093991
O O12 0.958908 0.262014 0.189477
O O13 0.000000 0.253680 0.000000
O O14 0.075029 0.297730 0.094757
O O15 0.338181 0.000000 0.777661
O O16 0.317270 0.786674 0.904187
O O17 0.892747 0.500000 0.273139
O O18 0.347858 0.000000 0.005698
#
# Coordination Sequence:
#
# PCOD8092548 Si02
#       7
#     8   8   8   8   8   8   8
#     4  11  23  37  51  75 112 149 185 230 275 318
#     4   9  19  37  61  85 112 143 175 215 272 332
#     4   9  19  37  59  86 116 141 168 218 279 327
#     4   9  16  29  50  76 105 134 169 218 267 311
#     4  10  22  37  55  79 109 145 186 232 275 312
#     4  11  21  35  57  82 108 147 188 221 269 328
#     4  10  19  35  56  77 105 143 184 227 273 325
#
# _framework density 18.891100999999999
#
# number of rings (size 3 to 8) (size 9 to 14) (size 15 to 20)
#    0.000    2.143    1.429    3.000    0.000    4.000 
#    0.000    4.286    0.000    0.000    0.000    0.000 
#    0.000    0.000    0.000    0.000    0.000    0.000 
#
# Total GULP energy -347198.149862 kJ/mol
# GULP energy per Si atom -12399.933924 kJ/mol
# Density = 1.884810 g / cm^3
# Si number density = 18.891101 Si / 1000 Ang^3
#
#
#
# Elastic Constant Matrix: (Units=GPa)
#
#
# Indices 1 2 3 4 5 6 
#
# 1 97.4439 40.9777 43.4368 0.0000 23.0093 0.0000
# 2 40.9777 56.3729 30.1158 0.0000 11.9368 0.0000
# 3 43.4368 30.1158 70.2095 0.0000 18.4585 0.0000
# 4 0.0000 0.0000 0.0000 32.6416 0.0000 1.6979
# 5 23.0093 11.9368 18.4585 0.0000 31.5309 0.0000
# 6 0.0000 0.0000 0.0000 1.6979 0.0000 29.4582
#
#
#
# Elastic Compliance Matrix: (Units=1/GPa)
#
#
# Indices 1 2 3 4 5 6 
#
# 1 0.017975 -0.008641 -0.005703 0.000000 -0.006507 0.000000
# 2 -0.008641 0.027492 -0.006344 0.000000 -0.000388 0.000000
# 3 -0.005703 -0.006344 0.022181 0.000000 -0.006421 0.000000
# 4 0.000000 0.000000 0.000000 0.030728 0.000000 -0.001771
# 5 -0.006507 -0.000388 -0.006421 0.000000 0.040369 0.000000
# 6 0.000000 0.000000 0.000000 -0.001771 0.000000 0.034048
#
#
# Mechanical properties :
#
#
# Convention : Reuss Voigt Hill
#
# Bulk Modulus (GPa) = 38.06626 50.34299 44.20462
# Shear Modulus (GPa) = 22.42873 26.02586 24.22730
#
# Velocity S-wave (km/s) = 3.44941 3.71574 3.58505
# Velocity P-wave (km/s) = 6.00489 6.71683 6.37081
#
# Compressibility (1/GPa) = 0.02626999
#
# Stress axis : x y z
#
# Youngs Moduli (GPa) = 55.63253 36.37435 45.08346
#
# Poissons Ratio (x) = 0.31433 0.25713
# Poissons Ratio (y) = 0.48075 0.28602
# Poissons Ratio (z) = 0.31729 0.23077
#
# Static dielectric constant tensor:
#      x y z
#    x 3.568450 0.000000 0.093350 
#    y 0.000000 3.254320 0.000000 
#    z 0.093350 0.000000 3.468290 
# 
# 
# High freq. dielectric constant tensor:
#      x y z
#    x 1.740440 0.000000 0.010400 
#    y 0.000000 1.717490 0.000000 
#    z 0.010400 0.000000 1.728490 
# 
# From -- ./inp_files/237400.got.cif
#   From: 2010.06.25/outbox.cif.g09.slc.cpg/sg12_119_cif.got.tgz:237400.got - 2010.06.28 00:19:55.
