data_PCOD8092323
_publ_section_title
;
Structure prediction by ZEFSAII (Michael W. Deem and Ramdas Pophale) SiO2 
 PCOD8092323
Probable space group: C 2/M
;
_chemical_formula_sum "Si O2"
_cell_formula_units_Z 48
_cell_length_a 17.479208
_cell_length_b 14.397079
_cell_length_c 11.902041
_cell_angle_alpha 90.000000
_cell_angle_beta 126.521267
_cell_angle_gamma 90.000000
_cell_volume 2407.004898
_symmetry_space_group_name_H-M "C 2/M"
_symmetry_group_IT_number 12
_symmetry_cell_setting 'monoclinic'
loop_
_space_group_symop_operation_xyz
x,y,z
-x,y,-z
-x,-y,-z
x,-y,z
1/2+x,1/2+y,z
1/2-x,1/2+y,-z
1/2-x,1/2-y,-z
1/2+x,1/2-y,z
loop_
_atom_site_type_symbol
_atom_site_label
_atom_site_fract_x
_atom_site_fract_y
_atom_site_fract_z
Si Si1 0.650399 0.296172 0.436821
Si Si2 0.879180 0.897784 0.030451
Si Si3 0.198165 0.102824 0.270621
Si Si4 0.953619 0.267107 0.220827
Si Si5 0.686855 0.276527 0.707360
Si Si6 0.302707 0.108212 0.982517
O O1 0.750000 0.250000 0.500000
O O2 0.642998 0.379424 0.339791
O O3 0.565678 0.219757 0.343930
O O4 0.649837 0.333793 0.565248
O O5 0.951862 0.822759 0.139374
O O6 0.772431 0.873836 0.982980
O O7 0.908583 0.000000 0.100370
O O8 0.880182 0.894539 0.896770
O O9 0.278044 0.178420 0.311440
O O10 0.245376 0.000000 0.315848
O O11 0.902089 0.242259 0.291376
O O12 0.905103 0.354485 0.115477
O O13 0.769691 0.334406 0.843383
O O14 0.313147 0.000000 0.960587
#
# Coordination Sequence:
#
# PCOD8092323 Si02
#       6
#     8   8   8   8   8   8
#     4  10  24  38  53  79 120 163 196 234 291 351
#     4   9  17  32  58  92 114 138 188 247 303 343
#     4  10  19  36  60  85 119 151 184 240 298 348
#     4  11  19  36  61  86 116 153 201 245 289 347
#     4  10  19  39  60  88 115 156 196 242 296 351
#     4  10  19  34  62  92 118 146 192 254 297 343
#
# _framework density 19.941796
#
# number of rings (size 3 to 8) (size 9 to 14) (size 15 to 20)
#    0.000    2.000    3.333    1.500    0.000    2.000 
#    0.000    5.000    0.000   15.000    0.000    0.000 
#    0.000    0.000    0.000    0.000    0.000    0.000 
#
# Total GULP energy -297418.945242 kJ/mol
# GULP energy per Si atom -12392.456052 kJ/mol
# Density = 1.989641 g / cm^3
# Si number density = 19.941796 Si / 1000 Ang^3
#
#
#
# Elastic Constant Matrix: (Units=GPa)
#
#
# Indices 1 2 3 4 5 6 
#
# 1 70.0021 37.7185 64.4029 0.0000 1.8885 0.0000
# 2 37.7185 104.2357 50.7710 0.0000 -9.5754 0.0000
# 3 64.4029 50.7710 134.3564 0.0000 -12.7187 0.0000
# 4 0.0000 0.0000 0.0000 16.3089 0.0000 -7.4161
# 5 1.8885 -9.5754 -12.7187 0.0000 46.2712 0.0000
# 6 0.0000 0.0000 0.0000 -7.4161 0.0000 22.5012
#
#
#
# Elastic Compliance Matrix: (Units=1/GPa)
#
#
# Indices 1 2 3 4 5 6 
#
# 1 0.028311 -0.004764 -0.012293 0.000000 -0.005520 0.000000
# 2 -0.004764 0.012630 -0.002283 0.000000 0.002181 0.000000
# 3 -0.012293 -0.002283 0.014580 0.000000 0.004037 0.000000
# 4 0.000000 0.000000 0.000000 0.072126 0.000000 0.023772
# 5 -0.005520 0.002181 0.004037 0.000000 0.023398 0.000000
# 6 0.000000 0.000000 0.000000 0.023772 0.000000 0.052277
#
#
# Mechanical properties :
#
#
# Convention : Reuss Voigt Hill
#
# Bulk Modulus (GPa) = 59.37652 68.26434 63.82043
# Shear Modulus (GPa) = 20.19271 27.39639 23.79455
#
# Velocity S-wave (km/s) = 3.18556 3.71053 3.45802
# Velocity P-wave (km/s) = 6.58559 7.25696 6.92941
#
# Compressibility (1/GPa) = 0.01684167
#
# Stress axis : x y z
#
# Youngs Moduli (GPa) = 35.32219 79.17906 68.58647
#
# Poissons Ratio (x) = 0.37721 0.84313
# Poissons Ratio (y) = 0.16827 0.15655
# Poissons Ratio (z) = 0.43421 0.18073
#
# Static dielectric constant tensor:
#      x y z
#    x 3.582390 0.000000 -0.478820 
#    y 0.000000 3.628500 0.000000 
#    z -0.478820 0.000000 4.224880 
# 
# 
# High freq. dielectric constant tensor:
#      x y z
#    x 1.764050 0.000000 -0.017220 
#    y 0.000000 1.758660 0.000000 
#    z -0.017220 0.000000 1.787670 
# 
# From -- ./inp_files/166869.got.cif
#   From: 2010.06.25/outbox.cif.g09.slc.cpg/sg12_84_cif.got.tgz:166869.got - 2010.06.28 00:19:55.
