data_PCOD8092058
_publ_section_title
;
Structure prediction by ZEFSAII (Michael W. Deem and Ramdas Pophale) SiO2 
 PCOD8092058
Probable space group: C 2/M
;
_chemical_formula_sum "Si O2"
_cell_formula_units_Z 64
_cell_length_a 25.700869
_cell_length_b 14.509275
_cell_length_c 8.844056
_cell_angle_alpha 90.000000
_cell_angle_beta 62.162125
_cell_angle_gamma 90.000000
_cell_volume 2916.292717
_symmetry_space_group_name_H-M "C 2/M"
_symmetry_group_IT_number 12
_symmetry_cell_setting 'monoclinic'
loop_
_space_group_symop_operation_xyz
x,y,z
-x,y,-z
-x,-y,-z
x,-y,z
1/2+x,1/2+y,z
1/2-x,1/2+y,-z
1/2-x,1/2-y,-z
1/2+x,1/2-y,z
loop_
_atom_site_type_symbol
_atom_site_label
_atom_site_fract_x
_atom_site_fract_y
_atom_site_fract_z
Si Si1 0.282192 0.395896 0.771268
Si Si2 0.281602 0.106595 0.650995
Si Si3 0.844329 0.266650 0.783570
Si Si4 0.103896 0.395557 0.695914
Si Si5 0.459677 0.607613 0.197335
Si Si6 0.856071 0.395757 0.030292
Si Si7 0.825938 0.108393 0.390206
Si Si8 0.955057 0.257625 0.433790
O O1 0.302604 0.500000 0.781089
O O2 0.307430 0.327482 0.868036
O O3 0.212944 0.389785 0.843961
O O4 0.310869 0.355423 0.577979
O O5 0.298068 0.159174 0.781235
O O6 0.331371 0.122430 0.457573
O O7 0.220227 0.147935 0.669741
O O8 0.275505 0.000000 0.704745
O O9 0.894075 0.237495 0.598471
O O10 0.874060 0.315877 0.887757
O O11 0.084369 0.500000 0.693620
O O12 0.106975 0.373262 0.869421
O O13 0.053989 0.334531 0.683319
O O14 0.465147 0.500000 0.230762
O O15 0.392044 0.635694 0.251612
O O16 0.479439 0.665177 0.318359
O O17 0.500000 0.633241 0.000000
O O18 0.871467 0.500000 0.952516
O O19 0.816104 0.000000 0.408994
O O20 0.000000 0.292775 0.500000
#
# Coordination Sequence:
#
# PCOD8092058 Si02
#       8
#     8   8   8   8   8   8   8   8
#     4  10  19  34  58  89 127 166 203 243 295 366
#     4   9  17  32  56  90 126 159 196 241 300 367
#     4  11  22  35  58  90 125 164 202 250 309 364
#     4   9  19  38  64  90 121 163 201 245 310 372
#     4  10  22  42  67  92 121 162 210 258 302 351
#     4  10  20  37  60  91 129 163 197 245 304 368
#     4   9  16  32  60  89 121 160 203 246 294 360
#     4  11  25  42  63  90 121 159 208 263 310 360
#
# _framework density 21.945671000000001
#
# number of rings (size 3 to 8) (size 9 to 14) (size 15 to 20)
#    0.000    2.125    2.500    0.750    0.000    3.500 
#    0.000    1.250    0.000    5.625    0.000    0.000 
#    0.000    0.000    0.000    0.000    0.000    0.000 
#
# Total GULP energy -396740.849075 kJ/mol
# GULP energy per Si atom -12398.151534 kJ/mol
# Density = 2.189572 g / cm^3
# Si number density = 21.945671 Si / 1000 Ang^3
#
#
#
# Elastic Constant Matrix: (Units=GPa)
#
#
# Indices 1 2 3 4 5 6 
#
# 1 89.6058 44.7990 30.6723 0.0000 25.6418 0.0000
# 2 44.7990 104.9160 50.7370 0.0000 20.5806 0.0000
# 3 30.6723 50.7370 94.7588 0.0000 9.3580 0.0000
# 4 0.0000 0.0000 0.0000 26.3788 0.0000 1.7840
# 5 25.6418 20.5806 9.3580 0.0000 35.1790 0.0000
# 6 0.0000 0.0000 0.0000 1.7840 0.0000 24.6645
#
#
#
# Elastic Compliance Matrix: (Units=1/GPa)
#
#
# Indices 1 2 3 4 5 6 
#
# 1 0.016635 -0.004260 -0.002210 0.000000 -0.009045 0.000000
# 2 -0.004260 0.015241 -0.006375 0.000000 -0.004115 0.000000
# 3 -0.002210 -0.006375 0.014536 0.000000 0.001474 0.000000
# 4 0.000000 0.000000 0.000000 0.038096 0.000000 -0.002755
# 5 -0.009045 -0.004115 0.001474 0.000000 0.037034 0.000000
# 6 0.000000 0.000000 0.000000 -0.002755 0.000000 0.040743
#
#
# Mechanical properties :
#
#
# Convention : Reuss Voigt Hill
#
# Bulk Modulus (GPa) = 48.25970 60.18859 54.22414
# Shear Modulus (GPa) = 25.65647 28.11591 26.88619
#
# Velocity S-wave (km/s) = 3.42291 3.58321 3.50398
# Velocity P-wave (km/s) = 6.13677 6.67869 6.41346
#
# Compressibility (1/GPa) = 0.02072122
#
# Stress axis : x y z
#
# Youngs Moduli (GPa) = 60.11562 65.61421 68.79251
#
# Poissons Ratio (x) = 0.27950 0.15206
# Poissons Ratio (y) = 0.25608 0.43856
# Poissons Ratio (z) = 0.13288 0.41830
#
# Static dielectric constant tensor:
#      x y z
#    x 3.837870 0.000000 0.071160 
#    y 0.000000 4.038430 0.000000 
#    z 0.071160 0.000000 3.800090 
# 
# 
# High freq. dielectric constant tensor:
#      x y z
#    x 1.846400 0.000000 0.003070 
#    y 0.000000 1.867550 0.000000 
#    z 0.003070 0.000000 1.849200 
# 
# From -- ./inp_files/104540.got.cif
#   From: 2010.06.25/outbox.cif.g09.slc.cpg/sg12_53_cif.got.tgz:104540.got - 2010.06.28 00:19:55.
