data_PCOD8092478
_publ_section_title
;
Structure prediction by ZEFSAII (Michael W. Deem and Ramdas Pophale) SiO2 
 PCOD8092478
Probable space group: C 2/M
;
_chemical_formula_sum "Si O2"
_cell_formula_units_Z 56
_cell_length_a 23.710657
_cell_length_b 8.945694
_cell_length_c 15.096244
_cell_angle_alpha 90.000000
_cell_angle_beta 60.445065
_cell_angle_gamma 90.000000
_cell_volume 2785.399271
_symmetry_space_group_name_H-M "C 2/M"
_symmetry_group_IT_number 12
_symmetry_cell_setting 'monoclinic'
loop_
_space_group_symop_operation_xyz
x,y,z
-x,y,-z
-x,-y,-z
x,-y,z
1/2+x,1/2+y,z
1/2-x,1/2+y,-z
1/2-x,1/2-y,-z
1/2+x,1/2-y,z
loop_
_atom_site_type_symbol
_atom_site_label
_atom_site_fract_x
_atom_site_fract_y
_atom_site_fract_z
Si Si1 0.251626 0.170058 0.774300
Si Si2 0.931833 0.324558 0.820710
Si Si3 0.123261 0.827258 0.298942
Si Si4 0.189090 0.828224 0.999697
Si Si5 0.291322 0.676070 0.388173
Si Si6 0.931752 0.664908 0.506414
Si Si7 0.925200 0.327124 0.309856
O O1 0.303507 0.280655 0.779178
O O2 0.192300 0.181723 0.889808
O O3 0.235602 0.222871 0.687219
O O4 0.277987 0.000000 0.752004
O O5 0.917807 0.500000 0.831830
O O6 0.925057 0.265711 0.725702
O O7 0.006542 0.292664 0.793641
O O8 0.880006 0.244472 0.923503
O O9 0.113355 0.784395 0.409379
O O10 0.111255 0.000000 0.291378
O O11 0.188467 0.000000 0.032140
O O12 0.250000 0.750000 0.000000
O O13 0.287842 0.500000 0.405796
O O14 0.250000 0.750000 0.500000
O O15 0.366037 0.725590 0.324524
O O16 0.899684 0.500000 0.537593
O O17 0.938399 0.714342 0.401000
O O18 0.000000 0.665425 0.500000
O O19 0.905741 0.500000 0.312395
#
# Coordination Sequence:
#
# PCOD8092478 Si02
#       7
#     8   8   8   8   8   8   8
#     4  10  23  42  62  84 120 165 203 243 307 374
#     4  11  22  39  60  86 123 162 198 244 308 372
#     4  12  23  33  54  89 122 153 197 252 303 356
#     4  11  22  38  62  92 123 160 206 254 307 366
#     4  11  24  43  66  91 121 163 207 253 303 361
#     4  10  19  35  55  78 114 159 197 233 297 372
#     4  10  22  40  62  86 118 163 205 250 307 363
#
# _framework density 20.104838000000001
#
# number of rings (size 3 to 8) (size 9 to 14) (size 15 to 20)
#    0.000    1.286    2.857    3.429    0.000    7.143 
#    0.000    0.714    0.000    4.286    0.000    0.000 
#    0.000    0.000    0.000    0.000    0.000    0.000 
#
# Total GULP energy -347062.545787 kJ/mol
# GULP energy per Si atom -12395.090921 kJ/mol
# Density = 2.005908 g / cm^3
# Si number density = 20.104838 Si / 1000 Ang^3
#
#
#
# Elastic Constant Matrix: (Units=GPa)
#
#
# Indices 1 2 3 4 5 6 
#
# 1 89.1484 42.2049 30.6237 0.0000 -15.5402 0.0000
# 2 42.2049 107.7176 45.5491 0.0000 -12.4548 0.0001
# 3 30.6237 45.5491 108.7870 0.0000 -13.6554 0.0000
# 4 0.0000 0.0000 0.0000 32.9101 0.0000 -5.1770
# 5 -15.5402 -12.4548 -13.6554 0.0000 34.9686 0.0000
# 6 0.0000 0.0001 0.0000 -5.1770 0.0000 29.1446
#
#
#
# Elastic Compliance Matrix: (Units=1/GPa)
#
#
# Indices 1 2 3 4 5 6 
#
# 1 0.014694 -0.004548 -0.001699 0.000000 0.004247 0.000000
# 2 -0.004548 0.012865 -0.003980 0.000000 0.001007 0.000000
# 3 -0.001699 -0.003980 0.011635 0.000000 0.002371 0.000000
# 4 0.000000 0.000000 0.000000 0.031259 0.000000 0.005553
# 5 0.004247 0.001007 0.002371 0.000000 0.031769 0.000000
# 6 0.000000 0.000000 0.000000 0.005553 0.000000 0.035298
#
#
# Mechanical properties :
#
#
# Convention : Reuss Voigt Hill
#
# Bulk Modulus (GPa) = 53.36235 60.26760 56.81497
# Shear Modulus (GPa) = 30.44696 31.88969 31.16832
#
# Velocity S-wave (km/s) = 3.89576 3.98700 3.94164
# Velocity P-wave (km/s) = 6.84366 7.15797 7.00258
#
# Compressibility (1/GPa) = 0.01873980
#
# Stress axis : x y z
#
# Youngs Moduli (GPa) = 68.05353 77.73179 85.95085
#
# Poissons Ratio (x) = 0.35351 0.14605
# Poissons Ratio (y) = 0.30950 0.34207
# Poissons Ratio (z) = 0.11564 0.30936
#
# Static dielectric constant tensor:
#      x y z
#    x 3.638520 0.000000 -0.102670 
#    y 0.000000 3.630640 0.000000 
#    z -0.102670 0.000000 3.930310 
# 
# 
# High freq. dielectric constant tensor:
#      x y z
#    x 1.769050 0.000000 -0.014060 
#    y 0.000000 1.783840 0.000000 
#    z -0.014060 0.000000 1.793800 
# 
# From -- ./inp_files/238405.got.cif
#   From: 2010.06.25/outbox.cif.g09.slc.cpg/sg12_120_cif.got.tgz:238405.got - 2010.06.28 00:19:55.
