data_PCOD8092706
_publ_section_title
;
Structure prediction by ZEFSAII (Michael W. Deem and Ramdas Pophale) SiO2 
 PCOD8092706
Probable space group: C 2/M
;
_chemical_formula_sum "Si O2"
_cell_formula_units_Z 48
_cell_length_a 31.134302
_cell_length_b 8.805283
_cell_length_c 9.548346
_cell_angle_alpha 90.000000
_cell_angle_beta 102.136733
_cell_angle_gamma 90.000000
_cell_volume 2559.136222
_symmetry_space_group_name_H-M "C 2/M"
_symmetry_group_IT_number 12
_symmetry_cell_setting 'monoclinic'
loop_
_space_group_symop_operation_xyz
x,y,z
-x,y,-z
-x,-y,-z
x,-y,z
1/2+x,1/2+y,z
1/2-x,1/2+y,-z
1/2-x,1/2-y,-z
1/2+x,1/2-y,z
loop_
_atom_site_type_symbol
_atom_site_label
_atom_site_fract_x
_atom_site_fract_y
_atom_site_fract_z
Si Si1 0.373797 0.321540 0.408312
Si Si2 0.435097 0.178442 0.663548
Si Si3 0.109063 0.322104 0.864827
Si Si4 0.643224 0.824107 0.187614
Si Si5 0.796415 0.822882 0.560942
Si Si6 0.983980 0.177791 0.144087
O O1 0.382834 0.500000 0.424091
O O2 0.415283 0.233071 0.502295
O O3 0.368173 0.269341 0.245012
O O4 0.329586 0.275432 0.459748
O O5 0.401515 0.222831 0.764298
O O6 0.479758 0.269645 0.719602
O O7 0.445000 0.000000 0.665431
O O8 0.109421 0.500000 0.832052
O O9 0.059503 0.270755 0.853896
O O10 0.137989 0.283982 0.021280
O O11 0.684368 0.731913 0.277049
O O12 0.653023 0.000000 0.219540
O O13 0.750000 0.750000 0.500000
O O14 0.789483 0.000000 0.564004
O O15 0.974536 0.000000 0.155336
O O16 0.000000 0.219328 0.000000
#
# Coordination Sequence:
#
# PCOD8092706 Si02
#       6
#     8   8   8   8   8   8
#     4  10  22  39  57  83 116 147 182 230 284 334
#     4  10  19  35  57  80 109 149 193 236 277 326
#     4  11  22  37  57  83 114 151 189 231 280 329
#     4   9  19  35  57  83 112 144 184 229 276 329
#     4  10  21  38  63  88 112 142 181 225 274 335
#     4  11  22  34  53  81 114 151 192 236 277 325
#
# _framework density 18.756329000000001
#
# number of rings (size 3 to 8) (size 9 to 14) (size 15 to 20)
#    0.000    1.833    1.667    2.500    0.000    5.333 
#    0.000    4.167    0.000    0.000    0.000    0.000 
#    0.000    0.000    0.000    0.000    0.000    0.000 
#
# Total GULP energy -297720.757671 kJ/mol
# GULP energy per Si atom -12405.031570 kJ/mol
# Density = 1.871364 g / cm^3
# Si number density = 18.756329 Si / 1000 Ang^3
#
#
#
# Elastic Constant Matrix: (Units=GPa)
#
#
# Indices 1 2 3 4 5 6 
#
# 1 100.7728 32.1157 45.5477 0.0000 21.6430 0.0000
# 2 32.1157 48.9726 31.8627 0.0000 6.2087 0.0000
# 3 45.5477 31.8627 111.9787 0.0000 5.7135 0.0000
# 4 0.0000 0.0000 0.0000 35.1470 0.0000 3.2790
# 5 21.6430 6.2087 5.7135 0.0000 24.8676 0.0000
# 6 0.0000 0.0000 0.0000 3.2790 0.0000 33.1412
#
#
#
# Elastic Compliance Matrix: (Units=1/GPa)
#
#
# Indices 1 2 3 4 5 6 
#
# 1 0.016430 -0.006543 -0.004224 0.000000 -0.011695 0.000000
# 2 -0.006543 0.028213 -0.005360 0.000000 -0.000118 0.000000
# 3 -0.004224 -0.005360 0.012059 0.000000 0.002244 0.000000
# 4 0.000000 0.000000 0.000000 0.028717 0.000000 -0.002841
# 5 -0.011695 -0.000118 0.002244 0.000000 0.049905 0.000000
# 6 0.000000 0.000000 0.000000 -0.002841 0.000000 0.030455
#
#
# Mechanical properties :
#
#
# Convention : Reuss Voigt Hill
#
# Bulk Modulus (GPa) = 40.90613 53.41958 47.16286
# Shear Modulus (GPa) = 24.25022 28.77769 26.51396
#
# Velocity S-wave (km/s) = 3.59960 3.92125 3.76387
# Velocity P-wave (km/s) = 6.25562 7.00316 6.63992
#
# Compressibility (1/GPa) = 0.02444621
#
# Stress axis : x y z
#
# Youngs Moduli (GPa) = 60.86549 35.44462 82.92401
#
# Poissons Ratio (x) = 0.23192 0.35029
# Poissons Ratio (y) = 0.39826 0.44450
# Poissons Ratio (z) = 0.25711 0.18999
#
# Static dielectric constant tensor:
#      x y z
#    x 3.312790 0.000000 0.018290 
#    y 0.000000 3.494080 0.000000 
#    z 0.018290 0.000000 3.658200 
# 
# 
# High freq. dielectric constant tensor:
#      x y z
#    x 1.712160 0.000000 0.009640 
#    y 0.000000 1.740840 0.000000 
#    z 0.009640 0.000000 1.732230 
# 
# From -- ./inp_files/108647.got.cif
#   From: 2010.06.25/outbox.cif.g09.slc.cpg/sg12_55_cif.got.tgz:108647.got - 2010.06.28 00:19:55.
