data_PCOD8092001
_publ_section_title
;
Structure prediction by ZEFSAII (Michael W. Deem and Ramdas Pophale) SiO2 
 PCOD8092001
Probable space group: C 2/M
;
_chemical_formula_sum "Si O2"
_cell_formula_units_Z 64
_cell_length_a 15.297169
_cell_length_b 28.483501
_cell_length_c 12.700080
_cell_angle_alpha 90.000000
_cell_angle_beta 35.817606
_cell_angle_gamma 90.000000
_cell_volume 3238.324074
_symmetry_space_group_name_H-M "C 2/M"
_symmetry_group_IT_number 12
_symmetry_cell_setting 'monoclinic'
loop_
_space_group_symop_operation_xyz
x,y,z
-x,y,-z
-x,-y,-z
x,-y,z
1/2+x,1/2+y,z
1/2-x,1/2+y,-z
1/2-x,1/2-y,-z
1/2+x,1/2-y,z
loop_
_atom_site_type_symbol
_atom_site_label
_atom_site_fract_x
_atom_site_fract_y
_atom_site_fract_z
Si Si1 0.330794 0.868474 0.048602
Si Si2 0.830322 0.947174 0.134538
Si Si3 0.319973 0.202039 0.470344
Si Si4 0.835257 0.051344 0.888436
Si Si5 0.180181 0.156732 0.814083
Si Si6 0.171362 0.368881 0.716278
Si Si7 0.678311 0.203231 0.117757
Si Si8 0.602560 0.447787 0.492977
O O1 0.244348 0.916816 0.119980
O O2 0.303556 0.847149 0.191552
O O3 0.501184 0.880708 0.861629
O O4 0.271947 0.832866 0.020030
O O5 0.766001 0.898723 0.249892
O O6 0.756404 0.000000 0.230744
O O7 0.812180 0.933375 0.030519
O O8 0.000000 0.953101 0.000000
O O9 0.250000 0.250000 0.500000
O O10 0.241654 0.184329 0.653131
O O11 0.269810 0.166872 0.427532
O O12 0.499107 0.207157 0.307551
O O13 0.011624 0.051780 0.691397
O O14 0.767092 0.000000 0.937504
O O15 0.249581 0.184964 0.844601
O O16 0.000000 0.159005 0.000000
O O17 0.251970 0.418154 0.626820
O O18 0.750000 0.250000 0.000000
O O19 0.500000 0.426135 0.500000
O O20 0.653083 0.500000 0.410400
#
# Coordination Sequence:
#
# PCOD8092001 Si02
#       8
#     8   8   8   8   8   8   8   8
#     4  10  21  40  59  88 118 159 207 249 312 370
#     4   9  19  35  59  91 123 164 211 258 310 369
#     4  11  26  45  63  93 127 162 210 261 317 379
#     4  10  19  34  58  86 122 158 204 256 301 363
#     4  11  23  41  68  97 130 167 212 262 318 380
#     4  10  23  39  60  83 124 163 198 255 306 373
#     4  11  24  43  68  91 122 163 209 264 323 375
#     4  10  20  34  54  87 122 157 200 252 299 352
#
# _framework density 19.763309
#
# number of rings (size 3 to 8) (size 9 to 14) (size 15 to 20)
#    0.000    1.750    2.500    1.125    5.250    1.500 
#    0.000    1.250    0.000    2.250    0.000    0.000 
#    0.000    0.000    0.000    0.000    0.000    0.000 
#
# Total GULP energy -396447.464133 kJ/mol
# GULP energy per Si atom -12388.983254 kJ/mol
# Density = 1.971833 g / cm^3
# Si number density = 19.763309 Si / 1000 Ang^3
#
#
#
# Elastic Constant Matrix: (Units=GPa)
#
#
# Indices 1 2 3 4 5 6 
#
# 1 111.6076 65.8205 41.1119 0.0000 15.3980 0.0000
# 2 65.8205 142.6808 57.3176 0.0001 9.5465 0.0000
# 3 41.1119 57.3176 92.0858 0.0001 14.3552 0.0000
# 4 0.0000 0.0001 0.0001 35.1510 -0.0001 2.0580
# 5 15.3980 9.5465 14.3552 -0.0001 24.2391 0.0000
# 6 0.0000 0.0000 0.0000 2.0580 0.0000 36.1913
#
#
#
# Elastic Compliance Matrix: (Units=1/GPa)
#
#
# Indices 1 2 3 4 5 6 
#
# 1 0.013398 -0.005007 -0.002033 0.000000 -0.005335 0.000000
# 2 -0.005007 0.011218 -0.005017 0.000000 0.001734 0.000000
# 3 -0.002033 -0.005017 0.015844 0.000000 -0.006115 0.000000
# 4 0.000000 0.000000 0.000000 0.028544 0.000000 -0.001623
# 5 -0.005335 0.001734 -0.006115 0.000000 0.047583 0.000000
# 6 0.000000 0.000000 0.000000 -0.001623 0.000000 0.027723
#
#
# Mechanical properties :
#
#
# Convention : Reuss Voigt Hill
#
# Bulk Modulus (GPa) = 61.18456 74.98604 68.08530
# Shear Modulus (GPa) = 28.75662 31.25789 30.00725
#
# Velocity S-wave (km/s) = 3.81865 3.98126 3.90080
# Velocity P-wave (km/s) = 7.10413 7.69145 7.40361
#
# Compressibility (1/GPa) = 0.01634399
#
# Stress axis : x y z
#
# Youngs Moduli (GPa) = 74.63937 89.14290 63.11683
#
# Poissons Ratio (x) = 0.44632 0.12834
# Poissons Ratio (y) = 0.37370 0.31669
# Poissons Ratio (z) = 0.15177 0.44727
#
# Static dielectric constant tensor:
#      x y z
#    x 3.808140 0.000000 0.250390 
#    y 0.000000 3.944880 0.000000 
#    z 0.250390 0.000000 3.645980 
# 
# 
# High freq. dielectric constant tensor:
#      x y z
#    x 1.778170 0.000000 0.015520 
#    y 0.000000 1.781050 0.000000 
#    z 0.015520 0.000000 1.758730 
# 
# From -- ./inp_files/149728.got.cif
#   From: 2010.06.25/outbox.cif.g09.slc.cpg/sg12_75_cif.got.tgz:149728.got - 2010.06.28 00:19:55.
