data_PCOD8092509
_publ_section_title
;
Structure prediction by ZEFSAII (Michael W. Deem and Ramdas Pophale) SiO2 
 PCOD8092509
Probable space group: C 2/M
;
_chemical_formula_sum "Si O2"
_cell_formula_units_Z 56
_cell_length_a 20.163868
_cell_length_b 8.591875
_cell_length_c 19.471731
_cell_angle_alpha 90.000000
_cell_angle_beta 57.580759
_cell_angle_gamma 90.000000
_cell_volume 2847.638923
_symmetry_space_group_name_H-M "C 2/M"
_symmetry_group_IT_number 12
_symmetry_cell_setting 'monoclinic'
loop_
_space_group_symop_operation_xyz
x,y,z
-x,y,-z
-x,-y,-z
x,-y,z
1/2+x,1/2+y,z
1/2-x,1/2+y,-z
1/2-x,1/2-y,-z
1/2+x,1/2-y,z
loop_
_atom_site_type_symbol
_atom_site_label
_atom_site_fract_x
_atom_site_fract_y
_atom_site_fract_z
Si Si1 0.666040 0.818413 0.563246
Si Si2 0.918158 0.183625 0.009757
Si Si3 0.038532 0.682524 0.152448
Si Si4 0.285483 0.684301 0.186189
Si Si5 0.386893 0.815567 0.746128
Si Si6 0.515203 0.185791 0.568064
Si Si7 0.874320 0.818642 0.270495
O O1 0.750000 0.750000 0.500000
O O2 0.599670 0.752522 0.548040
O O3 0.640413 0.783199 0.654546
O O4 0.672291 0.000000 0.549517
O O5 0.847798 0.248606 0.096252
O O6 0.911972 0.000000 0.000038
O O7 0.909939 0.274085 0.942381
O O8 0.000000 0.227605 0.000000
O O9 0.018696 0.500000 0.165741
O O10 0.086383 0.734874 0.193083
O O11 0.959299 0.782441 0.192251
O O12 0.284963 0.500000 0.179579
O O13 0.199445 0.755603 0.219686
O O14 0.310313 0.731070 0.249357
O O15 0.447615 0.748497 0.656038
O O16 0.383635 0.000000 0.741176
O O17 0.500000 0.250611 0.500000
O O18 0.513948 0.000000 0.569444
O O19 0.867555 0.000000 0.292775
#
# Coordination Sequence:
#
# PCOD8092509 Si02
#       7
#     8   8   8   8   8   8   8
#     4  11  23  39  59  89 118 147 185 234 283 332
#     4  10  19  35  55  82 114 148 192 236 278 332
#     4  11  21  35  57  84 114 149 185 233 289 339
#     4   9  19  34  56  82 110 148 195 237 274 329
#     4   9  18  34  54  80 112 146 187 233 279 332
#     4   9  18  33  56  83 111 145 188 231 273 329
#     4  11  21  37  61  86 112 151 192 231 278 334
#
# _framework density 19.665413999999998
#
# number of rings (size 3 to 8) (size 9 to 14) (size 15 to 20)
#    0.000    2.000    2.857    1.286    2.000    0.857 
#    0.000    0.000    0.000    7.714    0.000    0.000 
#    0.000    0.000    0.000    0.000    0.000    0.000 
#
# Total GULP energy -347236.472468 kJ/mol
# GULP energy per Si atom -12401.302588 kJ/mol
# Density = 1.962065 g / cm^3
# Si number density = 19.665414 Si / 1000 Ang^3
#
#
#
# Elastic Constant Matrix: (Units=GPa)
#
#
# Indices 1 2 3 4 5 6 
#
# 1 180.7407 25.5571 83.7382 0.0002 -1.1341 0.0012
# 2 25.5571 23.3163 16.4528 0.0007 2.0760 0.0035
# 3 83.7382 16.4528 145.6727 -0.0001 7.9657 -0.0003
# 4 0.0002 0.0007 -0.0001 31.0277 -0.0001 1.8395
# 5 -1.1341 2.0760 7.9657 -0.0001 41.1240 0.0000
# 6 0.0012 0.0035 -0.0003 1.8395 0.0000 19.1543
#
#
#
# Elastic Compliance Matrix: (Units=1/GPa)
#
#
# Indices 1 2 3 4 5 6 
#
# 1 0.008371 -0.006355 -0.004169 0.000000 0.001359 0.000001
# 2 -0.006355 0.051501 -0.002033 -0.000001 -0.002381 -0.000009
# 3 -0.004169 -0.002033 0.009593 0.000000 -0.001870 0.000001
# 4 0.000000 -0.000001 0.000000 0.032414 0.000000 -0.003113
# 5 0.001359 -0.002381 -0.001870 0.000000 0.024837 0.000000
# 6 0.000001 -0.000009 0.000001 -0.003113 0.000000 0.052507
#
#
# Mechanical properties :
#
#
# Convention : Reuss Voigt Hill
#
# Bulk Modulus (GPa) = 22.54741 66.80289 44.67515
# Shear Modulus (GPa) = 22.81847 33.19330 28.00588
#
# Velocity S-wave (km/s) = 3.41006 4.11287 3.77784
# Velocity P-wave (km/s) = 5.19568 7.52314 6.46501
#
# Compressibility (1/GPa) = 0.04435099
#
# Stress axis : x y z
#
# Youngs Moduli (GPa) = 119.45500 19.41703 104.24311
#
# Poissons Ratio (x) = 0.12340 0.43456
# Poissons Ratio (y) = 0.75917 0.21195
# Poissons Ratio (z) = 0.49797 0.03948
#
# Static dielectric constant tensor:
#      x y z
#    x 4.062880 0.000000 0.113940 
#    y 0.000000 3.126040 0.000000 
#    z 0.113940 0.000000 3.998790 
# 
# 
# High freq. dielectric constant tensor:
#      x y z
#    x 1.775860 0.000000 0.003600 
#    y 0.000000 1.723210 0.000000 
#    z 0.003600 0.000000 1.779650 
# 
# From -- ./inp_files/280987.got.cif
#   From: 2010.06.25/outbox.cif.g09.slc.cpg/sg12_141_cif.got.tgz:280987.got - 2010.06.28 00:19:55.
