data_PCOD8092032
_publ_section_title
;
Structure prediction by ZEFSAII (Michael W. Deem and Ramdas Pophale) SiO2 
 PCOD8092032
Probable space group: C 2/M
;
_chemical_formula_sum "Si O2"
_cell_formula_units_Z 36
_cell_length_a 14.762363
_cell_length_b 19.080720
_cell_length_c 9.151280
_cell_angle_alpha 90.000000
_cell_angle_beta 50.565582
_cell_angle_gamma 90.000000
_cell_volume 1990.892637
_symmetry_space_group_name_H-M "C 2/M"
_symmetry_group_IT_number 12
_symmetry_cell_setting 'monoclinic'
loop_
_space_group_symop_operation_xyz
x,y,z
-x,y,-z
-x,-y,-z
x,-y,z
1/2+x,1/2+y,z
1/2-x,1/2+y,-z
1/2-x,1/2-y,-z
1/2+x,1/2-y,z
loop_
_atom_site_type_symbol
_atom_site_label
_atom_site_fract_x
_atom_site_fract_y
_atom_site_fract_z
Si Si1 0.364143 0.421775 0.664882
Si Si2 0.200453 0.176311 0.003365
Si Si3 0.000000 0.850439 0.000000
Si Si4 0.865082 0.418791 0.649429
Si Si5 0.818447 0.919437 0.398868
O O1 0.500000 0.430254 0.500000
O O2 0.312076 0.500000 0.754373
O O3 0.344252 0.366980 0.813306
O O4 0.310307 0.387307 0.570651
O O5 0.095170 0.193212 0.996476
O O6 0.250000 0.250000 0.000000
O O7 0.304629 0.130420 0.829381
O O8 0.071382 0.896055 0.810637
O O9 0.850172 0.500000 0.711615
O O10 0.804898 0.405078 0.554300
O O11 0.000000 0.397053 0.500000
O O12 0.843295 0.000000 0.400544
#
# Coordination Sequence:
#
# PCOD8092032 Si02
#       5
#     8   8   4   8   8
#     4  10  19  34  58  88 113 136 175 235 285 320
#     4  11  23  38  55  81 113 148 183 223 275 329
#     4  10  19  36  54  80 109 146 184 222 270 330
#     4   9  19  38  59  80 108 147 188 223 266 327
#     4   9  17  31  58  87 110 136 178 230 279 321
#
# _framework density 18.082342000000001
#
# number of rings (size 3 to 8) (size 9 to 14) (size 15 to 20)
#    0.000    2.222    2.222    1.000    0.000    2.667 
#    4.000    2.222    0.000    5.333    0.000    0.000 
#    0.000    0.000    0.000    0.000    0.000    0.000 
#
# Total GULP energy -223060.850926 kJ/mol
# GULP energy per Si atom -12392.269496 kJ/mol
# Density = 1.804119 g / cm^3
# Si number density = 18.082342 Si / 1000 Ang^3
#
#
#
# Elastic Constant Matrix: (Units=GPa)
#
#
# Indices 1 2 3 4 5 6 
#
# 1 138.3320 51.6568 67.7017 0.0000 1.2629 0.0000
# 2 51.6568 81.9268 50.2979 0.0000 7.8281 0.0000
# 3 67.7017 50.2979 91.7556 0.0000 4.4052 0.0000
# 4 0.0000 0.0000 0.0000 -9.1127 0.0000 0.9401
# 5 1.2629 7.8281 4.4052 0.0000 37.6297 0.0000
# 6 0.0000 0.0000 0.0000 0.9401 0.0000 26.7968
#
#
#
# Elastic Compliance Matrix: (Units=1/GPa)
#
#
# Indices 1 2 3 4 5 6 
#
# 1 0.011881 -0.003289 -0.007016 0.000000 0.001107 0.000000
# 2 -0.003289 0.019577 -0.008160 0.000000 -0.003007 0.000000
# 3 -0.007016 -0.008160 0.020572 0.000000 -0.000475 0.000000
# 4 0.000000 0.000000 0.000000 -0.109342 0.000000 0.003836
# 5 0.001107 -0.003007 -0.000475 0.000000 0.027219 0.000000
# 6 0.000000 0.000000 0.000000 0.003836 0.000000 0.037183
#
#
# Mechanical properties :
#
#
# Convention : Reuss Voigt Hill
#
# Bulk Modulus (GPa) = 66.23494 72.36968 69.30231
# Shear Modulus (GPa) = 101.92546 20.55331 61.23938
#
# Velocity S-wave (km/s) = 7.51597 3.37508 5.82585
# Velocity P-wave (km/s) = 10.58437 7.43622 9.14675
#
# Compressibility (1/GPa) = 0.01509777
#
# Stress axis : x y z
#
# Youngs Moduli (GPa) = 84.16635 51.07961 48.61064
#
# Poissons Ratio (x) = 0.16803 0.34108
# Poissons Ratio (y) = 0.27686 0.39667
# Poissons Ratio (z) = 0.59055 0.41682
#
# Static dielectric constant tensor:
#      x y z
#    x 3.515630 0.000000 -0.262230 
#    y 0.000000 2.911850 0.000000 
#    z -0.262230 0.000000 2.550540 
# 
# 
# High freq. dielectric constant tensor:
#      x y z
#    x 1.720770 0.000000 0.010150 
#    y 0.000000 1.672990 0.000000 
#    z 0.010150 0.000000 1.695620 
# 
# From -- ./inp_files/48402.got.cif
#   From: 2010.06.25/outbox.cif.g09.slc.cpg/sg12_25_cif.got.tgz:48402.got - 2010.06.28 00:19:55.
