data_PCOD8092552
_publ_section_title
;
Structure prediction by ZEFSAII (Michael W. Deem and Ramdas Pophale) SiO2 
 PCOD8092552
Probable space group: C 2/M
;
_chemical_formula_sum "Si O2"
_cell_formula_units_Z 64
_cell_length_a 28.501040
_cell_length_b 8.911785
_cell_length_c 13.022123
_cell_angle_alpha 90.000000
_cell_angle_beta 86.606313
_cell_angle_gamma 90.000000
_cell_volume 3301.755690
_symmetry_space_group_name_H-M "C 2/M"
_symmetry_group_IT_number 12
_symmetry_cell_setting 'monoclinic'
loop_
_space_group_symop_operation_xyz
x,y,z
-x,y,-z
-x,-y,-z
x,-y,z
1/2+x,1/2+y,z
1/2-x,1/2+y,-z
1/2-x,1/2-y,-z
1/2+x,1/2-y,z
loop_
_atom_site_type_symbol
_atom_site_label
_atom_site_fract_x
_atom_site_fract_y
_atom_site_fract_z
Si Si1 0.549598 0.677261 0.719472
Si Si2 0.199213 0.822910 0.796244
Si Si3 0.472605 0.174942 0.608128
Si Si4 0.451721 0.322660 0.048660
Si Si5 0.306294 0.822039 0.798086
Si Si6 0.133188 0.322856 0.398750
Si Si7 0.359513 0.823062 0.374071
Si Si8 0.147850 0.823059 0.010634
O O1 0.555570 0.500000 0.705566
O O2 0.497707 0.728839 0.693375
O O3 0.557527 0.730752 0.834755
O O4 0.588050 0.761684 0.646789
O O5 0.252703 0.767842 0.797637
O O6 0.177333 0.749373 0.698315
O O7 0.194835 0.000000 0.782833
O O8 0.172217 0.769966 0.901831
O O9 0.500000 0.205573 0.500000
O O10 0.419783 0.238917 0.606478
O O11 0.473655 0.000000 0.637504
O O12 0.457044 0.500000 0.047251
O O13 0.500000 0.248947 0.000000
O O14 0.407018 0.275124 0.985585
O O15 0.333936 0.756491 0.695610
O O16 0.328488 0.759989 0.898548
O O17 0.309212 0.000000 0.801745
O O18 0.130847 0.500000 0.389172
O O19 0.154783 0.279853 0.507103
O O20 0.360269 0.000000 0.357103
O O21 0.154157 0.000000 0.024306
#
# Coordination Sequence:
#
# PCOD8092552 Si02
#       8
#     8   8   8   8   8   8   8   8
#     4  11  21  35  56  83 113 144 187 233 278 329
#     4  10  21  39  60  84 112 145 184 237 291 330
#     4  10  19  35  56  77 109 150 185 218 269 331
#     4   9  19  35  54  78 113 150 176 217 284 337
#     4  10  22  39  59  82 113 149 187 233 286 333
#     4   9  20  38  56  80 116 153 185 228 283 334
#     4  11  21  37  61  84 111 150 192 229 279 339
#     4  10  20  37  59  82 114 148 185 229 280 339
#
# _framework density 19.383627000000001
#
# number of rings (size 3 to 8) (size 9 to 14) (size 15 to 20)
#    0.000    2.000    2.500    1.125    1.750    1.750 
#    0.000    1.250    0.000    1.875    0.000    0.000 
#    0.000    0.000    0.000    0.000    0.000    0.000 
#
# Total GULP energy -396813.006020 kJ/mol
# GULP energy per Si atom -12400.406438 kJ/mol
# Density = 1.933951 g / cm^3
# Si number density = 19.383627 Si / 1000 Ang^3
#
#
#
# Elastic Constant Matrix: (Units=GPa)
#
#
# Indices 1 2 3 4 5 6 
#
# 1 149.9726 22.2562 72.5770 0.0000 3.0575 0.0000
# 2 22.2562 26.5969 30.0479 0.0000 4.2734 0.0000
# 3 72.5770 30.0479 127.6098 0.0000 14.4214 0.0000
# 4 0.0000 0.0000 0.0000 25.6854 0.0000 10.7046
# 5 3.0575 4.2734 14.4214 0.0000 37.2255 0.0000
# 6 0.0000 0.0000 0.0000 10.7046 0.0000 21.5940
#
#
#
# Elastic Compliance Matrix: (Units=1/GPa)
#
#
# Indices 1 2 3 4 5 6 
#
# 1 0.009388 -0.002549 -0.004900 0.000000 0.001420 0.000000
# 2 -0.002549 0.051974 -0.010602 0.000000 -0.001650 0.000000
# 3 -0.004900 -0.010602 0.013529 0.000000 -0.003622 0.000000
# 4 0.000000 0.000000 0.000000 0.049070 0.000000 -0.024325
# 5 0.001420 -0.001650 -0.003622 0.000000 0.028339 0.000000
# 6 0.000000 0.000000 0.000000 -0.024325 0.000000 0.058367
#
#
# Mechanical properties :
#
#
# Convention : Reuss Voigt Hill
#
# Bulk Modulus (GPa) = 25.77994 61.54907 43.66450
# Shear Modulus (GPa) = 19.25301 28.85419 24.05360
#
# Velocity S-wave (km/s) = 3.15502 3.86241 3.52650
# Velocity P-wave (km/s) = 5.15761 7.19117 6.25755
#
# Compressibility (1/GPa) = 0.03878985
#
# Stress axis : x y z
#
# Youngs Moduli (GPa) = 106.51454 19.24038 73.91571
#
# Poissons Ratio (x) = 0.04904 0.36218
# Poissons Ratio (y) = 0.27147 0.78367
# Poissons Ratio (z) = 0.52191 0.20399
#
# Static dielectric constant tensor:
#      x y z
#    x 3.845390 0.000000 -0.107820 
#    y 0.000000 3.204610 0.000000 
#    z -0.107820 0.000000 3.695540 
# 
# 
# High freq. dielectric constant tensor:
#      x y z
#    x 1.766370 0.000000 0.005210 
#    y 0.000000 1.723270 0.000000 
#    z 0.005210 0.000000 1.764550 
# 
# From -- ./inp_files/187480.got.cif
#   From: 2010.06.25/outbox.cif.g09.slc.cpg/sg12_94_cif.got.tgz:187480.got - 2010.06.28 00:19:55.
