data_PCOD8092402
_publ_section_title
;
Structure prediction by ZEFSAII (Michael W. Deem and Ramdas Pophale) SiO2 
 PCOD8092402
Probable space group: C 2/M
;
_chemical_formula_sum "Si O2"
_cell_formula_units_Z 64
_cell_length_a 14.771067
_cell_length_b 8.959692
_cell_length_c 30.170921
_cell_angle_alpha 90.000000
_cell_angle_beta 60.416683
_cell_angle_gamma 90.000000
_cell_volume 3472.421064
_symmetry_space_group_name_H-M "C 2/M"
_symmetry_group_IT_number 12
_symmetry_cell_setting 'monoclinic'
loop_
_space_group_symop_operation_xyz
x,y,z
-x,y,-z
-x,-y,-z
x,-y,z
1/2+x,1/2+y,z
1/2-x,1/2+y,-z
1/2-x,1/2-y,-z
1/2+x,1/2-y,z
loop_
_atom_site_type_symbol
_atom_site_label
_atom_site_fract_x
_atom_site_fract_y
_atom_site_fract_z
Si Si1 0.780742 0.325005 0.369504
Si Si2 0.441512 0.824709 0.810453
Si Si3 0.950139 0.175993 0.556451
Si Si4 0.168803 0.675989 0.075599
Si Si5 0.677060 0.173069 0.742342
Si Si6 0.966436 0.175492 0.370508
Si Si7 0.869758 0.323337 0.733441
Si Si8 0.900529 0.175635 0.995336
O O1 0.792770 0.500000 0.376331
O O2 0.665821 0.263074 0.407138
O O3 0.812813 0.288330 0.311716
O O4 0.854145 0.233556 0.384248
O O5 0.377562 0.758536 0.867402
O O6 0.562429 0.785592 0.786740
O O7 0.399386 0.757822 0.774502
O O8 0.423971 0.000000 0.813079
O O9 0.021145 0.218935 0.581037
O O10 0.000000 0.247828 0.500000
O O11 0.942432 0.000000 0.552760
O O12 0.152627 0.500000 0.075458
O O13 0.102124 0.748444 0.052110
O O14 0.291474 0.717487 0.045658
O O15 0.751590 0.277782 0.752869
O O16 0.704800 0.000000 0.743797
O O17 0.057219 0.252117 0.320991
O O18 0.976503 0.000000 0.360486
O O19 0.884373 0.500000 0.727882
O O20 0.910839 0.000000 0.985570
O O21 0.000000 0.233866 0.000000
#
# Coordination Sequence:
#
# PCOD8092402 Si02
#       8
#     8   8   8   8   8   8   8   8
#     4  10  19  35  57  78 104 141 176 214 266 320
#     4   9  19  35  53  74 108 143 174 213 265 321
#     4   9  19  36  56  77 105 141 176 215 270 325
#     4   9  18  34  54  76 103 141 180 216 260 313
#     4  10  19  35  54  76 104 140 178 215 262 316
#     4  11  21  35  56  81 106 137 179 221 262 316
#     4  11  21  35  55  80 107 141 179 217 265 320
#     4   9  18  33  54  78 106 139 175 219 269 312
#
# _framework density 18.430944
#
# number of rings (size 3 to 8) (size 9 to 14) (size 15 to 20)
#    0.000    2.250    2.500    0.750    0.000    2.250 
#    0.000    3.125    0.000    2.625    0.000    0.000 
#    0.000    0.000    0.000    0.000    0.000    0.000 
#
# Total GULP energy -396798.712365 kJ/mol
# GULP energy per Si atom -12399.959761 kJ/mol
# Density = 1.838899 g / cm^3
# Si number density = 18.430944 Si / 1000 Ang^3
#
#
#
# Elastic Constant Matrix: (Units=GPa)
#
#
# Indices 1 2 3 4 5 6 
#
# 1 107.1628 29.1268 25.0640 0.0000 3.6766 0.0000
# 2 29.1268 38.0880 21.9344 0.0000 5.8317 0.0000
# 3 25.0640 21.9344 108.6225 0.0000 -1.0727 0.0000
# 4 0.0000 0.0000 0.0000 15.6537 0.0000 3.2766
# 5 3.6766 5.8317 -1.0727 0.0000 26.2199 0.0000
# 6 0.0000 0.0000 0.0000 3.2766 0.0000 33.3099
#
#
#
# Elastic Compliance Matrix: (Units=1/GPa)
#
#
# Indices 1 2 3 4 5 6 
#
# 1 0.011881 -0.008529 -0.001017 0.000000 0.000189 0.000000
# 2 -0.008529 0.037118 -0.005599 0.000000 -0.007289 0.000000
# 3 -0.001017 -0.005599 0.010590 0.000000 0.001821 0.000000
# 4 0.000000 0.000000 0.000000 0.065225 0.000000 -0.006416
# 5 0.000189 -0.007289 0.001821 0.000000 0.039808 0.000000
# 6 0.000000 0.000000 0.000000 -0.006416 0.000000 0.030652
#
#
# Mechanical properties :
#
#
# Convention : Reuss Voigt Hill
#
# Bulk Modulus (GPa) = 34.13268 45.12486 39.62877
# Shear Modulus (GPa) = 21.24666 26.88659 24.06662
#
# Velocity S-wave (km/s) = 3.39893 3.82353 3.61747
# Velocity P-wave (km/s) = 5.82778 6.63543 6.24468
#
# Compressibility (1/GPa) = 0.02929744
#
# Stress axis : x y z
#
# Youngs Moduli (GPa) = 84.16650 26.94132 94.43226
#
# Poissons Ratio (x) = 0.22978 0.09607
# Poissons Ratio (y) = 0.71785 0.52875
# Poissons Ratio (z) = 0.08563 0.15085
#
# Static dielectric constant tensor:
#      x y z
#    x 3.594010 0.000000 -0.001410 
#    y 0.000000 3.131740 0.000000 
#    z -0.001410 0.000000 3.635360 
# 
# 
# High freq. dielectric constant tensor:
#      x y z
#    x 1.726810 0.000000 -0.000700 
#    y 0.000000 1.687000 0.000000 
#    z -0.000700 0.000000 1.717960 
# 
# From -- ./inp_files/375031.got.cif
#   From: 2010.06.25/outbox.cif.g09.slc.cpg/sg12_188_cif.got.tgz:375031.got - 2010.06.28 00:19:55.
