data_PCOD8092245
_publ_section_title
;
Structure prediction by ZEFSAII (Michael W. Deem and Ramdas Pophale) SiO2 
 PCOD8092245
Probable space group: C 2/M
;
_chemical_formula_sum "Si O2"
_cell_formula_units_Z 56
_cell_length_a 18.871188
_cell_length_b 8.783277
_cell_length_c 26.719420
_cell_angle_alpha 90.000000
_cell_angle_beta 41.817547
_cell_angle_gamma 90.000000
_cell_volume 2952.928077
_symmetry_space_group_name_H-M "C 2/M"
_symmetry_group_IT_number 12
_symmetry_cell_setting 'monoclinic'
loop_
_space_group_symop_operation_xyz
x,y,z
-x,y,-z
-x,-y,-z
x,-y,z
1/2+x,1/2+y,z
1/2-x,1/2+y,-z
1/2-x,1/2-y,-z
1/2+x,1/2-y,z
loop_
_atom_site_type_symbol
_atom_site_label
_atom_site_fract_x
_atom_site_fract_y
_atom_site_fract_z
Si Si1 0.574798 0.174775 0.809221
Si Si2 0.230495 0.817684 0.565208
Si Si3 0.019401 0.178555 0.736500
Si Si4 0.122579 0.832202 0.432370
Si Si5 0.913148 0.679372 0.085661
Si Si6 0.186104 0.671546 0.199811
Si Si7 0.211558 0.330242 0.298502
O O1 0.522996 0.273109 0.792687
O O2 0.540812 0.225346 0.883568
O O3 0.700082 0.201158 0.741889
O O4 0.546548 0.000000 0.813968
O O5 0.250000 0.750000 0.500000
O O6 0.326834 0.752820 0.547011
O O7 0.118773 0.762236 0.650110
O O8 0.234839 0.000000 0.560421
O O9 0.905675 0.234308 0.777971
O O10 0.020342 0.000000 0.733412
O O11 0.126043 0.717395 0.383923
O O12 0.000000 0.862715 0.500000
O O13 0.176955 0.000000 0.397102
O O14 0.892054 0.500000 0.094753
O O15 0.802919 0.759992 0.129585
O O16 0.000000 0.733324 0.000000
O O17 0.186150 0.500000 0.178701
O O18 0.156965 0.674492 0.273507
O O19 0.257540 0.500000 0.285222
#
# Coordination Sequence:
#
# PCOD8092245 Si02
#       7
#     8   8   8   8   8   8   8
#     4  10  19  34  60  87 113 150 190 231 281 341
#     4  11  25  42  60  83 115 155 198 246 300 350
#     4  11  23  39  59  84 117 155 196 243 291 345
#     4  11  24  39  57  82 112 147 192 242 292 347
#     4   9  19  38  63  91 122 154 189 233 286 344
#     4  10  22  37  58  88 118 151 194 239 286 343
#     4  10  20  36  56  81 110 145 189 237 286 339
#
# _framework density 18.964227000000001
#
# number of rings (size 3 to 8) (size 9 to 14) (size 15 to 20)
#    0.000    1.714    1.429    2.571    2.000    5.429 
#    0.000    0.714    0.000    0.000    0.000    0.000 
#    0.000    0.000    0.000    0.000    0.000    0.000 
#
# Total GULP energy -347004.855838 kJ/mol
# GULP energy per Si atom -12393.030566 kJ/mol
# Density = 1.892106 g / cm^3
# Si number density = 18.964227 Si / 1000 Ang^3
#
#
#
# Elastic Constant Matrix: (Units=GPa)
#
#
# Indices 1 2 3 4 5 6 
#
# 1 120.9665 49.8600 67.6231 0.0001 3.9723 -0.0007
# 2 49.8600 77.8348 44.5568 0.0001 7.1931 -0.0012
# 3 67.6231 44.5568 117.4353 0.0000 17.1905 -0.0001
# 4 0.0001 0.0001 0.0000 24.7493 0.0001 2.0009
# 5 3.9723 7.1931 17.1905 0.0001 23.0066 0.0000
# 6 -0.0007 -0.0012 -0.0001 2.0009 0.0000 27.1028
#
#
#
# Elastic Compliance Matrix: (Units=1/GPa)
#
#
# Indices 1 2 3 4 5 6 
#
# 1 0.014176 -0.005678 -0.006636 0.000000 0.004286 0.000000
# 2 -0.005678 0.018693 -0.003493 0.000000 -0.002254 0.000001
# 3 -0.006636 -0.003493 0.014972 0.000000 -0.008949 0.000000
# 4 0.000000 0.000000 0.000000 0.040648 0.000000 -0.003001
# 5 0.004286 -0.002254 -0.008949 0.000000 0.050117 0.000000
# 6 0.000000 0.000001 0.000000 -0.003001 0.000000 0.037118
#
#
# Mechanical properties :
#
#
# Convention : Reuss Voigt Hill
#
# Bulk Modulus (GPa) = 61.62660 71.14626 66.38643
# Shear Modulus (GPa) = 23.50207 25.25152 24.37680
#
# Velocity S-wave (km/s) = 3.52417 3.65298 3.58915
# Velocity P-wave (km/s) = 7.00903 7.44243 7.22898
#
# Compressibility (1/GPa) = 0.01622676
#
# Stress axis : x y z
#
# Youngs Moduli (GPa) = 70.54046 53.49625 66.79246
#
# Poissons Ratio (x) = 0.30377 0.44324
# Poissons Ratio (y) = 0.40056 0.23328
# Poissons Ratio (z) = 0.46811 0.18684
#
# Static dielectric constant tensor:
#      x y z
#    x 3.565230 0.000000 0.290080 
#    y 0.000000 3.647020 0.000000 
#    z 0.290080 0.000000 3.560960 
# 
# 
# High freq. dielectric constant tensor:
#      x y z
#    x 1.739060 0.000000 0.012220 
#    y 0.000000 1.751670 0.000000 
#    z 0.012220 0.000000 1.724750 
# 
# From -- ./inp_files/342256.got.cif
#   From: 2010.06.25/outbox.cif.g09.slc.cpg/sg12_172_cif.got.tgz:342256.got - 2010.06.28 00:19:55.
