data_PCOD8092325
_publ_section_title
;
Structure prediction by ZEFSAII (Michael W. Deem and Ramdas Pophale) SiO2 
 PCOD8092325
Probable space group: C 2/M
;
_chemical_formula_sum "Si O2"
_cell_formula_units_Z 56
_cell_length_a 9.543469
_cell_length_b 20.949852
_cell_length_c 17.544792
_cell_angle_alpha 90.000000
_cell_angle_beta 48.127220
_cell_angle_gamma 90.000000
_cell_volume 2612.012445
_symmetry_space_group_name_H-M "C 2/M"
_symmetry_group_IT_number 12
_symmetry_cell_setting 'monoclinic'
loop_
_space_group_symop_operation_xyz
x,y,z
-x,y,-z
-x,-y,-z
x,-y,z
1/2+x,1/2+y,z
1/2-x,1/2+y,-z
1/2-x,1/2-y,-z
1/2+x,1/2-y,z
loop_
_atom_site_type_symbol
_atom_site_label
_atom_site_fract_x
_atom_site_fract_y
_atom_site_fract_z
Si Si1 0.848061 0.571177 0.609685
Si Si2 0.175325 0.168065 0.103408
Si Si3 0.590700 0.877781 0.253006
Si Si4 0.293398 0.429037 0.040637
Si Si5 0.937608 0.070332 0.730620
Si Si6 0.188778 0.924953 0.388233
Si Si7 0.121858 0.776355 0.890153
O O1 0.922643 0.500000 0.601666
O O2 0.809741 0.605493 0.703628
O O3 0.657732 0.568797 0.630033
O O4 0.000000 0.606377 0.500000
O O5 0.084675 0.119969 0.194699
O O6 0.338448 0.205988 0.089658
O O7 0.017905 0.220020 0.132159
O O8 0.255760 0.124985 0.004761
O O9 0.646587 0.925066 0.164208
O O10 0.366223 0.881644 0.349625
O O11 0.676012 0.808583 0.199880
O O12 0.270972 0.500000 0.012751
O O13 0.500000 0.420522 0.000000
O O14 0.828051 0.090209 0.694881
O O15 0.871799 0.000000 0.782020
O O16 0.000000 0.902103 0.500000
O O17 0.224843 0.000000 0.391208
O O18 0.000000 0.813321 0.000000
#
# Coordination Sequence:
#
# PCOD8092325 Si02
#       7
#     8   8   8   8   8   8   8
#     4  10  19  34  62  95 124 160 211 271 325 379
#     4  12  24  43  64  95 132 172 220 265 320 384
#     4  12  21  39  63  94 128 172 217 258 315 385
#     4  11  21  37  63  98 136 165 205 267 326 383
#     4  10  21  39  63  93 131 167 208 269 332 385
#     4  10  22  39  61  95 134 170 210 264 331 393
#     4  12  26  43  65  93 128 173 224 265 311 382
#
# _framework density 21.439406999999999
#
# number of rings (size 3 to 8) (size 9 to 14) (size 15 to 20)
#    0.000    1.000    4.286    3.000    2.000    4.571 
#    0.000    0.000    0.000    8.571    0.000    0.000 
#    0.000    0.000    0.000    0.000    0.000    0.000 
#
# Total GULP energy -346944.764857 kJ/mol
# GULP energy per Si atom -12390.884459 kJ/mol
# Density = 2.139061 g / cm^3
# Si number density = 21.439407 Si / 1000 Ang^3
#
#
#
# Elastic Constant Matrix: (Units=GPa)
#
#
# Indices 1 2 3 4 5 6 
#
# 1 79.7533 33.6043 17.3867 0.0000 -0.3589 0.0000
# 2 33.6043 87.8780 29.9963 0.0000 10.1390 0.0000
# 3 17.3867 29.9963 104.3350 -0.0002 -7.3930 0.0001
# 4 0.0000 0.0000 -0.0002 20.5007 0.0000 0.8260
# 5 -0.3589 10.1390 -7.3930 0.0000 36.3373 0.0000
# 6 0.0000 0.0000 0.0001 0.8260 0.0000 36.8661
#
#
#
# Elastic Compliance Matrix: (Units=1/GPa)
#
#
# Indices 1 2 3 4 5 6 
#
# 1 0.015115 -0.005701 -0.000768 0.000000 0.001584 0.000000
# 2 -0.005701 0.015474 -0.003864 0.000000 -0.005160 0.000000
# 3 -0.000768 -0.003864 0.011059 0.000000 0.003321 0.000000
# 4 0.000000 0.000000 0.000000 0.048823 0.000000 -0.001094
# 5 0.001584 -0.005160 0.003321 0.000000 0.029651 0.000000
# 6 0.000000 0.000000 0.000000 -0.001094 0.000000 0.027150
#
#
# Mechanical properties :
#
#
# Convention : Reuss Voigt Hill
#
# Bulk Modulus (GPa) = 47.65942 48.21568 47.93755
# Shear Modulus (GPa) = 28.58277 31.47276 30.02776
#
# Velocity S-wave (km/s) = 3.65525 3.83559 3.74650
# Velocity P-wave (km/s) = 6.33187 6.49259 6.41273
#
# Compressibility (1/GPa) = 0.02098221
#
# Stress axis : x y z
#
# Youngs Moduli (GPa) = 66.15879 64.62562 90.42633
#
# Poissons Ratio (x) = 0.36841 0.06942
# Poissons Ratio (y) = 0.37715 0.34944
# Poissons Ratio (z) = 0.05079 0.24974
#
# Static dielectric constant tensor:
#      x y z
#    x 3.880450 0.000000 -0.004500 
#    y 0.000000 3.651480 0.000000 
#    z -0.004500 0.000000 3.879470 
# 
# 
# High freq. dielectric constant tensor:
#      x y z
#    x 1.847810 0.000000 0.001150 
#    y 0.000000 1.812690 0.000000 
#    z 0.001150 0.000000 1.840210 
# 
# From -- ./inp_files/259127.got.cif
#   From: 2010.06.25/outbox.cif.g09.slc.cpg/sg12_130_cif.got.tgz:259127.got - 2010.06.28 00:19:55.
