data_PCOD8092825
_publ_section_title
;
Structure prediction by ZEFSAII (Michael W. Deem and Ramdas Pophale) SiO2 
 PCOD8092825
Probable space group: C 2/M
;
_chemical_formula_sum "Si O2"
_cell_formula_units_Z 48
_cell_length_a 20.554558
_cell_length_b 8.899662
_cell_length_c 15.195036
_cell_angle_alpha 90.000000
_cell_angle_beta 111.135332
_cell_angle_gamma 90.000000
_cell_volume 2592.626574
_symmetry_space_group_name_H-M "C 2/M"
_symmetry_group_IT_number 12
_symmetry_cell_setting 'monoclinic'
loop_
_space_group_symop_operation_xyz
x,y,z
-x,y,-z
-x,-y,-z
x,-y,z
1/2+x,1/2+y,z
1/2-x,1/2+y,-z
1/2-x,1/2-y,-z
1/2+x,1/2-y,z
loop_
_atom_site_type_symbol
_atom_site_label
_atom_site_fract_x
_atom_site_fract_y
_atom_site_fract_z
Si Si1 0.903187 0.677995 0.890567
Si Si2 0.939140 0.677844 0.285204
Si Si3 0.346864 0.325744 0.382072
Si Si4 0.946904 0.321731 0.094700
Si Si5 0.312215 0.822598 0.688815
Si Si6 0.414369 0.324466 0.600563
O O1 0.906000 0.500000 0.893997
O O2 0.838771 0.730983 0.798565
O O3 0.974564 0.739164 0.881808
O O4 0.897916 0.736797 0.989687
O O5 0.946651 0.500000 0.293224
O O6 0.876633 0.730564 0.316179
O O7 0.920495 0.734321 0.176969
O O8 0.011917 0.746538 0.350903
O O9 0.349758 0.500000 0.357317
O O10 0.267687 0.273805 0.359934
O O11 0.391684 0.291698 0.489986
O O12 0.948228 0.500000 0.094479
O O13 0.355698 0.740270 0.635427
O O14 0.322651 0.000000 0.681149
O O15 0.422313 0.500000 0.622737
#
# Coordination Sequence:
#
# PCOD8092825 Si02
#       6
#     8   8   8   8   8   8
#     4   8  13  26  51  79 103 127 164 214 259 304
#     4  11  21  35  56  80 104 136 180 219 253 306
#     4  10  23  38  51  74 110 145 172 210 266 314
#     4   8  14  26  49  80 104 126 165 215 260 300
#     4  10  19  35  58  80 103 136 179 215 252 312
#     4  11  22  36  54  76 106 140 175 218 265 307
#
# _framework density 18.514043000000001
#
# number of rings (size 3 to 8) (size 9 to 14) (size 15 to 20)
#    0.000    2.333    1.667    3.000    0.000    4.000 
#    0.000    0.833    0.000    3.000    0.000    0.000 
#    0.000    0.000    0.000    0.000    0.000    0.000 
#
# Total GULP energy -297486.521093 kJ/mol
# GULP energy per Si atom -12395.271712 kJ/mol
# Density = 1.847190 g / cm^3
# Si number density = 18.514043 Si / 1000 Ang^3
#
#
#
# Elastic Constant Matrix: (Units=GPa)
#
#
# Indices 1 2 3 4 5 6 
#
# 1 70.1955 24.4693 28.3398 0.0000 -14.1567 0.0000
# 2 24.4693 41.5806 35.9170 0.0000 -4.1700 0.0000
# 3 28.3398 35.9170 92.4752 0.0000 -26.0442 0.0000
# 4 0.0000 0.0000 0.0000 5.3593 0.0000 -0.3623
# 5 -14.1567 -4.1700 -26.0442 0.0000 17.9988 0.0000
# 6 0.0000 0.0000 0.0000 -0.3623 0.0000 29.0639
#
#
#
# Elastic Compliance Matrix: (Units=1/GPa)
#
#
# Indices 1 2 3 4 5 6 
#
# 1 0.021654 -0.015054 0.005106 0.000000 0.020933 0.000000
# 2 -0.015054 0.051592 -0.025981 0.000000 -0.037482 0.000000
# 3 0.005106 -0.025981 0.031690 0.000000 0.043852 0.000000
# 4 0.000000 0.000000 0.000000 0.186748 0.000000 0.002328
# 5 0.020933 -0.037482 0.043852 0.000000 0.126794 0.000000
# 6 0.000000 0.000000 0.000000 0.002328 0.000000 0.034436
#
#
# Mechanical properties :
#
#
# Convention : Reuss Voigt Hill
#
# Bulk Modulus (GPa) = 30.23145 42.41149 36.32147
# Shear Modulus (GPa) = 9.33189 18.18609 13.75899
#
# Velocity S-wave (km/s) = 2.24753 3.13754 2.72906
# Velocity P-wave (km/s) = 4.80620 6.00692 5.43979
#
# Compressibility (1/GPa) = 0.03307814
#
# Stress axis : x y z
#
# Youngs Moduli (GPa) = 46.18149 19.38288 31.55570
#
# Poissons Ratio (x) = 0.29180 -0.16114
# Poissons Ratio (y) = 0.69523 0.81984
# Poissons Ratio (z) = -0.23582 0.50358
#
# Static dielectric constant tensor:
#      x y z
#    x 3.333690 0.000000 -0.000610 
#    y 0.000000 3.119980 0.000000 
#    z -0.000610 0.000000 4.050530 
# 
# 
# High freq. dielectric constant tensor:
#      x y z
#    x 1.702770 0.000000 -0.003440 
#    y 0.000000 1.686000 0.000000 
#    z -0.003440 0.000000 1.741820 
# 
# From -- ./inp_files/229966.got.cif
#   From: 2010.06.25/outbox.cif.g09.slc.cpg/sg12_115_cif.got.tgz:229966.got - 2010.06.28 00:19:55.
