data_PCOD8092057
_publ_section_title
;
Structure prediction by ZEFSAII (Michael W. Deem and Ramdas Pophale) SiO2 
 PCOD8092057
Probable space group: C 2/M
;
_chemical_formula_sum "Si O2"
_cell_formula_units_Z 40
_cell_length_a 30.007437
_cell_length_b 10.534803
_cell_length_c 13.258717
_cell_angle_alpha 90.000000
_cell_angle_beta 27.206547
_cell_angle_gamma 90.000000
_cell_volume 1916.296125
_symmetry_space_group_name_H-M "C 2/M"
_symmetry_group_IT_number 12
_symmetry_cell_setting 'monoclinic'
loop_
_space_group_symop_operation_xyz
x,y,z
-x,y,-z
-x,-y,-z
x,-y,z
1/2+x,1/2+y,z
1/2-x,1/2+y,-z
1/2-x,1/2-y,-z
1/2+x,1/2-y,z
loop_
_atom_site_type_symbol
_atom_site_label
_atom_site_fract_x
_atom_site_fract_y
_atom_site_fract_z
Si Si1 0.658706 0.138859 0.513777
Si Si2 0.898456 0.356133 0.159721
Si Si3 0.231069 0.858098 0.119546
Si Si4 0.946461 0.856933 0.386064
Si Si5 0.653793 0.734179 0.944924
O O1 0.679921 0.156424 0.590909
O O2 0.585302 0.250928 0.630131
O O3 0.608704 0.000000 0.597363
O O4 0.757050 0.136648 0.249791
O O5 0.911160 0.500000 0.098471
O O6 0.866363 0.281222 0.126561
O O7 0.000000 0.303198 0.000000
O O8 0.119339 0.843065 0.381503
O O9 0.246191 0.000000 0.043907
O O10 0.250000 0.750000 0.000000
O O11 0.307337 0.843846 0.058577
O O12 0.060216 0.833830 0.183134
O O13 0.933495 0.000000 0.367885
#
# Coordination Sequence:
#
# PCOD8092057 Si02
#       5
#     8   8   8   8   8
#     4  10  21  37  59  89 125 166 206 243 287 350
#     4  10  19  34  58  89 127 166 201 242 293 351
#     4  10  24  44  65  89 119 156 199 252 307 364
#     4  10  22  40  62  91 124 157 196 249 305 357
#     4  11  21  38  63  91 121 159 204 248 299 353
#
# _framework density 20.873601000000001
#
# number of rings (size 3 to 8) (size 9 to 14) (size 15 to 20)
#    0.000    1.800    2.000    1.800    0.000    6.400 
#    0.000    6.000    0.000    0.000    0.000    0.000 
#    0.000    0.000    0.000    0.000    0.000    0.000 
#
# Total GULP energy -247821.179895 kJ/mol
# GULP energy per Si atom -12391.058995 kJ/mol
# Density = 2.082609 g / cm^3
# Si number density = 20.873601 Si / 1000 Ang^3
#
#
#
# Elastic Constant Matrix: (Units=GPa)
#
#
# Indices 1 2 3 4 5 6 
#
# 1 62.6363 36.8864 28.5852 0.0000 4.1565 0.0000
# 2 36.8864 147.0825 53.1074 0.0000 9.0868 0.0000
# 3 28.5852 53.1074 132.0642 0.0000 -6.9988 0.0000
# 4 0.0000 0.0000 0.0000 21.0841 0.0000 3.7001
# 5 4.1565 9.0868 -6.9988 0.0000 28.3644 0.0000
# 6 0.0000 0.0000 0.0000 3.7001 0.0000 28.1085
#
#
#
# Elastic Compliance Matrix: (Units=1/GPa)
#
#
# Indices 1 2 3 4 5 6 
#
# 1 0.019637 -0.003740 -0.002873 0.000000 -0.002389 0.000000
# 2 -0.003740 0.009000 -0.002972 0.000000 -0.003068 0.000000
# 3 -0.002873 -0.002972 0.009587 0.000000 0.003739 0.000000
# 4 0.000000 0.000000 0.000000 0.048551 0.000000 -0.006391
# 5 -0.002389 -0.003068 0.003739 0.000000 0.037511 0.000000
# 6 0.000000 0.000000 0.000000 -0.006391 0.000000 0.036418
#
#
# Mechanical properties :
#
#
# Convention : Reuss Voigt Hill
#
# Bulk Modulus (GPa) = 52.48265 64.32676 58.40471
# Shear Modulus (GPa) = 26.84924 30.39167 28.62045
#
# Velocity S-wave (km/s) = 3.59036 3.81988 3.70690
# Velocity P-wave (km/s) = 6.51040 7.09503 6.80899
#
# Compressibility (1/GPa) = 0.01905392
#
# Stress axis : x y z
#
# Youngs Moduli (GPa) = 50.92357 111.11697 104.30458
#
# Poissons Ratio (x) = 0.41555 0.29968
# Poissons Ratio (y) = 0.19044 0.31001
# Poissons Ratio (z) = 0.14631 0.33026
#
# Static dielectric constant tensor:
#      x y z
#    x 3.534360 0.000000 -0.062000 
#    y 0.000000 3.771570 0.000000 
#    z -0.062000 0.000000 4.140920 
# 
# 
# High freq. dielectric constant tensor:
#      x y z
#    x 1.788690 0.000000 0.003920 
#    y 0.000000 1.817610 0.000000 
#    z 0.003920 0.000000 1.833780 
# 
# From -- ./inp_files/182715.got.cif
#   From: 2010.06.25/outbox.cif.g09.slc.cpg/sg12_92_cif.got.tgz:182715.got - 2010.06.28 00:19:55.
