data_PCOD8092066
_publ_section_title
;
Structure prediction by ZEFSAII (Michael W. Deem and Ramdas Pophale) SiO2 
 PCOD8092066
Probable space group: C 2/M
;
_chemical_formula_sum "Si O2"
_cell_formula_units_Z 56
_cell_length_a 15.502480
_cell_length_b 21.522639
_cell_length_c 8.585851
_cell_angle_alpha 90.000000
_cell_angle_beta 108.743210
_cell_angle_gamma 90.000000
_cell_volume 2712.785472
_symmetry_space_group_name_H-M "C 2/M"
_symmetry_group_IT_number 12
_symmetry_cell_setting 'monoclinic'
loop_
_space_group_symop_operation_xyz
x,y,z
-x,y,-z
-x,-y,-z
x,-y,z
1/2+x,1/2+y,z
1/2-x,1/2+y,-z
1/2-x,1/2-y,-z
1/2+x,1/2-y,z
loop_
_atom_site_type_symbol
_atom_site_label
_atom_site_fract_x
_atom_site_fract_y
_atom_site_fract_z
Si Si1 0.908131 0.864694 0.887008
Si Si2 0.901953 0.268168 0.002064
Si Si3 0.413543 0.299328 0.559452
Si Si4 0.102088 0.344715 0.404615
Si Si5 0.241319 0.927935 0.016061
Si Si6 0.752579 0.658179 0.741817
Si Si7 0.098714 0.361601 0.747814
O O1 0.902015 0.805765 0.000462
O O2 0.912073 0.845874 0.707219
O O3 0.822615 0.908573 0.875522
O O4 0.000000 0.899508 0.000000
O O5 0.813549 0.288572 0.855039
O O6 0.888858 0.293062 0.169748
O O7 0.000000 0.295450 0.000000
O O8 0.500000 0.311947 0.500000
O O9 0.413337 0.229607 0.628393
O O10 0.326290 0.309845 0.401920
O O11 0.177707 0.375008 0.337494
O O12 0.138491 0.356776 0.598670
O O13 0.007474 0.380375 0.317631
O O14 0.345829 0.912585 0.121319
O O15 0.230659 0.000000 0.975111
O O16 0.213876 0.891534 0.842406
#
# Coordination Sequence:
#
# PCOD8092066 Si02
#       7
#     8   8   8   8   8   8   8
#     4  11  23  40  65  94 129 170 212 265 334 394
#     4  10  19  34  58  97 130 163 200 255 325 405
#     4  12  23  37  62 105 143 162 199 258 336 418
#     4  11  20  37  61 100 137 165 197 256 335 404
#     4  11  27  46  63  86 124 176 239 277 302 365
#     4  11  23  38  64  91 133 173 214 260 332 381
#     4  10  21  36  65  91 134 170 200 264 323 389
#
# _framework density 20.642987999999999
#
# number of rings (size 3 to 8) (size 9 to 14) (size 15 to 20)
#    0.000    1.143    4.286    3.000    4.000    1.429 
#    0.000    5.714    0.000    1.714    0.000    0.000 
#    0.000    0.000    0.000    0.000    0.000    0.000 
#
# Total GULP energy -347103.013493 kJ/mol
# GULP energy per Si atom -12396.536196 kJ/mol
# Density = 2.059600 g / cm^3
# Si number density = 20.642988 Si / 1000 Ang^3
#
#
#
# Elastic Constant Matrix: (Units=GPa)
#
#
# Indices 1 2 3 4 5 6 
#
# 1 113.2785 30.4290 43.3074 0.0000 0.9146 0.0000
# 2 30.4290 58.4601 12.3889 0.0000 -0.3398 0.0000
# 3 43.3074 12.3889 105.1450 0.0000 7.7967 0.0000
# 4 0.0000 0.0000 0.0000 13.5920 0.0000 -0.7090
# 5 0.9146 -0.3398 7.7967 0.0000 46.7414 0.0000
# 6 0.0000 0.0000 0.0000 -0.7090 0.0000 13.1542
#
#
#
# Elastic Compliance Matrix: (Units=1/GPa)
#
#
# Indices 1 2 3 4 5 6 
#
# 1 0.011887 -0.005272 -0.004308 0.000000 0.000448 0.000000
# 2 -0.005272 0.019892 -0.000193 0.000000 0.000280 0.000000
# 3 -0.004308 -0.000193 0.011443 0.000000 -0.001826 0.000000
# 4 0.000000 0.000000 0.000000 0.073780 0.000000 0.003977
# 5 0.000448 0.000280 -0.001826 0.000000 0.021692 0.000000
# 6 0.000000 0.000000 0.000000 0.003977 0.000000 0.076236
#
#
# Mechanical properties :
#
#
# Convention : Reuss Voigt Hill
#
# Bulk Modulus (GPa) = 42.23623 49.90382 46.07002
# Shear Modulus (GPa) = 20.62961 27.41474 24.02217
#
# Velocity S-wave (km/s) = 3.16468 3.64818 3.41500
# Velocity P-wave (km/s) = 5.81879 6.47865 6.15756
#
# Compressibility (1/GPa) = 0.02367636
#
# Stress axis : x y z
#
# Youngs Moduli (GPa) = 84.12252 50.27060 87.38719
#
# Poissons Ratio (x) = 0.26502 0.37649
# Poissons Ratio (y) = 0.44349 0.01688
# Poissons Ratio (z) = 0.36242 0.00971
#
# Static dielectric constant tensor:
#      x y z
#    x 4.162350 0.000000 -0.086460 
#    y 0.000000 3.090880 0.000000 
#    z -0.086460 0.000000 4.046040 
# 
# 
# High freq. dielectric constant tensor:
#      x y z
#    x 1.827300 0.000000 0.001860 
#    y 0.000000 1.732530 0.000000 
#    z 0.001860 0.000000 1.832470 
# 
# From -- ./inp_files/65464.got.cif
#   From: 2010.06.25/outbox.cif.g09.slc.cpg/sg12_33_cif.got.tgz:65464.got - 2010.06.28 00:19:55.
