data_PCOD8092927
_publ_section_title
;
Structure prediction by ZEFSAII (Michael W. Deem and Ramdas Pophale) SiO2 
 PCOD8092927
Probable space group: C 2/M
;
_chemical_formula_sum "Si O2"
_cell_formula_units_Z 64
_cell_length_a 28.225343
_cell_length_b 12.831927
_cell_length_c 9.146665
_cell_angle_alpha 90.000000
_cell_angle_beta 88.816959
_cell_angle_gamma 90.000000
_cell_volume 3312.083651
_symmetry_space_group_name_H-M "C 2/M"
_symmetry_group_IT_number 12
_symmetry_cell_setting 'monoclinic'
loop_
_space_group_symop_operation_xyz
x,y,z
-x,y,-z
-x,-y,-z
x,-y,z
1/2+x,1/2+y,z
1/2-x,1/2+y,-z
1/2-x,1/2-y,-z
1/2+x,1/2-y,z
loop_
_atom_site_type_symbol
_atom_site_label
_atom_site_fract_x
_atom_site_fract_y
_atom_site_fract_z
Si Si1 0.185490 0.769957 0.580259
Si Si2 0.617874 0.119145 0.102096
Si Si3 0.465666 0.881510 0.376469
Si Si4 0.546810 0.759480 0.913574
Si Si5 0.698374 0.284497 0.054904
Si Si6 0.875381 0.385054 0.572480
Si Si7 0.262381 0.378841 0.666787
Si Si8 0.868208 0.879533 0.170897
O O1 0.165108 0.699007 0.451485
O O2 0.216455 0.695947 0.685045
O O3 0.215581 0.859086 0.495969
O O4 0.144171 0.821758 0.677224
O O5 0.665984 0.182292 0.071088
O O6 0.600904 0.134482 0.270806
O O7 0.629872 0.000000 0.064165
O O8 0.574467 0.153056 0.003500
O O9 0.500000 0.837589 0.500000
O O10 0.470260 0.808115 0.237126
O O11 0.412641 0.877124 0.439818
O O12 0.480180 0.000000 0.333985
O O13 0.581371 0.661397 0.890152
O O14 0.500000 0.720112 0.000000
O O15 0.701413 0.347756 0.206755
O O16 0.750000 0.250000 0.000000
O O17 0.674143 0.362555 0.941287
O O18 0.851875 0.500000 0.572899
O O19 0.248165 0.500000 0.680913
O O20 0.874094 0.000000 0.204337
#
# Coordination Sequence:
#
# PCOD8092927 Si02
#       8
#     8   8   8   8   8   8   8   8
#     4  11  21  40  59  87 118 153 203 245 298 348
#     4  10  22  38  60  88 121 158 198 243 298 358
#     4  10  20  34  58  90 119 151 186 231 296 358
#     4  11  23  40  62  88 120 159 197 252 299 361
#     4  11  22  41  57  88 122 160 201 242 296 356
#     4  10  19  35  58  84 117 152 189 240 292 347
#     4  11  23  38  61  86 118 159 201 245 292 353
#     4  11  24  42  64  87 117 158 205 254 302 354
#
# _framework density 19.323183
#
# number of rings (size 3 to 8) (size 9 to 14) (size 15 to 20)
#    0.000    1.375    3.750    2.250    0.000    3.250 
#    0.000    0.000    0.000    0.375    0.000    0.000 
#    0.000    0.000    0.000    0.000    0.000    0.000 
#
# Total GULP energy -396889.387847 kJ/mol
# GULP energy per Si atom -12402.793370 kJ/mol
# Density = 1.927920 g / cm^3
# Si number density = 19.323183 Si / 1000 Ang^3
#
#
#
# Elastic Constant Matrix: (Units=GPa)
#
#
# Indices 1 2 3 4 5 6 
#
# 1 101.1101 43.5223 37.1276 0.0000 -4.9936 0.0000
# 2 43.5223 116.9344 45.2355 0.0000 1.9381 0.0000
# 3 37.1276 45.2355 99.7713 0.0000 6.9475 0.0000
# 4 0.0000 0.0000 0.0000 24.6167 0.0000 1.0222
# 5 -4.9936 1.9381 6.9475 0.0000 40.1693 0.0000
# 6 0.0000 0.0000 0.0000 1.0222 0.0000 18.9116
#
#
#
# Elastic Compliance Matrix: (Units=1/GPa)
#
#
# Indices 1 2 3 4 5 6 
#
# 1 0.012725 -0.003493 -0.003314 0.000000 0.002324 0.000000
# 2 -0.003493 0.011334 -0.003816 0.000000 -0.000321 0.000000
# 3 -0.003314 -0.003816 0.013161 0.000000 -0.002504 0.000000
# 4 0.000000 0.000000 0.000000 0.040714 0.000000 -0.002201
# 5 0.002324 -0.000321 -0.002504 0.000000 0.025632 0.000000
# 6 0.000000 0.000000 0.000000 -0.002201 0.000000 0.052996
#
#
# Mechanical properties :
#
#
# Convention : Reuss Voigt Hill
#
# Bulk Modulus (GPa) = 62.60281 63.28742 62.94512
# Shear Modulus (GPa) = 27.30268 29.53490 28.41879
#
# Velocity S-wave (km/s) = 3.76300 3.91381 3.83914
# Velocity P-wave (km/s) = 7.16578 7.29705 7.23171
#
# Compressibility (1/GPa) = 0.01597372
#
# Stress axis : x y z
#
# Youngs Moduli (GPa) = 78.58422 88.23389 75.98414
#
# Poissons Ratio (x) = 0.30820 0.25178
# Poissons Ratio (y) = 0.27449 0.28998
# Poissons Ratio (z) = 0.26039 0.33673
#
# Static dielectric constant tensor:
#      x y z
#    x 3.448790 0.000000 0.059570 
#    y 0.000000 3.368680 0.000000 
#    z 0.059570 0.000000 3.627090 
# 
# 
# High freq. dielectric constant tensor:
#      x y z
#    x 1.747560 0.000000 0.002980 
#    y 0.000000 1.738950 0.000000 
#    z 0.002980 0.000000 1.766220 
# 
# From -- ./inp_files/110449.got.cif
#   From: 2010.06.25/outbox.cif.g09.slc.cpg/sg12_56_cif.got.tgz:110449.got - 2010.06.28 00:19:55.
