data_PCOD8092223
_publ_section_title
;
Structure prediction by ZEFSAII (Michael W. Deem and Ramdas Pophale) SiO2 
 PCOD8092223
Probable space group: C 2/M
;
_chemical_formula_sum "Si O2"
_cell_formula_units_Z 64
_cell_length_a 24.070534
_cell_length_b 18.421207
_cell_length_c 19.801306
_cell_angle_alpha 90.000000
_cell_angle_beta 24.131955
_cell_angle_gamma 90.000000
_cell_volume 3589.636681
_symmetry_space_group_name_H-M "C 2/M"
_symmetry_group_IT_number 12
_symmetry_cell_setting 'monoclinic'
loop_
_space_group_symop_operation_xyz
x,y,z
-x,y,-z
-x,-y,-z
x,-y,z
1/2+x,1/2+y,z
1/2-x,1/2+y,-z
1/2-x,1/2-y,-z
1/2+x,1/2-y,z
loop_
_atom_site_type_symbol
_atom_site_label
_atom_site_fract_x
_atom_site_fract_y
_atom_site_fract_z
Si Si1 0.847555 0.227402 0.952668
Si Si2 0.567998 0.081616 0.826206
Si Si3 0.134399 0.730010 0.576045
Si Si4 0.815130 0.829954 0.603420
Si Si5 0.468261 0.079971 0.292324
Si Si6 0.691952 0.830429 0.877418
Si Si7 0.917075 0.081554 0.695486
Si Si8 0.776028 0.919514 0.991633
O O1 0.999725 0.240324 0.760529
O O2 0.750000 0.250000 0.000000
O O3 0.816947 0.268456 0.056045
O O4 0.820107 0.141488 0.997046
O O5 0.716135 0.109378 0.682532
O O6 0.557100 0.082127 0.758401
O O7 0.548369 0.000000 0.876097
O O8 0.452702 0.135146 0.983013
O O9 0.250000 0.750000 0.500000
O O10 0.164649 0.764097 0.470253
O O11 0.123329 0.643404 0.573568
O O12 0.755144 0.796348 0.739157
O O13 0.959019 0.866281 0.459784
O O14 0.626220 0.097155 0.129375
O O15 0.428789 0.000000 0.365201
O O16 0.785805 0.895971 0.798415
O O17 0.955488 0.000000 0.632000
O O18 0.883277 0.086142 0.812006
O O19 0.781907 0.000000 0.018139
#
# Coordination Sequence:
#
# PCOD8092223 Si02
#       8
#     8   8   8   8   8   8   8   8
#     4  12  19  37  60  77 103 147 188 228 266 320
#     4  11  21  37  56  78 111 153 190 214 253 328
#     4  12  21  37  56  82 111 145 181 232 274 318
#     4  12  25  35  51  83 116 144 179 226 277 316
#     4  10  19  35  60  83 106 143 190 228 269 325
#     4  12  23  37  55  79 109 152 186 218 267 327
#     4  11  21  35  52  78 113 146 177 215 269 327
#     4  10  19  34  60  85 105 139 191 233 269 322
#
# _framework density 17.829101999999999
#
# number of rings (size 3 to 8) (size 9 to 14) (size 15 to 20)
#    0.000    0.750    7.500    1.500    0.000    3.000 
#    0.000    0.625    0.000    0.750    0.000    1.750 
#    0.000    4.000    0.000    0.000    0.000    0.000 
#
# Total GULP energy -396789.899898 kJ/mol
# GULP energy per Si atom -12399.684372 kJ/mol
# Density = 1.778852 g / cm^3
# Si number density = 17.829102 Si / 1000 Ang^3
#
#
#
# Elastic Constant Matrix: (Units=GPa)
#
#
# Indices 1 2 3 4 5 6 
#
# 1 62.3795 50.0273 45.5037 0.0008 4.0755 -0.0011
# 2 50.0273 133.5201 49.3759 -0.0008 11.0981 -0.0009
# 3 45.5037 49.3759 85.6593 0.0027 2.9990 -0.0035
# 4 0.0008 -0.0008 0.0027 24.5332 -0.0018 -7.3941
# 5 4.0755 11.0981 2.9990 -0.0018 37.4835 0.0019
# 6 -0.0011 -0.0009 -0.0035 -7.3941 0.0019 19.5326
#
#
#
# Elastic Compliance Matrix: (Units=1/GPa)
#
#
# Indices 1 2 3 4 5 6 
#
# 1 0.030476 -0.006877 -0.012215 0.000000 -0.000300 -0.000001
# 2 -0.006877 0.011288 -0.002770 0.000001 -0.002373 0.000000
# 3 -0.012215 -0.002770 0.019740 -0.000001 0.000569 0.000002
# 4 0.000000 0.000001 -0.000001 0.046011 0.000001 0.017418
# 5 -0.000300 -0.002373 0.000569 0.000001 0.027368 -0.000002
# 6 -0.000001 0.000000 0.000002 0.017418 -0.000002 0.057790
#
#
# Mechanical properties :
#
#
# Convention : Reuss Voigt Hill
#
# Bulk Modulus (GPa) = 56.24448 63.48586 59.86517
# Shear Modulus (GPa) = 20.63361 25.41998 23.02680
#
# Velocity S-wave (km/s) = 3.40560 3.78002 3.59768
# Velocity P-wave (km/s) = 6.86142 7.39842 7.13498
#
# Compressibility (1/GPa) = 0.01777952
#
# Stress axis : x y z
#
# Youngs Moduli (GPa) = 32.81284 88.59134 50.65852
#
# Poissons Ratio (x) = 0.60921 0.61879
# Poissons Ratio (y) = 0.22564 0.14035
# Poissons Ratio (z) = 0.40081 0.24544
#
# Static dielectric constant tensor:
#      x y z
#    x 3.315740 -0.000040 -0.198880 
#    y -0.000040 3.763630 0.000050 
#    z -0.198880 0.000050 3.391980 
# 
# 
# High freq. dielectric constant tensor:
#      x y z
#    x 1.675760 0.000000 -0.021620 
#    y 0.000000 1.691830 0.000000 
#    z -0.021620 0.000000 1.686880 
# 
# From -- ./inp_files/328604.got.cif
#   From: 2010.06.25/outbox.cif.g09.slc.cpg/sg12_165_cif.got.tgz:328604.got - 2010.06.28 00:19:55.
