data_PCOD8092095
_publ_section_title
;
Structure prediction by ZEFSAII (Michael W. Deem and Ramdas Pophale) SiO2 
 PCOD8092095
Probable space group: C 2/M
;
_chemical_formula_sum "Si O2"
_cell_formula_units_Z 48
_cell_length_a 24.340185
_cell_length_b 10.365638
_cell_length_c 13.443060
_cell_angle_alpha 90.000000
_cell_angle_beta 43.088417
_cell_angle_gamma 90.000000
_cell_volume 2316.962258
_symmetry_space_group_name_H-M "C 2/M"
_symmetry_group_IT_number 12
_symmetry_cell_setting 'monoclinic'
loop_
_space_group_symop_operation_xyz
x,y,z
-x,y,-z
-x,-y,-z
x,-y,z
1/2+x,1/2+y,z
1/2-x,1/2+y,-z
1/2-x,1/2-y,-z
1/2+x,1/2-y,z
loop_
_atom_site_type_symbol
_atom_site_label
_atom_site_fract_x
_atom_site_fract_y
_atom_site_fract_z
Si Si1 0.670398 0.642083 0.309646
Si Si2 0.054532 0.646565 0.521642
Si Si3 0.150122 0.263741 0.926566
Si Si4 0.082984 0.857420 0.832611
Si Si5 0.685108 0.358635 0.074842
Si Si6 0.014169 0.357443 0.795097
O O1 0.652700 0.500000 0.379302
O O2 0.629951 0.755351 0.426951
O O3 0.766844 0.658917 0.176447
O O4 0.633795 0.646254 0.245181
O O5 0.087338 0.500000 0.467024
O O6 0.003872 0.662576 0.690014
O O7 0.000000 0.683147 0.500000
O O8 0.150975 0.186034 0.821490
O O9 0.135655 0.166415 0.039165
O O10 0.072526 0.356664 0.035661
O O11 0.075264 0.751594 0.755325
O O12 0.105131 0.000000 0.760296
O O13 0.000000 0.866320 0.000000
O O14 0.725813 0.500000 0.011783
O O15 0.750000 0.250000 0.000000
O O16 0.051157 0.500000 0.766956
#
# Coordination Sequence:
#
# PCOD8092095 Si02
#       6
#     8   8   8   8   8   8
#     4  10  21  35  55  86 116 144 181 228 278 325
#     4  10  22  40  59  80 110 149 186 221 270 333
#     4  10  19  34  59  84 111 144 184 229 275 325
#     4   9  19  34  54  82 113 145 183 227 276 327
#     4   9  18  31  49  77 110 140 174 217 267 320
#     4  10  21  37  58  82 109 145 187 229 274 325
#
# _framework density 20.716781000000001
#
# number of rings (size 3 to 8) (size 9 to 14) (size 15 to 20)
#    0.000    2.333    0.000    2.000    0.000    9.333 
#    0.000    4.167    0.000    0.000    0.000    0.000 
#    0.000    0.000    0.000    0.000    0.000    0.000 
#
# Total GULP energy -297374.809662 kJ/mol
# GULP energy per Si atom -12390.617069 kJ/mol
# Density = 2.066963 g / cm^3
# Si number density = 20.716781 Si / 1000 Ang^3
#
#
#
# Elastic Constant Matrix: (Units=GPa)
#
#
# Indices 1 2 3 4 5 6 
#
# 1 99.5362 47.3842 15.5802 0.0000 17.7489 0.0000
# 2 47.3842 170.9178 39.1679 0.0000 8.5919 0.0000
# 3 15.5802 39.1679 57.7436 0.0000 0.4873 0.0000
# 4 0.0000 0.0000 0.0000 27.3337 0.0000 4.6610
# 5 17.7489 8.5919 0.4873 0.0000 23.5061 0.0000
# 6 0.0000 0.0000 0.0000 4.6610 0.0000 25.9020
#
#
#
# Elastic Compliance Matrix: (Units=1/GPa)
#
#
# Indices 1 2 3 4 5 6 
#
# 1 0.013246 -0.002868 -0.001553 0.000000 -0.008921 0.000000
# 2 -0.002868 0.007691 -0.004438 0.000000 -0.000554 0.000000
# 3 -0.001553 -0.004438 0.020728 0.000000 0.002366 0.000000
# 4 0.000000 0.000000 0.000000 0.037743 0.000000 -0.006792
# 5 -0.008921 -0.000554 0.002366 0.000000 0.049432 0.000000
# 6 0.000000 0.000000 0.000000 -0.006792 0.000000 0.039829
#
#
# Mechanical properties :
#
#
# Convention : Reuss Voigt Hill
#
# Bulk Modulus (GPa) = 41.76193 59.16247 50.46220
# Shear Modulus (GPa) = 25.72433 30.41936 28.07184
#
# Velocity S-wave (km/s) = 3.52762 3.83605 3.68507
# Velocity P-wave (km/s) = 6.06584 6.94551 6.52053
#
# Compressibility (1/GPa) = 0.02394525
#
# Stress axis : x y z
#
# Youngs Moduli (GPa) = 75.49620 130.02708 48.24483
#
# Poissons Ratio (x) = 0.37288 0.07495
# Poissons Ratio (y) = 0.21650 0.21412
# Poissons Ratio (z) = 0.11728 0.57709
#
# Static dielectric constant tensor:
#      x y z
#    x 3.971700 0.000000 0.390010 
#    y 0.000000 4.059460 0.000000 
#    z 0.390010 0.000000 3.344890 
# 
# 
# High freq. dielectric constant tensor:
#      x y z
#    x 1.800690 0.000000 0.021990 
#    y 0.000000 1.827800 0.000000 
#    z 0.021990 0.000000 1.765920 
# 
# From -- ./inp_files/244753.got.cif
#   From: 2010.06.25/outbox.cif.g09.slc.cpg/sg12_123_cif.got.tgz:244753.got - 2010.06.28 00:19:55.
