data_PCOD8092336
_publ_section_title
;
Structure prediction by ZEFSAII (Michael W. Deem and Ramdas Pophale) SiO2 
 PCOD8092336
Probable space group: C 2/M
;
_chemical_formula_sum "Si O2"
_cell_formula_units_Z 60
_cell_length_a 11.539767
_cell_length_b 27.391625
_cell_length_c 17.582406
_cell_angle_alpha 90.000000
_cell_angle_beta 150.870123
_cell_angle_gamma 90.000000
_cell_volume 2705.425832
_symmetry_space_group_name_H-M "C 2/M"
_symmetry_group_IT_number 12
_symmetry_cell_setting 'monoclinic'
loop_
_space_group_symop_operation_xyz
x,y,z
-x,y,-z
-x,-y,-z
x,-y,z
1/2+x,1/2+y,z
1/2-x,1/2+y,-z
1/2-x,1/2-y,-z
1/2+x,1/2-y,z
loop_
_atom_site_type_symbol
_atom_site_label
_atom_site_fract_x
_atom_site_fract_y
_atom_site_fract_z
Si Si1 0.500000 0.613314 0.500000
Si Si2 0.903538 0.944291 0.047581
Si Si3 0.983267 0.393280 0.727203
Si Si4 0.638828 0.883065 0.654618
Si Si5 0.272411 0.553387 0.139708
Si Si6 0.461502 0.700421 0.782964
Si Si7 0.986521 0.691107 0.141121
Si Si8 0.608461 0.347402 0.717999
O O1 0.504545 0.650169 0.430508
O O2 0.742078 0.580768 0.625124
O O3 0.770818 0.936232 0.049898
O O4 0.157975 0.919601 0.201869
O O5 0.948818 0.000000 0.051384
O O6 0.728539 0.922361 0.882941
O O7 0.956588 0.382364 0.621492
O O8 0.981505 0.341401 0.766745
O O9 0.500000 0.902404 0.500000
O O10 0.749695 0.829882 0.701153
O O11 0.390134 0.500000 0.226483
O O12 0.402273 0.596897 0.257670
O O13 0.000000 0.551961 0.000000
O O14 0.416952 0.756553 0.776301
O O15 0.468984 0.687959 0.696734
O O16 0.711794 0.686245 0.962793
O O17 0.125114 0.673244 0.144577
#
# Coordination Sequence:
#
# PCOD8092336 Si02
#       8
#     4   8   8   8   8   8   8   8
#     4  10  24  42  69  96 136 186 224 282 349 404
#     4  11  24  45  73 104 133 177 233 284 350 420
#     4  11  23  45  68  97 139 178 229 284 343 408
#     4  12  26  44  67 101 140 185 225 283 343 415
#     4  10  19  34  65  97 125 165 220 279 342 404
#     4  11  22  40  65  97 133 177 226 281 339 398
#     4  10  23  38  67 101 128 179 229 279 339 403
#     4  11  20  41  61  92 136 175 219 281 339 397
#
# _framework density 22.177655000000001
#
# number of rings (size 3 to 8) (size 9 to 14) (size 15 to 20)
#    0.000    1.200    2.667    4.000    1.867    1.333 
#    4.800    4.667    0.000    0.000    0.000    0.000 
#    0.000    0.000    0.000    0.000    0.000    0.000 
#
# Total GULP energy -371740.183568 kJ/mol
# GULP energy per Si atom -12391.339452 kJ/mol
# Density = 2.212718 g / cm^3
# Si number density = 22.177655 Si / 1000 Ang^3
#
#
#
# Elastic Constant Matrix: (Units=GPa)
#
#
# Indices 1 2 3 4 5 6 
#
# 1 112.5406 20.9024 28.4806 -0.0025 -21.8931 -0.0024
# 2 20.9024 96.1463 26.6715 -0.0011 -10.4152 -0.0005
# 3 28.4806 26.6715 100.9642 -0.0001 -9.1460 -0.0028
# 4 -0.0025 -0.0011 -0.0001 12.4821 0.0017 -0.8246
# 5 -21.8931 -10.4152 -9.1460 0.0017 40.0132 -0.0007
# 6 -0.0024 -0.0005 -0.0028 -0.8246 -0.0007 24.9461
#
#
#
# Elastic Compliance Matrix: (Units=1/GPa)
#
#
# Indices 1 2 3 4 5 6 
#
# 1 0.010642 -0.001148 -0.002245 0.000001 0.005011 0.000001
# 2 -0.001148 0.011557 -0.002567 0.000001 0.001793 0.000000
# 3 -0.002245 -0.002567 0.011277 -0.000001 0.000681 0.000001
# 4 0.000001 0.000001 -0.000001 0.080290 -0.000003 0.002654
# 5 0.005011 0.001793 0.000681 -0.000003 0.028356 0.000001
# 6 0.000001 0.000000 0.000001 0.002654 0.000001 0.040174
#
#
# Mechanical properties :
#
#
# Convention : Reuss Voigt Hill
#
# Bulk Modulus (GPa) = 46.38836 51.30667 48.84752
# Shear Modulus (GPa) = 24.82616 31.06139 27.94377
#
# Velocity S-wave (km/s) = 3.34941 3.74648 3.55349
# Velocity P-wave (km/s) = 5.99334 6.47298 6.23777
#
# Compressibility (1/GPa) = 0.02155713
#
# Stress axis : x y z
#
# Youngs Moduli (GPa) = 93.96962 86.53019 88.67259
#
# Poissons Ratio (x) = 0.09934 0.19904
# Poissons Ratio (y) = 0.10788 0.22759
# Poissons Ratio (z) = 0.21093 0.22209
#
# Static dielectric constant tensor:
#      x y z
#    x 4.352100 -0.000010 0.128810 
#    y -0.000010 4.199840 0.000000 
#    z 0.128810 0.000000 4.156180 
# 
# 
# High freq. dielectric constant tensor:
#      x y z
#    x 1.899750 0.000000 0.000510 
#    y 0.000000 1.852060 0.000000 
#    z 0.000510 0.000000 1.871420 
# 
# From -- ./inp_files/266039.got.cif
#   From: 2010.06.25/outbox.cif.g09.slc.cpg/sg12_134_cif.got.tgz:266039.got - 2010.06.28 00:19:55.
