data_PCOD8092317
_publ_section_title
;
Structure prediction by ZEFSAII (Michael W. Deem and Ramdas Pophale) SiO2 
 PCOD8092317
Probable space group: C 2/M
;
_chemical_formula_sum "Si O2"
_cell_formula_units_Z 56
_cell_length_a 26.702888
_cell_length_b 15.842584
_cell_length_c 8.877105
_cell_angle_alpha 90.000000
_cell_angle_beta 128.210228
_cell_angle_gamma 90.000000
_cell_volume 2950.788333
_symmetry_space_group_name_H-M "C 2/M"
_symmetry_group_IT_number 12
_symmetry_cell_setting 'monoclinic'
loop_
_space_group_symop_operation_xyz
x,y,z
-x,y,-z
-x,-y,-z
x,-y,z
1/2+x,1/2+y,z
1/2-x,1/2+y,-z
1/2-x,1/2-y,-z
1/2+x,1/2-y,z
loop_
_atom_site_type_symbol
_atom_site_label
_atom_site_fract_x
_atom_site_fract_y
_atom_site_fract_z
Si Si1 0.141617 0.329165 0.474336
Si Si2 0.556052 0.291771 0.506495
Si Si3 0.067600 0.500000 0.962027
Si Si4 0.872131 0.094454 0.123039
Si Si5 0.075411 0.500000 0.331395
Si Si6 0.031091 0.163230 0.900693
Si Si7 0.769759 0.215977 0.875018
Si Si8 0.619930 0.818184 0.081363
O O1 0.093762 0.275886 0.483809
O O2 0.119095 0.423420 0.469095
O O3 0.212069 0.302621 0.655066
O O4 0.136849 0.313036 0.288452
O O5 0.500000 0.247382 0.500000
O O6 0.601224 0.345596 0.697297
O O7 0.523278 0.353175 0.324388
O O8 0.062861 0.500000 0.131564
O O9 0.105384 0.412934 0.991728
O O10 0.998518 0.500000 0.747794
O O11 0.911434 0.101075 0.039045
O O12 0.871084 0.000000 0.182219
O O13 0.801038 0.124322 0.955177
O O14 0.056912 0.260136 0.943513
O O15 0.000000 0.137622 0.000000
O O16 0.819864 0.282769 0.898674
O O17 0.750000 0.250000 0.000000
#
# Coordination Sequence:
#
# PCOD8092317 Si02
#       8
#     8   8   4   8   4   8   8   8
#     4  11  20  38  60  87 119 157 197 238 287 350
#     4  10  20  35  60  84 116 153 191 231 291 354
#     4   9  18  36  59  94 127 148 189 238 299 362
#     4  10  23  41  58  81 115 156 195 243 294 339
#     4   9  20  32  60  95 122 155 179 246 303 346
#     4  10  19  34  62  90 115 149 187 237 293 353
#     4  11  23  41  61  81 114 159 207 240 288 351
#     4  10  21  37  62  89 119 156 195 240 292 349
#
# _framework density 18.977979999999999
#
# number of rings (size 3 to 8) (size 9 to 14) (size 15 to 20)
#    0.000    1.857    2.857    1.286    3.000    2.857 
#    1.286    0.357    0.000    0.000    0.000    0.000 
#    0.000    0.000    0.000    0.000    0.000    0.000 
#
# Total GULP energy -346950.367571 kJ/mol
# GULP energy per Si atom -12391.084556 kJ/mol
# Density = 1.893479 g / cm^3
# Si number density = 18.977980 Si / 1000 Ang^3
#
#
#
# Elastic Constant Matrix: (Units=GPa)
#
#
# Indices 1 2 3 4 5 6 
#
# 1 115.8479 33.8648 29.2669 0.0000 -7.9227 0.0000
# 2 33.8648 91.7018 4.1934 0.0000 0.9979 0.0000
# 3 29.2669 4.1934 66.8230 0.0000 0.3688 0.0000
# 4 0.0000 0.0000 0.0000 8.9956 0.0000 8.0048
# 5 -7.9227 0.9979 0.3688 0.0000 35.0642 0.0000
# 6 0.0000 0.0000 0.0000 8.0048 0.0000 21.3931
#
#
#
# Elastic Compliance Matrix: (Units=1/GPa)
#
#
# Indices 1 2 3 4 5 6 
#
# 1 0.011138 -0.003930 -0.004646 0.000000 0.002677 0.000000
# 2 -0.003930 0.012326 0.000955 0.000000 -0.001249 0.000000
# 3 -0.004646 0.000955 0.016947 0.000000 -0.001255 0.000000
# 4 0.000000 0.000000 0.000000 0.166655 0.000000 -0.062359
# 5 0.002677 -0.001249 -0.001255 0.000000 0.029173 0.000000
# 6 0.000000 0.000000 0.000000 -0.062359 0.000000 0.070077
#
#
# Mechanical properties :
#
#
# Convention : Reuss Voigt Hill
#
# Bulk Modulus (GPa) = 39.73337 45.44699 42.59018
# Shear Modulus (GPa) = 15.15392 26.89377 21.02384
#
# Velocity S-wave (km/s) = 2.82884 3.76853 3.33198
# Velocity P-wave (km/s) = 5.62599 6.55248 6.10683
#
# Compressibility (1/GPa) = 0.02516776
#
# Stress axis : x y z
#
# Youngs Moduli (GPa) = 89.78586 81.12894 59.00797
#
# Poissons Ratio (x) = 0.31881 0.27416
# Poissons Ratio (y) = 0.35283 -0.05632
# Poissons Ratio (z) = 0.41716 -0.07744
#
# Static dielectric constant tensor:
#      x y z
#    x 3.571820 0.000000 0.037180 
#    y 0.000000 3.366710 0.000000 
#    z 0.037180 0.000000 3.562650 
# 
# 
# High freq. dielectric constant tensor:
#      x y z
#    x 1.742340 0.000000 0.004810 
#    y 0.000000 1.723260 0.000000 
#    z 0.004810 0.000000 1.745700 
# 
# From -- ./inp_files/97004.got.cif
#   From: 2010.06.25/outbox.cif.g09.slc.cpg/sg12_49_cif.got.tgz:97004.got - 2010.06.28 00:19:55.
