data_PCOD8092920
_publ_section_title
;
Structure prediction by ZEFSAII (Michael W. Deem and Ramdas Pophale) SiO2 
 PCOD8092920
Probable space group: C 2/M
;
_chemical_formula_sum "Si O2"
_cell_formula_units_Z 40
_cell_length_a 28.054371
_cell_length_b 10.226660
_cell_length_c 8.945685
_cell_angle_alpha 90.000000
_cell_angle_beta 126.639937
_cell_angle_gamma 90.000000
_cell_volume 2059.395649
_symmetry_space_group_name_H-M "C 2/M"
_symmetry_group_IT_number 12
_symmetry_cell_setting 'monoclinic'
loop_
_space_group_symop_operation_xyz
x,y,z
-x,y,-z
-x,-y,-z
x,-y,z
1/2+x,1/2+y,z
1/2-x,1/2+y,-z
1/2-x,1/2-y,-z
1/2+x,1/2-y,z
loop_
_atom_site_type_symbol
_atom_site_label
_atom_site_fract_x
_atom_site_fract_y
_atom_site_fract_z
Si Si1 0.333677 0.647347 0.644839
Si Si2 0.750656 0.228026 0.745641
Si Si3 0.563283 0.846697 0.193843
Si Si4 0.443287 0.844049 0.477707
Si Si5 0.174636 0.643732 0.869198
O O1 0.359648 0.500000 0.677539
O O2 0.299285 0.683620 0.427849
O O3 0.285770 0.643533 0.689469
O O4 0.385401 0.753212 0.778825
O O5 0.719887 0.139331 0.814201
O O6 0.798325 0.312511 0.924329
O O7 0.555970 0.801021 0.349760
O O8 0.582132 0.000000 0.212222
O O9 0.500000 0.820721 0.000000
O O10 0.500000 0.784167 0.500000
O O11 0.385403 0.779519 0.289894
O O12 0.443692 0.000000 0.471000
O O13 0.152473 0.500000 0.860787
#
# Coordination Sequence:
#
# PCOD8092920 Si02
#       5
#     8   8   8   8   8
#     4  11  23  39  59  86 123 160 196 240 293 354
#     4  10  22  36  56  85 117 159 198 235 288 354
#     4  10  22  39  61  87 115 150 198 248 291 346
#     4   9  18  33  56  84 111 141 187 243 292 337
#     4  10  19  35  58  84 114 150 193 245 293 340
#
# _framework density 19.423172999999998
#
# number of rings (size 3 to 8) (size 9 to 14) (size 15 to 20)
#    0.000    2.000    2.000    1.200    2.800    4.400 
#    0.000    0.000    0.000    0.600    0.000    0.000 
#    0.000    0.000    0.000    0.000    0.000    0.000 
#
# Total GULP energy -247835.581462 kJ/mol
# GULP energy per Si atom -12391.779073 kJ/mol
# Density = 1.937896 g / cm^3
# Si number density = 19.423173 Si / 1000 Ang^3
#
#
#
# Elastic Constant Matrix: (Units=GPa)
#
#
# Indices 1 2 3 4 5 6 
#
# 1 68.2397 19.1655 26.4783 0.0000 13.5257 0.0000
# 2 19.1655 82.2459 32.2823 0.0000 11.1028 0.0000
# 3 26.4783 32.2823 144.8960 0.0000 15.9883 0.0000
# 4 0.0000 0.0000 0.0000 17.7018 0.0000 9.0545
# 5 13.5257 11.1028 15.9883 0.0000 34.3597 0.0000
# 6 0.0000 0.0000 0.0000 9.0545 0.0000 14.0966
#
#
#
# Elastic Compliance Matrix: (Units=1/GPa)
#
#
# Indices 1 2 3 4 5 6 
#
# 1 0.017136 -0.002528 -0.002018 0.000000 -0.004990 0.000000
# 2 -0.002528 0.014014 -0.002393 0.000000 -0.002420 0.000000
# 3 -0.002018 -0.002393 0.008043 0.000000 -0.002175 0.000000
# 4 0.000000 0.000000 0.000000 0.084133 0.000000 -0.054040
# 5 -0.004990 -0.002420 -0.002175 0.000000 0.032862 0.000000
# 6 0.000000 0.000000 0.000000 -0.054040 0.000000 0.105650
#
#
# Mechanical properties :
#
#
# Convention : Reuss Voigt Hill
#
# Bulk Modulus (GPa) = 39.50066 50.13709 44.81887
# Shear Modulus (GPa) = 17.59607 27.72864 22.66235
#
# Velocity S-wave (km/s) = 3.01314 3.78247 3.41951
# Velocity P-wave (km/s) = 5.69968 6.70411 6.22220
#
# Compressibility (1/GPa) = 0.02531603
#
# Stress axis : x y z
#
# Youngs Moduli (GPa) = 58.35645 71.35876 124.32474
#
# Poissons Ratio (x) = 0.18036 0.25085
# Poissons Ratio (y) = 0.14750 0.29755
# Poissons Ratio (z) = 0.11775 0.17078
#
# Static dielectric constant tensor:
#      x y z
#    x 3.616200 0.000000 0.083940 
#    y 0.000000 3.141810 0.000000 
#    z 0.083940 0.000000 3.909480 
# 
# 
# High freq. dielectric constant tensor:
#      x y z
#    x 1.759490 0.000000 0.001000 
#    y 0.000000 1.713190 0.000000 
#    z 0.001000 0.000000 1.775410 
# 
# From -- ./inp_files/83560.got.cif
#   From: 2010.06.25/outbox.cif.g09.slc.cpg/sg12_42_cif.got.tgz:83560.got - 2010.06.28 00:19:55.
