data_PCOD8092035
_publ_section_title
;
Structure prediction by ZEFSAII (Michael W. Deem and Ramdas Pophale) SiO2 
 PCOD8092035
Probable space group: C 2/M
;
_chemical_formula_sum "Si O2"
_cell_formula_units_Z 56
_cell_length_a 14.956700
_cell_length_b 17.744888
_cell_length_c 12.328168
_cell_angle_alpha 90.000000
_cell_angle_beta 61.459263
_cell_angle_gamma 90.000000
_cell_volume 2874.341053
_symmetry_space_group_name_H-M "C 2/M"
_symmetry_group_IT_number 12
_symmetry_cell_setting 'monoclinic'
loop_
_space_group_symop_operation_xyz
x,y,z
-x,y,-z
-x,-y,-z
x,-y,z
1/2+x,1/2+y,z
1/2-x,1/2+y,-z
1/2-x,1/2-y,-z
1/2+x,1/2-y,z
loop_
_atom_site_type_symbol
_atom_site_label
_atom_site_fract_x
_atom_site_fract_y
_atom_site_fract_z
Si Si1 0.225554 0.226297 0.745847
Si Si2 0.478181 0.581796 0.387039
Si Si3 0.145539 0.727844 0.009726
Si Si4 0.537439 0.081995 0.098635
Si Si5 0.937586 0.230323 0.732513
Si Si6 0.613445 0.165937 0.654901
Si Si7 0.763865 0.087625 0.409941
O O1 0.140234 0.241800 0.889327
O O2 0.337101 0.240573 0.730383
O O3 0.200542 0.284158 0.663422
O O4 0.221284 0.140204 0.705393
O O5 0.500000 0.584404 0.500000
O O6 0.507852 0.500000 0.321916
O O7 0.551768 0.642115 0.291345
O O8 0.360188 0.598420 0.432580
O O9 0.250000 0.750000 0.000000
O O10 0.133551 0.637752 0.031739
O O11 0.060273 0.763879 0.137097
O O12 0.446937 0.113078 0.226544
O O13 0.572311 0.000000 0.123891
O O14 0.500000 0.071448 0.000000
O O15 0.034946 0.278725 0.636305
O O16 0.665254 0.113932 0.534125
O O17 0.750622 0.000000 0.381792
#
# Coordination Sequence:
#
# PCOD8092035 Si02
#       7
#     8   8   8   8   8   8   8
#     4  11  21  39  61  85 120 156 198 240 295 350
#     4  10  21  38  58  85 121 152 193 253 298 340
#     4   9  20  39  57  85 115 157 197 240 284 355
#     4  10  19  34  58  88 116 146 187 245 301 342
#     4  10  22  36  61  88 114 152 206 237 290 359
#     4  11  21  37  60  87 117 158 195 241 293 358
#     4  11  24  40  58  88 121 157 198 241 299 353
#
# _framework density 19.482727000000001
#
# number of rings (size 3 to 8) (size 9 to 14) (size 15 to 20)
#    0.000    1.714    2.857    1.714    2.000    0.000 
#    0.000   12.143    0.000    1.714    0.000    0.000 
#    0.000    0.000    0.000    0.000    0.000    0.000 
#
# Total GULP energy -346961.801513 kJ/mol
# GULP energy per Si atom -12391.492911 kJ/mol
# Density = 1.943838 g / cm^3
# Si number density = 19.482727 Si / 1000 Ang^3
#
#
#
# Elastic Constant Matrix: (Units=GPa)
#
#
# Indices 1 2 3 4 5 6 
#
# 1 95.7147 52.3616 22.7828 0.0000 -0.5007 0.0000
# 2 52.3616 187.4904 72.6390 0.0000 -0.9421 0.0000
# 3 22.7828 72.6390 82.7683 0.0000 2.6641 0.0000
# 4 0.0000 0.0000 0.0000 55.6741 0.0000 -23.4963
# 5 -0.5007 -0.9421 2.6641 0.0000 15.3221 0.0000
# 6 0.0000 0.0000 0.0000 -23.4963 0.0000 53.6593
#
#
#
# Elastic Compliance Matrix: (Units=1/GPa)
#
#
# Indices 1 2 3 4 5 6 
#
# 1 0.012351 -0.003222 -0.000581 0.000000 0.000307 0.000000
# 2 -0.003222 0.008969 -0.007038 0.000000 0.001670 0.000000
# 3 -0.000581 -0.007038 0.018537 0.000000 -0.003675 0.000000
# 4 0.000000 0.000000 0.000000 0.022033 0.000000 0.009648
# 5 0.000307 0.001670 -0.003675 0.000000 0.066017 0.000000
# 6 0.000000 0.000000 0.000000 0.009648 0.000000 0.022861
#
#
# Mechanical properties :
#
#
# Convention : Reuss Voigt Hill
#
# Bulk Modulus (GPa) = 55.02768 73.50448 64.26608
# Shear Modulus (GPa) = 28.01001 39.47709 33.74355
#
# Velocity S-wave (km/s) = 3.79579 4.50628 4.16621
# Velocity P-wave (km/s) = 6.89321 8.05515 7.49673
#
# Compressibility (1/GPa) = 0.01817267
#
# Stress axis : x y z
#
# Youngs Moduli (GPa) = 80.96794 111.50086 53.94715
#
# Poissons Ratio (x) = 0.35930 0.03137
# Poissons Ratio (y) = 0.26091 0.37966
# Poissons Ratio (z) = 0.04708 0.78471
#
# Static dielectric constant tensor:
#      x y z
#    x 3.701020 0.000000 -0.604550 
#    y 0.000000 1.497610 0.000000 
#    z -0.604550 0.000000 6.051930 
# 
# 
# High freq. dielectric constant tensor:
#      x y z
#    x 1.755910 0.000000 -0.000210 
#    y 0.000000 1.766470 0.000000 
#    z -0.000210 0.000000 1.755200 
# 
# From -- ./inp_files/146049.got.cif
#   From: 2010.06.25/outbox.cif.g09.slc.cpg/sg12_74_cif.got.tgz:146049.got - 2010.06.28 00:19:55.
