data_PCOD8092180
_publ_section_title
;
Structure prediction by ZEFSAII (Michael W. Deem and Ramdas Pophale) SiO2 
 PCOD8092180
Probable space group: C 2/M
;
_chemical_formula_sum "Si O2"
_cell_formula_units_Z 56
_cell_length_a 19.498208
_cell_length_b 8.704318
_cell_length_c 24.126251
_cell_angle_alpha 90.000000
_cell_angle_beta 135.273771
_cell_angle_gamma 90.000000
_cell_volume 2881.503799
_symmetry_space_group_name_H-M "C 2/M"
_symmetry_group_IT_number 12
_symmetry_cell_setting 'monoclinic'
loop_
_space_group_symop_operation_xyz
x,y,z
-x,y,-z
-x,-y,-z
x,-y,z
1/2+x,1/2+y,z
1/2-x,1/2+y,-z
1/2-x,1/2-y,-z
1/2+x,1/2-y,z
loop_
_atom_site_type_symbol
_atom_site_label
_atom_site_fract_x
_atom_site_fract_y
_atom_site_fract_z
Si Si1 0.846042 0.678846 0.307688
Si Si2 0.467881 0.673175 0.544578
Si Si3 0.671897 0.319316 0.996906
Si Si4 0.798590 0.677359 0.692589
Si Si5 0.816980 0.819662 0.870797
Si Si6 0.268124 0.179375 0.451312
Si Si7 0.465487 0.176827 0.873363
O O1 0.871568 0.500000 0.323746
O O2 0.945799 0.774376 0.364690
O O3 0.783645 0.720241 0.325775
O O4 0.783992 0.723813 0.217548
O O5 0.500000 0.680688 0.500000
O O6 0.436893 0.500000 0.543265
O O7 0.379409 0.790035 0.499328
O O8 0.680775 0.500000 0.997775
O O9 0.563545 0.269708 0.918250
O O10 0.750000 0.250000 0.000000
O O11 0.693233 0.263373 0.071906
O O12 0.765326 0.500000 0.675520
O O13 0.805662 0.736525 0.633737
O O14 0.901832 0.700655 0.781555
O O15 0.908373 0.736019 0.894704
O O16 0.838444 0.000000 0.878848
O O17 0.250000 0.250000 0.500000
O O18 0.245496 0.000000 0.438155
O O19 0.491500 0.000000 0.898183
#
# Coordination Sequence:
#
# PCOD8092180 Si02
#       7
#     8   8   8   8   8   8   8
#     4  10  19  34  59  89 116 149 195 244 293 343
#     4  11  22  37  60  87 120 155 193 241 291 343
#     4  11  23  40  60  84 119 157 193 237 292 349
#     4  10  20  37  59  86 119 153 191 241 292 342
#     4   9  20  38  60  87 118 152 191 240 290 342
#     4  12  25  41  61  85 117 156 199 242 291 348
#     4  10  21  37  62  91 117 150 192 239 288 343
#
# _framework density 19.434297000000001
#
# number of rings (size 3 to 8) (size 9 to 14) (size 15 to 20)
#    0.000    1.571    1.429    3.857    0.000    5.714 
#    2.571    0.000    0.000    0.000    0.000    0.000 
#    0.000    0.000    0.000    0.000    0.000    0.000 
#
# Total GULP energy -347302.643994 kJ/mol
# GULP energy per Si atom -12403.665857 kJ/mol
# Density = 1.939006 g / cm^3
# Si number density = 19.434297 Si / 1000 Ang^3
#
#
#
# Elastic Constant Matrix: (Units=GPa)
#
#
# Indices 1 2 3 4 5 6 
#
# 1 101.1140 38.8699 63.3718 0.0000 -11.2513 0.0000
# 2 38.8699 73.2956 45.0603 0.0000 -1.6422 0.0000
# 3 63.3718 45.0603 130.1230 0.0000 -7.5208 0.0000
# 4 0.0000 0.0000 0.0000 33.8576 0.0000 2.6000
# 5 -11.2513 -1.6422 -7.5208 0.0000 30.9930 0.0000
# 6 0.0000 0.0000 0.0000 2.6000 0.0000 34.6112
#
#
#
# Elastic Compliance Matrix: (Units=1/GPa)
#
#
# Indices 1 2 3 4 5 6 
#
# 1 0.015808 -0.004706 -0.005834 0.000000 0.004074 0.000000
# 2 -0.004706 0.018743 -0.004301 0.000000 -0.001759 0.000000
# 3 -0.005834 -0.004301 0.012049 0.000000 0.000578 0.000000
# 4 0.000000 0.000000 0.000000 0.029707 0.000000 -0.002232
# 5 0.004074 -0.001759 0.000578 0.000000 0.033791 0.000000
# 6 0.000000 0.000000 0.000000 -0.002232 0.000000 0.029060
#
#
# Mechanical properties :
#
#
# Convention : Reuss Voigt Hill
#
# Bulk Modulus (GPa) = 59.10039 66.57072 62.83555
# Shear Modulus (GPa) = 28.65669 30.37440 29.51555
#
# Velocity S-wave (km/s) = 3.84414 3.95768 3.90132
# Velocity P-wave (km/s) = 7.08376 7.43054 7.25922
#
# Compressibility (1/GPa) = 0.01692036
#
# Stress axis : x y z
#
# Youngs Moduli (GPa) = 63.25748 53.35231 82.99502
#
# Poissons Ratio (x) = 0.25106 0.48419
# Poissons Ratio (y) = 0.29767 0.35693
# Poissons Ratio (z) = 0.36904 0.22945
#
# Static dielectric constant tensor:
#      x y z
#    x 3.271760 0.000000 -0.090300 
#    y 0.000000 3.698930 0.000000 
#    z -0.090300 0.000000 3.844660 
# 
# 
# High freq. dielectric constant tensor:
#      x y z
#    x 1.734570 0.000000 -0.000580 
#    y 0.000000 1.768650 0.000000 
#    z -0.000580 0.000000 1.773620 
# 
# From -- ./inp_files/342615.got.cif
#   From: 2010.06.25/outbox.cif.g09.slc.cpg/sg12_172_cif.got.tgz:342615.got - 2010.06.28 00:19:55.
