data_PCOD8092431
_publ_section_title
;
Structure prediction by ZEFSAII (Michael W. Deem and Ramdas Pophale) SiO2 
 PCOD8092431
Probable space group: C 2/M
;
_chemical_formula_sum "Si O2"
_cell_formula_units_Z 52
_cell_length_a 10.681377
_cell_length_b 23.910583
_cell_length_c 11.595200
_cell_angle_alpha 90.000000
_cell_angle_beta 77.029570
_cell_angle_gamma 90.000000
_cell_volume 2885.833504
_symmetry_space_group_name_H-M "C 2/M"
_symmetry_group_IT_number 12
_symmetry_cell_setting 'monoclinic'
loop_
_space_group_symop_operation_xyz
x,y,z
-x,y,-z
-x,-y,-z
x,-y,z
1/2+x,1/2+y,z
1/2-x,1/2+y,-z
1/2-x,1/2-y,-z
1/2+x,1/2-y,z
loop_
_atom_site_type_symbol
_atom_site_label
_atom_site_fract_x
_atom_site_fract_y
_atom_site_fract_z
Si Si1 0.117070 0.312592 0.044769
Si Si2 0.159477 0.324211 0.293152
Si Si3 0.438723 0.676906 0.298297
Si Si4 0.132740 0.437839 0.409597
Si Si5 0.891672 0.187365 0.944553
Si Si6 0.410903 0.438024 0.409364
Si Si7 0.000000 0.749318 0.500000
O O1 0.089429 0.311401 0.187411
O O2 0.125637 0.249049 0.997315
O O3 0.252645 0.343087 0.984658
O O4 0.000000 0.342678 0.000000
O O5 0.309585 0.307440 0.254957
O O6 0.146340 0.390960 0.309639
O O7 0.099857 0.290631 0.413234
O O8 0.564096 0.692087 0.197728
O O9 0.446905 0.610052 0.312107
O O10 0.433323 0.710265 0.420127
O O11 0.129698 0.500000 0.353941
O O12 0.257215 0.433177 0.469714
O O13 0.000000 0.425797 0.500000
O O14 0.000000 0.155691 0.000000
O O15 0.500000 0.427832 0.500000
O O16 0.439134 0.500000 0.351548
#
# Coordination Sequence:
#
# PCOD8092431 Si02
#       7
#     8   8   8   8   8   8   4
#     4  10  21  35  53  76 101 141 187 216 256 313
#     4  11  21  36  53  77 116 140 173 226 265 321
#     4  11  21  35  54  79 113 142 174 220 268 324
#     4   9  18  34  55  77 102 142 183 213 262 320
#     4  10  19  35  55  72 101 145 182 215 260 315
#     4   9  18  34  54  77 106 140 178 218 261 315
#     4  12  22  32  48  88 112 146 166 212 280 328
#
# _framework density 18.019058000000001
#
# number of rings (size 3 to 8) (size 9 to 14) (size 15 to 20)
#    0.000    1.846    4.615    0.462    0.000    0.000 
#    5.538    0.000    0.000    1.846    0.000    0.000 
#    0.000    0.000    0.000    0.000    0.000    0.000 
#
# Total GULP energy -322149.323832 kJ/mol
# GULP energy per Si atom -12390.358609 kJ/mol
# Density = 1.797805 g / cm^3
# Si number density = 18.019058 Si / 1000 Ang^3
#
#
#
# Elastic Constant Matrix: (Units=GPa)
#
#
# Indices 1 2 3 4 5 6 
#
# 1 140.7929 27.1579 51.8534 0.0000 4.4273 0.0000
# 2 27.1579 68.7772 21.1664 0.0000 1.0681 0.0000
# 3 51.8534 21.1664 98.0605 0.0000 2.9996 0.0000
# 4 0.0000 0.0000 0.0000 12.5194 0.0000 0.3376
# 5 4.4273 1.0681 2.9996 0.0000 35.1124 0.0000
# 6 0.0000 0.0000 0.0000 0.3376 0.0000 16.8998
#
#
#
# Elastic Compliance Matrix: (Units=1/GPa)
#
#
# Indices 1 2 3 4 5 6 
#
# 1 0.009158 -0.002273 -0.004330 0.000000 -0.000716 0.000000
# 2 -0.002273 0.016139 -0.002282 0.000000 -0.000009 0.000000
# 3 -0.004330 -0.002282 0.012995 0.000000 -0.000495 0.000000
# 4 0.000000 0.000000 0.000000 0.079919 0.000000 -0.001596
# 5 -0.000716 -0.000009 -0.000495 0.000000 0.028613 0.000000
# 6 0.000000 0.000000 0.000000 -0.001596 0.000000 0.059204
#
#
# Mechanical properties :
#
#
# Convention : Reuss Voigt Hill
#
# Bulk Modulus (GPa) = 48.72409 56.44291 52.58350
# Shear Modulus (GPa) = 21.67881 26.73649 24.20765
#
# Velocity S-wave (km/s) = 3.47234 3.85618 3.66928
# Velocity P-wave (km/s) = 6.57079 7.15673 6.87001
#
# Compressibility (1/GPa) = 0.02052373
#
# Stress axis : x y z
#
# Youngs Moduli (GPa) = 109.18973 61.96017 76.95072
#
# Poissons Ratio (x) = 0.14081 0.33323
# Poissons Ratio (y) = 0.24814 0.17558
# Poissons Ratio (z) = 0.47284 0.14138
#
# Static dielectric constant tensor:
#      x y z
#    x 3.780990 0.000000 0.070080 
#    y 0.000000 3.309890 0.000000 
#    z 0.070080 0.000000 3.002230 
# 
# 
# High freq. dielectric constant tensor:
#      x y z
#    x 1.718030 0.000000 0.003880 
#    y 0.000000 1.674830 0.000000 
#    z 0.003880 0.000000 1.670590 
# 
# From -- ./inp_files/123718.got.cif
#   From: 2010.06.25/outbox.cif.g09.slc.cpg/sg12_62_cif.got.tgz:123718.got - 2010.06.28 00:19:55.
