data_PCOD8092342
_publ_section_title
;
Structure prediction by ZEFSAII (Michael W. Deem and Ramdas Pophale) SiO2 
 PCOD8092342
Probable space group: C 2/M
;
_chemical_formula_sum "Si O2"
_cell_formula_units_Z 64
_cell_length_a 14.541750
_cell_length_b 18.375981
_cell_length_c 16.810294
_cell_angle_alpha 90.000000
_cell_angle_beta 58.742706
_cell_angle_gamma 90.000000
_cell_volume 3839.991911
_symmetry_space_group_name_H-M "C 2/M"
_symmetry_group_IT_number 12
_symmetry_cell_setting 'monoclinic'
loop_
_space_group_symop_operation_xyz
x,y,z
-x,y,-z
-x,-y,-z
x,-y,z
1/2+x,1/2+y,z
1/2-x,1/2+y,-z
1/2-x,1/2-y,-z
1/2+x,1/2-y,z
loop_
_atom_site_type_symbol
_atom_site_label
_atom_site_fract_x
_atom_site_fract_y
_atom_site_fract_z
Si Si1 0.287319 0.265652 0.857677
Si Si2 0.329552 0.416714 0.608165
Si Si3 0.505438 0.918544 0.089630
Si Si4 0.456809 0.582856 0.393837
Si Si5 0.230961 0.365451 0.026205
Si Si6 0.472193 0.683107 0.240728
Si Si7 0.837219 0.687977 0.241385
Si Si8 0.964977 0.082535 0.928971
O O1 0.272614 0.182319 0.891710
O O2 0.412579 0.282706 0.792703
O O3 0.232205 0.278308 0.798217
O O4 0.229046 0.315414 0.948919
O O5 0.287547 0.500000 0.627130
O O6 0.419845 0.407747 0.635159
O O7 0.377758 0.395976 0.500996
O O8 0.233541 0.361768 0.668912
O O9 0.626770 0.916306 0.068217
O O10 0.434904 0.860228 0.166831
O O11 0.460207 0.000000 0.123906
O O12 0.500000 0.898110 0.000000
O O13 0.436800 0.500000 0.376247
O O14 0.431356 0.634092 0.331436
O O15 0.336254 0.415350 0.979067
O O16 0.384583 0.746102 0.271133
O O17 0.476857 0.635170 0.159038
O O18 0.003193 0.000000 0.896389
O O19 0.000000 0.109939 0.000000
#
# Coordination Sequence:
#
# PCOD8092342 Si02
#       8
#     8   8   8   8   8   8   8   8
#     4  10  20  32  49  72 103 135 177 215 250 304
#     4   9  19  35  57  80 107 136 165 218 271 317
#     4  11  22  33  48  74 104 137 178 218 258 309
#     4   9  18  36  58  81 105 132 171 215 269 319
#     4  10  19  35  50  68 100 143 176 217 259 294
#     4  11  21  33  54  79 103 140 173 216 262 314
#     4  12  21  34  52  78 109 137 175 212 265 318
#     4  10  21  35  51  75 103 138 185 224 255 299
#
# _framework density 16.666702000000001
#
# number of rings (size 3 to 8) (size 9 to 14) (size 15 to 20)
#    0.000    1.750    3.750    2.625    0.000    1.000 
#    0.000    0.000    0.000    0.000    0.000    0.000 
#    0.000    2.000    0.000    0.000    0.000    0.000 
#
# Total GULP energy -396872.549355 kJ/mol
# GULP energy per Si atom -12402.267167 kJ/mol
# Density = 1.662877 g / cm^3
# Si number density = 16.666702 Si / 1000 Ang^3
#
#
#
# Elastic Constant Matrix: (Units=GPa)
#
#
# Indices 1 2 3 4 5 6 
#
# 1 81.1173 43.3331 42.8012 0.0000 2.6092 0.0000
# 2 43.3331 96.3299 55.5305 0.0000 2.9132 0.0000
# 3 42.8012 55.5305 86.7324 0.0000 4.3152 0.0000
# 4 0.0000 0.0000 0.0000 69.3857 0.0000 0.7511
# 5 2.6092 2.9132 4.3152 0.0000 21.8166 0.0000
# 6 0.0000 0.0000 0.0000 0.7511 0.0000 29.1496
#
#
#
# Elastic Compliance Matrix: (Units=1/GPa)
#
#
# Indices 1 2 3 4 5 6 
#
# 1 0.017917 -0.004695 -0.005818 0.000000 -0.000365 0.000000
# 2 -0.004695 0.017684 -0.009004 0.000000 -0.000019 0.000000
# 3 -0.005818 -0.009004 0.020271 0.000000 -0.002111 0.000000
# 4 0.000000 0.000000 0.000000 0.014416 0.000000 -0.000371
# 5 -0.000365 -0.000019 -0.002111 0.000000 0.046300 0.000000
# 6 0.000000 0.000000 0.000000 -0.000371 0.000000 0.034315
#
#
# Mechanical properties :
#
#
# Convention : Reuss Voigt Hill
#
# Bulk Modulus (GPa) = 59.39007 60.83437 60.11222
# Shear Modulus (GPa) = 25.56860 32.23804 28.90332
#
# Velocity S-wave (km/s) = 3.92102 4.40281 4.16888
# Velocity P-wave (km/s) = 7.49737 7.90102 7.70184
#
# Compressibility (1/GPa) = 0.01683783
#
# Stress axis : x y z
#
# Youngs Moduli (GPa) = 55.81137 56.54685 49.33190
#
# Poissons Ratio (x) = 0.26550 0.28700
# Poissons Ratio (y) = 0.26205 0.44421
# Poissons Ratio (z) = 0.32469 0.50918
#
# Static dielectric constant tensor:
#      x y z
#    x 3.049440 0.000000 0.006260 
#    y 0.000000 3.105560 0.000000 
#    z 0.006260 0.000000 2.999050 
# 
# 
# High freq. dielectric constant tensor:
#      x y z
#    x 1.637820 0.000000 -0.000180 
#    y 0.000000 1.647330 0.000000 
#    z -0.000180 0.000000 1.629990 
# 
# From -- ./inp_files/216369.got.cif
#   From: 2010.06.25/outbox.cif.g09.slc.cpg/sg12_109_cif.got.tgz:216369.got - 2010.06.28 00:19:55.
