data_PCOD8092977
_publ_section_title
;
Structure prediction by ZEFSAII (Michael W. Deem and Ramdas Pophale) SiO2 
 PCOD8092977
Probable space group: C 2/M
;
_chemical_formula_sum "Si O2"
_cell_formula_units_Z 56
_cell_length_a 28.235559
_cell_length_b 17.089042
_cell_length_c 9.989218
_cell_angle_alpha 90.000000
_cell_angle_beta 145.458697
_cell_angle_gamma 90.000000
_cell_volume 2732.931809
_symmetry_space_group_name_H-M "C 2/M"
_symmetry_group_IT_number 12
_symmetry_cell_setting 'monoclinic'
loop_
_space_group_symop_operation_xyz
x,y,z
-x,y,-z
-x,-y,-z
x,-y,z
1/2+x,1/2+y,z
1/2-x,1/2+y,-z
1/2-x,1/2-y,-z
1/2+x,1/2-y,z
loop_
_atom_site_type_symbol
_atom_site_label
_atom_site_fract_x
_atom_site_fract_y
_atom_site_fract_z
Si Si1 0.865869 0.586486 0.817016
Si Si2 0.112641 0.682749 0.397685
Si Si3 0.043202 0.851739 0.231298
Si Si4 0.495318 0.864772 0.336725
Si Si5 0.772164 0.911993 0.314521
Si Si6 0.727983 0.248642 0.101869
Si Si7 0.546906 0.689253 0.732177
O O1 0.888472 0.500000 0.819290
O O2 0.888682 0.644175 0.751489
O O3 0.767628 0.592250 0.628271
O O4 0.915618 0.603569 0.071161
O O5 0.057445 0.759502 0.248587
O O6 0.205694 0.707283 0.652051
O O7 0.076333 0.623079 0.427425
O O8 0.129154 0.897187 0.457006
O O9 0.975404 0.864258 0.191883
O O10 0.000000 0.887448 0.000000
O O11 0.500000 0.901876 0.500000
O O12 0.497256 0.772313 0.356258
O O13 0.723113 0.844196 0.119461
O O14 0.756155 0.000000 0.218232
O O15 0.750000 0.250000 0.000000
O O16 0.644568 0.297274 0.936904
O O17 0.500000 0.646357 0.500000
#
# Coordination Sequence:
#
# PCOD8092977 Si02
#       7
#     8   8   8   8   8   8   8
#     4  11  23  39  58  84 127 172 204 254 317 380
#     4  10  22  35  59  91 121 156 209 262 313 371
#     4  10  21  35  61  89 116 157 205 257 306 356
#     4  10  19  36  57  85 121 156 204 257 305 375
#     4  10  23  40  60  89 128 165 203 251 319 379
#     4  11  21  38  68  94 122 160 211 263 312 368
#     4  10  19  35  58  89 121 149 200 258 304 362
#
# _framework density 20.490815000000001
#
# number of rings (size 3 to 8) (size 9 to 14) (size 15 to 20)
#    0.000    1.714    1.429    5.571    2.000    2.857 
#    0.000    0.714    0.000    4.286    0.000    0.000 
#    0.000    0.000    0.000    0.000    0.000    0.000 
#
# Total GULP energy -346881.507262 kJ/mol
# GULP energy per Si atom -12388.625259 kJ/mol
# Density = 2.044418 g / cm^3
# Si number density = 20.490815 Si / 1000 Ang^3
#
#
#
# Elastic Constant Matrix: (Units=GPa)
#
#
# Indices 1 2 3 4 5 6 
#
# 1 154.5547 34.5543 52.7277 0.0000 0.3801 0.0000
# 2 34.5543 67.3323 15.1062 0.0000 -6.5791 0.0000
# 3 52.7277 15.1062 97.6135 0.0000 -3.6591 0.0000
# 4 0.0000 0.0000 0.0000 4.7273 0.0000 -0.0371
# 5 0.3801 -6.5791 -3.6591 0.0000 40.6619 0.0000
# 6 0.0000 0.0000 0.0000 -0.0371 0.0000 4.3463
#
#
#
# Elastic Compliance Matrix: (Units=1/GPa)
#
#
# Indices 1 2 3 4 5 6 
#
# 1 0.008712 -0.003635 -0.004183 0.000000 -0.001046 0.000000
# 2 -0.003635 0.017117 -0.000582 0.000000 0.002751 0.000000
# 3 -0.004183 -0.000582 0.012635 0.000000 0.001082 0.000000
# 4 0.000000 0.000000 0.000000 0.211550 0.000000 0.001806
# 5 -0.001046 0.002751 0.001082 0.000000 0.025145 0.000000
# 6 0.000000 0.000000 0.000000 0.001806 0.000000 0.230097
#
#
# Mechanical properties :
#
#
# Convention : Reuss Voigt Hill
#
# Bulk Modulus (GPa) = 46.16069 58.25300 52.20684
# Shear Modulus (GPa) = 9.44685 24.42125 16.93405
#
# Velocity S-wave (km/s) = 2.14949 3.45601 2.87787
# Velocity P-wave (km/s) = 5.36067 6.66453 6.04784
#
# Compressibility (1/GPa) = 0.02166346
#
# Stress axis : x y z
#
# Youngs Moduli (GPa) = 114.77799 58.42296 79.14768
#
# Poissons Ratio (x) = 0.21236 0.33107
# Poissons Ratio (y) = 0.41721 0.04609
# Poissons Ratio (z) = 0.48010 0.03402
#
# Static dielectric constant tensor:
#      x y z
#    x 4.222640 0.000000 -0.104930 
#    y 0.000000 3.812050 0.000000 
#    z -0.104930 0.000000 3.475840 
# 
# 
# High freq. dielectric constant tensor:
#      x y z
#    x 1.824900 0.000000 0.003880 
#    y 0.000000 1.763200 0.000000 
#    z 0.003880 0.000000 1.794560 
# 
# From -- ./inp_files/106022.got.cif
#   From: 2010.06.25/outbox.cif.g09.slc.cpg/sg12_54_cif.got.tgz:106022.got - 2010.06.28 00:19:55.
