data_PCOD8092579
_publ_section_title
;
Structure prediction by ZEFSAII (Michael W. Deem and Ramdas Pophale) SiO2 
 PCOD8092579
Probable space group: C 2/M
;
_chemical_formula_sum "Si O2"
_cell_formula_units_Z 64
_cell_length_a 20.385379
_cell_length_b 8.817910
_cell_length_c 20.127479
_cell_angle_alpha 90.000000
_cell_angle_beta 112.127735
_cell_angle_gamma 90.000000
_cell_volume 3351.561975
_symmetry_space_group_name_H-M "C 2/M"
_symmetry_group_IT_number 12
_symmetry_cell_setting 'monoclinic'
loop_
_space_group_symop_operation_xyz
x,y,z
-x,y,-z
-x,-y,-z
x,-y,z
1/2+x,1/2+y,z
1/2-x,1/2+y,-z
1/2-x,1/2-y,-z
1/2+x,1/2-y,z
loop_
_atom_site_type_symbol
_atom_site_label
_atom_site_fract_x
_atom_site_fract_y
_atom_site_fract_z
Si Si1 0.541285 0.680466 0.952660
Si Si2 0.301398 0.679871 0.335412
Si Si3 0.779991 0.825782 0.576290
Si Si4 0.933641 0.819110 0.803233
Si Si5 0.213937 0.820201 0.190809
Si Si6 0.198309 0.179494 0.033334
Si Si7 0.038328 0.819105 0.580935
Si Si8 0.941651 0.174031 0.660035
O O1 0.541560 0.500000 0.956479
O O2 0.500771 0.736937 0.871437
O O3 0.500000 0.747215 0.000000
O O4 0.620856 0.742941 0.984784
O O5 0.298053 0.500000 0.333311
O O6 0.246621 0.742116 0.368349
O O7 0.278871 0.742643 0.254700
O O8 0.380482 0.736159 0.384000
O O9 0.750000 0.750000 0.500000
O O10 0.863674 0.809958 0.600882
O O11 0.756295 0.000000 0.571581
O O12 0.860522 0.760379 0.807708
O O13 0.944585 0.748504 0.733942
O O14 0.929159 0.000000 0.798894
O O15 0.218863 0.770143 0.115776
O O16 0.220185 0.000000 0.201005
O O17 0.200526 0.000000 0.028458
O O18 0.250000 0.250000 0.000000
O O19 0.000000 0.755559 0.500000
O O20 0.996616 0.751346 0.629022
O O21 0.033865 0.000000 0.579042
O O22 0.963188 0.000000 0.677277
#
# Coordination Sequence:
#
# PCOD8092579 Si02
#       8
#     8   8   8   8   8   8   8   8
#     4   9  15  27  51  80 103 131 182 236 268 304
#     4  11  22  35  56  85 113 143 181 226 278 334
#     4  11  21  35  57  83 111 143 183 228 274 327
#     4   9  15  27  51  80 104 130 178 236 278 308
#     4  10  19  35  56  79 111 149 181 222 280 333
#     4  10  21  35  55  83 115 147 182 227 279 331
#     4   9  18  33  51  75 108 141 177 225 275 317
#     4   9  17  30  51  77 102 135 180 227 268 312
#
# _framework density 19.095576000000001
#
# number of rings (size 3 to 8) (size 9 to 14) (size 15 to 20)
#    0.000    2.250    2.500    1.500    0.000    3.500 
#    0.000    2.500    0.000    9.375    0.000    0.000 
#    0.000    0.000    0.000    0.000    0.000    0.000 
#
# Total GULP energy -396737.394066 kJ/mol
# GULP energy per Si atom -12398.043565 kJ/mol
# Density = 1.905211 g / cm^3
# Si number density = 19.095576 Si / 1000 Ang^3
#
#
#
# Elastic Constant Matrix: (Units=GPa)
#
#
# Indices 1 2 3 4 5 6 
#
# 1 126.2465 20.4921 58.6890 0.0000 -7.3577 0.0000
# 2 20.4921 29.7421 28.4637 0.0000 2.7056 0.0000
# 3 58.6890 28.4637 162.6622 0.0000 -1.3825 0.0000
# 4 0.0000 0.0000 0.0000 24.5019 0.0000 -1.0882
# 5 -7.3577 2.7056 -1.3825 0.0000 39.8361 0.0000
# 6 0.0000 0.0000 0.0000 -1.0882 0.0000 20.2608
#
#
#
# Elastic Compliance Matrix: (Units=1/GPa)
#
#
# Indices 1 2 3 4 5 6 
#
# 1 0.010081 -0.004407 -0.002848 0.000000 0.002062 0.000000
# 2 -0.004407 0.042671 -0.005910 0.000000 -0.003917 0.000000
# 3 -0.002848 -0.005910 0.008211 0.000000 0.000160 0.000000
# 4 0.000000 0.000000 0.000000 0.040911 0.000000 0.002197
# 5 0.002062 -0.003917 0.000160 0.000000 0.025755 0.000000
# 6 0.000000 0.000000 0.000000 0.002197 0.000000 0.049475
#
#
# Mechanical properties :
#
#
# Convention : Reuss Voigt Hill
#
# Bulk Modulus (GPa) = 28.87537 59.32671 44.10104
# Shear Modulus (GPa) = 23.25810 30.98681 27.12245
#
# Velocity S-wave (km/s) = 3.49375 4.03267 3.77285
# Velocity P-wave (km/s) = 5.60619 7.26767 6.49031
#
# Compressibility (1/GPa) = 0.03463159
#
# Stress axis : x y z
#
# Youngs Moduli (GPa) = 99.19899 23.43499 121.78827
#
# Poissons Ratio (x) = 0.10328 0.34691
# Poissons Ratio (y) = 0.43719 0.71978
# Poissons Ratio (z) = 0.28256 0.13850
#
# Static dielectric constant tensor:
#      x y z
#    x 3.872990 0.000000 -0.153000 
#    y 0.000000 3.005290 0.000000 
#    z -0.153000 0.000000 3.950000 
# 
# 
# High freq. dielectric constant tensor:
#      x y z
#    x 1.747130 0.000000 -0.000970 
#    y 0.000000 1.685510 0.000000 
#    z -0.000970 0.000000 1.763620 
# 
# From -- ./inp_files/319991.got.cif
#   From: 2010.06.25/outbox.cif.g09.slc.cpg/sg12_160_cif.got.tgz:319991.got - 2010.06.28 00:19:55.
