data_PCOD8092550
_publ_section_title
;
Structure prediction by ZEFSAII (Michael W. Deem and Ramdas Pophale) SiO2 
 PCOD8092550
Probable space group: C 2/M
;
_chemical_formula_sum "Si O2"
_cell_formula_units_Z 64
_cell_length_a 29.724996
_cell_length_b 9.252683
_cell_length_c 16.552015
_cell_angle_alpha 90.000000
_cell_angle_beta 132.834634
_cell_angle_gamma 90.000000
_cell_volume 3338.361098
_symmetry_space_group_name_H-M "C 2/M"
_symmetry_group_IT_number 12
_symmetry_cell_setting 'monoclinic'
loop_
_space_group_symop_operation_xyz
x,y,z
-x,y,-z
-x,-y,-z
x,-y,z
1/2+x,1/2+y,z
1/2-x,1/2+y,-z
1/2-x,1/2-y,-z
1/2+x,1/2-y,z
loop_
_atom_site_type_symbol
_atom_site_label
_atom_site_fract_x
_atom_site_fract_y
_atom_site_fract_z
Si Si1 0.614312 0.346137 0.946023
Si Si2 0.174247 0.838510 0.187674
Si Si3 0.221959 0.839148 0.747018
Si Si4 0.938999 0.327980 0.874151
Si Si5 0.099835 0.665734 0.633139
Si Si6 0.505806 0.834160 0.375059
Si Si7 0.792042 0.655031 0.997552
Si Si8 0.021382 0.831917 0.229290
O O1 0.614804 0.500000 0.899469
O O2 0.639580 0.221783 0.918347
O O3 0.546039 0.311214 0.890699
O O4 0.658902 0.360331 0.075848
O O5 0.240759 0.757623 0.273732
O O6 0.121721 0.738811 0.161127
O O7 0.178172 0.000000 0.232696
O O8 0.159187 0.765927 0.699255
O O9 0.208202 0.000000 0.694622
O O10 0.266081 0.858669 0.876721
O O11 0.932059 0.500000 0.860833
O O12 0.938062 0.261832 0.782581
O O13 0.000000 0.285791 0.000000
O O14 0.121054 0.500000 0.668459
O O15 0.061068 0.684752 0.504723
O O16 0.057990 0.711100 0.659107
O O17 0.521543 0.729798 0.319912
O O18 0.501845 0.000000 0.340495
O O19 0.798073 0.500000 0.046899
O O20 0.750000 0.750000 0.000000
O O21 0.042345 0.000000 0.255821
#
# Coordination Sequence:
#
# PCOD8092550 Si02
#       8
#     8   8   8   8   8   8   8   8
#     4   9  19  33  48  70 104 141 179 219 260 313
#     4  10  19  35  56  77 107 145 185 224 265 319
#     4  10  21  35  53  79 108 139 182 228 272 325
#     4  11  22  35  55  81 112 149 187 227 273 323
#     4   9  19  38  61  82 108 145 185 227 280 333
#     4   9  20  38  58  83 112 142 184 232 276 330
#     4  10  21  33  46  68 102 141 179 220 263 316
#     4  11  22  35  54  81 112 146 183 226 276 326
#
# _framework density 19.171082999999999
#
# number of rings (size 3 to 8) (size 9 to 14) (size 15 to 20)
#    0.000    2.125    1.250    2.625    1.750    4.500 
#    0.000    1.250    0.000    0.750    0.000    0.000 
#    0.000    0.000    0.000    0.000    0.000    0.000 
#
# Total GULP energy -396548.754755 kJ/mol
# GULP energy per Si atom -12392.148586 kJ/mol
# Density = 1.912745 g / cm^3
# Si number density = 19.171083 Si / 1000 Ang^3
#
#
#
# Elastic Constant Matrix: (Units=GPa)
#
#
# Indices 1 2 3 4 5 6 
#
# 1 102.3886 64.9390 11.1638 0.0000 -4.8707 0.0000
# 2 64.9390 143.6190 18.3660 0.0000 -7.0965 0.0000
# 3 11.1638 18.3660 30.7937 0.0000 -6.4677 0.0000
# 4 0.0000 0.0000 0.0000 21.6293 0.0000 -3.0861
# 5 -4.8707 -7.0965 -6.4677 0.0000 24.9508 0.0000
# 6 0.0000 0.0000 0.0000 -3.0861 0.0000 37.3654
#
#
#
# Elastic Compliance Matrix: (Units=1/GPa)
#
#
# Indices 1 2 3 4 5 6 
#
# 1 0.013758 -0.006028 -0.001257 0.000000 0.000645 0.000000
# 2 -0.006028 0.010204 -0.003742 0.000000 0.000756 0.000000
# 3 -0.001257 -0.003742 0.036895 0.000000 0.008254 0.000000
# 4 0.000000 0.000000 0.000000 0.046785 0.000000 0.003864
# 5 0.000645 0.000756 0.008254 0.000000 0.042559 0.000000
# 6 0.000000 0.000000 0.000000 0.003864 0.000000 0.027082
#
#
# Mechanical properties :
#
#
# Convention : Reuss Voigt Hill
#
# Bulk Modulus (GPa) = 25.77084 51.74876 38.75980
# Shear Modulus (GPa) = 23.55468 28.94460 26.24964
#
# Velocity S-wave (km/s) = 3.50902 3.88984 3.70433
# Velocity P-wave (km/s) = 5.46712 6.87213 6.20949
#
# Compressibility (1/GPa) = 0.03880354
#
# Stress axis : x y z
#
# Youngs Moduli (GPa) = 72.68642 97.99686 27.10372
#
# Poissons Ratio (x) = 0.59074 0.03406
# Poissons Ratio (y) = 0.43816 0.10142
# Poissons Ratio (z) = 0.09135 0.36671
#
# Static dielectric constant tensor:
#      x y z
#    x 3.539140 0.000000 0.015530 
#    y 0.000000 3.934380 0.000000 
#    z 0.015530 0.000000 3.216030 
# 
# 
# High freq. dielectric constant tensor:
#      x y z
#    x 1.747760 0.000000 0.007050 
#    y 0.000000 1.764310 0.000000 
#    z 0.007050 0.000000 1.702650 
# 
# From -- ./inp_files/250001.got.cif
#   From: 2010.06.25/outbox.cif.g09.slc.cpg/sg12_126_cif.got.tgz:250001.got - 2010.06.28 00:19:55.
