data_PCOD8092712
_publ_section_title
;
Structure prediction by ZEFSAII (Michael W. Deem and Ramdas Pophale) SiO2 
 PCOD8092712
Probable space group: C 2/M
;
_chemical_formula_sum "Si O2"
_cell_formula_units_Z 48
_cell_length_a 18.993190
_cell_length_b 8.825900
_cell_length_c 21.621422
_cell_angle_alpha 90.000000
_cell_angle_beta 45.006521
_cell_angle_gamma 90.000000
_cell_volume 2563.159271
_symmetry_space_group_name_H-M "C 2/M"
_symmetry_group_IT_number 12
_symmetry_cell_setting 'monoclinic'
loop_
_space_group_symop_operation_xyz
x,y,z
-x,y,-z
-x,-y,-z
x,-y,z
1/2+x,1/2+y,z
1/2-x,1/2+y,-z
1/2-x,1/2-y,-z
1/2+x,1/2-y,z
loop_
_atom_site_type_symbol
_atom_site_label
_atom_site_fract_x
_atom_site_fract_y
_atom_site_fract_z
Si Si1 0.174831 0.322934 0.594237
Si Si2 0.692802 0.173640 0.723329
Si Si3 0.462636 0.321944 0.735992
Si Si4 0.104880 0.324418 0.963146
Si Si5 0.464840 0.173117 0.860571
Si Si6 0.217738 0.322955 0.218840
O O1 0.166208 0.500000 0.586791
O O2 0.250000 0.250000 0.500000
O O3 0.215834 0.290334 0.637576
O O4 0.066425 0.252801 0.652738
O O5 0.577879 0.209238 0.809892
O O6 0.759720 0.281923 0.724013
O O7 0.717632 0.000000 0.724191
O O8 0.474086 0.500000 0.724040
O O9 0.429528 0.278432 0.826261
O O10 0.380589 0.266499 0.738999
O O11 0.124907 0.500000 0.934020
O O12 0.191276 0.222663 0.881682
O O13 0.104991 0.298479 0.036965
O O14 0.000000 0.272043 0.000000
O O15 0.458473 0.000000 0.841170
O O16 0.198076 0.500000 0.224691
#
# Coordination Sequence:
#
# PCOD8092712 Si02
#       6
#     8   8   8   8   8   8
#     4  10  21  40  66  92 117 145 182 227 277 340
#     4   9  18  36  59  83 113 151 187 225 280 340
#     4  11  23  39  59  82 115 153 190 233 287 340
#     4  10  19  35  57  80 111 153 196 236 283 337
#     4   9  18  35  58  81 110 149 194 239 282 334
#     4  12  24  36  54  83 118 152 192 241 285 329
#
# _framework density 18.726889
#
# number of rings (size 3 to 8) (size 9 to 14) (size 15 to 20)
#    0.000    1.833    1.667    4.500    0.000    5.000 
#    0.000    0.833    0.000    5.000    0.000    0.000 
#    0.000    0.000    0.000    0.000    0.000    0.000 
#
# Total GULP energy -297685.608768 kJ/mol
# GULP energy per Si atom -12403.567032 kJ/mol
# Density = 1.868427 g / cm^3
# Si number density = 18.726889 Si / 1000 Ang^3
#
#
#
# Elastic Constant Matrix: (Units=GPa)
#
#
# Indices 1 2 3 4 5 6 
#
# 1 110.2238 54.5013 50.9413 0.0000 2.2764 0.0000
# 2 54.5013 115.8849 53.0562 0.0000 2.5303 0.0001
# 3 50.9413 53.0562 104.7228 0.0000 10.8008 0.0000
# 4 0.0000 0.0000 0.0000 33.7798 0.0000 0.9571
# 5 2.2764 2.5303 10.8008 0.0000 18.1050 0.0000
# 6 0.0000 0.0001 0.0000 0.9571 0.0000 33.9658
#
#
#
# Elastic Compliance Matrix: (Units=1/GPa)
#
#
# Indices 1 2 3 4 5 6 
#
# 1 0.013166 -0.004192 -0.004444 0.000000 0.001582 0.000000
# 2 -0.004192 0.012635 -0.004512 0.000000 0.001453 0.000000
# 3 -0.004444 -0.004512 0.014783 0.000000 -0.007630 0.000000
# 4 0.000000 0.000000 0.000000 0.029627 0.000000 -0.000835
# 5 0.001582 0.001453 -0.007630 0.000000 0.059383 0.000000
# 6 0.000000 0.000000 0.000000 -0.000835 0.000000 0.029465
#
#
# Mechanical properties :
#
#
# Convention : Reuss Voigt Hill
#
# Bulk Modulus (GPa) = 69.98430 71.98102 70.98266
# Shear Modulus (GPa) = 26.29933 28.65896 27.47915
#
# Velocity S-wave (km/s) = 3.75155 3.91623 3.83477
# Velocity P-wave (km/s) = 7.49784 7.67918 7.58905
#
# Compressibility (1/GPa) = 0.01428892
#
# Stress axis : x y z
#
# Youngs Moduli (GPa) = 75.95045 79.14626 67.64307
#
# Poissons Ratio (x) = 0.33180 0.30060
# Poissons Ratio (y) = 0.31840 0.30519
# Poissons Ratio (z) = 0.33751 0.35709
#
# Static dielectric constant tensor:
#      x y z
#    x 3.433410 0.000000 0.120610 
#    y 0.000000 3.400920 0.000000 
#    z 0.120610 0.000000 3.475760 
# 
# 
# High freq. dielectric constant tensor:
#      x y z
#    x 1.726500 0.000000 0.011080 
#    y 0.000000 1.727590 0.000000 
#    z 0.011080 0.000000 1.718710 
# 
# From -- ./inp_files/313630.got.cif
#   From: 2010.06.25/outbox.cif.g09.slc.cpg/sg12_157_cif.got.tgz:313630.got - 2010.06.28 00:19:55.
