data_PCOD8092248
_publ_section_title
;
Structure prediction by ZEFSAII (Michael W. Deem and Ramdas Pophale) SiO2 
 PCOD8092248
Probable space group: C 2/M
;
_chemical_formula_sum "Si O2"
_cell_formula_units_Z 52
_cell_length_a 9.494531
_cell_length_b 25.593928
_cell_length_c 12.586733
_cell_angle_alpha 90.000000
_cell_angle_beta 53.952895
_cell_angle_gamma 90.000000
_cell_volume 2472.985038
_symmetry_space_group_name_H-M "C 2/M"
_symmetry_group_IT_number 12
_symmetry_cell_setting 'monoclinic'
loop_
_space_group_symop_operation_xyz
x,y,z
-x,y,-z
-x,-y,-z
x,-y,z
1/2+x,1/2+y,z
1/2-x,1/2+y,-z
1/2-x,1/2-y,-z
1/2+x,1/2-y,z
loop_
_atom_site_type_symbol
_atom_site_label
_atom_site_fract_x
_atom_site_fract_y
_atom_site_fract_z
Si Si1 0.043016 0.941362 0.237506
Si Si2 0.265620 0.442214 0.540272
Si Si3 0.000000 0.600670 0.500000
Si Si4 0.605608 0.290499 0.187795
Si Si5 0.185391 0.139058 0.766959
Si Si6 0.276582 0.869291 0.245984
Si Si7 0.145438 0.322743 0.109192
O O1 0.943115 0.939159 0.394533
O O2 0.926698 0.913696 0.198925
O O3 0.224219 0.910297 0.175197
O O4 0.081487 0.000000 0.182533
O O5 0.253552 0.500000 0.599988
O O6 0.268633 0.394635 0.620993
O O7 0.099238 0.436784 0.537910
O O8 0.134659 0.637704 0.378078
O O9 0.420807 0.311165 0.228527
O O10 0.660543 0.316751 0.276341
O O11 0.589139 0.228112 0.203380
O O12 0.761393 0.305667 0.039128
O O13 0.223931 0.143809 0.875233
O O14 0.480317 0.857275 0.150289
#
# Coordination Sequence:
#
# PCOD8092248 Si02
#       7
#     8   8   4   8   8   8   8
#     4   9  20  37  59  87 121 160 195 232 287 356
#     4  10  19  34  60  87 118 157 199 236 283 350
#     4  10  19  36  56  92 122 148 192 244 289 350
#     4  10  23  39  63  83 115 153 205 246 292 346
#     4  10  20  37  61  85 120 151 194 243 293 346
#     4  11  20  34  59  90 117 144 191 255 294 329
#     4  11  21  40  62  89 108 154 208 250 283 343
#
# _framework density 21.027218999999999
#
# number of rings (size 3 to 8) (size 9 to 14) (size 15 to 20)
#    0.000    1.846    1.538    3.000    0.000    4.308 
#    0.000    0.769   10.154   25.846    0.000    0.000 
#    0.000    0.000    0.000    0.000    0.000    0.000 
#
# Total GULP energy -322376.238051 kJ/mol
# GULP energy per Si atom -12399.086079 kJ/mol
# Density = 2.097936 g / cm^3
# Si number density = 21.027219 Si / 1000 Ang^3
#
#
#
# Elastic Constant Matrix: (Units=GPa)
#
#
# Indices 1 2 3 4 5 6 
#
# 1 144.1375 51.7272 25.9207 0.0000 -2.5658 0.0000
# 2 51.7272 134.3549 33.0111 0.0000 -1.4612 0.0000
# 3 25.9207 33.0111 31.2129 0.0000 1.7915 0.0000
# 4 0.0000 0.0000 0.0000 31.2008 0.0000 1.8376
# 5 -2.5658 -1.4612 1.7915 0.0000 31.4110 0.0000
# 6 0.0000 0.0000 0.0000 1.8376 0.0000 26.0466
#
#
#
# Elastic Compliance Matrix: (Units=1/GPa)
#
#
# Indices 1 2 3 4 5 6 
#
# 1 0.008596 -0.002072 -0.004999 0.000000 0.000891 0.000000
# 2 -0.002072 0.010592 -0.009531 0.000000 0.000867 0.000000
# 3 -0.004999 -0.009531 0.046471 0.000000 -0.003502 0.000000
# 4 0.000000 0.000000 0.000000 0.032184 0.000000 -0.002271
# 5 0.000891 0.000867 -0.003502 0.000000 0.032149 0.000000
# 6 0.000000 0.000000 0.000000 -0.002271 0.000000 0.038553
#
#
# Mechanical properties :
#
#
# Convention : Reuss Voigt Hill
#
# Bulk Modulus (GPa) = 30.81182 59.00258 44.90720
# Shear Modulus (GPa) = 23.52202 31.00143 27.26173
#
# Velocity S-wave (km/s) = 3.34825 3.84389 3.60460
# Velocity P-wave (km/s) = 5.44360 6.91532 6.22312
#
# Compressibility (1/GPa) = 0.03245508
#
# Stress axis : x y z
#
# Youngs Moduli (GPa) = 116.33215 94.41182 21.51888
#
# Poissons Ratio (x) = 0.19559 0.10757
# Poissons Ratio (y) = 0.24100 0.20511
# Poissons Ratio (z) = 0.58151 0.89988
#
# Static dielectric constant tensor:
#      x y z
#    x 4.076240 0.000000 0.009730 
#    y 0.000000 3.964990 0.000000 
#    z 0.009730 0.000000 3.473950 
# 
# 
# High freq. dielectric constant tensor:
#      x y z
#    x 1.852430 0.000000 0.001150 
#    y 0.000000 1.821500 0.000000 
#    z 0.001150 0.000000 1.783320 
# 
# From -- ./inp_files/124132.got.cif
#   From: 2010.06.25/outbox.cif.g09.slc.cpg/sg12_63_cif.got.tgz:124132.got - 2010.06.28 00:19:55.
