data_PCOD8092756
_publ_section_title
;
Structure prediction by ZEFSAII (Michael W. Deem and Ramdas Pophale) SiO2 
 PCOD8092756
Probable space group: C 2/M
;
_chemical_formula_sum "Si O2"
_cell_formula_units_Z 40
_cell_length_a 24.519884
_cell_length_b 8.521527
_cell_length_c 9.715859
_cell_angle_alpha 90.000000
_cell_angle_beta 102.953382
_cell_angle_gamma 90.000000
_cell_volume 1978.437794
_symmetry_space_group_name_H-M "C 2/M"
_symmetry_group_IT_number 12
_symmetry_cell_setting 'monoclinic'
loop_
_space_group_symop_operation_xyz
x,y,z
-x,y,-z
-x,-y,-z
x,-y,z
1/2+x,1/2+y,z
1/2-x,1/2+y,-z
1/2-x,1/2-y,-z
1/2+x,1/2-y,z
loop_
_atom_site_type_symbol
_atom_site_label
_atom_site_fract_x
_atom_site_fract_y
_atom_site_fract_z
Si Si1 0.260522 0.185431 0.353669
Si Si2 0.664767 0.686695 0.096009
Si Si3 0.645994 0.686268 0.778347
Si Si4 0.520847 0.313672 0.654511
Si Si5 0.546569 0.686371 0.127675
O O1 0.250000 0.250000 0.500000
O O2 0.214622 0.252599 0.219508
O O3 0.320423 0.238351 0.329438
O O4 0.257190 0.000000 0.360121
O O5 0.663661 0.500000 0.100153
O O6 0.607241 0.756501 0.126067
O O7 0.671002 0.741763 0.940379
O O8 0.648963 0.500000 0.765503
O O9 0.582184 0.748232 0.731879
O O10 0.500000 0.240132 0.500000
O O11 0.524523 0.500000 0.648930
O O12 0.472549 0.260918 0.732224
O O13 0.548988 0.500000 0.113043
O O14 0.500000 0.756342 0.000000
#
# Coordination Sequence:
#
# PCOD8092756 Si02
#       5
#     8   8   8   8   8
#     4  11  24  39  55  78 107 143 183 225 271 318
#     4   9  18  32  53  80 109 141 178 221 267 316
#     4  10  19  35  57  83 111 140 178 221 267 322
#     4   9  17  26  45  80 114 140 169 213 266 314
#     4   9  14  25  45  74 109 136 166 215 267 312
#
# _framework density 20.217973000000001
#
# number of rings (size 3 to 8) (size 9 to 14) (size 15 to 20)
#    0.000    2.400    2.000    1.200    2.800    0.000 
#    0.000    1.000    0.000    0.600    0.000    1.400 
#    0.000    0.000    0.000    0.000    0.000    0.000 
#
# Total GULP energy -247915.613496 kJ/mol
# GULP energy per Si atom -12395.780675 kJ/mol
# Density = 2.017196 g / cm^3
# Si number density = 20.217973 Si / 1000 Ang^3
#
#
#
# Elastic Constant Matrix: (Units=GPa)
#
#
# Indices 1 2 3 4 5 6 
#
# 1 109.2794 14.7495 44.7327 0.0000 -17.7654 0.0000
# 2 14.7495 22.9583 17.8824 0.0000 -1.0772 0.0000
# 3 44.7327 17.8824 157.6533 0.0000 -11.5924 0.0000
# 4 0.0000 0.0000 0.0000 17.9480 0.0000 -2.5980
# 5 -17.7654 -1.0772 -11.5924 0.0000 43.0454 0.0000
# 6 0.0000 0.0000 0.0000 -2.5980 0.0000 16.9604
#
#
#
# Elastic Compliance Matrix: (Units=1/GPa)
#
#
# Indices 1 2 3 4 5 6 
#
# 1 0.011485 -0.005354 -0.002359 0.000000 0.003971 0.000000
# 2 -0.005354 0.050278 -0.004340 0.000000 -0.002120 0.000000
# 3 -0.002359 -0.004340 0.007575 0.000000 0.000958 0.000000
# 4 0.000000 0.000000 0.000000 0.056980 0.000000 0.008728
# 5 0.003971 -0.002120 0.000958 0.000000 0.025075 0.000000
# 6 0.000000 0.000000 0.000000 0.008728 0.000000 0.060298
#
#
# Mechanical properties :
#
#
# Convention : Reuss Voigt Hill
#
# Bulk Modulus (GPa) = 22.10869 49.40224 35.75547
# Shear Modulus (GPa) = 19.93031 29.75918 24.84474
#
# Velocity S-wave (km/s) = 3.14311 3.84072 3.50929
# Velocity P-wave (km/s) = 4.91234 6.64500 5.84325
#
# Compressibility (1/GPa) = 0.04523107
#
# Stress axis : x y z
#
# Youngs Moduli (GPa) = 87.07129 19.88947 132.01054
#
# Poissons Ratio (x) = 0.10650 0.31147
# Poissons Ratio (y) = 0.46621 0.57287
# Poissons Ratio (z) = 0.20544 0.08631
#
# Static dielectric constant tensor:
#      x y z
#    x 3.907160 0.000000 0.060530 
#    y 0.000000 2.946820 0.000000 
#    z 0.060530 0.000000 3.966640 
# 
# 
# High freq. dielectric constant tensor:
#      x y z
#    x 1.804460 0.000000 -0.005120 
#    y 0.000000 1.718410 0.000000 
#    z -0.005120 0.000000 1.804310 
# 
# From -- ./inp_files/93020.got.cif
#   From: 2010.06.25/outbox.cif.g09.slc.cpg/sg12_47_cif.got.tgz:93020.got - 2010.06.28 00:19:55.
