data_PCOD8092702
_publ_section_title
;
Structure prediction by ZEFSAII (Michael W. Deem and Ramdas Pophale) SiO2 
 PCOD8092702
Probable space group: C 2/M
;
_chemical_formula_sum "Si O2"
_cell_formula_units_Z 56
_cell_length_a 10.288925
_cell_length_b 15.281200
_cell_length_c 20.593111
_cell_angle_alpha 90.000000
_cell_angle_beta 61.427401
_cell_angle_gamma 90.000000
_cell_volume 2843.470268
_symmetry_space_group_name_H-M "C 2/M"
_symmetry_group_IT_number 12
_symmetry_cell_setting 'monoclinic'
loop_
_space_group_symop_operation_xyz
x,y,z
-x,y,-z
-x,-y,-z
x,-y,z
1/2+x,1/2+y,z
1/2-x,1/2+y,-z
1/2-x,1/2-y,-z
1/2+x,1/2-y,z
loop_
_atom_site_type_symbol
_atom_site_label
_atom_site_fract_x
_atom_site_fract_y
_atom_site_fract_z
Si Si1 0.402692 0.860903 0.584259
Si Si2 0.467762 0.899653 0.307133
Si Si3 0.615550 0.403047 0.167635
Si Si4 0.288489 0.774550 0.797402
Si Si5 0.180823 0.193851 0.339664
Si Si6 0.555269 0.400868 0.916539
Si Si7 0.570543 0.406824 0.669732
O O1 0.500000 0.889611 0.500000
O O2 0.490015 0.889932 0.627672
O O3 0.368266 0.757046 0.590153
O O4 0.244456 0.906297 0.616526
O O5 0.558549 0.830405 0.241306
O O6 0.292992 0.879359 0.338990
O O7 0.496738 0.000000 0.278269
O O8 0.690287 0.500000 0.163355
O O9 0.711863 0.319639 0.165997
O O10 0.583174 0.396334 0.099157
O O11 0.462199 0.397389 0.245296
O O12 0.239228 0.753516 0.735076
O O13 0.176347 0.833647 0.863403
O O14 0.025586 0.162018 0.347137
O O15 0.619517 0.500000 0.903529
O O16 0.500000 0.370588 0.000000
O O17 0.512263 0.500000 0.658526
#
# Coordination Sequence:
#
# PCOD8092702 Si02
#       7
#     8   8   8   8   8   8   8
#     4  11  23  38  55  77 108 147 187 224 271 331
#     4  11  22  36  58  86 112 139 181 237 282 320
#     4   9  18  34  55  77 103 139 181 221 267 326
#     4  10  19  35  57  80 109 143 181 224 276 329
#     4  10  21  37  57  81 107 139 182 229 278 329
#     4  10  20  33  51  78 111 146 184 224 266 317
#     4  10  20  36  57  78 105 141 178 221 277 337
#
# _framework density 19.694244999999999
#
# number of rings (size 3 to 8) (size 9 to 14) (size 15 to 20)
#    0.000    1.857    0.000    6.429    0.000    5.714 
#    0.000    0.000    0.000    3.000    0.000    0.000 
#    0.000    0.000    0.000    0.000    0.000    0.000 
#
# Total GULP energy -346911.366347 kJ/mol
# GULP energy per Si atom -12389.691655 kJ/mol
# Density = 1.964942 g / cm^3
# Si number density = 19.694245 Si / 1000 Ang^3
#
#
#
# Elastic Constant Matrix: (Units=GPa)
#
#
# Indices 1 2 3 4 5 6 
#
# 1 81.7523 25.1113 26.9817 0.0000 1.7206 0.0000
# 2 25.1113 123.6935 29.0145 0.0000 1.4724 0.0000
# 3 26.9817 29.0145 82.0964 0.0000 -2.8435 0.0000
# 4 0.0000 0.0000 0.0000 6.5136 0.0000 -2.9063
# 5 1.7206 1.4724 -2.8435 0.0000 17.8701 0.0000
# 6 0.0000 0.0000 0.0000 -2.9063 0.0000 26.3661
#
#
#
# Elastic Compliance Matrix: (Units=1/GPa)
#
#
# Indices 1 2 3 4 5 6 
#
# 1 0.014196 -0.001909 -0.004055 0.000000 -0.001855 0.000000
# 2 -0.001909 0.009099 -0.002622 0.000000 -0.000983 0.000000
# 3 -0.004055 -0.002622 0.014542 0.000000 0.002920 0.000000
# 4 0.000000 0.000000 0.000000 0.161467 0.000000 0.017799
# 5 -0.001855 -0.000983 0.002920 0.000000 0.056684 0.000000
# 6 0.000000 0.000000 0.000000 0.017799 0.000000 0.039889
#
#
# Mechanical properties :
#
#
# Convention : Reuss Voigt Hill
#
# Bulk Modulus (GPa) = 48.39458 49.97304 49.18381
# Shear Modulus (GPa) = 15.62808 23.91226 19.77017
#
# Velocity S-wave (km/s) = 2.82003 3.48828 3.17180
# Velocity P-wave (km/s) = 5.93546 6.45397 6.20014
#
# Compressibility (1/GPa) = 0.02066347
#
# Stress axis : x y z
#
# Youngs Moduli (GPa) = 70.44354 109.90435 68.76829
#
# Poissons Ratio (x) = 0.20976 0.27887
# Poissons Ratio (y) = 0.13445 0.18034
# Poissons Ratio (z) = 0.28567 0.28822
#
# Static dielectric constant tensor:
#      x y z
#    x 3.296350 0.000000 0.116580 
#    y 0.000000 3.912260 0.000000 
#    z 0.116580 0.000000 3.440990 
# 
# 
# High freq. dielectric constant tensor:
#      x y z
#    x 1.746800 0.000000 0.010280 
#    y 0.000000 1.794520 0.000000 
#    z 0.010280 0.000000 1.741760 
# 
# From -- ./inp_files/263267.got.cif
#   From: 2010.06.25/outbox.cif.g09.slc.cpg/sg12_132_cif.got.tgz:263267.got - 2010.06.28 00:19:55.
