data_PCOD8092212
_publ_section_title
;
Structure prediction by ZEFSAII (Michael W. Deem and Ramdas Pophale) SiO2 
 PCOD8092212
Probable space group: C 2/M
;
_chemical_formula_sum "Si O2"
_cell_formula_units_Z 40
_cell_length_a 15.284342
_cell_length_b 8.618109
_cell_length_c 14.165336
_cell_angle_alpha 90.000000
_cell_angle_beta 93.542522
_cell_angle_gamma 90.000000
_cell_volume 1862.322856
_symmetry_space_group_name_H-M "C 2/M"
_symmetry_group_IT_number 12
_symmetry_cell_setting 'monoclinic'
loop_
_space_group_symop_operation_xyz
x,y,z
-x,y,-z
-x,-y,-z
x,-y,z
1/2+x,1/2+y,z
1/2-x,1/2+y,-z
1/2-x,1/2-y,-z
1/2+x,1/2-y,z
loop_
_atom_site_type_symbol
_atom_site_label
_atom_site_fract_x
_atom_site_fract_y
_atom_site_fract_z
Si Si1 0.351152 0.676978 0.400719
Si Si2 0.833353 0.822473 0.607965
Si Si3 0.422712 0.679038 0.806916
Si Si4 0.599921 0.180469 0.779919
Si Si5 0.262020 0.182460 0.897736
O O1 0.369817 0.500000 0.372562
O O2 0.247469 0.706953 0.384944
O O3 0.381209 0.709273 0.510689
O O4 0.405030 0.785120 0.332510
O O5 0.902348 0.791735 0.695322
O O6 0.798233 0.000000 0.608622
O O7 0.412447 0.500000 0.834739
O O8 0.522148 0.733536 0.830843
O O9 0.359423 0.779453 0.868606
O O10 0.693281 0.239335 0.822604
O O11 0.590372 0.000000 0.798698
O O12 0.246863 0.000000 0.898218
O O13 0.250000 0.250000 0.000000
#
# Coordination Sequence:
#
# PCOD8092212 Si02
#       5
#     8   8   8   8   8
#     4  10  19  34  59  91 127 171 217 263 314 373
#     4   9  19  35  59  90 128 170 214 262 316 374
#     4  11  23  42  67  97 131 169 213 265 319 378
#     4  12  25  42  64  95 132 172 216 264 314 376
#     4  12  26  47  72  98 126 163 207 262 325 387
#
# _framework density 21.478552000000001
#
# number of rings (size 3 to 8) (size 9 to 14) (size 15 to 20)
#    0.000    1.200    2.000    4.800    0.000    3.200 
#    0.000    8.000    0.000    0.000    0.000    0.000 
#    0.000    0.000    0.000    0.000    0.000    0.000 
#
# Total GULP energy -248094.905357 kJ/mol
# GULP energy per Si atom -12404.745268 kJ/mol
# Density = 2.142967 g / cm^3
# Si number density = 21.478552 Si / 1000 Ang^3
#
#
#
# Elastic Constant Matrix: (Units=GPa)
#
#
# Indices 1 2 3 4 5 6 
#
# 1 75.0966 7.2472 19.0548 0.0000 -22.1803 0.0000
# 2 7.2472 97.5226 32.9529 0.0000 -1.0460 0.0000
# 3 19.0548 32.9529 99.2661 0.0000 -20.2048 0.0000
# 4 0.0000 0.0000 0.0000 34.8781 0.0000 -6.1380
# 5 -22.1803 -1.0460 -20.2048 0.0000 20.1347 0.0000
# 6 0.0000 0.0000 0.0000 -6.1380 0.0000 35.6008
#
#
#
# Elastic Compliance Matrix: (Units=1/GPa)
#
#
# Indices 1 2 3 4 5 6 
#
# 1 0.020045 -0.001751 0.001520 0.000000 0.023516 0.000000
# 2 -0.001751 0.011976 -0.004908 0.000000 -0.006232 0.000000
# 3 0.001520 -0.004908 0.014704 0.000000 0.016174 0.000000
# 4 0.000000 0.000000 0.000000 0.029568 0.000000 0.005098
# 5 0.023516 -0.006232 0.016174 0.000000 0.091478 0.000000
# 6 0.000000 0.000000 0.000000 0.005098 0.000000 0.028968
#
#
# Mechanical properties :
#
#
# Convention : Reuss Voigt Hill
#
# Bulk Modulus (GPa) = 27.43738 43.37723 35.40730
# Shear Modulus (GPa) = 22.81386 32.29807 27.55597
#
# Velocity S-wave (km/s) = 3.26263 3.88201 3.58572
# Velocity P-wave (km/s) = 5.19568 6.35081 5.80206
#
# Compressibility (1/GPa) = 0.03644663
#
# Stress axis : x y z
#
# Youngs Moduli (GPa) = 49.88755 83.50272 68.01092
#
# Poissons Ratio (x) = 0.14621 -0.10337
# Poissons Ratio (y) = 0.08735 0.33378
# Poissons Ratio (z) = -0.07583 0.40981
#
# Static dielectric constant tensor:
#      x y z
#    x 3.668160 0.000000 -0.034310 
#    y 0.000000 3.887250 0.000000 
#    z -0.034310 0.000000 4.031060 
# 
# 
# High freq. dielectric constant tensor:
#      x y z
#    x 1.832170 0.000000 -0.010170 
#    y 0.000000 1.847800 0.000000 
#    z -0.010170 0.000000 1.847320 
# 
# From -- ./inp_files/211354.got.cif
#   From: 2010.06.25/outbox.cif.g09.slc.cpg/sg12_106_cif.got.tgz:211354.got - 2010.06.28 00:19:55.
