data_PCOD8092983
_publ_section_title
;
Structure prediction by ZEFSAII (Michael W. Deem and Ramdas Pophale) SiO2 
 PCOD8092983
Probable space group: C 2/M
;
_chemical_formula_sum "Si O2"
_cell_formula_units_Z 56
_cell_length_a 14.106460
_cell_length_b 17.985660
_cell_length_c 12.171117
_cell_angle_alpha 90.000000
_cell_angle_beta 120.090453
_cell_angle_gamma 90.000000
_cell_volume 2671.830628
_symmetry_space_group_name_H-M "C 2/M"
_symmetry_group_IT_number 12
_symmetry_cell_setting 'monoclinic'
loop_
_space_group_symop_operation_xyz
x,y,z
-x,y,-z
-x,-y,-z
x,-y,z
1/2+x,1/2+y,z
1/2-x,1/2+y,-z
1/2-x,1/2-y,-z
1/2+x,1/2-y,z
loop_
_atom_site_type_symbol
_atom_site_label
_atom_site_fract_x
_atom_site_fract_y
_atom_site_fract_z
Si Si1 0.337432 0.820062 0.624961
Si Si2 0.528319 0.846274 0.894619
Si Si3 0.291358 0.913959 0.142784
Si Si4 0.787590 0.416971 0.385497
Si Si5 0.960147 0.916566 0.713305
Si Si6 0.916227 0.176429 0.046556
Si Si7 0.095985 0.194208 0.481637
O O1 0.414335 0.852886 0.762539
O O2 0.334864 0.864968 0.508541
O O3 0.215818 0.812084 0.608623
O O4 0.386461 0.739992 0.621175
O O5 0.609407 0.903985 0.884175
O O6 0.583298 0.764544 0.929442
O O7 0.500000 0.874036 0.000000
O O8 0.334438 0.896060 0.291983
O O9 0.249400 0.000000 0.112346
O O10 0.201385 0.852929 0.058946
O O11 0.822839 0.500000 0.439773
O O12 0.656810 0.411633 0.294532
O O13 0.946221 0.886886 0.580508
O O14 0.051255 0.867294 0.825299
O O15 0.004959 0.000000 0.734216
O O16 0.000000 0.155582 0.000000
O O17 0.000000 0.230627 0.500000
#
# Coordination Sequence:
#
# PCOD8092983 Si02
#       7
#     8   8   8   8   8   8   8
#     4  10  22  41  63  90 124 168 212 258 322 370
#     4  11  26  43  61  92 131 175 219 263 314 392
#     4  11  24  41  65  97 130 169 217 267 325 386
#     4   9  20  37  63  95 124 158 209 272 319 372
#     4  10  19  35  58  92 129 160 206 263 323 380
#     4  11  21  38  64  93 128 166 208 270 325 373
#     4  10  22  38  62  91 124 167 211 257 316 383
#
# _framework density 20.959412
#
# number of rings (size 3 to 8) (size 9 to 14) (size 15 to 20)
#    0.000    1.714    2.857    0.857    2.000    2.857 
#    0.000    1.429    0.000    0.000    0.000    0.000 
#    0.000    0.000    0.000    0.000    0.000    0.000 
#
# Total GULP energy -347118.683995 kJ/mol
# GULP energy per Si atom -12397.095857 kJ/mol
# Density = 2.091171 g / cm^3
# Si number density = 20.959412 Si / 1000 Ang^3
#
#
#
# Elastic Constant Matrix: (Units=GPa)
#
#
# Indices 1 2 3 4 5 6 
#
# 1 117.5830 19.0918 47.0070 0.0000 -4.2784 0.0000
# 2 19.0918 65.6189 27.3033 0.0000 -5.0434 0.0000
# 3 47.0070 27.3033 114.5470 0.0000 0.2815 0.0000
# 4 0.0000 0.0000 0.0000 25.7456 0.0000 -1.9003
# 5 -4.2784 -5.0434 0.2815 0.0000 23.0540 0.0000
# 6 0.0000 0.0000 0.0000 -1.9003 0.0000 24.2404
#
#
#
# Elastic Compliance Matrix: (Units=1/GPa)
#
#
# Indices 1 2 3 4 5 6 
#
# 1 0.010349 -0.001234 -0.003957 0.000000 0.001699 0.000000
# 2 -0.001234 0.017395 -0.003649 0.000000 0.003621 0.000000
# 3 -0.003957 -0.003649 0.011228 0.000000 -0.001670 0.000000
# 4 0.000000 0.000000 0.000000 0.039068 0.000000 0.003063
# 5 0.001699 0.003621 -0.001670 0.000000 0.044504 0.000000
# 6 0.000000 0.000000 0.000000 0.003063 0.000000 0.041494
#
#
# Mechanical properties :
#
#
# Convention : Reuss Voigt Hill
#
# Bulk Modulus (GPa) = 46.96563 53.83924 50.40243
# Shear Modulus (GPa) = 26.48117 28.23111 27.35614
#
# Velocity S-wave (km/s) = 3.55836 3.67405 3.61667
# Velocity P-wave (km/s) = 6.27209 6.61373 6.44517
#
# Compressibility (1/GPa) = 0.02129217
#
# Stress axis : x y z
#
# Youngs Moduli (GPa) = 96.63076 57.48757 89.06583
#
# Poissons Ratio (x) = 0.07094 0.35242
# Poissons Ratio (y) = 0.11924 0.32498
# Poissons Ratio (z) = 0.38235 0.20976
#
# Static dielectric constant tensor:
#      x y z
#    x 3.738790 0.000000 0.014470 
#    y 0.000000 3.783670 0.000000 
#    z 0.014470 0.000000 3.673760 
# 
# 
# High freq. dielectric constant tensor:
#      x y z
#    x 1.808300 0.000000 0.001980 
#    y 0.000000 1.819670 0.000000 
#    z 0.001980 0.000000 1.816910 
# 
# From -- ./inp_files/146229.got.cif
#   From: 2010.06.25/outbox.cif.g09.slc.cpg/sg12_74_cif.got.tgz:146229.got - 2010.06.28 00:19:55.
