data_PCOD8092168
_publ_section_title
;
Structure prediction by ZEFSAII (Michael W. Deem and Ramdas Pophale) SiO2 
 PCOD8092168
Probable space group: C 2/M
;
_chemical_formula_sum "Si O2"
_cell_formula_units_Z 64
_cell_length_a 24.600807
_cell_length_b 8.704566
_cell_length_c 15.109883
_cell_angle_alpha 90.000000
_cell_angle_beta 88.256006
_cell_angle_gamma 90.000000
_cell_volume 3234.121714
_symmetry_space_group_name_H-M "C 2/M"
_symmetry_group_IT_number 12
_symmetry_cell_setting 'monoclinic'
loop_
_space_group_symop_operation_xyz
x,y,z
-x,y,-z
-x,-y,-z
x,-y,z
1/2+x,1/2+y,z
1/2-x,1/2+y,-z
1/2-x,1/2-y,-z
1/2+x,1/2-y,z
loop_
_atom_site_type_symbol
_atom_site_label
_atom_site_fract_x
_atom_site_fract_y
_atom_site_fract_z
Si Si1 0.833364 0.675558 0.187517
Si Si2 0.893086 0.320642 0.527234
Si Si3 0.282051 0.679250 0.576341
Si Si4 0.310551 0.824553 0.994675
Si Si5 0.368998 0.321649 0.827640
Si Si6 0.957626 0.321169 0.699258
Si Si7 0.269966 0.824128 0.749124
Si Si8 0.421571 0.181883 0.326593
O O1 0.818749 0.500000 0.215173
O O2 0.781220 0.786291 0.188122
O O3 0.879324 0.740186 0.252795
O O4 0.847031 0.684565 0.082641
O O5 0.875868 0.500000 0.526162
O O6 0.845381 0.213396 0.564696
O O7 0.940088 0.293088 0.597696
O O8 0.908243 0.262941 0.427437
O O9 0.271045 0.500000 0.589643
O O10 0.250000 0.750000 0.500000
O O11 0.252268 0.778704 0.652593
O O12 0.351823 0.755270 0.920827
O O13 0.298986 0.000000 0.969217
O O14 0.250000 0.750000 0.000000
O O15 0.376544 0.500000 0.844677
O O16 0.423545 0.260512 0.778296
O O17 0.320250 0.288794 0.763118
O O18 0.954236 0.500000 0.721345
O O19 0.018995 0.256210 0.703175
O O20 0.288231 0.000000 0.758983
O O21 0.422708 0.000000 0.326502
#
# Coordination Sequence:
#
# PCOD8092168 Si02
#       8
#     8   8   8   8   8   8   8   8
#     4  10  21  38  61  89 122 157 197 246 302 362
#     4  10  19  34  59  88 119 156 200 244 293 351
#     4  12  24  37  54  81 121 162 202 245 297 355
#     4  11  22  37  61  90 120 156 199 247 304 364
#     4  12  24  39  60  87 119 155 197 249 304 357
#     4  10  20  37  62  89 120 158 203 246 291 352
#     4  12  23  37  59  86 119 157 197 243 301 362
#     4   9  19  37  61  89 119 156 200 246 294 353
#
# _framework density 19.788989999999998
#
# number of rings (size 3 to 8) (size 9 to 14) (size 15 to 20)
#    0.000    1.250    2.500    4.875    0.000    3.000 
#    0.000    1.875    0.000    5.250    0.000    0.000 
#    0.000    0.000    0.000    0.000    0.000    0.000 
#
# Total GULP energy -396520.660004 kJ/mol
# GULP energy per Si atom -12391.270625 kJ/mol
# Density = 1.974395 g / cm^3
# Si number density = 19.788990 Si / 1000 Ang^3
#
#
#
# Elastic Constant Matrix: (Units=GPa)
#
#
# Indices 1 2 3 4 5 6 
#
# 1 75.8585 36.2454 30.7923 0.0000 -5.1753 0.0000
# 2 36.2454 87.1482 42.3237 0.0000 -8.9769 0.0000
# 3 30.7923 42.3237 130.9762 0.0000 -10.4816 0.0000
# 4 0.0000 0.0000 0.0000 24.9690 0.0000 -5.2309
# 5 -5.1753 -8.9769 -10.4816 0.0000 29.9014 0.0000
# 6 0.0000 0.0000 0.0000 -5.2309 0.0000 24.0351
#
#
#
# Elastic Compliance Matrix: (Units=1/GPa)
#
#
# Indices 1 2 3 4 5 6 
#
# 1 0.016895 -0.006015 -0.001995 0.000000 0.000419 0.000000
# 2 -0.006015 0.015954 -0.003541 0.000000 0.002507 0.000000
# 3 -0.001995 -0.003541 0.009399 0.000000 0.001886 0.000000
# 4 0.000000 0.000000 0.000000 0.041963 0.000000 0.009133
# 5 0.000419 0.002507 0.001886 0.000000 0.034930 0.000000
# 6 0.000000 0.000000 0.000000 0.009133 0.000000 0.043593
#
#
# Mechanical properties :
#
#
# Convention : Reuss Voigt Hill
#
# Bulk Modulus (GPa) = 52.22613 56.96728 54.59670
# Shear Modulus (GPa) = 26.01234 28.08920 27.05077
#
# Velocity S-wave (km/s) = 3.62952 3.77163 3.70125
# Velocity P-wave (km/s) = 6.63425 6.91497 6.77606
#
# Compressibility (1/GPa) = 0.01914750
#
# Stress axis : x y z
#
# Youngs Moduli (GPa) = 59.19081 62.68010 106.39359
#
# Poissons Ratio (x) = 0.37699 0.21223
# Poissons Ratio (y) = 0.35601 0.37671
# Poissons Ratio (z) = 0.11807 0.22193
#
# Static dielectric constant tensor:
#      x y z
#    x 3.435230 0.000000 0.068000 
#    y 0.000000 3.443230 0.000000 
#    z 0.068000 0.000000 3.892620 
# 
# 
# High freq. dielectric constant tensor:
#      x y z
#    x 1.757460 0.000000 -0.002330 
#    y 0.000000 1.756550 0.000000 
#    z -0.002330 0.000000 1.791510 
# 
# From -- ./inp_files/238587.got.cif
#   From: 2010.06.25/outbox.cif.g09.slc.cpg/sg12_120_cif.got.tgz:238587.got - 2010.06.28 00:19:55.
