data_PCOD8092900
_publ_section_title
;
Structure prediction by ZEFSAII (Michael W. Deem and Ramdas Pophale) SiO2 
 PCOD8092900
Probable space group: C 2/M
;
_chemical_formula_sum "Si O2"
_cell_formula_units_Z 56
_cell_length_a 23.689654
_cell_length_b 20.611566
_cell_length_c 11.328903
_cell_angle_alpha 90.000000
_cell_angle_beta 30.519343
_cell_angle_gamma 90.000000
_cell_volume 2809.152076
_symmetry_space_group_name_H-M "C 2/M"
_symmetry_group_IT_number 12
_symmetry_cell_setting 'monoclinic'
loop_
_space_group_symop_operation_xyz
x,y,z
-x,y,-z
-x,-y,-z
x,-y,z
1/2+x,1/2+y,z
1/2-x,1/2+y,-z
1/2-x,1/2-y,-z
1/2+x,1/2-y,z
loop_
_atom_site_type_symbol
_atom_site_label
_atom_site_fract_x
_atom_site_fract_y
_atom_site_fract_z
Si Si1 0.955207 0.926162 0.453644
Si Si2 0.066862 0.716634 0.579086
Si Si3 0.050863 0.370021 0.031558
Si Si4 0.903126 0.172906 0.915516
Si Si5 0.201092 0.318841 0.127802
Si Si6 0.284929 0.753560 0.303699
Si Si7 0.698340 0.928110 0.946321
O O1 0.824071 0.917462 0.678481
O O2 0.000000 0.900035 0.500000
O O3 0.008074 0.885329 0.249880
O O4 0.993397 0.000000 0.368299
O O5 0.091661 0.687799 0.405668
O O6 0.174513 0.758847 0.423026
O O7 0.047206 0.660222 0.711147
O O8 0.958621 0.761934 0.760772
O O9 0.143765 0.317160 0.838654
O O10 0.114007 0.427463 0.987088
O O11 0.000000 0.396184 0.000000
O O12 0.799802 0.148027 0.024245
O O13 0.859368 0.191250 0.126260
O O14 0.250000 0.250000 0.000000
O O15 0.164188 0.368114 0.091414
O O16 0.250000 0.750000 0.500000
O O17 0.687410 0.000000 0.025219
#
# Coordination Sequence:
#
# PCOD8092900 Si02
#       7
#     8   8   8   8   8   8   8
#     4  10  19  35  58  83 116 157 197 242 303 374
#     4  10  21  35  56  87 122 154 193 251 304 363
#     4  11  22  39  60  83 117 157 206 250 296 361
#     4  10  20  31  55  86 116 153 187 239 307 365
#     4  11  21  35  56  87 122 151 193 245 303 365
#     4  10  19  35  58  88 118 150 199 253 308 352
#     4  11  24  40  60  87 121 161 203 247 303 374
#
# _framework density 19.934840999999999
#
# number of rings (size 3 to 8) (size 9 to 14) (size 15 to 20)
#    0.000    1.571    2.857    4.286    0.000    2.000 
#    0.000    1.429    0.000    1.714    0.000    3.000 
#    0.000    0.000    0.000    0.000    0.000    0.000 
#
# Total GULP energy -347081.902870 kJ/mol
# GULP energy per Si atom -12395.782245 kJ/mol
# Density = 1.988947 g / cm^3
# Si number density = 19.934841 Si / 1000 Ang^3
#
#
#
# Elastic Constant Matrix: (Units=GPa)
#
#
# Indices 1 2 3 4 5 6 
#
# 1 106.1460 34.7041 42.0754 0.0000 -1.7032 0.0000
# 2 34.7041 90.0074 37.7221 0.0000 18.4587 0.0000
# 3 42.0754 37.7221 116.8291 0.0000 20.1818 0.0000
# 4 0.0000 0.0000 0.0000 26.7039 0.0000 -1.2396
# 5 -1.7032 18.4587 20.1818 0.0000 37.5353 0.0000
# 6 0.0000 0.0000 0.0000 -1.2396 0.0000 24.4359
#
#
#
# Elastic Compliance Matrix: (Units=1/GPa)
#
#
# Indices 1 2 3 4 5 6 
#
# 1 0.012402 -0.004087 -0.003959 0.000000 0.004701 0.000000
# 2 -0.004087 0.014926 -0.002257 0.000000 -0.006312 0.000000
# 3 -0.003959 -0.002257 0.011634 0.000000 -0.005325 0.000000
# 4 0.000000 0.000000 0.000000 0.037536 0.000000 0.001904
# 5 0.004701 -0.006312 -0.005325 0.000000 0.032822 0.000000
# 6 0.000000 0.000000 0.000000 0.001904 0.000000 0.041020
#
#
# Mechanical properties :
#
#
# Convention : Reuss Voigt Hill
#
# Bulk Modulus (GPa) = 54.47720 60.22064 57.34892
# Shear Modulus (GPa) = 28.23816 30.96707 29.60261
#
# Velocity S-wave (km/s) = 3.76776 3.94561 3.85771
# Velocity P-wave (km/s) = 6.80551 7.14363 6.97662
#
# Compressibility (1/GPa) = 0.01835630
#
# Stress axis : x y z
#
# Youngs Moduli (GPa) = 80.63288 66.99533 85.95456
#
# Poissons Ratio (x) = 0.27379 0.34030
# Poissons Ratio (y) = 0.32952 0.19403
# Poissons Ratio (z) = 0.31923 0.15123
#
# Static dielectric constant tensor:
#      x y z
#    x 3.933170 0.000000 0.048360 
#    y 0.000000 3.333890 0.000000 
#    z 0.048360 0.000000 3.927560 
# 
# 
# High freq. dielectric constant tensor:
#      x y z
#    x 1.769930 0.000000 -0.014910 
#    y 0.000000 1.748190 0.000000 
#    z -0.014910 0.000000 1.792180 
# 
# From -- ./inp_files/177867.got.cif
#   From: 2010.06.25/outbox.cif.g09.slc.cpg/sg12_89_cif.got.tgz:177867.got - 2010.06.28 00:19:55.
