data_PCOD8092404
_publ_section_title
;
Structure prediction by ZEFSAII (Michael W. Deem and Ramdas Pophale) SiO2 
 PCOD8092404
Probable space group: C 2/M
;
_chemical_formula_sum "Si O2"
_cell_formula_units_Z 48
_cell_length_a 14.602098
_cell_length_b 13.109932
_cell_length_c 20.713126
_cell_angle_alpha 90.000000
_cell_angle_beta 38.261515
_cell_angle_gamma 90.000000
_cell_volume 2455.435884
_symmetry_space_group_name_H-M "C 2/M"
_symmetry_group_IT_number 12
_symmetry_cell_setting 'monoclinic'
loop_
_space_group_symop_operation_xyz
x,y,z
-x,y,-z
-x,-y,-z
x,-y,z
1/2+x,1/2+y,z
1/2-x,1/2+y,-z
1/2-x,1/2-y,-z
1/2+x,1/2-y,z
loop_
_atom_site_type_symbol
_atom_site_label
_atom_site_fract_x
_atom_site_fract_y
_atom_site_fract_z
Si Si1 0.226900 0.383532 0.582624
Si Si2 0.012281 0.383076 0.815891
Si Si3 0.563690 0.304387 0.868595
Si Si4 0.415077 0.198578 0.460173
Si Si5 0.792586 0.615881 0.650143
Si Si6 0.213909 0.881528 0.908846
O O1 0.268509 0.500000 0.545721
O O2 0.375292 0.317956 0.490184
O O3 0.102652 0.343276 0.601941
O O4 0.159217 0.370210 0.691375
O O5 0.992586 0.500000 0.849557
O O6 0.869976 0.348606 0.852690
O O7 0.028837 0.313639 0.870676
O O8 0.632170 0.356380 0.766729
O O9 0.677834 0.313096 0.865537
O O10 0.412801 0.363451 0.967796
O O11 0.301291 0.134559 0.568631
O O12 0.585088 0.187860 0.384782
O O13 0.832780 0.500000 0.644081
O O14 0.215292 0.000000 0.887051
#
# Coordination Sequence:
#
# PCOD8092404 Si02
#       6
#     8   8   8   8   8   8
#     4  10  19  35  54  76 108 146 182 221 272 334
#     4  10  21  38  59  83 113 151 187 225 281 340
#     4  11  20  36  58  87 111 146 186 234 276 334
#     4  10  20  33  52  79 106 141 181 226 273 324
#     4  11  20  33  53  80 109 138 178 229 279 323
#     4  10  21  37  60  87 114 145 185 233 283 333
#
# _framework density 19.548463000000002
#
# number of rings (size 3 to 8) (size 9 to 14) (size 15 to 20)
#    0.000    1.667    1.667    5.500    0.000    1.333 
#    0.000    4.167    0.000    3.000    0.000    0.000 
#    0.000    0.000    0.000    0.000    0.000    0.000 
#
# Total GULP energy -297617.664853 kJ/mol
# GULP energy per Si atom -12400.736036 kJ/mol
# Density = 1.950397 g / cm^3
# Si number density = 19.548463 Si / 1000 Ang^3
#
#
#
# Elastic Constant Matrix: (Units=GPa)
#
#
# Indices 1 2 3 4 5 6 
#
# 1 77.3723 58.4739 8.8806 -0.0001 2.5504 0.0000
# 2 58.4739 128.0155 22.9396 -0.0001 -2.7110 0.0000
# 3 8.8806 22.9396 69.5407 -0.0004 4.4775 0.0002
# 4 -0.0001 -0.0001 -0.0004 28.9157 0.0002 4.4352
# 5 2.5504 -2.7110 4.4775 0.0002 20.3982 -0.0001
# 6 0.0000 0.0000 0.0002 4.4352 -0.0001 31.3323
#
#
#
# Elastic Compliance Matrix: (Units=1/GPa)
#
#
# Indices 1 2 3 4 5 6 
#
# 1 0.020057 -0.009386 0.000788 0.000000 -0.003928 0.000000
# 2 -0.009386 0.012755 -0.003239 0.000000 0.003580 0.000000
# 3 0.000788 -0.003239 0.015603 0.000000 -0.003954 0.000000
# 4 0.000000 0.000000 0.000000 0.035351 -0.000001 -0.005004
# 5 -0.003928 0.003580 -0.003954 -0.000001 0.050859 0.000000
# 6 0.000000 0.000000 0.000000 -0.005004 0.000000 0.032624
#
#
# Mechanical properties :
#
#
# Convention : Reuss Voigt Hill
#
# Bulk Modulus (GPa) = 40.42118 50.61297 45.51707
# Shear Modulus (GPa) = 25.10422 28.43819 26.77121
#
# Velocity S-wave (km/s) = 3.58747 3.81826 3.70466
# Velocity P-wave (km/s) = 6.15485 6.73692 6.45245
#
# Compressibility (1/GPa) = 0.02473951
#
# Stress axis : x y z
#
# Youngs Moduli (GPa) = 49.85836 78.40083 64.09173
#
# Poissons Ratio (x) = 0.73585 -0.05048
# Poissons Ratio (y) = 0.46796 0.20762
# Poissons Ratio (z) = -0.03927 0.25397
#
# Static dielectric constant tensor:
#      x y z
#    x 3.393160 0.000000 0.103670 
#    y 0.000000 3.595510 0.000000 
#    z 0.103670 0.000000 3.619380 
# 
# 
# High freq. dielectric constant tensor:
#      x y z
#    x 1.743120 0.000000 0.003970 
#    y 0.000000 1.758670 0.000000 
#    z 0.003970 0.000000 1.765560 
# 
# From -- ./inp_files/310201.got.cif
#   From: 2010.06.25/outbox.cif.g09.slc.cpg/sg12_156_cif.got.tgz:310201.got - 2010.06.28 00:19:55.
