data_PCOD8092873
_publ_section_title
;
Structure prediction by ZEFSAII (Michael W. Deem and Ramdas Pophale) SiO2 
 PCOD8092873
Probable space group: C 2/M
;
_chemical_formula_sum "Si O2"
_cell_formula_units_Z 56
_cell_length_a 21.121664
_cell_length_b 9.138422
_cell_length_c 18.080604
_cell_angle_alpha 90.000000
_cell_angle_beta 58.032144
_cell_angle_gamma 90.000000
_cell_volume 2960.635277
_symmetry_space_group_name_H-M "C 2/M"
_symmetry_group_IT_number 12
_symmetry_cell_setting 'monoclinic'
loop_
_space_group_symop_operation_xyz
x,y,z
-x,y,-z
-x,-y,-z
x,-y,z
1/2+x,1/2+y,z
1/2-x,1/2+y,-z
1/2-x,1/2-y,-z
1/2+x,1/2-y,z
loop_
_atom_site_type_symbol
_atom_site_label
_atom_site_fract_x
_atom_site_fract_y
_atom_site_fract_z
Si Si1 0.736017 0.331639 0.620955
Si Si2 0.360171 0.331678 0.464109
Si Si3 0.079028 0.670383 0.975060
Si Si4 0.171320 0.670088 0.055152
Si Si5 0.210571 0.670176 0.782772
Si Si6 0.502934 0.830094 0.412089
Si Si7 0.652294 0.831855 0.234179
O O1 0.753544 0.500000 0.627031
O O2 0.678019 0.310758 0.591110
O O3 0.814753 0.255418 0.554748
O O4 0.699406 0.256433 0.713937
O O5 0.363601 0.500000 0.485918
O O6 0.442237 0.265426 0.406469
O O7 0.065242 0.500000 0.996987
O O8 0.136206 0.701222 0.874155
O O9 0.112945 0.735149 0.030772
O O10 0.000000 0.744087 0.000000
O O11 0.186911 0.500000 0.028654
O O12 0.134638 0.692772 0.158504
O O13 0.250000 0.750000 0.000000
O O14 0.222201 0.500000 0.758837
O O15 0.280522 0.727222 0.785591
O O16 0.500000 0.787967 0.500000
O O17 0.581918 0.787857 0.327732
O O18 0.484609 0.000000 0.411043
O O19 0.675033 0.000000 0.235164
#
# Coordination Sequence:
#
# PCOD8092873 Si02
#       7
#     8   8   8   8   8   8   8
#     4  10  21  37  57  80 112 149 184 228 283 345
#     4  10  21  37  57  82 110 146 188 232 281 333
#     4   9  19  35  55  82 115 148 186 238 293 342
#     4  10  19  35  58  82 111 149 193 241 289 341
#     4  11  21  34  57  85 110 144 191 238 283 337
#     4  10  21  36  54  80 116 153 188 231 285 340
#     4  10  21  35  56  83 112 154 197 235 288 350
#
# _framework density 18.914859
#
# number of rings (size 3 to 8) (size 9 to 14) (size 15 to 20)
#    0.000    2.000    1.429    2.143    0.000    4.857 
#    0.000    2.857    0.000    3.857    0.000    0.000 
#    0.000    0.000    0.000    0.000    0.000    0.000 
#
# Total GULP energy -347272.239030 kJ/mol
# GULP energy per Si atom -12402.579965 kJ/mol
# Density = 1.887181 g / cm^3
# Si number density = 18.914859 Si / 1000 Ang^3
#
#
#
# Elastic Constant Matrix: (Units=GPa)
#
#
# Indices 1 2 3 4 5 6 
#
# 1 131.2881 52.6776 61.2240 0.0000 -12.9229 -0.0001
# 2 52.6776 86.3841 40.5854 -0.0001 -1.9098 -0.0007
# 3 61.2240 40.5854 91.1440 0.0001 10.4990 -0.0001
# 4 0.0000 -0.0001 0.0001 25.5958 0.0000 1.0338
# 5 -12.9229 -1.9098 10.4990 0.0000 25.5265 0.0000
# 6 -0.0001 -0.0007 -0.0001 1.0338 0.0000 31.8143
#
#
#
# Elastic Compliance Matrix: (Units=1/GPa)
#
#
# Indices 1 2 3 4 5 6 
#
# 1 0.014763 -0.004439 -0.009198 0.000000 0.010925 0.000000
# 2 -0.004439 0.016366 -0.004396 0.000000 0.000785 0.000000
# 3 -0.009198 -0.004396 0.020661 0.000000 -0.013484 0.000000
# 4 0.000000 0.000000 0.000000 0.039120 0.000000 -0.001271
# 5 0.010925 0.000785 -0.013484 0.000000 0.050310 0.000000
# 6 0.000000 0.000000 0.000000 -0.001271 0.000000 0.031474
#
#
# Mechanical properties :
#
#
# Convention : Reuss Voigt Hill
#
# Bulk Modulus (GPa) = 63.60239 68.64335 66.12287
# Shear Modulus (GPa) = 23.36417 26.87591 25.12004
#
# Velocity S-wave (km/s) = 3.51839 3.77356 3.64821
# Velocity P-wave (km/s) = 7.08548 7.44015 7.26498
#
# Compressibility (1/GPa) = 0.01572268
#
# Stress axis : x y z
#
# Youngs Moduli (GPa) = 67.73704 61.10195 48.40009
#
# Poissons Ratio (x) = 0.27126 0.44520
# Poissons Ratio (y) = 0.30071 0.21277
# Poissons Ratio (z) = 0.62307 0.26860
#
# Static dielectric constant tensor:
#      x y z
#    x 3.567150 0.000000 0.074800 
#    y 0.000000 3.404150 0.000000 
#    z 0.074800 0.000000 3.626270 
# 
# 
# High freq. dielectric constant tensor:
#      x y z
#    x 1.739340 0.000000 0.006970 
#    y 0.000000 1.723090 0.000000 
#    z 0.006970 0.000000 1.743150 
# 
# From -- ./inp_files/280855.got.cif
#   From: 2010.06.25/outbox.cif.g09.slc.cpg/sg12_141_cif.got.tgz:280855.got - 2010.06.28 00:19:55.
