data_PCOD8092536
_publ_section_title
;
Structure prediction by ZEFSAII (Michael W. Deem and Ramdas Pophale) SiO2 
 PCOD8092536
Probable space group: C 2/M
;
_chemical_formula_sum "Si O2"
_cell_formula_units_Z 56
_cell_length_a 15.060865
_cell_length_b 8.945583
_cell_length_c 32.136683
_cell_angle_alpha 90.000000
_cell_angle_beta 44.171458
_cell_angle_gamma 90.000000
_cell_volume 3016.981668
_symmetry_space_group_name_H-M "C 2/M"
_symmetry_group_IT_number 12
_symmetry_cell_setting 'monoclinic'
loop_
_space_group_symop_operation_xyz
x,y,z
-x,y,-z
-x,-y,-z
x,-y,z
1/2+x,1/2+y,z
1/2-x,1/2+y,-z
1/2-x,1/2-y,-z
1/2+x,1/2-y,z
loop_
_atom_site_type_symbol
_atom_site_label
_atom_site_fract_x
_atom_site_fract_y
_atom_site_fract_z
Si Si1 0.768505 0.676477 0.145195
Si Si2 0.917607 0.168984 0.721140
Si Si3 0.255101 0.824955 0.933096
Si Si4 0.940632 0.674376 0.944163
Si Si5 0.042302 0.323168 0.609159
Si Si6 0.196631 0.169132 0.621409
Si Si7 0.559695 0.672836 0.435000
O O1 0.754113 0.500000 0.144800
O O2 0.680338 0.736044 0.212429
O O3 0.718231 0.751887 0.120225
O O4 0.912720 0.723593 0.107316
O O5 0.920099 0.270637 0.678391
O O6 0.061757 0.168595 0.691808
O O7 0.877403 0.000000 0.722243
O O8 0.373865 0.783942 0.922992
O O9 0.239442 0.000000 0.932566
O O10 0.124400 0.762074 0.996153
O O11 0.925856 0.500000 0.959087
O O12 0.053364 0.500000 0.604950
O O13 0.028366 0.261529 0.567500
O O14 0.171516 0.252113 0.585432
O O15 0.298548 0.259737 0.614017
O O16 0.244846 0.000000 0.597154
O O17 0.500000 0.698629 0.500000
O O18 0.565436 0.500000 0.420446
#
# Coordination Sequence:
#
# PCOD8092536 Si02
#       7
#     8   8   8   8   8   8   8
#     4  10  19  35  56  76 103 141 181 218 264 325
#     4   8  18  37  57  77 108 144 182 226 271 325
#     4  10  20  33  50  77 109 135 174 229 273 314
#     4   9  19  35  53  73 102 142 179 213 269 332
#     4  10  20  37  59  82 112 148 181 223 276 325
#     4   9  19  38  59  81 112 146 182 225 272 323
#     4  11  23  38  59  87 114 145 187 227 270 327
#
# _framework density 18.561598
#
# number of rings (size 3 to 8) (size 9 to 14) (size 15 to 20)
#    0.857    1.571    0.000    2.571    0.000    5.143 
#    2.571    0.000    0.000    0.000    0.000    0.000 
#    0.000    0.000    0.000    0.000    0.000    0.000 
#
# Total GULP energy -347105.863600 kJ/mol
# GULP energy per Si atom -12396.637986 kJ/mol
# Density = 1.851935 g / cm^3
# Si number density = 18.561598 Si / 1000 Ang^3
#
#
#
# Elastic Constant Matrix: (Units=GPa)
#
#
# Indices 1 2 3 4 5 6 
#
# 1 58.2031 20.0631 4.7210 -0.0011 2.5941 -0.0046
# 2 20.0631 86.7629 22.2448 -0.0028 6.4314 -0.0063
# 3 4.7210 22.2448 56.4015 -0.0005 3.5529 -0.0033
# 4 -0.0011 -0.0028 -0.0005 25.5874 -0.0004 6.1607
# 5 2.5941 6.4314 3.5529 -0.0004 24.2478 -0.0015
# 6 -0.0046 -0.0063 -0.0033 6.1607 -0.0015 33.4999
#
#
#
# Elastic Compliance Matrix: (Units=1/GPa)
#
#
# Indices 1 2 3 4 5 6 
#
# 1 0.018689 -0.004305 0.000189 0.000000 -0.000885 0.000002
# 2 -0.004305 0.013989 -0.004998 0.000001 -0.002518 0.000001
# 3 0.000189 -0.004998 0.019786 0.000000 -0.001594 0.000001
# 4 0.000000 0.000001 0.000000 0.040892 0.000000 -0.007520
# 5 -0.000885 -0.002518 -0.001594 0.000000 0.042237 0.000001
# 6 0.000002 0.000001 0.000001 -0.007520 0.000001 0.031234
#
#
# Mechanical properties :
#
#
# Convention : Reuss Voigt Hill
#
# Bulk Modulus (GPa) = 29.20851 32.82503 31.01677
# Shear Modulus (GPa) = 25.44953 26.95626 26.20289
#
# Velocity S-wave (km/s) = 3.70683 3.81499 3.76130
# Velocity P-wave (km/s) = 5.83875 6.09330 5.96738
#
# Compressibility (1/GPa) = 0.03423659
#
# Stress axis : x y z
#
# Youngs Moduli (GPa) = 53.50701 71.48375 50.54083
#
# Poissons Ratio (x) = 0.30770 -0.00956
# Poissons Ratio (y) = 0.23032 0.25263
# Poissons Ratio (z) = -0.01012 0.35731
#
# Static dielectric constant tensor:
#      x y z
#    x 3.352760 0.000000 -0.029920 
#    y 0.000000 3.376470 0.000000 
#    z -0.029920 0.000000 3.304900 
# 
# 
# High freq. dielectric constant tensor:
#      x y z
#    x 1.714180 0.000000 -0.000600 
#    y 0.000000 1.724480 0.000000 
#    z -0.000600 0.000000 1.705450 
# 
# From -- ./inp_files/374962.got.cif
#   From: 2010.06.25/outbox.cif.g09.slc.cpg/sg12_188_cif.got.tgz:374962.got - 2010.06.28 00:19:55.
