data_PCOD8092394
_publ_section_title
;
Structure prediction by ZEFSAII (Michael W. Deem and Ramdas Pophale) SiO2 
 PCOD8092394
Probable space group: C 2/M
;
_chemical_formula_sum "Si O2"
_cell_formula_units_Z 48
_cell_length_a 18.252498
_cell_length_b 17.450159
_cell_length_c 16.879185
_cell_angle_alpha 90.000000
_cell_angle_beta 31.781151
_cell_angle_gamma 90.000000
_cell_volume 2831.501795
_symmetry_space_group_name_H-M "C 2/M"
_symmetry_group_IT_number 12
_symmetry_cell_setting 'monoclinic'
loop_
_space_group_symop_operation_xyz
x,y,z
-x,y,-z
-x,-y,-z
x,-y,z
1/2+x,1/2+y,z
1/2-x,1/2+y,-z
1/2-x,1/2-y,-z
1/2+x,1/2-y,z
loop_
_atom_site_type_symbol
_atom_site_label
_atom_site_fract_x
_atom_site_fract_y
_atom_site_fract_z
Si Si1 0.767258 0.660758 0.780682
Si Si2 0.717128 0.411617 0.659407
Si Si3 0.389575 0.201138 0.032654
Si Si4 0.993067 0.413029 0.669713
Si Si5 0.072894 0.155143 0.093873
Si Si6 0.800270 0.410956 0.991379
O O1 0.747563 0.634952 0.710147
O O2 0.920680 0.641617 0.671354
O O3 0.741221 0.752691 0.808989
O O4 0.651694 0.618912 0.944004
O O5 0.705956 0.500000 0.692249
O O6 0.841688 0.396033 0.482463
O O7 0.573580 0.384218 0.752809
O O8 0.449939 0.254258 0.904573
O O9 0.341060 0.120444 0.040605
O O10 0.500000 0.184740 0.000000
O O11 0.964179 0.500000 0.668718
O O12 0.933452 0.399268 0.812051
O O13 0.170295 0.139630 0.080196
O O14 0.757943 0.500000 0.037170
#
# Coordination Sequence:
#
# PCOD8092394 Si02
#       6
#     8   8   8   8   8   8
#     4   9  17  30  47  69 102 138 163 199 242 295
#     4  11  18  28  47  76 109 134 161 200 247 306
#     4  10  19  35  54  73 101 129 171 213 247 286
#     4   9  19  30  46  74 106 136 164 198 246 303
#     4   9  18  32  50  76 101 130 160 211 249 296
#     4  10  20  35  55  74  98 134 170 206 251 295
#
# _framework density 16.952134000000001
#
# number of rings (size 3 to 8) (size 9 to 14) (size 15 to 20)
#    1.000    1.333    1.667    2.500    0.000    4.333 
#    0.000    0.833    0.000    0.000    0.000    0.000 
#    0.000    8.000    0.000    0.000    0.000    0.000 
#
# Total GULP energy -297406.290187 kJ/mol
# GULP energy per Si atom -12391.928758 kJ/mol
# Density = 1.691355 g / cm^3
# Si number density = 16.952134 Si / 1000 Ang^3
#
#
#
# Elastic Constant Matrix: (Units=GPa)
#
#
# Indices 1 2 3 4 5 6 
#
# 1 100.6602 43.6040 24.2064 -0.0011 -13.3492 0.0006
# 2 43.6040 53.1791 13.9058 -0.0039 -3.2128 0.0017
# 3 24.2064 13.9058 73.5983 -0.0053 -24.6956 0.0028
# 4 -0.0011 -0.0039 -0.0053 13.7841 -0.0009 -1.7270
# 5 -13.3492 -3.2128 -24.6956 -0.0009 13.8810 0.0007
# 6 0.0006 0.0017 0.0028 -1.7270 0.0007 27.9718
#
#
#
# Elastic Compliance Matrix: (Units=1/GPa)
#
#
# Indices 1 2 3 4 5 6 
#
# 1 0.018082 -0.014555 0.003740 0.000000 0.020674 0.000000
# 2 -0.014555 0.031647 -0.008514 0.000003 -0.021819 0.000000
# 3 0.003740 -0.008514 0.036005 0.000016 0.065683 -0.000004
# 4 0.000000 0.000003 0.000016 0.073113 0.000033 0.004514
# 5 0.020674 -0.021819 0.065683 0.000033 0.203728 -0.000009
# 6 0.000000 0.000000 -0.000004 0.004514 -0.000009 0.036029
#
#
# Mechanical properties :
#
#
# Convention : Reuss Voigt Hill
#
# Bulk Modulus (GPa) = 21.24188 43.43001 32.33594
# Shear Modulus (GPa) = 11.03868 20.84215 15.94041
#
# Velocity S-wave (km/s) = 2.55457 3.51018 3.06979
# Velocity P-wave (km/s) = 4.61073 6.48871 5.62859
#
# Compressibility (1/GPa) = 0.04707681
#
# Stress axis : x y z
#
# Youngs Moduli (GPa) = 55.30456 31.59886 27.77374
#
# Poissons Ratio (x) = 0.45992 -0.10388
# Poissons Ratio (y) = 0.80496 0.23645
# Poissons Ratio (z) = -0.20685 0.26902
#
# Static dielectric constant tensor:
#      x y z
#    x 2.900150 0.000000 -0.155280 
#    y 0.000000 3.008390 0.000000 
#    z -0.155280 0.000000 3.171180 
# 
# 
# High freq. dielectric constant tensor:
#      x y z
#    x 1.637130 0.000000 -0.015660 
#    y 0.000000 1.634940 0.000000 
#    z -0.015660 0.000000 1.635680 
# 
# From -- ./inp_files/278877.got.cif
#   From: 2010.06.25/outbox.cif.g09.slc.cpg/sg12_140_cif.got.tgz:278877.got - 2010.06.28 00:19:55.
