data_PCOD8092583
_publ_section_title
;
Structure prediction by ZEFSAII (Michael W. Deem and Ramdas Pophale) SiO2 
 PCOD8092583
Probable space group: C 2/M
;
_chemical_formula_sum "Si O2"
_cell_formula_units_Z 56
_cell_length_a 13.855659
_cell_length_b 23.364331
_cell_length_c 9.772039
_cell_angle_alpha 90.000000
_cell_angle_beta 115.023112
_cell_angle_gamma 90.000000
_cell_volume 2866.551219
_symmetry_space_group_name_H-M "C 2/M"
_symmetry_group_IT_number 12
_symmetry_cell_setting 'monoclinic'
loop_
_space_group_symop_operation_xyz
x,y,z
-x,y,-z
-x,-y,-z
x,-y,z
1/2+x,1/2+y,z
1/2-x,1/2+y,-z
1/2-x,1/2-y,-z
1/2+x,1/2-y,z
loop_
_atom_site_type_symbol
_atom_site_label
_atom_site_fract_x
_atom_site_fract_y
_atom_site_fract_z
Si Si1 0.693459 0.566489 0.642863
Si Si2 0.316931 0.732304 0.170283
Si Si3 0.850391 0.661357 0.811921
Si Si4 0.091756 0.887097 0.833227
Si Si5 0.727656 0.066001 0.857643
Si Si6 0.571758 0.160664 0.831262
Si Si7 0.127180 0.934215 0.304908
O O1 0.722992 0.500000 0.656199
O O2 0.797531 0.599788 0.757416
O O3 0.598505 0.579432 0.692254
O O4 0.658990 0.588960 0.473184
O O5 0.239705 0.712140 0.250202
O O6 0.395569 0.680638 0.177726
O O7 0.386702 0.788701 0.244808
O O8 0.250000 0.750000 0.000000
O O9 0.943331 0.666088 0.754823
O O10 0.891846 0.665867 0.990796
O O11 0.972963 0.899037 0.817401
O O12 0.183323 0.910245 0.986972
O O13 0.616478 0.100517 0.801064
O O14 0.771022 0.074012 0.730582
O O15 0.703616 0.000000 0.877792
O O16 0.091545 0.000000 0.289603
#
# Coordination Sequence:
#
# PCOD8092583 Si02
#       7
#     8   8   8   8   8   8   8
#     4  10  19  35  56  79 113 151 187 225 272 328
#     4   9  17  34  52  82 108 136 178 229 278 321
#     4   9  19  33  56  82 106 136 190 234 260 327
#     4  11  19  33  58  82 107 145 187 234 270 325
#     4  11  21  34  52  81 116 142 178 231 279 326
#     4  10  19  35  56  84 110 142 179 236 277 325
#     4  10  22  35  51  81 118 152 183 222 278 338
#
# _framework density 19.535672000000002
#
# number of rings (size 3 to 8) (size 9 to 14) (size 15 to 20)
#    0.000    2.000    4.286    2.143    0.000    4.000 
#    5.143    2.143    0.000   13.714    0.000    0.000 
#    0.000    0.000    0.000    0.000    0.000    0.000 
#
# Total GULP energy -347029.748341 kJ/mol
# GULP energy per Si atom -12393.919584 kJ/mol
# Density = 1.949121 g / cm^3
# Si number density = 19.535672 Si / 1000 Ang^3
#
#
#
# Elastic Constant Matrix: (Units=GPa)
#
#
# Indices 1 2 3 4 5 6 
#
# 1 123.2678 56.8565 0.2891 0.0000 -0.2361 0.0000
# 2 56.8565 124.5491 11.1474 0.0000 2.4568 0.0000
# 3 0.2891 11.1474 41.6072 0.0000 -10.8998 0.0000
# 4 0.0000 0.0000 0.0000 9.9015 0.0000 -1.8637
# 5 -0.2361 2.4568 -10.8998 0.0000 17.4842 0.0000
# 6 0.0000 0.0000 0.0000 -1.8637 0.0000 29.7420
#
#
#
# Elastic Compliance Matrix: (Units=1/GPa)
#
#
# Indices 1 2 3 4 5 6 
#
# 1 0.010390 -0.004938 0.001756 0.000000 0.001929 0.000000
# 2 -0.004938 0.010709 -0.003880 0.000000 -0.003991 0.000000
# 3 0.001756 -0.003880 0.030132 0.000000 0.019353 0.000000
# 4 0.000000 0.000000 0.000000 0.102200 0.000000 0.006404
# 5 0.001929 -0.003991 0.019353 0.000000 0.069846 0.000000
# 6 0.000000 0.000000 0.000000 0.006404 0.000000 0.034024
#
#
# Mechanical properties :
#
#
# Convention : Reuss Voigt Hill
#
# Bulk Modulus (GPa) = 26.94972 47.33443 37.14208
# Shear Modulus (GPa) = 17.61841 26.16761 21.89301
#
# Velocity S-wave (km/s) = 3.00635 3.66386 3.35127
# Velocity P-wave (km/s) = 5.08684 6.49468 5.83339
#
# Compressibility (1/GPa) = 0.03710613
#
# Stress axis : x y z
#
# Youngs Moduli (GPa) = 96.24957 93.37763 33.18765
#
# Poissons Ratio (x) = 0.46111 -0.05828
# Poissons Ratio (y) = 0.47529 0.12878
# Poissons Ratio (z) = -0.16903 0.36233
#
# Static dielectric constant tensor:
#      x y z
#    x 3.650110 0.000000 -0.139800 
#    y 0.000000 6.044720 0.000000 
#    z -0.139800 0.000000 3.297450 
# 
# 
# High freq. dielectric constant tensor:
#      x y z
#    x 1.764460 0.000000 -0.008480 
#    y 0.000000 1.762080 0.000000 
#    z -0.008480 0.000000 1.724110 
# 
# From -- ./inp_files/65429.got.cif
#   From: 2010.06.25/outbox.cif.g09.slc.cpg/sg12_33_cif.got.tgz:65429.got - 2010.06.28 00:19:55.
