data_PCOD8092326
_publ_section_title
;
Structure prediction by ZEFSAII (Michael W. Deem and Ramdas Pophale) SiO2 
 PCOD8092326
Probable space group: C 2/M
;
_chemical_formula_sum "Si O2"
_cell_formula_units_Z 48
_cell_length_a 18.124342
_cell_length_b 14.230675
_cell_length_c 22.323412
_cell_angle_alpha 90.000000
_cell_angle_beta 24.327538
_cell_angle_gamma 90.000000
_cell_volume 2371.894218
_symmetry_space_group_name_H-M "C 2/M"
_symmetry_group_IT_number 12
_symmetry_cell_setting 'monoclinic'
loop_
_space_group_symop_operation_xyz
x,y,z
-x,y,-z
-x,-y,-z
x,-y,z
1/2+x,1/2+y,z
1/2-x,1/2+y,-z
1/2-x,1/2-y,-z
1/2+x,1/2-y,z
loop_
_atom_site_type_symbol
_atom_site_label
_atom_site_fract_x
_atom_site_fract_y
_atom_site_fract_z
Si Si1 0.292013 0.608792 0.158337
Si Si2 0.971061 0.106714 0.684821
Si Si3 0.642881 0.394536 0.105092
Si Si4 0.337115 0.720534 0.366650
Si Si5 0.427785 0.108370 0.799133
Si Si6 0.042177 0.748305 0.401053
O O1 0.271083 0.500000 0.191696
O O2 0.194532 0.631403 0.167824
O O3 0.199242 0.671266 0.278813
O O4 0.500000 0.636689 0.000000
O O5 0.820679 0.108538 0.849360
O O6 0.899993 0.156888 0.677319
O O7 0.141081 0.167663 0.584662
O O8 0.028913 0.000000 0.627283
O O9 0.593825 0.500000 0.120383
O O10 0.469790 0.329447 0.220108
O O11 0.814841 0.360733 0.941305
O O12 0.393461 0.829696 0.331557
O O13 0.136904 0.704019 0.493780
O O14 0.486680 0.000000 0.757607
O O15 0.000000 0.776739 0.500000
#
# Coordination Sequence:
#
# PCOD8092326 Si02
#       6
#     8   8   8   8   8   8
#     4  10  23  41  62  91 129 168 204 249 312 380
#     4   9  20  39  63  86 117 159 210 261 308 363
#     4   8  17  32  58  91 119 150 195 256 313 361
#     4  10  20  37  60  90 118 161 208 264 308 361
#     4  10  19  34  62  96 124 155 206 261 315 374
#     4  12  26  41  58  92 131 168 211 255 318 373
#
# _framework density 20.236991
#
# number of rings (size 3 to 8) (size 9 to 14) (size 15 to 20)
#    1.000    1.167    1.667    1.000    2.333    2.667 
#    0.000    0.000    0.000    0.500    0.000    0.000 
#    0.000    0.000    0.000    0.000    0.000    0.000 
#
# Total GULP energy -297402.987405 kJ/mol
# GULP energy per Si atom -12391.791142 kJ/mol
# Density = 2.019093 g / cm^3
# Si number density = 20.236991 Si / 1000 Ang^3
#
#
#
# Elastic Constant Matrix: (Units=GPa)
#
#
# Indices 1 2 3 4 5 6 
#
# 1 62.3054 22.5174 28.1096 0.0079 13.3205 -0.0030
# 2 22.5174 108.6913 45.7983 0.0172 0.5818 -0.0063
# 3 28.1096 45.7983 100.8755 0.0209 5.7992 -0.0111
# 4 0.0079 0.0172 0.0209 14.8435 -0.0038 4.9634
# 5 13.3205 0.5818 5.7992 -0.0038 37.6707 0.0026
# 6 -0.0030 -0.0063 -0.0111 4.9634 0.0026 21.2156
#
#
#
# Elastic Compliance Matrix: (Units=1/GPa)
#
#
# Indices 1 2 3 4 5 6 
#
# 1 0.020173 -0.002390 -0.004165 -0.000004 -0.006455 0.000002
# 2 -0.002390 0.011674 -0.004714 -0.000006 0.001390 0.000002
# 3 -0.004165 -0.004714 0.013243 -0.000014 -0.000493 0.000008
# 4 -0.000004 -0.000006 -0.000014 0.073087 0.000012 -0.017099
# 5 -0.006455 0.001390 -0.000493 0.000012 0.028883 -0.000007
# 6 0.000002 0.000002 0.000008 -0.017099 -0.000007 0.051135
#
#
# Mechanical properties :
#
#
# Convention : Reuss Voigt Hill
#
# Bulk Modulus (GPa) = 44.34306 51.63587 47.98947
# Shear Modulus (GPa) = 21.90575 26.44243 24.17409
#
# Velocity S-wave (km/s) = 3.29365 3.61867 3.45998
# Velocity P-wave (km/s) = 6.03520 6.55977 6.30295
#
# Compressibility (1/GPa) = 0.02255144
#
# Stress axis : x y z
#
# Youngs Moduli (GPa) = 49.57160 85.65749 75.51387
#
# Poissons Ratio (x) = 0.20468 0.31454
# Poissons Ratio (y) = 0.11845 0.35600
# Poissons Ratio (z) = 0.20648 0.40382
#
# Static dielectric constant tensor:
#      x y z
#    x 3.417110 0.000000 0.311290 
#    y 0.000000 3.739060 0.000020 
#    z 0.311290 0.000020 3.659870 
# 
# 
# High freq. dielectric constant tensor:
#      x y z
#    x 1.748560 0.000000 0.025360 
#    y 0.000000 1.799340 0.000000 
#    z 0.025360 0.000000 1.798050 
# 
# From -- ./inp_files/347485.got.cif
#   From: 2010.06.25/outbox.cif.g09.slc.cpg/sg12_174_cif.got.tgz:347485.got - 2010.06.28 00:19:55.
