data_PCOD8092826
_publ_section_title
;
Structure prediction by ZEFSAII (Michael W. Deem and Ramdas Pophale) SiO2 
 PCOD8092826
Probable space group: C 2/M
;
_chemical_formula_sum "Si O2"
_cell_formula_units_Z 64
_cell_length_a 15.371277
_cell_length_b 9.112338
_cell_length_c 28.486752
_cell_angle_alpha 90.000000
_cell_angle_beta 122.669383
_cell_angle_gamma 90.000000
_cell_volume 3358.855259
_symmetry_space_group_name_H-M "C 2/M"
_symmetry_group_IT_number 12
_symmetry_cell_setting 'monoclinic'
loop_
_space_group_symop_operation_xyz
x,y,z
-x,y,-z
-x,-y,-z
x,-y,z
1/2+x,1/2+y,z
1/2-x,1/2+y,-z
1/2-x,1/2-y,-z
1/2+x,1/2-y,z
loop_
_atom_site_type_symbol
_atom_site_label
_atom_site_fract_x
_atom_site_fract_y
_atom_site_fract_z
Si Si1 0.707294 0.325199 0.706758
Si Si2 0.063731 0.329358 0.225388
Si Si3 0.918813 0.826248 0.418857
Si Si4 0.846977 0.825528 0.500028
Si Si5 0.121134 0.669127 0.770728
Si Si6 0.466018 0.168285 0.886790
Si Si7 0.196598 0.166624 0.109103
Si Si8 0.665342 0.829524 0.004949
O O1 0.707606 0.500000 0.707396
O O2 0.822822 0.256867 0.738599
O O3 0.643959 0.263876 0.643841
O O4 0.655248 0.273109 0.739214
O O5 0.080308 0.500000 0.237808
O O6 0.004739 0.302227 0.158769
O O7 0.991816 0.272462 0.246678
O O8 0.856587 0.775830 0.447874
O O9 0.039079 0.775822 0.447766
O O10 0.920604 0.000000 0.420874
O O11 0.750000 0.750000 0.500000
O O12 0.830032 0.000000 0.499945
O O13 0.121474 0.500000 0.753887
O O14 0.188233 0.683983 0.837857
O O15 0.375236 0.283147 0.869220
O O16 0.428718 0.000000 0.882738
O O17 0.557101 0.205182 0.949094
O O18 0.168526 0.273129 0.058515
O O19 0.174108 0.000000 0.087063
O O20 0.689729 0.000000 0.011973
O O21 0.750000 0.750000 0.000000
#
# Coordination Sequence:
#
# PCOD8092826 Si02
#       8
#     8   8   8   8   8   8   8   8
#     4  10  19  35  58  80 104 143 192 229 262 323
#     4   9  18  34  56  76 102 140 180 219 270 330
#     4   8  17  33  53  78 111 149 184 222 272 323
#     4   9  17  33  55  80 113 149 184 224 269 320
#     4  10  21  37  55  79 111 145 178 226 283 327
#     4  10  20  37  57  77 102 137 180 223 273 332
#     4  11  22  36  55  78 108 140 177 224 280 335
#     4  11  23  37  55  78 106 138 177 225 277 338
#
# _framework density 19.054110999999999
#
# number of rings (size 3 to 8) (size 9 to 14) (size 15 to 20)
#    0.000    2.250    1.250    2.625    0.000    6.000 
#    0.000    5.000    0.000    0.000    0.000    0.000 
#    0.000    0.000    0.000    0.000    0.000    0.000 
#
# Total GULP energy -396523.691318 kJ/mol
# GULP energy per Si atom -12391.365354 kJ/mol
# Density = 1.901074 g / cm^3
# Si number density = 19.054111 Si / 1000 Ang^3
#
#
#
# Elastic Constant Matrix: (Units=GPa)
#
#
# Indices 1 2 3 4 5 6 
#
# 1 153.7051 33.1199 51.9406 0.0000 2.0295 0.0000
# 2 33.1199 33.5000 27.1373 0.0000 5.4062 0.0000
# 3 51.9406 27.1373 119.9014 0.0000 3.2703 0.0000
# 4 0.0000 0.0000 0.0000 18.7290 0.0000 -3.1532
# 5 2.0295 5.4062 3.2703 0.0000 12.0199 0.0000
# 6 0.0000 0.0000 0.0000 -3.1532 0.0000 33.4824
#
#
#
# Elastic Compliance Matrix: (Units=1/GPa)
#
#
# Indices 1 2 3 4 5 6 
#
# 1 0.008795 -0.007277 -0.002228 0.000000 0.002394 0.000000
# 2 -0.007277 0.045185 -0.006603 0.000000 -0.017298 0.000000
# 3 -0.002228 -0.006603 0.010789 0.000000 0.000411 0.000000
# 4 0.000000 0.000000 0.000000 0.054253 0.000000 0.005109
# 5 0.002394 -0.017298 0.000411 0.000000 0.090460 0.000000
# 6 0.000000 0.000000 0.000000 0.005109 0.000000 0.030348
#
#
# Mechanical properties :
#
#
# Convention : Reuss Voigt Hill
#
# Bulk Modulus (GPa) = 30.71875 59.05578 44.88727
# Shear Modulus (GPa) = 17.67428 25.84015 21.75722
#
# Velocity S-wave (km/s) = 3.04893 3.68658 3.38281
# Velocity P-wave (km/s) = 5.34336 7.01300 6.23433
#
# Compressibility (1/GPa) = 0.03255340
#
# Stress axis : x y z
#
# Youngs Moduli (GPa) = 113.69621 22.13120 92.68928
#
# Poissons Ratio (x) = 0.16104 0.20655
# Poissons Ratio (y) = 0.82734 0.61200
# Poissons Ratio (z) = 0.25337 0.14613
#
# Static dielectric constant tensor:
#      x y z
#    x 3.640660 0.000000 0.232290 
#    y 0.000000 3.225030 0.000000 
#    z 0.232290 0.000000 3.689070 
# 
# 
# High freq. dielectric constant tensor:
#      x y z
#    x 1.752490 0.000000 0.000470 
#    y 0.000000 1.709610 0.000000 
#    z 0.000470 0.000000 1.743760 
# 
# From -- ./inp_files/375072.got.cif
#   From: 2010.06.25/outbox.cif.g09.slc.cpg/sg12_188_cif.got.tgz:375072.got - 2010.06.28 00:19:55.
