data_PCOD8092207
_publ_section_title
;
Structure prediction by ZEFSAII (Michael W. Deem and Ramdas Pophale) SiO2 
 PCOD8092207
Probable space group: C 2/M
;
_chemical_formula_sum "Si O2"
_cell_formula_units_Z 64
_cell_length_a 23.497510
_cell_length_b 8.860998
_cell_length_c 27.658007
_cell_angle_alpha 90.000000
_cell_angle_beta 33.822859
_cell_angle_gamma 90.000000
_cell_volume 3205.455220
_symmetry_space_group_name_H-M "C 2/M"
_symmetry_group_IT_number 12
_symmetry_cell_setting 'monoclinic'
loop_
_space_group_symop_operation_xyz
x,y,z
-x,y,-z
-x,-y,-z
x,-y,z
1/2+x,1/2+y,z
1/2-x,1/2+y,-z
1/2-x,1/2-y,-z
1/2+x,1/2-y,z
loop_
_atom_site_type_symbol
_atom_site_label
_atom_site_fract_x
_atom_site_fract_y
_atom_site_fract_z
Si Si1 0.480381 0.826588 0.403118
Si Si2 0.074821 0.177306 0.244180
Si Si3 0.579357 0.322493 0.731546
Si Si4 0.713405 0.320775 0.910504
Si Si5 0.833878 0.178643 0.162661
Si Si6 0.299280 0.322419 0.578084
Si Si7 0.350370 0.172933 0.640051
Si Si8 0.512105 0.320994 0.103595
O O1 0.548413 0.752921 0.313564
O O2 0.371705 0.743864 0.484788
O O3 0.539863 0.812377 0.412020
O O4 0.461612 0.000000 0.402787
O O5 0.181569 0.241073 0.148720
O O6 0.988144 0.219571 0.266900
O O7 0.084362 0.000000 0.244827
O O8 0.599615 0.500000 0.721596
O O9 0.686610 0.240661 0.650128
O O10 0.521141 0.260958 0.820325
O O11 0.730414 0.500000 0.897687
O O12 0.675980 0.259474 0.884715
O O13 0.627711 0.270711 0.009925
O O14 0.735559 0.230322 0.262284
O O15 0.935092 0.244561 0.117167
O O16 0.840230 0.000000 0.155886
O O17 0.296848 0.500000 0.574342
O O18 0.346369 0.277971 0.596328
O O19 0.329553 0.000000 0.638741
O O20 0.505151 0.500000 0.107562
#
# Coordination Sequence:
#
# PCOD8092207 Si02
#       8
#     8   8   8   8   8   8   8   8
#     4  11  23  41  65  89 116 155 199 239 287 351
#     4  11  24  40  59  84 118 156 198 250 301 345
#     4  10  22  42  62  82 113 160 207 245 290 346
#     4  10  19  34  59  91 118 151 198 244 292 348
#     4   9  15  29  57  89 116 147 193 243 285 336
#     4  12  25  39  60  92 123 152 188 239 301 353
#     4  10  19  36  62  88 117 157 197 234 284 350
#     4   9  17  32  60  89 115 149 199 249 284 338
#
# _framework density 19.965962000000001
#
# number of rings (size 3 to 8) (size 9 to 14) (size 15 to 20)
#    0.000    1.750    2.500    2.625    0.000    6.000 
#    0.000    0.625    0.000    0.750    0.000    0.000 
#    0.000    0.000    0.000    0.000    0.000    0.000 
#
# Total GULP energy -396871.179681 kJ/mol
# GULP energy per Si atom -12402.224365 kJ/mol
# Density = 1.992052 g / cm^3
# Si number density = 19.965962 Si / 1000 Ang^3
#
#
#
# Elastic Constant Matrix: (Units=GPa)
#
#
# Indices 1 2 3 4 5 6 
#
# 1 77.2890 39.2507 33.0879 0.0133 -17.0598 -0.0181
# 2 39.2507 67.8498 44.7681 0.0041 -15.4228 0.0005
# 3 33.0879 44.7681 141.4090 -0.0008 -25.0211 -0.0010
# 4 0.0133 0.0041 -0.0008 19.2247 -0.0026 -4.3919
# 5 -17.0598 -15.4228 -25.0211 -0.0026 20.4335 0.0042
# 6 -0.0181 0.0005 -0.0010 -4.3919 0.0042 22.0089
#
#
#
# Elastic Compliance Matrix: (Units=1/GPa)
#
#
# Indices 1 2 3 4 5 6 
#
# 1 0.019735 -0.009255 -0.000011 -0.000007 0.009478 0.000013
# 2 -0.009255 0.024276 -0.004653 0.000000 0.004898 -0.000009
# 3 -0.000011 -0.004653 0.010116 0.000003 0.008866 -0.000001
# 4 -0.000007 0.000000 0.000003 0.054501 0.000001 0.010876
# 5 0.009478 0.004898 0.008866 0.000001 0.071406 -0.000005
# 6 0.000013 -0.000009 -0.000001 0.010876 -0.000005 0.047606
#
#
# Mechanical properties :
#
#
# Convention : Reuss Voigt Hill
#
# Bulk Modulus (GPa) = 38.03819 57.86237 47.95028
# Shear Modulus (GPa) = 18.92200 23.62951 21.27575
#
# Velocity S-wave (km/s) = 3.08183 3.44392 3.26790
# Velocity P-wave (km/s) = 5.63529 6.69758 6.18927
#
# Compressibility (1/GPa) = 0.02628937
#
# Stress axis : x y z
#
# Youngs Moduli (GPa) = 50.67049 41.19259 98.85206
#
# Poissons Ratio (x) = 0.38125 0.00105
# Poissons Ratio (y) = 0.46897 0.45998
# Poissons Ratio (z) = 0.00054 0.19168
#
# Static dielectric constant tensor:
#      x y z
#    x 3.635460 -0.000010 -0.005020 
#    y -0.000010 3.292720 0.000010 
#    z -0.005020 0.000010 3.846720 
# 
# 
# High freq. dielectric constant tensor:
#      x y z
#    x 1.775700 0.000000 -0.003190 
#    y 0.000000 1.743960 0.000000 
#    z -0.003190 0.000000 1.798280 
# 
# From -- ./inp_files/382342.got.cif
#   From: 2010.06.25/outbox.cif.g09.slc.cpg/sg12_192_cif.got.tgz:382342.got - 2010.06.28 00:19:55.
