data_PCOD8092241
_publ_section_title
;
Structure prediction by ZEFSAII (Michael W. Deem and Ramdas Pophale) SiO2 
 PCOD8092241
Probable space group: C 2/M
;
_chemical_formula_sum "Si O2"
_cell_formula_units_Z 56
_cell_length_a 21.360143
_cell_length_b 8.871177
_cell_length_c 15.520042
_cell_angle_alpha 90.000000
_cell_angle_beta 87.669275
_cell_angle_gamma 90.000000
_cell_volume 2938.453790
_symmetry_space_group_name_H-M "C 2/M"
_symmetry_group_IT_number 12
_symmetry_cell_setting 'monoclinic'
loop_
_space_group_symop_operation_xyz
x,y,z
-x,y,-z
-x,-y,-z
x,-y,z
1/2+x,1/2+y,z
1/2-x,1/2+y,-z
1/2-x,1/2-y,-z
1/2+x,1/2-y,z
loop_
_atom_site_type_symbol
_atom_site_label
_atom_site_fract_x
_atom_site_fract_y
_atom_site_fract_z
Si Si1 0.855747 0.678476 0.209030
Si Si2 0.315047 0.821046 0.025647
Si Si3 0.219513 0.672904 0.623142
Si Si4 0.006587 0.321499 0.761276
Si Si5 0.339715 0.829256 0.551885
Si Si6 0.054640 0.321384 0.060348
Si Si7 0.464308 0.676594 0.586629
O O1 0.860095 0.500000 0.209303
O O2 0.812477 0.735191 0.289034
O O3 0.925593 0.742827 0.215823
O O4 0.825815 0.735704 0.122243
O O5 0.375526 0.762691 0.967741
O O6 0.309090 0.000000 0.019443
O O7 0.250000 0.750000 0.000000
O O8 0.243027 0.500000 0.630310
O O9 0.276237 0.784990 0.603249
O O10 0.168429 0.685034 0.550199
O O11 0.007241 0.500000 0.750580
O O12 0.958847 0.272755 0.840147
O O13 0.988856 0.252662 0.671304
O O14 0.391699 0.713932 0.580498
O O15 0.357645 0.000000 0.576726
O O16 0.053643 0.500000 0.050020
O O17 0.000000 0.256209 0.000000
O O18 0.500000 0.739785 0.500000
O O19 0.474387 0.500000 0.595029
#
# Coordination Sequence:
#
# PCOD8092241 Si02
#       7
#     8   8   8   8   8   8   8
#     4   9  17  32  56  81 105 140 184 226 271 329
#     4  10  20  35  55  81 113 146 182 226 282 335
#     4   9  18  33  54  79 107 141 180 224 276 330
#     4  10  19  34  60  87 108 141 192 237 275 328
#     4  10  20  35  55  79 107 142 184 227 273 329
#     4   9  16  32  59  86 110 142 187 236 278 330
#     4  11  24  39  54  77 113 149 181 226 285 336
#
# _framework density 19.057641
#
# number of rings (size 3 to 8) (size 9 to 14) (size 15 to 20)
#    0.000    2.286    1.429    1.714    0.000    4.000 
#    0.000    5.714    0.000    0.857    0.000    0.000 
#    0.000    0.000    0.000    0.000    0.000    0.000 
#
# Total GULP energy -347158.592331 kJ/mol
# GULP energy per Si atom -12398.521155 kJ/mol
# Density = 1.901426 g / cm^3
# Si number density = 19.057641 Si / 1000 Ang^3
#
#
#
# Elastic Constant Matrix: (Units=GPa)
#
#
# Indices 1 2 3 4 5 6 
#
# 1 131.7332 22.2957 85.7854 0.0000 5.0099 0.0000
# 2 22.2957 30.8920 36.4305 0.0000 -1.0611 0.0000
# 3 85.7854 36.4305 180.0327 0.0000 -9.9202 0.0000
# 4 0.0000 0.0000 0.0000 19.0081 0.0000 0.8689
# 5 5.0099 -1.0611 -9.9202 0.0000 30.3672 0.0000
# 6 0.0000 0.0000 0.0000 0.8689 0.0000 22.8760
#
#
#
# Elastic Compliance Matrix: (Units=1/GPa)
#
#
# Indices 1 2 3 4 5 6 
#
# 1 0.011525 -0.002271 -0.005236 0.000000 -0.003691 0.000000
# 2 -0.002271 0.043018 -0.007657 0.000000 -0.000624 0.000000
# 3 -0.005236 -0.007657 0.009808 0.000000 0.003800 0.000000
# 4 0.000000 0.000000 0.000000 0.052701 0.000000 -0.002002
# 5 -0.003691 -0.000624 0.003800 0.000000 0.034759 0.000000
# 6 0.000000 0.000000 0.000000 -0.002002 0.000000 0.043790
#
#
# Mechanical properties :
#
#
# Convention : Reuss Voigt Hill
#
# Bulk Modulus (GPa) = 29.39047 70.18678 49.78863
# Shear Modulus (GPa) = 21.07299 27.66003 24.36651
#
# Velocity S-wave (km/s) = 3.32889 3.81384 3.57959
# Velocity P-wave (km/s) = 5.49825 7.50350 6.57773
#
# Compressibility (1/GPa) = 0.03402463
#
# Stress axis : x y z
#
# Youngs Moduli (GPa) = 86.76572 23.24582 101.95458
#
# Poissons Ratio (x) = 0.05278 0.53381
# Poissons Ratio (y) = 0.19701 0.78071
# Poissons Ratio (z) = 0.45428 0.17800
#
# Static dielectric constant tensor:
#      x y z
#    x 3.569260 0.000000 -0.131120 
#    y 0.000000 3.105460 0.000000 
#    z -0.131120 0.000000 3.732930 
# 
# 
# High freq. dielectric constant tensor:
#      x y z
#    x 1.747640 0.000000 -0.006490 
#    y 0.000000 1.704300 0.000000 
#    z -0.006490 0.000000 1.752760 
# 
# From -- ./inp_files/231071.got.cif
#   From: 2010.06.25/outbox.cif.g09.slc.cpg/sg12_116_cif.got.tgz:231071.got - 2010.06.28 00:19:55.
