data_PCOD8092823
_publ_section_title
;
Structure prediction by ZEFSAII (Michael W. Deem and Ramdas Pophale) SiO2 
 PCOD8092823
Probable space group: C 2/M
;
_chemical_formula_sum "Si O2"
_cell_formula_units_Z 56
_cell_length_a 16.093970
_cell_length_b 25.462167
_cell_length_c 9.117829
_cell_angle_alpha 90.000000
_cell_angle_beta 124.678859
_cell_angle_gamma 90.000000
_cell_volume 3072.619779
_symmetry_space_group_name_H-M "C 2/M"
_symmetry_group_IT_number 12
_symmetry_cell_setting 'monoclinic'
loop_
_space_group_symop_operation_xyz
x,y,z
-x,y,-z
-x,-y,-z
x,-y,z
1/2+x,1/2+y,z
1/2-x,1/2+y,-z
1/2-x,1/2-y,-z
1/2+x,1/2-y,z
loop_
_atom_site_type_symbol
_atom_site_label
_atom_site_fract_x
_atom_site_fract_y
_atom_site_fract_z
Si Si1 0.996819 0.714079 0.323442
Si Si2 0.700566 0.803432 0.394444
Si Si3 0.605669 0.155774 0.023600
Si Si4 0.468149 0.669116 0.300967
Si Si5 0.150070 0.101857 0.454160
Si Si6 0.114189 0.000000 0.265963
Si Si7 0.701942 0.404170 0.831046
Si Si8 0.116099 0.000000 0.920861
O O1 0.983751 0.773307 0.247457
O O2 0.000000 0.709788 0.500000
O O3 0.101112 0.687523 0.386447
O O4 0.910655 0.681156 0.152951
O O5 0.750000 0.750000 0.500000
O O6 0.669934 0.803621 0.190816
O O7 0.770526 0.852646 0.499336
O O8 0.677116 0.104955 0.064521
O O9 0.500000 0.140248 0.000000
O O10 0.500000 0.675827 0.500000
O O11 0.540554 0.625512 0.300353
O O12 0.352580 0.649707 0.168105
O O13 0.173383 0.051970 0.376463
O O14 0.153768 0.081748 0.625278
O O15 0.003671 0.000000 0.234583
O O16 0.118936 0.000000 0.097668
O O17 0.675865 0.450093 0.917671
#
# Coordination Sequence:
#
# PCOD8092823 Si02
#       8
#     8   8   8   8   8   4   8   4
#     4  10  20  35  54  80 116 151 190 230 279 333
#     4  10  19  36  56  82 114 150 188 233 281 331
#     4   9  21  38  55  82 113 146 190 238 277 336
#     4   9  17  30  51  82 110 143 188 225 263 332
#     4  10  19  35  58  79 110 152 190 226 270 340
#     4  11  23  37  51  84 121 144 177 231 294 338
#     4  10  20  36  59  78 106 150 192 228 277 330
#     4  11  23  37  52  82 116 144 182 239 284 335
#
# _framework density 18.225490000000001
#
# number of rings (size 3 to 8) (size 9 to 14) (size 15 to 20)
#    0.000    2.143    2.857    0.429    2.000    2.286 
#    2.571    0.357    0.000    2.571    0.000   10.000 
#    0.000    0.000    0.000    0.000    0.000    0.000 
#
# Total GULP energy -346951.083366 kJ/mol
# GULP energy per Si atom -12391.110120 kJ/mol
# Density = 1.818401 g / cm^3
# Si number density = 18.225490 Si / 1000 Ang^3
#
#
#
# Elastic Constant Matrix: (Units=GPa)
#
#
# Indices 1 2 3 4 5 6 
#
# 1 89.2954 57.2811 40.8045 0.0000 6.8000 0.0000
# 2 57.2811 104.9215 50.1930 0.0000 -2.0736 0.0000
# 3 40.8045 50.1930 90.7656 0.0000 0.2838 0.0000
# 4 0.0000 0.0000 0.0000 19.5457 0.0000 -3.8048
# 5 6.8000 -2.0736 0.2838 0.0000 28.0921 0.0000
# 6 0.0000 0.0000 0.0000 -3.8048 0.0000 30.8576
#
#
#
# Elastic Compliance Matrix: (Units=1/GPa)
#
#
# Indices 1 2 3 4 5 6 
#
# 1 0.018786 -0.008601 -0.003673 0.000000 -0.005145 0.000000
# 2 -0.008601 0.016927 -0.005504 0.000000 0.003387 0.000000
# 3 -0.003673 -0.005504 0.015712 0.000000 0.000324 0.000000
# 4 0.000000 0.000000 0.000000 0.052420 0.000000 0.006463
# 5 -0.005145 0.003387 0.000324 0.000000 0.037089 0.000000
# 6 0.000000 0.000000 0.000000 0.006463 0.000000 0.033204
#
#
# Mechanical properties :
#
#
# Convention : Reuss Voigt Hill
#
# Bulk Modulus (GPa) = 63.02092 64.61552 63.81822
# Shear Modulus (GPa) = 23.25754 24.81269 24.03512
#
# Velocity S-wave (km/s) = 3.57613 3.69376 3.63542
# Velocity P-wave (km/s) = 7.19063 7.32954 7.26041
#
# Compressibility (1/GPa) = 0.01586775
#
# Stress axis : x y z
#
# Youngs Moduli (GPa) = 53.23022 59.07876 63.64699
#
# Poissons Ratio (x) = 0.50812 0.23380
# Poissons Ratio (y) = 0.45781 0.35034
# Poissons Ratio (z) = 0.19553 0.32519
#
# Static dielectric constant tensor:
#      x y z
#    x 3.497130 0.000000 0.116390 
#    y 0.000000 3.297070 0.000000 
#    z 0.116390 0.000000 3.615830 
# 
# 
# High freq. dielectric constant tensor:
#      x y z
#    x 1.706500 0.000000 0.003860 
#    y 0.000000 1.693780 0.000000 
#    z 0.003860 0.000000 1.695380 
# 
# From -- ./inp_files/67095.got.cif
#   From: 2010.06.25/outbox.cif.g09.slc.cpg/sg12_34_cif.got.tgz:67095.got - 2010.06.28 00:19:55.
