data_PCOD8092793
_publ_section_title
;
Structure prediction by ZEFSAII (Michael W. Deem and Ramdas Pophale) SiO2 
 PCOD8092793
Probable space group: C 2/M
;
_chemical_formula_sum "Si O2"
_cell_formula_units_Z 64
_cell_length_a 14.758261
_cell_length_b 14.774134
_cell_length_c 17.182288
_cell_angle_alpha 90.000000
_cell_angle_beta 116.617137
_cell_angle_gamma 90.000000
_cell_volume 3349.388939
_symmetry_space_group_name_H-M "C 2/M"
_symmetry_group_IT_number 12
_symmetry_cell_setting 'monoclinic'
loop_
_space_group_symop_operation_xyz
x,y,z
-x,y,-z
-x,-y,-z
x,-y,z
1/2+x,1/2+y,z
1/2-x,1/2+y,-z
1/2-x,1/2-y,-z
1/2+x,1/2-y,z
loop_
_atom_site_type_symbol
_atom_site_label
_atom_site_fract_x
_atom_site_fract_y
_atom_site_fract_z
Si Si1 0.710520 0.102554 0.005236
Si Si2 0.156041 0.604981 0.429228
Si Si3 0.270673 0.231761 0.847688
Si Si4 0.581518 0.828765 0.815563
Si Si5 0.880877 0.103706 0.952153
Si Si6 0.145739 0.724187 0.280879
Si Si7 0.064781 0.600979 0.644836
Si Si8 0.755169 0.894711 0.627108
O O1 0.686634 0.164961 0.069948
O O2 0.701057 0.000000 0.030262
O O3 0.624458 0.121636 0.908023
O O4 0.823287 0.120557 0.012734
O O5 0.144003 0.500000 0.400273
O O6 0.188771 0.661405 0.366463
O O7 0.239117 0.616463 0.528455
O O8 0.046105 0.642949 0.416363
O O9 0.151697 0.243860 0.818525
O O10 0.329029 0.328679 0.871136
O O11 0.287415 0.194375 0.767742
O O12 0.469852 0.791972 0.787737
O O13 0.582908 0.898669 0.744459
O O14 0.862816 0.000000 0.918126
O O15 0.000000 0.125734 0.000000
O O16 0.154109 0.829699 0.310087
O O17 0.065468 0.500000 0.612366
O O18 0.156616 0.647365 0.633532
O O19 0.778835 0.000000 0.657396
#
# Coordination Sequence:
#
# PCOD8092793 Si02
#       8
#     8   8   8   8   8   8   8   8
#     4  10  22  39  57  79 110 152 190 229 273 323
#     4   9  19  35  57  82 113 147 183 223 273 334
#     4  11  23  36  56  80 115 148 187 229 275 326
#     4  10  20  37  54  78 115 145 185 229 276 322
#     4   9  19  35  59  83 105 139 185 232 280 325
#     4  11  23  35  57  84 112 150 184 226 279 325
#     4   9  16  30  55  85 111 138 174 227 286 329
#     4  10  19  35  57  85 114 141 179 229 280 335
#
# _framework density 19.107963000000002
#
# number of rings (size 3 to 8) (size 9 to 14) (size 15 to 20)
#    0.000    2.125    1.250    2.625    3.500    3.500 
#    0.000    1.250    0.000    0.000    0.000    1.750 
#    0.000    0.000    0.000    0.000    0.000    0.000 
#
# Total GULP energy -396656.126621 kJ/mol
# GULP energy per Si atom -12395.503957 kJ/mol
# Density = 1.906447 g / cm^3
# Si number density = 19.107963 Si / 1000 Ang^3
#
#
#
# Elastic Constant Matrix: (Units=GPa)
#
#
# Indices 1 2 3 4 5 6 
#
# 1 60.8856 39.2054 34.4411 0.0000 -7.8101 0.0000
# 2 39.2054 78.8832 32.7727 0.0000 -5.2276 0.0000
# 3 34.4411 32.7727 72.9971 0.0000 -6.2736 0.0000
# 4 0.0000 0.0000 0.0000 24.6407 0.0000 0.0734
# 5 -7.8101 -5.2276 -6.2736 0.0000 27.0262 0.0000
# 6 0.0000 0.0000 0.0000 0.0734 0.0000 22.9958
#
#
#
# Elastic Compliance Matrix: (Units=1/GPa)
#
#
# Indices 1 2 3 4 5 6 
#
# 1 0.028363 -0.010334 -0.008377 0.000000 0.004253 0.000000
# 2 -0.010334 0.019403 -0.003846 0.000000 -0.000126 0.000000
# 3 -0.008377 -0.003846 0.019495 0.000000 0.001361 0.000000
# 4 0.000000 0.000000 0.000000 0.040584 0.000000 -0.000129
# 5 0.004253 -0.000126 0.001361 0.000000 0.038522 0.000000
# 6 0.000000 0.000000 0.000000 -0.000129 0.000000 0.043487
#
#
# Mechanical properties :
#
#
# Convention : Reuss Voigt Hill
#
# Bulk Modulus (GPa) = 45.15419 47.28938 46.22178
# Shear Modulus (GPa) = 20.63144 22.02232 21.32688
#
# Velocity S-wave (km/s) = 3.28949 3.39856 3.34447
# Velocity P-wave (km/s) = 6.17333 6.34055 6.25750
#
# Compressibility (1/GPa) = 0.02214634
#
# Stress axis : x y z
#
# Youngs Moduli (GPa) = 35.25750 51.53928 51.29510
#
# Poissons Ratio (x) = 0.53263 0.42969
# Poissons Ratio (y) = 0.36437 0.19728
# Poissons Ratio (z) = 0.29534 0.19822
#
# Static dielectric constant tensor:
#      x y z
#    x 3.510420 0.000000 -0.006920 
#    y 0.000000 3.450040 0.000000 
#    z -0.006920 0.000000 3.423360 
# 
# 
# High freq. dielectric constant tensor:
#      x y z
#    x 1.733010 0.000000 -0.004150 
#    y 0.000000 1.727630 0.000000 
#    z -0.004150 0.000000 1.742730 
# 
# From -- ./inp_files/270327.got.cif
#   From: 2010.06.25/outbox.cif.g09.slc.cpg/sg12_136_cif.got.tgz:270327.got - 2010.06.28 00:19:55.
