data_PCOD8092133
_publ_section_title
;
Structure prediction by ZEFSAII (Michael W. Deem and Ramdas Pophale) SiO2 
 PCOD8092133
Probable space group: C 2/M
;
_chemical_formula_sum "Si O2"
_cell_formula_units_Z 56
_cell_length_a 15.596734
_cell_length_b 8.686769
_cell_length_c 22.703840
_cell_angle_alpha 90.000000
_cell_angle_beta 59.932161
_cell_angle_gamma 90.000000
_cell_volume 2662.101448
_symmetry_space_group_name_H-M "C 2/M"
_symmetry_group_IT_number 12
_symmetry_cell_setting 'monoclinic'
loop_
_space_group_symop_operation_xyz
x,y,z
-x,y,-z
-x,-y,-z
x,-y,z
1/2+x,1/2+y,z
1/2-x,1/2+y,-z
1/2-x,1/2-y,-z
1/2+x,1/2-y,z
loop_
_atom_site_type_symbol
_atom_site_label
_atom_site_fract_x
_atom_site_fract_y
_atom_site_fract_z
Si Si1 0.562925 0.178400 0.920448
Si Si2 0.454623 0.323561 0.847708
Si Si3 0.779416 0.669998 0.429863
Si Si4 0.864573 0.176897 0.294278
Si Si5 0.223350 0.319821 0.150038
Si Si6 0.922541 0.170014 0.569355
Si Si7 0.310866 0.683413 0.715738
O O1 0.514782 0.272495 0.884143
O O2 0.674170 0.232079 0.895182
O O3 0.564406 0.000000 0.902426
O O4 0.500000 0.210645 0.000000
O O5 0.423064 0.500000 0.866780
O O6 0.523178 0.303766 0.766361
O O7 0.354555 0.224347 0.874373
O O8 0.822367 0.500000 0.428316
O O9 0.750000 0.750000 0.500000
O O10 0.859301 0.765890 0.364081
O O11 0.682290 0.657145 0.424820
O O12 0.795975 0.276510 0.274560
O O13 0.829701 0.000000 0.303194
O O14 0.244495 0.500000 0.141606
O O15 0.173888 0.269805 0.228453
O O16 0.899936 0.242920 0.641410
O O17 0.000000 0.262800 0.500000
O O18 0.968464 0.000000 0.563983
O O19 0.316388 0.500000 0.722684
#
# Coordination Sequence:
#
# PCOD8092133 Si02
#       7
#     8   8   8   8   8   8   8
#     4  11  25  46  72 100 133 171 210 262 326 388
#     4  11  24  42  67  98 130 170 218 266 318 381
#     4  10  20  33  52  78 111 155 202 256 317 377
#     4  10  20  36  59  85 116 159 209 262 322 384
#     4  12  25  41  65  97 132 172 216 264 317 382
#     4   8  16  31  51  76 107 148 197 248 307 369
#     4  10  19  34  59  86 118 161 208 263 321 378
#
# _framework density 21.036013000000001
#
# number of rings (size 3 to 8) (size 9 to 14) (size 15 to 20)
#    0.000    1.714    1.429    4.286    0.000    4.571 
#    0.000    2.857    0.000   14.571    0.000    0.000 
#    0.000    0.000    0.000    0.000    0.000    0.000 
#
# Total GULP energy -347116.398348 kJ/mol
# GULP energy per Si atom -12397.014227 kJ/mol
# Density = 2.098813 g / cm^3
# Si number density = 21.036013 Si / 1000 Ang^3
#
#
#
# Elastic Constant Matrix: (Units=GPa)
#
#
# Indices 1 2 3 4 5 6 
#
# 1 69.6105 7.5809 30.6841 0.0000 -9.0023 0.0001
# 2 7.5809 70.5069 44.8999 0.0000 4.1541 0.0002
# 3 30.6841 44.8999 119.7058 0.0000 -9.8938 0.0000
# 4 0.0000 0.0000 0.0000 28.5343 0.0000 2.2388
# 5 -9.0023 4.1541 -9.8938 0.0000 24.2556 0.0000
# 6 0.0001 0.0002 0.0000 2.2388 0.0000 29.8536
#
#
#
# Elastic Compliance Matrix: (Units=1/GPa)
#
#
# Indices 1 2 3 4 5 6 
#
# 1 0.016694 0.000575 -0.004130 0.000000 0.004413 0.000000
# 2 0.000575 0.019618 -0.008037 0.000000 -0.006424 0.000000
# 3 -0.004130 -0.008037 0.012847 0.000000 0.005084 0.000000
# 4 0.000000 0.000000 0.000000 0.035253 0.000000 -0.002644
# 5 0.004413 -0.006424 0.005084 0.000000 0.046039 0.000000
# 6 0.000000 0.000000 0.000000 -0.002644 0.000000 0.033695
#
#
# Mechanical properties :
#
#
# Convention : Reuss Voigt Hill
#
# Bulk Modulus (GPa) = 38.49773 47.35034 42.92404
# Shear Modulus (GPa) = 25.51172 28.30591 26.90882
#
# Velocity S-wave (km/s) = 3.48625 3.67221 3.58044
# Velocity P-wave (km/s) = 5.87757 6.36696 6.12716
#
# Compressibility (1/GPa) = 0.02597556
#
# Stress axis : x y z
#
# Youngs Moduli (GPa) = 59.90074 50.97467 77.83814
#
# Poissons Ratio (x) = -0.02932 0.32150
# Poissons Ratio (y) = -0.03446 0.62556
# Poissons Ratio (z) = 0.24741 0.40967
#
# Static dielectric constant tensor:
#      x y z
#    x 2.165200 0.000000 -1.278870 
#    y 0.000000 3.802620 0.000000 
#    z -1.278870 0.000000 3.085330 
# 
# 
# High freq. dielectric constant tensor:
#      x y z
#    x 1.809440 0.000000 -0.001660 
#    y 0.000000 1.818450 0.000000 
#    z -0.001660 0.000000 1.838930 
# 
# From -- ./inp_files/338443.got.cif
#   From: 2010.06.25/outbox.cif.g09.slc.cpg/sg12_170_cif.got.tgz:338443.got - 2010.06.28 00:19:55.
