data_PCOD8092075
_publ_section_title
;
Structure prediction by ZEFSAII (Michael W. Deem and Ramdas Pophale) SiO2 
 PCOD8092075
Probable space group: C 2/M
;
_chemical_formula_sum "Si O2"
_cell_formula_units_Z 64
_cell_length_a 20.796221
_cell_length_b 13.939902
_cell_length_c 11.931615
_cell_angle_alpha 90.000000
_cell_angle_beta 110.512598
_cell_angle_gamma 90.000000
_cell_volume 3239.629069
_symmetry_space_group_name_H-M "C 2/M"
_symmetry_group_IT_number 12
_symmetry_cell_setting 'monoclinic'
loop_
_space_group_symop_operation_xyz
x,y,z
-x,y,-z
-x,-y,-z
x,-y,z
1/2+x,1/2+y,z
1/2-x,1/2+y,-z
1/2-x,1/2-y,-z
1/2+x,1/2-y,z
loop_
_atom_site_type_symbol
_atom_site_label
_atom_site_fract_x
_atom_site_fract_y
_atom_site_fract_z
Si Si1 0.369217 0.113524 0.910143
Si Si2 0.590802 0.313281 0.593491
Si Si3 0.436403 0.790522 0.748526
Si Si4 0.881299 0.394040 0.393592
Si Si5 0.527910 0.390112 0.339169
Si Si6 0.923180 0.392225 0.179461
Si Si7 0.232002 0.104555 0.712249
Si Si8 0.798906 0.659168 0.538605
O O1 0.421476 0.173886 0.864879
O O2 0.291015 0.142045 0.832385
O O3 0.380589 0.000000 0.896381
O O4 0.383689 0.146870 0.045762
O O5 0.573623 0.201805 0.551138
O O6 0.577658 0.379097 0.477063
O O7 0.547120 0.352558 0.670571
O O8 0.670557 0.319187 0.676814
O O9 0.444933 0.674525 0.747726
O O10 0.507736 0.835186 0.749168
O O11 0.375789 0.818206 0.627119
O O12 0.915478 0.500000 0.440565
O O13 0.870169 0.387301 0.252046
O O14 0.810057 0.388496 0.422195
O O15 0.525984 0.500000 0.298422
O O16 0.946773 0.500000 0.168795
O O17 0.263833 0.089932 0.607260
O O18 0.204766 0.000000 0.733452
O O19 0.750000 0.750000 0.500000
#
# Coordination Sequence:
#
# PCOD8092075 Si02
#       8
#     8   8   8   8   8   8   8   8
#     4   9  20  37  60  88 114 149 194 239 287 345
#     4  11  20  38  56  84 116 152 191 230 286 347
#     4  11  20  34  59  85 113 150 187 234 287 338
#     4  11  22  36  58  86 121 153 181 235 294 347
#     4  11  22  36  56  85 118 152 193 236 281 339
#     4  10  21  38  59  86 119 151 188 238 296 346
#     4  10  19  34  59  82 107 147 196 241 279 331
#     4  11  21  36  53  79 122 151 187 227 280 345
#
# _framework density 19.755348000000001
#
# number of rings (size 3 to 8) (size 9 to 14) (size 15 to 20)
#    0.000    1.500    3.750    2.625    0.000    3.000 
#    0.000    3.750    0.000    1.500    0.000    0.000 
#    0.000    0.000    0.000    0.000    0.000    0.000 
#
# Total GULP energy -396427.811930 kJ/mol
# GULP energy per Si atom -12388.369123 kJ/mol
# Density = 1.971038 g / cm^3
# Si number density = 19.755348 Si / 1000 Ang^3
#
#
#
# Elastic Constant Matrix: (Units=GPa)
#
#
# Indices 1 2 3 4 5 6 
#
# 1 91.2164 38.3152 58.0658 0.0000 9.2585 0.0000
# 2 38.3152 120.2062 23.1763 0.0000 0.6595 0.0000
# 3 58.0658 23.1763 95.9969 0.0000 -6.4162 0.0000
# 4 0.0000 0.0000 0.0000 21.8399 0.0000 -2.0745
# 5 9.2585 0.6595 -6.4162 0.0000 28.0105 0.0000
# 6 0.0000 0.0000 0.0000 -2.0745 0.0000 21.2350
#
#
#
# Elastic Compliance Matrix: (Units=1/GPa)
#
#
# Indices 1 2 3 4 5 6 
#
# 1 0.022167 -0.004503 -0.013003 0.000000 -0.010199 0.000000
# 2 -0.004503 0.009653 0.000485 0.000000 0.001372 0.000000
# 3 -0.013003 0.000485 0.018738 0.000000 0.008579 0.000000
# 4 0.000000 0.000000 0.000000 0.046217 0.000000 0.004515
# 5 -0.010199 0.001372 0.008579 0.000000 0.041005 0.000000
# 6 0.000000 0.000000 0.000000 0.004515 0.000000 0.047533
#
#
# Mechanical properties :
#
#
# Convention : Reuss Voigt Hill
#
# Bulk Modulus (GPa) = 60.54361 60.72601 60.63481
# Shear Modulus (GPa) = 22.23613 26.74123 24.48868
#
# Velocity S-wave (km/s) = 3.35860 3.68315 3.52461
# Velocity P-wave (km/s) = 6.76413 6.99237 6.87920
#
# Compressibility (1/GPa) = 0.01651702
#
# Stress axis : x y z
#
# Youngs Moduli (GPa) = 45.11303 103.59199 53.36678
#
# Poissons Ratio (x) = 0.46643 0.69390
# Poissons Ratio (y) = 0.20313 -0.02586
# Poissons Ratio (z) = 0.58658 -0.05020
#
# Static dielectric constant tensor:
#      x y z
#    x 3.625100 0.000000 -0.160610 
#    y 0.000000 3.675640 0.000000 
#    z -0.160610 0.000000 3.526080 
# 
# 
# High freq. dielectric constant tensor:
#      x y z
#    x 1.764430 0.000000 -0.010840 
#    y 0.000000 1.769370 0.000000 
#    z -0.010840 0.000000 1.742480 
# 
# From -- ./inp_files/167313.got.cif
#   From: 2010.06.25/outbox.cif.g09.slc.cpg/sg12_84_cif.got.tgz:167313.got - 2010.06.28 00:19:55.
