data_PCOD8092860
_publ_section_title
;
Structure prediction by ZEFSAII (Michael W. Deem and Ramdas Pophale) SiO2 
 PCOD8092860
Probable space group: C 2/M
;
_chemical_formula_sum "Si O2"
_cell_formula_units_Z 56
_cell_length_a 29.175554
_cell_length_b 8.855970
_cell_length_c 11.858256
_cell_angle_alpha 90.000000
_cell_angle_beta 108.915821
_cell_angle_gamma 90.000000
_cell_volume 2898.446676
_symmetry_space_group_name_H-M "C 2/M"
_symmetry_group_IT_number 12
_symmetry_cell_setting 'monoclinic'
loop_
_space_group_symop_operation_xyz
x,y,z
-x,y,-z
-x,-y,-z
x,-y,z
1/2+x,1/2+y,z
1/2-x,1/2+y,-z
1/2-x,1/2-y,-z
1/2+x,1/2-y,z
loop_
_atom_site_type_symbol
_atom_site_label
_atom_site_fract_x
_atom_site_fract_y
_atom_site_fract_z
Si Si1 0.515915 0.174236 0.212752
Si Si2 0.793958 0.824429 0.389852
Si Si3 0.814398 0.675863 0.635505
Si Si4 0.952411 0.677448 0.519706
Si Si5 0.366809 0.820909 0.296804
Si Si6 0.603575 0.824394 0.126106
Si Si7 0.412564 0.677467 0.117516
O O1 0.547728 0.216918 0.348101
O O2 0.549710 0.202842 0.132010
O O3 0.468560 0.275756 0.169444
O O4 0.498928 0.000000 0.205762
O O5 0.819910 0.765320 0.523610
O O6 0.736913 0.788991 0.347280
O O7 0.814811 0.740059 0.296380
O O8 0.804648 0.000000 0.386853
O O9 0.820356 0.500000 0.610631
O O10 0.856231 0.730675 0.753128
O O11 0.952626 0.500000 0.499335
O O12 0.905283 0.742386 0.419622
O O13 0.000000 0.749663 0.500000
O O14 0.380086 0.756822 0.185763
O O15 0.365446 0.000000 0.287723
O O16 0.611037 0.000000 0.102529
O O17 0.609694 0.725635 0.019694
O O18 0.408514 0.500000 0.129384
#
# Coordination Sequence:
#
# PCOD8092860 Si02
#       7
#     8   8   8   8   8   8   8
#     4  10  19  35  58  82 107 143 189 232 272 325
#     4  10  20  35  59  91 122 144 173 225 285 334
#     4   9  19  38  62  87 114 147 186 226 270 328
#     4   9  16  30  55  82 106 136 181 229 266 313
#     4  11  21  37  60  82 110 150 193 228 272 332
#     4  10  21  38  60  81 105 146 199 236 266 321
#     4  12  25  38  52  77 115 150 185 232 287 336
#
# _framework density 19.320692999999999
#
# number of rings (size 3 to 8) (size 9 to 14) (size 15 to 20)
#    0.000    1.857    1.429    3.429    0.000    5.714 
#    0.000    4.286    0.000    0.000    0.000    0.000 
#    0.000    0.000    0.000    0.000    0.000    0.000 
#
# Total GULP energy -347276.345557 kJ/mol
# GULP energy per Si atom -12402.726627 kJ/mol
# Density = 1.927672 g / cm^3
# Si number density = 19.320693 Si / 1000 Ang^3
#
#
#
# Elastic Constant Matrix: (Units=GPa)
#
#
# Indices 1 2 3 4 5 6 
#
# 1 100.9658 46.1064 43.3376 0.0000 -18.5992 0.0000
# 2 46.1064 85.3960 40.8199 0.0000 -12.5694 0.0000
# 3 43.3376 40.8199 90.5947 0.0000 -15.7077 0.0000
# 4 0.0000 0.0000 0.0000 25.5037 0.0000 -5.2182
# 5 -18.5992 -12.5694 -15.7077 0.0000 27.3718 0.0000
# 6 0.0000 0.0000 0.0000 -5.2182 0.0000 29.7003
#
#
#
# Elastic Compliance Matrix: (Units=1/GPa)
#
#
# Indices 1 2 3 4 5 6 
#
# 1 0.015057 -0.005519 -0.003755 0.000000 0.005542 0.000000
# 2 -0.005519 0.017225 -0.004886 0.000000 0.001356 0.000000
# 3 -0.003755 -0.004886 0.015774 0.000000 0.004257 0.000000
# 4 0.000000 0.000000 0.000000 0.040672 0.000000 0.007146
# 5 0.005542 0.001356 0.004257 0.000000 0.043365 0.000000
# 6 0.000000 0.000000 0.000000 0.007146 0.000000 0.034925
#
#
# Mechanical properties :
#
#
# Convention : Reuss Voigt Hill
#
# Bulk Modulus (GPa) = 50.66871 59.72049 55.19460
# Shear Modulus (GPa) = 24.76245 26.29465 25.52855
#
# Velocity S-wave (km/s) = 3.58390 3.69312 3.63892
# Velocity P-wave (km/s) = 6.58846 7.01161 6.80333
#
# Compressibility (1/GPa) = 0.01973605
#
# Stress axis : x y z
#
# Youngs Moduli (GPa) = 66.41248 58.05521 63.39446
#
# Poissons Ratio (x) = 0.32040 0.23807
# Poissons Ratio (y) = 0.36652 0.30975
# Poissons Ratio (z) = 0.24941 0.28366
#
# Static dielectric constant tensor:
#      x y z
#    x 3.602980 0.000000 -0.026140 
#    y 0.000000 3.320850 0.000000 
#    z -0.026140 0.000000 3.560360 
# 
# 
# High freq. dielectric constant tensor:
#      x y z
#    x 1.756710 0.000000 -0.009050 
#    y 0.000000 1.731530 0.000000 
#    z -0.009050 0.000000 1.750490 
# 
# From -- ./inp_files/186833.got.cif
#   From: 2010.06.25/outbox.cif.g09.slc.cpg/sg12_94_cif.got.tgz:186833.got - 2010.06.28 00:19:55.
