data_PCOD8092033
_publ_section_title
;
Structure prediction by ZEFSAII (Michael W. Deem and Ramdas Pophale) SiO2 
 PCOD8092033
Probable space group: C 2/M
;
_chemical_formula_sum "Si O2"
_cell_formula_units_Z 48
_cell_length_a 28.849061
_cell_length_b 9.048917
_cell_length_c 9.873312
_cell_angle_alpha 90.000000
_cell_angle_beta 72.793947
_cell_angle_gamma 90.000000
_cell_volume 2462.106776
_symmetry_space_group_name_H-M "C 2/M"
_symmetry_group_IT_number 12
_symmetry_cell_setting 'monoclinic'
loop_
_space_group_symop_operation_xyz
x,y,z
-x,y,-z
-x,-y,-z
x,-y,z
1/2+x,1/2+y,z
1/2-x,1/2+y,-z
1/2-x,1/2-y,-z
1/2+x,1/2-y,z
loop_
_atom_site_type_symbol
_atom_site_label
_atom_site_fract_x
_atom_site_fract_y
_atom_site_fract_z
Si Si1 0.046709 0.671121 0.747609
Si Si2 0.411499 0.830534 0.581298
Si Si3 0.709371 0.171706 0.714734
Si Si4 0.051048 0.170730 0.191875
Si Si5 0.304503 0.170703 0.586008
Si Si6 0.618926 0.328514 0.885540
O O1 0.046941 0.500000 0.788373
O O2 0.057240 0.692693 0.580294
O O3 0.087872 0.751357 0.796500
O O4 0.994620 0.739837 0.826938
O O5 0.433825 0.724752 0.673743
O O6 0.355853 0.785318 0.605136
O O7 0.415222 0.000000 0.626944
O O8 0.693343 0.204884 0.575130
O O9 0.763544 0.231476 0.694231
O O10 0.672263 0.256679 0.844873
O O11 0.707906 0.000000 0.751867
O O12 0.036131 0.000000 0.212823
O O13 0.095607 0.197119 0.052311
O O14 0.291889 0.000000 0.621220
O O15 0.623132 0.500000 0.845301
#
# Coordination Sequence:
#
# PCOD8092033 Si02
#       6
#     8   8   8   8   8   8
#     4  11  22  39  62  87 112 147 196 240 283 338
#     4  10  21  39  60  85 116 150 189 235 284 338
#     4  10  19  34  58  88 115 144 189 235 282 339
#     4  11  25  40  55  83 119 154 193 234 283 341
#     4   9  18  35  57  85 117 145 182 234 287 336
#     4  11  23  39  58  83 118 154 190 236 285 334
#
# _framework density 19.495498999999999
#
# number of rings (size 3 to 8) (size 9 to 14) (size 15 to 20)
#    0.000    1.667    1.667    3.000    0.000    9.333 
#    0.000    0.833    0.000    0.000    0.000    0.000 
#    0.000    0.000    0.000    0.000    0.000    0.000 
#
# Total GULP energy -297742.474654 kJ/mol
# GULP energy per Si atom -12405.936444 kJ/mol
# Density = 1.945113 g / cm^3
# Si number density = 19.495499 Si / 1000 Ang^3
#
#
#
# Elastic Constant Matrix: (Units=GPa)
#
#
# Indices 1 2 3 4 5 6 
#
# 1 65.4519 34.3950 11.4981 0.0000 -24.7130 0.0000
# 2 34.3950 113.0351 42.5907 0.0000 -23.2848 0.0000
# 3 11.4981 42.5907 51.8224 0.0000 -17.7622 0.0000
# 4 0.0000 0.0000 0.0000 29.3162 0.0000 -4.1398
# 5 -24.7130 -23.2848 -17.7622 0.0000 30.9184 0.0000
# 6 0.0000 0.0000 0.0000 -4.1398 0.0000 34.3939
#
#
#
# Elastic Compliance Matrix: (Units=1/GPa)
#
#
# Indices 1 2 3 4 5 6 
#
# 1 0.024180 -0.005700 0.005569 0.000000 0.018234 0.000000
# 2 -0.005700 0.014678 -0.010673 0.000000 0.000367 0.000000
# 3 0.005569 -0.010673 0.031881 0.000000 0.014729 0.000000
# 4 0.000000 0.000000 0.000000 0.034701 0.000000 0.004177
# 5 0.018234 0.000367 0.014729 0.000000 0.055655 0.000000
# 6 0.000000 0.000000 0.000000 0.004177 0.000000 0.029578
#
#
# Mechanical properties :
#
#
# Convention : Reuss Voigt Hill
#
# Bulk Modulus (GPa) = 20.35335 45.25301 32.80318
# Shear Modulus (GPa) = 21.86671 28.38074 25.12372
#
# Velocity S-wave (km/s) = 3.35271 3.81958 3.59373
# Velocity P-wave (km/s) = 5.04482 6.53565 5.83802
#
# Compressibility (1/GPa) = 0.04913196
#
# Stress axis : x y z
#
# Youngs Moduli (GPa) = 41.35644 68.12757 31.36649
#
# Poissons Ratio (x) = 0.38833 -0.17469
# Poissons Ratio (y) = 0.23573 0.33478
# Poissons Ratio (z) = -0.23033 0.72714
#
# Static dielectric constant tensor:
#      x y z
#    x 3.632030 0.000000 -0.233270 
#    y 0.000000 3.669100 0.000000 
#    z -0.233270 0.000000 3.447600 
# 
# 
# High freq. dielectric constant tensor:
#      x y z
#    x 1.763700 0.000000 -0.018670 
#    y 0.000000 1.768290 0.000000 
#    z -0.018670 0.000000 1.748840 
# 
# From -- ./inp_files/185721.got.cif
#   From: 2010.06.25/outbox.cif.g09.slc.cpg/sg12_93_cif.got.tgz:185721.got - 2010.06.28 00:19:55.
