data_PCOD8092535
_publ_section_title
;
Structure prediction by ZEFSAII (Michael W. Deem and Ramdas Pophale) SiO2 
 PCOD8092535
Probable space group: C 2/M
;
_chemical_formula_sum "Si O2"
_cell_formula_units_Z 64
_cell_length_a 18.684603
_cell_length_b 8.975518
_cell_length_c 31.502012
_cell_angle_alpha 90.000000
_cell_angle_beta 40.111818
_cell_angle_gamma 90.000000
_cell_volume 3403.747044
_symmetry_space_group_name_H-M "C 2/M"
_symmetry_group_IT_number 12
_symmetry_cell_setting 'monoclinic'
loop_
_space_group_symop_operation_xyz
x,y,z
-x,y,-z
-x,-y,-z
x,-y,z
1/2+x,1/2+y,z
1/2-x,1/2+y,-z
1/2-x,1/2-y,-z
1/2+x,1/2-y,z
loop_
_atom_site_type_symbol
_atom_site_label
_atom_site_fract_x
_atom_site_fract_y
_atom_site_fract_z
Si Si1 0.722826 0.675976 0.716284
Si Si2 0.424250 0.667242 0.766925
Si Si3 0.005515 0.824283 0.863290
Si Si4 0.155478 0.326171 0.570075
Si Si5 0.439478 0.675576 0.985315
Si Si6 0.353737 0.829250 0.328598
Si Si7 0.922212 0.171465 0.671890
Si Si8 0.206479 0.171611 0.092302
O O1 0.731058 0.500000 0.716582
O O2 0.615550 0.740019 0.790494
O O3 0.717603 0.724073 0.669612
O O4 0.834024 0.746510 0.683264
O O5 0.474258 0.500000 0.750592
O O6 0.517408 0.788010 0.734865
O O7 0.380203 0.687766 0.739307
O O8 0.322502 0.692269 0.844941
O O9 0.893784 0.762823 0.891215
O O10 0.005052 0.000000 0.856993
O O11 0.009034 0.780809 0.911542
O O12 0.146399 0.500000 0.563116
O O13 0.250000 0.250000 0.500000
O O14 0.186309 0.301182 0.605303
O O15 0.040061 0.248492 0.611191
O O16 0.428795 0.500000 0.995021
O O17 0.316898 0.737059 0.033767
O O18 0.500000 0.742106 0.000000
O O19 0.338213 0.000000 0.322086
O O20 0.932646 0.000000 0.653469
O O21 0.229402 0.000000 0.070551
#
# Coordination Sequence:
#
# PCOD8092535 Si02
#       8
#     8   8   8   8   8   8   8   8
#     4  11  21  36  58  82 115 153 188 234 290 341
#     4   9  18  34  55  79 109 146 184 228 283 338
#     4   9  19  36  55  75 105 145 186 230 283 341
#     4  10  21  39  63  90 119 155 191 227 272 328
#     4  10  22  37  52  75 107 142 183 234 289 341
#     4  10  20  35  57  87 118 145 185 231 272 326
#     4  10  21  36  56  85 119 150 187 235 280 330
#     4  10  19  35  56  76 103 140 185 230 279 341
#
# _framework density 18.802807999999999
#
# number of rings (size 3 to 8) (size 9 to 14) (size 15 to 20)
#    0.000    2.125    1.250    1.875    1.750    2.750 
#    0.000    1.875    0.000    3.750    0.000    0.000 
#    0.000    0.000    0.000    0.000    0.000    0.000 
#
# Total GULP energy -396813.545895 kJ/mol
# GULP energy per Si atom -12400.423309 kJ/mol
# Density = 1.876001 g / cm^3
# Si number density = 18.802808 Si / 1000 Ang^3
#
#
#
# Elastic Constant Matrix: (Units=GPa)
#
#
# Indices 1 2 3 4 5 6 
#
# 1 126.1548 49.9245 54.4248 -0.0010 -3.8924 -0.0001
# 2 49.9245 80.9692 47.9880 -0.0007 0.3648 -0.0005
# 3 54.4248 47.9880 105.7082 0.0001 -0.3415 0.0000
# 4 -0.0010 -0.0007 0.0001 27.6860 -0.0001 -5.3521
# 5 -3.8924 0.3648 -0.3415 -0.0001 21.9119 0.0002
# 6 -0.0001 -0.0005 0.0000 -5.3521 0.0002 31.3576
#
#
#
# Elastic Compliance Matrix: (Units=1/GPa)
#
#
# Indices 1 2 3 4 5 6 
#
# 1 0.011537 -0.004934 -0.003693 0.000000 0.002074 0.000000
# 2 -0.004934 0.019010 -0.006094 0.000000 -0.001288 0.000000
# 3 -0.003693 -0.006094 0.014127 0.000000 -0.000334 0.000000
# 4 0.000000 0.000000 0.000000 0.037352 0.000000 0.006375
# 5 0.002074 -0.001288 -0.000334 0.000000 0.046022 0.000000
# 6 0.000000 0.000000 0.000000 0.006375 0.000000 0.032978
#
#
# Mechanical properties :
#
#
# Convention : Reuss Voigt Hill
#
# Bulk Modulus (GPa) = 65.65293 68.61188 67.13240
# Shear Modulus (GPa) = 25.56968 26.89077 26.23022
#
# Velocity S-wave (km/s) = 3.69166 3.78583 3.73904
# Velocity P-wave (km/s) = 7.29133 7.46187 7.37709
#
# Compressibility (1/GPa) = 0.01523161
#
# Stress axis : x y z
#
# Youngs Moduli (GPa) = 86.68097 52.60420 70.78739
#
# Poissons Ratio (x) = 0.25954 0.26143
# Poissons Ratio (y) = 0.42766 0.43137
# Poissons Ratio (z) = 0.32013 0.32056
#
# Static dielectric constant tensor:
#      x y z
#    x 3.533210 0.000000 0.215240 
#    y 0.000000 3.399170 0.000000 
#    z 0.215240 0.000000 3.447370 
# 
# 
# High freq. dielectric constant tensor:
#      x y z
#    x 1.733460 0.000000 0.010780 
#    y 0.000000 1.722980 0.000000 
#    z 0.010780 0.000000 1.723680 
# 
# From -- ./inp_files/378068.got.cif
#   From: 2010.06.25/outbox.cif.g09.slc.cpg/sg12_190_cif.got.tgz:378068.got - 2010.06.28 00:19:55.
