data_PCOD8092840
_publ_section_title
;
Structure prediction by ZEFSAII (Michael W. Deem and Ramdas Pophale) SiO2 
 PCOD8092840
Probable space group: C 2/M
;
_chemical_formula_sum "Si O2"
_cell_formula_units_Z 48
_cell_length_a 25.036614
_cell_length_b 8.833612
_cell_length_c 11.803041
_cell_angle_alpha 90.000000
_cell_angle_beta 90.227178
_cell_angle_gamma 90.000000
_cell_volume 2610.384099
_symmetry_space_group_name_H-M "C 2/M"
_symmetry_group_IT_number 12
_symmetry_cell_setting 'monoclinic'
loop_
_space_group_symop_operation_xyz
x,y,z
-x,y,-z
-x,-y,-z
x,-y,z
1/2+x,1/2+y,z
1/2-x,1/2+y,-z
1/2-x,1/2-y,-z
1/2+x,1/2-y,z
loop_
_atom_site_type_symbol
_atom_site_label
_atom_site_fract_x
_atom_site_fract_y
_atom_site_fract_z
Si Si1 0.688671 0.824892 0.391596
Si Si2 0.061370 0.821318 0.996944
Si Si3 0.095713 0.677366 0.223855
Si Si4 0.811145 0.823677 0.375513
Si Si5 0.502537 0.820378 0.625904
Si Si6 0.897980 0.320669 0.228699
O O1 0.651818 0.785342 0.284237
O O2 0.748927 0.784426 0.357631
O O3 0.669810 0.729725 0.500243
O O4 0.682598 0.000000 0.425953
O O5 0.093036 0.746477 0.894704
O O6 0.063391 0.000000 0.983160
O O7 0.092724 0.772046 0.109272
O O8 0.000000 0.763128 0.000000
O O9 0.089681 0.500000 0.196065
O O10 0.048857 0.735016 0.305664
O O11 0.841763 0.735022 0.277241
O O12 0.823029 0.000000 0.363114
O O13 0.500000 0.750091 0.500000
O O14 0.555445 0.760089 0.688204
O O15 0.503464 0.000000 0.618619
O O16 0.898065 0.500000 0.219453
#
# Coordination Sequence:
#
# PCOD8092840 Si02
#       6
#     8   8   8   8   8   8
#     4   9  19  36  59  84 111 147 187 226 270 326
#     4  11  23  38  55  78 113 148 180 224 282 336
#     4  10  19  35  58  81 107 141 189 232 267 320
#     4  10  20  35  56  84 117 148 180 224 279 328
#     4   9  17  29  50  80 108 133 170 223 271 315
#     4  11  21  35  57  81 108 145 190 227 267 326
#
# _framework density 18.388099
#
# number of rings (size 3 to 8) (size 9 to 14) (size 15 to 20)
#    0.000    2.000    1.667    2.500    0.000    4.667 
#    0.000    0.833    0.000    2.500    0.000    0.000 
#    0.000    0.000    0.000    0.000    0.000    0.000 
#
# Total GULP energy -297697.761477 kJ/mol
# GULP energy per Si atom -12404.073395 kJ/mol
# Density = 1.834625 g / cm^3
# Si number density = 18.388099 Si / 1000 Ang^3
#
#
#
# Elastic Constant Matrix: (Units=GPa)
#
#
# Indices 1 2 3 4 5 6 
#
# 1 101.2800 35.4000 66.8488 0.0000 -1.7522 0.0000
# 2 35.4000 58.8253 43.7312 0.0000 -1.8654 0.0000
# 3 66.8488 43.7312 154.2941 0.0000 -2.8966 0.0000
# 4 0.0000 0.0000 0.0000 29.4248 0.0000 -2.6608
# 5 -1.7522 -1.8654 -2.8966 0.0000 29.4333 0.0000
# 6 0.0000 0.0000 0.0000 -2.6608 0.0000 23.9488
#
#
#
# Elastic Compliance Matrix: (Units=1/GPa)
#
#
# Indices 1 2 3 4 5 6 
#
# 1 0.015041 -0.005328 -0.005005 0.000000 0.000065 0.000000
# 2 -0.005328 0.023442 -0.004322 0.000000 0.000743 0.000000
# 3 -0.005005 -0.004322 0.009882 0.000000 0.000401 0.000000
# 4 0.000000 0.000000 0.000000 0.034330 0.000000 0.003814
# 5 0.000065 0.000743 0.000401 0.000000 0.034066 0.000000
# 6 0.000000 0.000000 0.000000 0.003814 0.000000 0.042179
#
#
# Mechanical properties :
#
#
# Convention : Reuss Voigt Hill
#
# Bulk Modulus (GPa) = 52.48016 67.37327 59.92672
# Shear Modulus (GPa) = 25.69351 27.78935 26.74143
#
# Velocity S-wave (km/s) = 3.74209 3.89172 3.81764
# Velocity P-wave (km/s) = 6.87555 7.54408 7.21756
#
# Compressibility (1/GPa) = 0.01905482
#
# Stress axis : x y z
#
# Youngs Moduli (GPa) = 66.48642 42.65786 101.19405
#
# Poissons Ratio (x) = 0.22730 0.50648
# Poissons Ratio (y) = 0.35426 0.43733
# Poissons Ratio (z) = 0.33277 0.18435
#
# Static dielectric constant tensor:
#      x y z
#    x 3.465510 0.000000 0.025040 
#    y 0.000000 3.215590 0.000000 
#    z 0.025040 0.000000 3.411570 
# 
# 
# High freq. dielectric constant tensor:
#      x y z
#    x 1.713560 0.000000 -0.001580 
#    y 0.000000 1.700450 0.000000 
#    z -0.001580 0.000000 1.716310 
# 
# From -- ./inp_files/172164.got.cif
#   From: 2010.06.25/outbox.cif.g09.slc.cpg/sg12_87_cif.got.tgz:172164.got - 2010.06.28 00:19:55.
