data_PCOD8092720
_publ_section_title
;
Structure prediction by ZEFSAII (Michael W. Deem and Ramdas Pophale) SiO2 
 PCOD8092720
Probable space group: C 2/M
;
_chemical_formula_sum "Si O2"
_cell_formula_units_Z 64
_cell_length_a 14.622585
_cell_length_b 9.123448
_cell_length_c 33.202187
_cell_angle_alpha 90.000000
_cell_angle_beta 129.786815
_cell_angle_gamma 90.000000
_cell_volume 3403.726174
_symmetry_space_group_name_H-M "C 2/M"
_symmetry_group_IT_number 12
_symmetry_cell_setting 'monoclinic'
loop_
_space_group_symop_operation_xyz
x,y,z
-x,y,-z
-x,-y,-z
x,-y,z
1/2+x,1/2+y,z
1/2-x,1/2+y,-z
1/2-x,1/2-y,-z
1/2+x,1/2-y,z
loop_
_atom_site_type_symbol
_atom_site_label
_atom_site_fract_x
_atom_site_fract_y
_atom_site_fract_z
Si Si1 0.642857 0.328498 0.922192
Si Si2 0.014666 0.333361 0.263980
Si Si3 0.318569 0.672437 0.250402
Si Si4 0.079657 0.173270 0.637692
Si Si5 0.307667 0.674366 0.554402
Si Si6 0.241393 0.673295 0.379355
Si Si7 0.053048 0.667528 0.182263
Si Si8 0.885783 0.828114 0.993666
O O1 0.662176 0.500000 0.922420
O O2 0.543468 0.274915 0.863473
O O3 0.766938 0.252288 0.945117
O O4 0.597809 0.289598 0.954547
O O5 0.978870 0.500000 0.262176
O O6 0.117293 0.283091 0.323488
O O7 0.061633 0.312234 0.232351
O O8 0.897439 0.236429 0.236664
O O9 0.335017 0.500000 0.256096
O O10 0.363305 0.740595 0.305518
O O11 0.182453 0.713574 0.202312
O O12 0.152546 0.227962 0.619559
O O13 0.944514 0.224876 0.594942
O O14 0.090256 0.000000 0.643236
O O15 0.293447 0.500000 0.547794
O O16 0.250000 0.750000 0.500000
O O17 0.241726 0.735716 0.575158
O O18 0.248506 0.500000 0.390154
O O19 0.021347 0.500000 0.161823
O O20 0.867035 0.000000 0.981485
O O21 0.000000 0.772899 0.000000
#
# Coordination Sequence:
#
# PCOD8092720 Si02
#       8
#     8   8   8   8   8   8   8   8
#     4  10  21  36  56  85 117 146 186 238 280 324
#     4  10  20  34  55  82 109 142 182 226 273 325
#     4  10  19  35  57  81 108 145 189 227 267 327
#     4   9  18  35  59  80 105 143 183 218 268 335
#     4  11  23  39  58  82 111 143 180 230 282 331
#     4  10  19  36  60  82 105 139 184 225 268 329
#     4  10  21  37  56  79 115 155 187 223 274 334
#     4   9  19  38  62  83 109 151 193 230 281 339
#
# _framework density 18.802924000000001
#
# number of rings (size 3 to 8) (size 9 to 14) (size 15 to 20)
#    0.000    2.125    2.500    0.750    0.000    3.250 
#    0.000    8.125    0.000    0.000    0.000    0.000 
#    0.000    0.000    0.000    0.000    0.000    0.000 
#
# Total GULP energy -396853.763543 kJ/mol
# GULP energy per Si atom -12401.680111 kJ/mol
# Density = 1.876013 g / cm^3
# Si number density = 18.802924 Si / 1000 Ang^3
#
#
#
# Elastic Constant Matrix: (Units=GPa)
#
#
# Indices 1 2 3 4 5 6 
#
# 1 101.2138 24.5395 3.0514 0.0000 11.1397 0.0000
# 2 24.5395 40.4968 24.6440 0.0000 8.9405 0.0000
# 3 3.0514 24.6440 63.9247 0.0000 8.4111 0.0000
# 4 0.0000 0.0000 0.0000 30.3956 0.0000 -1.1943
# 5 11.1397 8.9405 8.4111 0.0000 21.0623 0.0000
# 6 0.0000 0.0000 0.0000 -1.1943 0.0000 31.2105
#
#
#
# Elastic Compliance Matrix: (Units=1/GPa)
#
#
# Indices 1 2 3 4 5 6 
#
# 1 0.012306 -0.008505 0.003243 0.000000 -0.004194 0.000000
# 2 -0.008505 0.039927 -0.014089 0.000000 -0.006824 0.000000
# 3 0.003243 -0.014089 0.021488 0.000000 -0.004316 0.000000
# 4 0.000000 0.000000 0.000000 0.032949 0.000000 0.001261
# 5 -0.004194 -0.006824 -0.004316 0.000000 0.054316 0.000000
# 6 0.000000 0.000000 0.000000 0.001261 0.000000 0.032089
#
#
# Mechanical properties :
#
#
# Convention : Reuss Voigt Hill
#
# Bulk Modulus (GPa) = 28.55495 34.45610 31.50553
# Shear Modulus (GPa) = 20.53829 26.76039 23.64934
#
# Velocity S-wave (km/s) = 3.30857 3.77663 3.55032
# Velocity P-wave (km/s) = 5.46030 6.11407 5.79641
#
# Compressibility (1/GPa) = 0.03502020
#
# Stress axis : x y z
#
# Youngs Moduli (GPa) = 81.26257 25.04591 46.53793
#
# Poissons Ratio (x) = 0.21300 -0.15092
# Poissons Ratio (y) = 0.69110 0.65565
# Poissons Ratio (z) = -0.26353 0.35286
#
# Static dielectric constant tensor:
#      x y z
#    x 3.619550 0.000000 0.022350 
#    y 0.000000 3.252130 0.000000 
#    z 0.022350 0.000000 3.381140 
# 
# 
# High freq. dielectric constant tensor:
#      x y z
#    x 1.741380 0.000000 0.001440 
#    y 0.000000 1.713330 0.000000 
#    z 0.001440 0.000000 1.727270 
# 
# From -- ./inp_files/359989.got.cif
#   From: 2010.06.25/outbox.cif.g09.slc.cpg/sg12_180_cif.got.tgz:359989.got - 2010.06.28 00:19:55.
