data_PCOD8092166
_publ_section_title
;
Structure prediction by ZEFSAII (Michael W. Deem and Ramdas Pophale) SiO2 
 PCOD8092166
Probable space group: C 2/M
;
_chemical_formula_sum "Si O2"
_cell_formula_units_Z 56
_cell_length_a 19.383757
_cell_length_b 8.737245
_cell_length_c 31.549400
_cell_angle_alpha 90.000000
_cell_angle_beta 147.194285
_cell_angle_gamma 90.000000
_cell_volume 2894.917578
_symmetry_space_group_name_H-M "C 2/M"
_symmetry_group_IT_number 12
_symmetry_cell_setting 'monoclinic'
loop_
_space_group_symop_operation_xyz
x,y,z
-x,y,-z
-x,-y,-z
x,-y,z
1/2+x,1/2+y,z
1/2-x,1/2+y,-z
1/2-x,1/2-y,-z
1/2+x,1/2-y,z
loop_
_atom_site_type_symbol
_atom_site_label
_atom_site_fract_x
_atom_site_fract_y
_atom_site_fract_z
Si Si1 0.171551 0.820486 0.998154
Si Si2 0.398208 0.820772 0.867675
Si Si3 0.740515 0.821938 0.449151
Si Si4 0.979365 0.671723 0.538456
Si Si5 0.010712 0.176927 0.696691
Si Si6 0.668838 0.176201 0.706723
Si Si7 0.748765 0.324362 0.874627
O O1 0.233624 0.778570 0.075144
O O2 0.175183 0.000000 0.994015
O O3 0.250000 0.750000 0.000000
O O4 0.026421 0.766357 0.922747
O O5 0.294154 0.778432 0.778410
O O6 0.344918 0.773175 0.886619
O O7 0.424788 0.000000 0.879757
O O8 0.750000 0.750000 0.500000
O O9 0.874002 0.796392 0.495209
O O10 0.629881 0.737640 0.364776
O O11 0.709589 0.000000 0.436130
O O12 0.934094 0.500000 0.527936
O O13 0.000000 0.685073 0.500000
O O14 0.112944 0.707080 0.631063
O O15 0.058193 0.277587 0.682029
O O16 0.103196 0.197850 0.784677
O O17 0.007789 0.000000 0.681217
O O18 0.706495 0.000000 0.733229
O O19 0.776867 0.500000 0.901269
#
# Coordination Sequence:
#
# PCOD8092166 Si02
#       7
#     8   8   8   8   8   8   8
#     4  12  25  41  62  88 121 157 196 241 292 350
#     4  10  21  39  64  90 119 155 194 240 293 350
#     4  12  23  36  59  87 118 156 201 248 296 348
#     4  10  22  40  59  83 118 160 200 242 297 354
#     4  10  20  36  60  89 120 154 193 244 297 347
#     4  10  19  34  59  88 118 154 198 245 289 346
#     4   9  20  39  63  90 120 155 192 237 293 351
#
# _framework density 19.344246999999999
#
# number of rings (size 3 to 8) (size 9 to 14) (size 15 to 20)
#    0.000    1.571    1.429    5.143    0.000    6.000 
#    2.571    0.000    0.000    0.000    0.000    0.000 
#    0.000    0.000    0.000    0.000    0.000    0.000 
#
# Total GULP energy -347261.048991 kJ/mol
# GULP energy per Si atom -12402.180321 kJ/mol
# Density = 1.930022 g / cm^3
# Si number density = 19.344247 Si / 1000 Ang^3
#
#
#
# Elastic Constant Matrix: (Units=GPa)
#
#
# Indices 1 2 3 4 5 6 
#
# 1 93.3663 49.3099 66.3837 -0.0001 -0.7518 0.0003
# 2 49.3099 109.5851 57.3636 0.0000 0.5111 0.0006
# 3 66.3837 57.3636 136.5599 0.0000 0.4305 0.0000
# 4 -0.0001 0.0000 0.0000 36.3057 0.0000 4.0089
# 5 -0.7518 0.5111 0.4305 0.0000 29.0411 -0.0001
# 6 0.0003 0.0006 0.0000 4.0089 -0.0001 31.2465
#
#
#
# Elastic Compliance Matrix: (Units=1/GPa)
#
#
# Indices 1 2 3 4 5 6 
#
# 1 0.017957 -0.004503 -0.006840 0.000000 0.000645 0.000000
# 2 -0.004503 0.012827 -0.003198 0.000000 -0.000295 0.000000
# 3 -0.006840 -0.003198 0.011992 0.000000 -0.000299 0.000000
# 4 0.000000 0.000000 0.000000 0.027940 0.000000 -0.003585
# 5 0.000645 -0.000295 -0.000299 0.000000 0.034460 0.000000
# 6 0.000000 0.000000 0.000000 -0.003585 0.000000 0.032464
#
#
# Mechanical properties :
#
#
# Convention : Reuss Voigt Hill
#
# Bulk Modulus (GPa) = 73.02257 76.18063 74.60160
# Shear Modulus (GPa) = 29.19101 30.41559 29.80330
#
# Velocity S-wave (km/s) = 3.88884 3.96957 3.92941
# Velocity P-wave (km/s) = 7.61544 7.77669 7.69649
#
# Compressibility (1/GPa) = 0.01369440
#
# Stress axis : x y z
#
# Youngs Moduli (GPa) = 55.68943 77.96055 83.38827
#
# Poissons Ratio (x) = 0.35103 0.57035
# Poissons Ratio (y) = 0.25075 0.26671
# Poissons Ratio (z) = 0.38090 0.24935
#
# Static dielectric constant tensor:
#      x y z
#    x 3.203170 0.000000 0.016660 
#    y 0.000000 3.684170 0.000000 
#    z 0.016660 0.000000 3.739040 
# 
# 
# High freq. dielectric constant tensor:
#      x y z
#    x 1.727670 0.000000 0.005450 
#    y 0.000000 1.762010 0.000000 
#    z 0.005450 0.000000 1.770920 
# 
# From -- ./inp_files/377728.got.cif
#   From: 2010.06.25/outbox.cif.g09.slc.cpg/sg12_189_cif.got.tgz:377728.got - 2010.06.28 00:19:55.
