data_PCOD8092912
_publ_section_title
;
Structure prediction by ZEFSAII (Michael W. Deem and Ramdas Pophale) SiO2 
 PCOD8092912
Probable space group: C 2/M
;
_chemical_formula_sum "Si O2"
_cell_formula_units_Z 56
_cell_length_a 30.097892
_cell_length_b 9.692345
_cell_length_c 12.499752
_cell_angle_alpha 90.000000
_cell_angle_beta 127.953882
_cell_angle_gamma 90.000000
_cell_volume 2875.221921
_symmetry_space_group_name_H-M "C 2/M"
_symmetry_group_IT_number 12
_symmetry_cell_setting 'monoclinic'
loop_
_space_group_symop_operation_xyz
x,y,z
-x,y,-z
-x,-y,-z
x,-y,z
1/2+x,1/2+y,z
1/2-x,1/2+y,-z
1/2-x,1/2-y,-z
1/2+x,1/2-y,z
loop_
_atom_site_type_symbol
_atom_site_label
_atom_site_fract_x
_atom_site_fract_y
_atom_site_fract_z
Si Si1 0.559087 0.158044 0.367432
Si Si2 0.127660 0.158953 0.052046
Si Si3 0.930207 0.341220 0.205034
Si Si4 0.255971 0.155041 0.239709
Si Si5 0.127277 0.656744 0.670120
Si Si6 0.398575 0.651875 0.744417
Si Si7 0.780411 0.152244 0.464118
O O1 0.496646 0.171520 0.322170
O O2 0.601964 0.219153 0.521477
O O3 0.561191 0.241204 0.257896
O O4 0.574543 0.000000 0.362508
O O5 0.192175 0.182738 0.107544
O O6 0.119505 0.202904 0.164055
O O7 0.110678 0.000000 0.010422
O O8 0.086954 0.254430 0.923747
O O9 0.912135 0.500000 0.159113
O O10 0.899129 0.274499 0.262750
O O11 0.304251 0.163861 0.219590
O O12 0.275205 0.277697 0.342953
O O13 0.258065 0.000000 0.295476
O O14 0.105531 0.500000 0.638338
O O15 0.427541 0.500000 0.795031
O O16 0.344511 0.638799 0.590731
O O17 0.750000 0.250000 0.500000
O O18 0.752382 0.000000 0.419835
#
# Coordination Sequence:
#
# PCOD8092912 Si02
#       7
#     8   8   8   8   8   8   8
#     4  10  20  36  61  86 109 142 187 237 284 328
#     4  10  22  39  55  78 115 155 185 219 277 341
#     4  10  22  39  57  82 112 146 193 236 272 326
#     4  10  19  35  58  84 112 146 186 226 277 338
#     4   9  18  35  61  86 110 142 182 235 288 328
#     4  10  21  36  55  82 116 147 182 227 278 337
#     4  11  20  32  53  83 116 148 181 228 282 333
#
# _framework density 19.476756999999999
#
# number of rings (size 3 to 8) (size 9 to 14) (size 15 to 20)
#    0.000    2.000    2.857    0.857    0.000    5.143 
#    0.000    4.286    0.000    1.714    0.000    0.000 
#    0.000    0.000    0.000    0.000    0.000    0.000 
#
# Total GULP energy -346995.703792 kJ/mol
# GULP energy per Si atom -12392.703707 kJ/mol
# Density = 1.943243 g / cm^3
# Si number density = 19.476757 Si / 1000 Ang^3
#
#
#
# Elastic Constant Matrix: (Units=GPa)
#
#
# Indices 1 2 3 4 5 6 
#
# 1 98.5672 30.9603 14.3800 0.0000 -9.4727 0.0000
# 2 30.9603 80.5553 27.1374 0.0000 -9.4174 0.0000
# 3 14.3800 27.1374 60.4332 0.0000 -2.7848 0.0000
# 4 0.0000 0.0000 0.0000 23.4391 0.0000 1.8239
# 5 -9.4727 -9.4174 -2.7848 0.0000 23.4093 0.0000
# 6 0.0000 0.0000 0.0000 1.8239 0.0000 24.8648
#
#
#
# Elastic Compliance Matrix: (Units=1/GPa)
#
#
# Indices 1 2 3 4 5 6 
#
# 1 0.011791 -0.003854 -0.000932 0.000000 0.003110 0.000000
# 2 -0.003854 0.016526 -0.006304 0.000000 0.004339 0.000000
# 3 -0.000932 -0.006304 0.019573 0.000000 -0.000585 0.000000
# 4 0.000000 0.000000 0.000000 0.042909 0.000000 -0.003148
# 5 0.003110 0.004339 -0.000585 0.000000 0.045652 0.000000
# 6 0.000000 0.000000 0.000000 -0.003148 0.000000 0.040448
#
#
# Mechanical properties :
#
#
# Convention : Reuss Voigt Hill
#
# Bulk Modulus (GPa) = 38.89530 42.72344 40.80937
# Shear Modulus (GPa) = 24.07916 25.48117 24.78016
#
# Velocity S-wave (km/s) = 3.51992 3.62095 3.57079
# Velocity P-wave (km/s) = 6.04428 6.28211 6.16434
#
# Compressibility (1/GPa) = 0.02571005
#
# Stress axis : x y z
#
# Youngs Moduli (GPa) = 84.81210 60.51055 51.09157
#
# Poissons Ratio (x) = 0.23322 0.04759
# Poissons Ratio (y) = 0.32689 0.32208
# Poissons Ratio (z) = 0.07901 0.38146
#
# Static dielectric constant tensor:
#      x y z
#    x 3.622750 0.000000 -0.050140 
#    y 0.000000 3.071010 0.000000 
#    z -0.050140 0.000000 3.380990 
# 
# 
# High freq. dielectric constant tensor:
#      x y z
#    x 1.767760 0.000000 0.001680 
#    y 0.000000 1.743720 0.000000 
#    z 0.001680 0.000000 1.735790 
# 
# From -- ./inp_files/181067.got.cif
#   From: 2010.06.25/outbox.cif.g09.slc.cpg/sg12_91_cif.got.tgz:181067.got - 2010.06.28 00:19:55.
