data_PCOD8092695
_publ_section_title
;
Structure prediction by ZEFSAII (Michael W. Deem and Ramdas Pophale) SiO2 
 PCOD8092695
Probable space group: C 2/M
;
_chemical_formula_sum "Si O2"
_cell_formula_units_Z 56
_cell_length_a 29.291660
_cell_length_b 8.668649
_cell_length_c 14.305056
_cell_angle_alpha 90.000000
_cell_angle_beta 121.362750
_cell_angle_gamma 90.000000
_cell_volume 3101.605505
_symmetry_space_group_name_H-M "C 2/M"
_symmetry_group_IT_number 12
_symmetry_cell_setting 'monoclinic'
loop_
_space_group_symop_operation_xyz
x,y,z
-x,y,-z
-x,-y,-z
x,-y,z
1/2+x,1/2+y,z
1/2-x,1/2+y,-z
1/2-x,1/2-y,-z
1/2+x,1/2-y,z
loop_
_atom_site_type_symbol
_atom_site_label
_atom_site_fract_x
_atom_site_fract_y
_atom_site_fract_z
Si Si1 0.469674 0.820022 0.709587
Si Si2 0.359580 0.178599 0.269462
Si Si3 0.081342 0.826631 0.825245
Si Si4 0.054462 0.181183 0.505789
Si Si5 0.639097 0.672016 0.076303
Si Si6 0.756606 0.179141 0.905177
Si Si7 0.449283 0.683924 0.887087
O O1 0.530584 0.779243 0.753054
O O2 0.436926 0.765551 0.584048
O O3 0.449626 0.733793 0.780383
O O4 0.462079 0.000000 0.717142
O O5 0.370306 0.247030 0.178138
O O6 0.393308 0.275645 0.379423
O O7 0.295945 0.200780 0.215226
O O8 0.376072 0.000000 0.293264
O O9 0.069938 0.000000 0.774911
O O10 0.095104 0.832950 0.947978
O O11 0.000000 0.236136 0.500000
O O12 0.052726 0.000000 0.486364
O O13 0.655747 0.500000 0.124256
O O14 0.693562 0.756567 0.099340
O O15 0.606488 0.749976 0.127377
O O16 0.769803 0.000000 0.936680
O O17 0.750000 0.250000 0.000000
O O18 0.449658 0.500000 0.893421
O O19 0.500000 0.749461 0.000000
#
# Coordination Sequence:
#
# PCOD8092695 Si02
#       7
#     8   8   8   8   8   8   8
#     4  12  24  36  53  81 116 144 175 227 283 324
#     4  11  22  34  52  82 116 145 178 228 279 318
#     4  11  19  32  54  79 110 149 189 218 256 326
#     4  11  23  38  58  79 104 145 188 222 266 333
#     4   9  18  33  54  78 110 149 187 222 257 313
#     4  10  20  34  53  81 113 148 184 220 270 321
#     4  10  19  35  57  80 107 147 190 223 261 319
#
# _framework density 18.055166
#
# number of rings (size 3 to 8) (size 9 to 14) (size 15 to 20)
#    0.000    1.429    4.286    2.571    0.000    1.429 
#    0.000    0.714    0.000    0.857    0.000    0.000 
#    0.000    0.000    0.000    0.000    0.000    0.000 
#
# Total GULP energy -347095.836643 kJ/mol
# GULP energy per Si atom -12396.279880 kJ/mol
# Density = 1.801407 g / cm^3
# Si number density = 18.055166 Si / 1000 Ang^3
#
#
#
# Elastic Constant Matrix: (Units=GPa)
#
#
# Indices 1 2 3 4 5 6 
#
# 1 127.9779 24.3663 44.6550 0.0000 -9.6962 0.0000
# 2 24.3663 38.4335 11.0453 0.0000 -0.0665 0.0000
# 3 44.6550 11.0453 76.8647 0.0000 -5.2552 0.0000
# 4 0.0000 0.0000 0.0000 23.1433 0.0000 -2.1054
# 5 -9.6962 -0.0665 -5.2552 0.0000 29.2025 0.0000
# 6 0.0000 0.0000 0.0000 -2.1054 0.0000 18.6550
#
#
#
# Elastic Compliance Matrix: (Units=1/GPa)
#
#
# Indices 1 2 3 4 5 6 
#
# 1 0.010917 -0.005367 -0.005390 0.000000 0.002642 0.000000
# 2 -0.005367 0.029791 -0.001296 0.000000 -0.001947 0.000000
# 3 -0.005390 -0.001296 0.016407 0.000000 0.001160 0.000000
# 4 0.000000 0.000000 0.000000 0.043657 0.000000 0.004927
# 5 0.002642 -0.001947 0.001160 0.000000 0.035325 0.000000
# 6 0.000000 0.000000 0.000000 0.004927 0.000000 0.054161
#
#
# Mechanical properties :
#
#
# Convention : Reuss Voigt Hill
#
# Bulk Modulus (GPa) = 30.29601 44.82325 37.55963
# Shear Modulus (GPa) = 22.18598 25.08080 23.63339
#
# Velocity S-wave (km/s) = 3.50921 3.73113 3.62187
# Velocity P-wave (km/s) = 5.76503 6.59101 6.19181
#
# Compressibility (1/GPa) = 0.03300764
#
# Stress axis : x y z
#
# Youngs Moduli (GPa) = 91.60215 33.56730 60.95014
#
# Poissons Ratio (x) = 0.18017 0.32853
# Poissons Ratio (y) = 0.49167 0.07898
# Poissons Ratio (z) = 0.49375 0.04350
#
# Static dielectric constant tensor:
#      x y z
#    x 3.562300 0.000000 -0.043030 
#    y 0.000000 3.233970 0.000000 
#    z -0.043030 0.000000 3.244920 
# 
# 
# High freq. dielectric constant tensor:
#      x y z
#    x 1.697140 0.000000 -0.002990 
#    y 0.000000 1.686640 0.000000 
#    z -0.002990 0.000000 1.686310 
# 
# From -- ./inp_files/186843.got.cif
#   From: 2010.06.25/outbox.cif.g09.slc.cpg/sg12_94_cif.got.tgz:186843.got - 2010.06.28 00:19:55.
