data_PCOD8092810
_publ_section_title
;
Structure prediction by ZEFSAII (Michael W. Deem and Ramdas Pophale) SiO2 
 PCOD8092810
Probable space group: C 2/M
;
_chemical_formula_sum "Si O2"
_cell_formula_units_Z 36
_cell_length_a 20.282200
_cell_length_b 13.230002
_cell_length_c 19.552891
_cell_angle_alpha 90.000000
_cell_angle_beta 20.419253
_cell_angle_gamma 90.000000
_cell_volume 1830.504132
_symmetry_space_group_name_H-M "C 2/M"
_symmetry_group_IT_number 12
_symmetry_cell_setting 'monoclinic'
loop_
_space_group_symop_operation_xyz
x,y,z
-x,y,-z
-x,-y,-z
x,-y,z
1/2+x,1/2+y,z
1/2-x,1/2+y,-z
1/2-x,1/2-y,-z
1/2+x,1/2-y,z
loop_
_atom_site_type_symbol
_atom_site_label
_atom_site_fract_x
_atom_site_fract_y
_atom_site_fract_z
Si Si1 0.410606 0.000000 0.464650
Si Si2 0.500000 0.668728 0.000000
Si Si3 0.687961 0.664434 0.507999
Si Si4 0.348378 0.213218 0.588884
Si Si5 0.081106 0.000000 0.170129
Si Si6 0.850182 0.000000 0.049740
Si Si7 0.034791 0.500000 0.742531
O O1 0.332300 0.903473 0.580997
O O2 0.356941 0.000000 0.436859
O O3 0.632875 0.000000 0.245040
O O4 0.646252 0.740558 0.818309
O O5 0.390245 0.600877 0.052096
O O6 0.750000 0.750000 0.500000
O O7 0.608252 0.714116 0.516382
O O8 0.511295 0.600036 0.707947
O O9 0.876239 0.598958 0.307765
O O10 0.500000 0.230355 0.500000
O O11 0.037228 0.000000 0.131601
O O12 0.307862 0.000000 0.964477
#
# Coordination Sequence:
#
# PCOD8092810 Si02
#       7
#     4   4   8   8   4   4   4
#     4  11  19  39  61  90 134 158 195 263 324 377
#     4  11  22  32  58  89 126 166 194 247 320 389
#     4  11  23  41  66  93 129 170 213 262 313 378
#     4  12  24  39  60  95 131 163 209 256 322 380
#     4  10  24  42  65  92 127 168 211 267 314 367
#     4  10  19  35  57  92 126 158 198 248 325 383
#     4  10  23  42  63  93 124 169 212 258 314 371
#
# _framework density 19.666712
#
# number of rings (size 3 to 8) (size 9 to 14) (size 15 to 20)
#    0.000    1.111    4.444    3.000    3.111    2.667 
#    0.000    2.222    0.000    4.000    0.000    0.000 
#    0.000    0.000    0.000    0.000    0.000    0.000 
#
# Total GULP energy -223206.060411 kJ/mol
# GULP energy per Si atom -12400.336690 kJ/mol
# Density = 1.962195 g / cm^3
# Si number density = 19.666712 Si / 1000 Ang^3
#
#
#
# Elastic Constant Matrix: (Units=GPa)
#
#
# Indices 1 2 3 4 5 6 
#
# 1 123.9861 50.0986 19.8938 0.0160 10.5081 -0.0159
# 2 50.0986 108.3879 36.6870 -0.0134 2.9056 0.0137
# 3 19.8938 36.6870 97.3634 -0.0042 19.4146 0.0079
# 4 0.0160 -0.0134 -0.0042 27.8515 -0.0064 2.1713
# 5 10.5081 2.9056 19.4146 -0.0064 28.5440 0.0049
# 6 -0.0159 0.0137 0.0079 2.1713 0.0049 56.8128
#
#
#
# Elastic Compliance Matrix: (Units=1/GPa)
#
#
# Indices 1 2 3 4 5 6 
#
# 1 0.010230 -0.004775 0.000420 -0.000009 -0.003566 0.000005
# 2 -0.004775 0.012892 -0.004594 0.000009 0.003570 -0.000004
# 3 0.000420 -0.004594 0.013714 -0.000002 -0.009014 0.000000
# 4 -0.000009 0.000009 -0.000002 0.036012 0.000012 -0.001376
# 5 -0.003566 0.003570 -0.009014 0.000012 0.042114 -0.000005
# 6 0.000005 -0.000004 0.000000 -0.001376 -0.000005 0.017654
#
#
# Mechanical properties :
#
#
# Convention : Reuss Voigt Hill
#
# Bulk Modulus (GPa) = 52.80532 60.34401 56.57467
# Shear Modulus (GPa) = 31.88231 37.51219 34.69725
#
# Velocity S-wave (km/s) = 4.03069 4.37211 4.20487
# Velocity P-wave (km/s) = 6.96925 7.49914 7.23904
#
# Compressibility (1/GPa) = 0.01893749
#
# Stress axis : x y z
#
# Youngs Moduli (GPa) = 97.75581 77.56458 72.92018
#
# Poissons Ratio (x) = 0.37036 -0.03063
# Poissons Ratio (y) = 0.46677 0.33501
# Poissons Ratio (z) = -0.04106 0.35635
#
# Static dielectric constant tensor:
#      x y z
#    x 3.793160 -0.000030 0.006300 
#    y -0.000030 3.526510 0.000170 
#    z 0.006300 0.000170 3.720740 
# 
# 
# High freq. dielectric constant tensor:
#      x y z
#    x 1.773550 0.000000 -0.005620 
#    y 0.000000 1.742360 0.000010 
#    z -0.005620 0.000010 1.783040 
# 
# From -- ./inp_files/316457.got.cif
#   From: 2010.06.25/outbox.cif.g09.slc.cpg/sg12_159_cif.got.tgz:316457.got - 2010.06.28 00:19:55.
