data_PCOD8092685
_publ_section_title
;
Structure prediction by ZEFSAII (Michael W. Deem and Ramdas Pophale) SiO2 
 PCOD8092685
Probable space group: C 2/M
;
_chemical_formula_sum "Si O2"
_cell_formula_units_Z 40
_cell_length_a 10.272481
_cell_length_b 28.084981
_cell_length_c 16.198086
_cell_angle_alpha 90.000000
_cell_angle_beta 156.401589
_cell_angle_gamma 90.000000
_cell_volume 1870.787224
_symmetry_space_group_name_H-M "C 2/M"
_symmetry_group_IT_number 12
_symmetry_cell_setting 'monoclinic'
loop_
_space_group_symop_operation_xyz
x,y,z
-x,y,-z
-x,-y,-z
x,-y,z
1/2+x,1/2+y,z
1/2-x,1/2+y,-z
1/2-x,1/2-y,-z
1/2+x,1/2-y,z
loop_
_atom_site_type_symbol
_atom_site_label
_atom_site_fract_x
_atom_site_fract_y
_atom_site_fract_z
Si Si1 0.775734 0.052520 0.091446
Si Si2 0.881528 0.330531 0.225262
Si Si3 0.799429 0.390235 0.723249
Si Si4 0.094752 0.138430 0.351404
Si Si5 0.691801 0.730924 0.873028
O O1 0.067228 0.089376 0.282940
O O2 0.927473 0.000000 0.164244
O O3 0.500000 0.049644 0.000000
O O4 0.580520 0.070365 0.897472
O O5 0.953457 0.274032 0.266863
O O6 0.049819 0.347368 0.239772
O O7 0.045950 0.356120 0.400169
O O8 0.500000 0.342098 0.000000
O O9 0.500000 0.414659 0.500000
O O10 0.681194 0.365312 0.738616
O O11 0.039794 0.184407 0.260421
O O12 0.750000 0.750000 0.000000
O O13 0.000000 0.713581 0.000000
#
# Coordination Sequence:
#
# PCOD8092685 Si02
#       5
#     8   8   8   8   8
#     4   9  17  31  54  82 105 131 177 231 276 320
#     4  10  21  35  52  79 111 144 182 222 267 324
#     4   9  18  34  56  79 108 142 177 222 274 324
#     4  10  19  35  57  79 108 143 180 225 274 322
#     4  11  21  35  56  83 113 145 183 225 274 328
#
# _framework density 21.381371999999999
#
# number of rings (size 3 to 8) (size 9 to 14) (size 15 to 20)
#    0.000    2.200    0.000    4.800    0.000    0.400 
#    0.000   16.000    0.000    3.600    0.000    0.000 
#    0.000    0.000    0.000    0.000    0.000    0.000 
#
# Total GULP energy -247801.962710 kJ/mol
# GULP energy per Si atom -12390.098136 kJ/mol
# Density = 2.133271 g / cm^3
# Si number density = 21.381372 Si / 1000 Ang^3
#
#
#
# Elastic Constant Matrix: (Units=GPa)
#
#
# Indices 1 2 3 4 5 6 
#
# 1 41.8611 5.8525 30.8411 0.0010 -5.9815 0.0001
# 2 5.8525 167.8999 103.2133 0.0010 -14.8844 -0.0001
# 3 30.8411 103.2133 153.0015 0.0193 -20.5794 0.0006
# 4 0.0010 0.0010 0.0193 1.0117 0.0051 9.2772
# 5 -5.9815 -14.8844 -20.5794 0.0051 26.7730 -0.0008
# 6 0.0001 -0.0001 0.0006 9.2772 -0.0008 9.3822
#
#
#
# Elastic Compliance Matrix: (Units=1/GPa)
#
#
# Indices 1 2 3 4 5 6 
#
# 1 0.030116 0.004608 -0.008844 -0.000015 0.002492 0.000015
# 2 0.004608 0.010885 -0.008163 -0.000016 0.000806 0.000017
# 3 -0.008844 -0.008163 0.014442 0.000034 0.004587 -0.000035
# 4 -0.000015 -0.000016 0.000034 -0.122525 0.000041 0.121153
# 5 0.002492 0.000806 0.004587 0.000041 0.041882 -0.000037
# 6 0.000015 0.000017 -0.000035 0.121153 -0.000037 -0.013213
#
#
# Mechanical properties :
#
#
# Convention : Reuss Voigt Hill
#
# Bulk Modulus (GPa) = 32.63191 71.39736 52.01463
# Shear Modulus (GPa) = -1471.20087 22.29044 -724.45522
#
# Velocity S-wave (km/s) = -26.25966 3.23231 -18.42718
# Velocity P-wave (km/s) = 30.06878 6.88442 20.69705
#
# Compressibility (1/GPa) = 0.03064485
#
# Stress axis : x y z
#
# Youngs Moduli (GPa) = 33.20493 91.86950 69.24064
#
# Poissons Ratio (x) = -0.42330 0.61234
# Poissons Ratio (y) = -0.15300 0.56523
# Poissons Ratio (z) = 0.29365 0.74996
#
# Static dielectric constant tensor:
#      x y z
#    x 3.603010 0.000000 -0.271310 
#    y 0.000000 4.052650 0.000000 
#    z -0.271310 0.000000 4.085440 
# 
# 
# High freq. dielectric constant tensor:
#      x y z
#    x 1.812950 0.000000 -0.018560 
#    y 0.000000 1.831320 0.000000 
#    z -0.018560 0.000000 1.836320 
# 
# From -- ./inp_files/52862.got.cif
#   From: 2010.06.25/outbox.cif.g09.slc.cpg/sg12_27_cif.got.tgz:52862.got - 2010.06.28 00:19:55.
