data_PCOD8092011
_publ_section_title
;
Structure prediction by ZEFSAII (Michael W. Deem and Ramdas Pophale) SiO2 
 PCOD8092011
Probable space group: C 2/M
;
_chemical_formula_sum "Si O2"
_cell_formula_units_Z 56
_cell_length_a 22.426454
_cell_length_b 28.311032
_cell_length_c 9.635048
_cell_angle_alpha 90.000000
_cell_angle_beta 151.477926
_cell_angle_gamma 90.000000
_cell_volume 2921.064283
_symmetry_space_group_name_H-M "C 2/M"
_symmetry_group_IT_number 12
_symmetry_cell_setting 'monoclinic'
loop_
_space_group_symop_operation_xyz
x,y,z
-x,y,-z
-x,-y,-z
x,-y,z
1/2+x,1/2+y,z
1/2-x,1/2+y,-z
1/2-x,1/2-y,-z
1/2+x,1/2-y,z
loop_
_atom_site_type_symbol
_atom_site_label
_atom_site_fract_x
_atom_site_fract_y
_atom_site_fract_z
Si Si1 0.173408 0.000000 0.988433
Si Si2 0.587415 0.168332 0.367880
Si Si3 0.313821 0.837976 0.723811
Si Si4 0.797422 0.903857 0.286632
Si Si5 0.025061 0.838831 0.700416
Si Si6 0.600322 0.500000 0.520266
Si Si7 0.731006 0.897677 0.844341
Si Si8 0.415539 0.729986 0.694392
O O1 0.121603 0.000000 0.727876
O O2 0.252825 0.951758 0.179262
O O3 0.046778 0.000000 0.821593
O O4 0.654706 0.147055 0.368848
O O5 0.610698 0.129832 0.536800
O O6 0.635109 0.222514 0.486029
O O7 0.440100 0.178071 0.056199
O O8 0.267838 0.883297 0.712489
O O9 0.208871 0.797582 0.514846
O O10 0.928887 0.881189 0.518339
O O11 0.827455 0.956244 0.397247
O O12 0.714267 0.899816 0.976576
O O13 0.000000 0.814107 0.500000
O O14 0.005255 0.800303 0.778645
O O15 0.159388 0.863062 0.984452
O O16 0.500000 0.743944 0.000000
#
# Coordination Sequence:
#
# PCOD8092011 Si02
#       8
#     4   8   8   8   8   4   8   8
#     4   9  16  30  60  89 118 142 186 226 278 344
#     4  11  23  37  55  77 110 154 191 228 275 336
#     4  10  22  39  54  79 112 147 190 230 282 331
#     4   9  18  34  57  85 115 143 180 233 283 328
#     4   9  18  33  53  86 119 139 174 230 291 326
#     4   9  14  30  60  91 110 144 181 232 289 324
#     4  10  19  34  58  87 116 147 181 229 280 339
#     4  11  21  37  60  81 103 148 192 238 272 337
#
# _framework density 19.171095000000001
#
# number of rings (size 3 to 8) (size 9 to 14) (size 15 to 20)
#    0.000    2.143    2.857    1.286    2.000    0.571 
#    2.571    3.571    0.000    5.143    0.000    0.000 
#    0.000    0.000    0.000    0.000    0.000    0.000 
#
# Total GULP energy -346956.283803 kJ/mol
# GULP energy per Si atom -12391.295850 kJ/mol
# Density = 1.912746 g / cm^3
# Si number density = 19.171095 Si / 1000 Ang^3
#
#
#
# Elastic Constant Matrix: (Units=GPa)
#
#
# Indices 1 2 3 4 5 6 
#
# 1 30.5503 23.8075 11.2028 0.0000 13.0842 0.0000
# 2 23.8075 137.6312 38.3347 0.0000 -6.1179 0.0000
# 3 11.2028 38.3347 65.8181 0.0000 0.3252 0.0000
# 4 0.0000 0.0000 0.0000 5.1628 0.0000 -15.8859
# 5 13.0842 -6.1179 0.3252 0.0000 20.6933 0.0000
# 6 0.0000 0.0000 0.0000 -15.8859 0.0000 15.1848
#
#
#
# Elastic Compliance Matrix: (Units=1/GPa)
#
#
# Indices 1 2 3 4 5 6 
#
# 1 0.060770 -0.011392 -0.003502 0.000000 -0.041737 0.000000
# 2 -0.011392 0.010955 -0.004494 0.000000 0.010512 0.000000
# 3 -0.003502 -0.004494 0.018404 0.000000 0.000597 0.000000
# 4 0.000000 0.000000 0.000000 -0.087287 0.000000 -0.091317
# 5 -0.041737 0.010512 0.000597 0.000000 0.077813 0.000000
# 6 0.000000 0.000000 0.000000 -0.091317 0.000000 -0.029678
#
#
# Mechanical properties :
#
#
# Convention : Reuss Voigt Hill
#
# Bulk Modulus (GPa) = 19.47290 42.29884 30.88587
# Shear Modulus (GPa) = 46.78529 18.91850 32.85190
#
# Velocity S-wave (km/s) = 4.94541 3.14478 4.14408
# Velocity P-wave (km/s) = 6.54132 5.94121 6.24847
#
# Compressibility (1/GPa) = 0.05135341
#
# Stress axis : x y z
#
# Youngs Moduli (GPa) = 16.45551 91.28022 54.33647
#
# Poissons Ratio (x) = 1.03984 0.19031
# Poissons Ratio (y) = 0.18746 0.24417
# Poissons Ratio (z) = 0.05763 0.41019
#
# Static dielectric constant tensor:
#      x y z
#    x 3.535680 0.000000 0.023240 
#    y 0.000000 3.635250 0.000000 
#    z 0.023240 0.000000 3.390240 
# 
# 
# High freq. dielectric constant tensor:
#      x y z
#    x 1.734210 0.000000 0.010600 
#    y 0.000000 1.748500 0.000000 
#    z 0.010600 0.000000 1.729010 
# 
# From -- ./inp_files/91691.got.cif
#   From: 2010.06.25/outbox.cif.g09.slc.cpg/sg12_46_cif.got.tgz:91691.got - 2010.06.28 00:19:55.
