data_PCOD8092414
_publ_section_title
;
Structure prediction by ZEFSAII (Michael W. Deem and Ramdas Pophale) SiO2 
 PCOD8092414
Probable space group: C 2/M
;
_chemical_formula_sum "Si O2"
_cell_formula_units_Z 40
_cell_length_a 13.196406
_cell_length_b 12.933220
_cell_length_c 13.654665
_cell_angle_alpha 90.000000
_cell_angle_beta 103.910940
_cell_angle_gamma 90.000000
_cell_volume 2262.118008
_symmetry_space_group_name_H-M "C 2/M"
_symmetry_group_IT_number 12
_symmetry_cell_setting 'monoclinic'
loop_
_space_group_symop_operation_xyz
x,y,z
-x,y,-z
-x,-y,-z
x,-y,z
1/2+x,1/2+y,z
1/2-x,1/2+y,-z
1/2-x,1/2-y,-z
1/2+x,1/2-y,z
loop_
_atom_site_type_symbol
_atom_site_label
_atom_site_fract_x
_atom_site_fract_y
_atom_site_fract_z
Si Si1 0.282997 0.880635 0.714893
Si Si2 0.659066 0.247286 0.101270
Si Si3 0.654476 0.878012 0.910254
Si Si4 0.444096 0.379968 0.390105
Si Si5 0.481685 0.766847 0.760416
O O1 0.265942 0.829243 0.818034
O O2 0.179935 0.861659 0.625692
O O3 0.385975 0.830971 0.687963
O O4 0.304611 0.000000 0.736822
O O5 0.725865 0.347866 0.086575
O O6 0.560471 0.281372 0.145932
O O7 0.618368 0.183146 0.998710
O O8 0.577812 0.844148 0.804184
O O9 0.646414 0.000000 0.925123
O O10 0.500000 0.335952 0.500000
O O11 0.470744 0.500000 0.381603
O O12 0.486126 0.323952 0.303903
#
# Coordination Sequence:
#
# PCOD8092414 Si02
#       5
#     8   8   8   8   8
#     4   9  18  34  54  78 105 139 178 219 263 316
#     4   9  21  33  51  82 110 141 176 214 260 314
#     4  11  20  34  55  80 112 146 178 216 262 313
#     4  10  21  38  58  78 105 142 179 221 275 324
#     4  10  19  35  54  81 105 139 179 224 259 317
#
# _framework density 17.682542999999999
#
# number of rings (size 3 to 8) (size 9 to 14) (size 15 to 20)
#    1.200    1.000    2.000    1.800    0.000    2.400 
#    0.000    0.000    0.000    6.000    0.000    0.000 
#    0.000    0.000    0.000    0.000    0.000    0.000 
#
# Total GULP energy -247827.632142 kJ/mol
# GULP energy per Si atom -12391.381607 kJ/mol
# Density = 1.764230 g / cm^3
# Si number density = 17.682543 Si / 1000 Ang^3
#
#
#
# Elastic Constant Matrix: (Units=GPa)
#
#
# Indices 1 2 3 4 5 6 
#
# 1 78.1885 47.4671 34.9362 0.0000 4.9029 0.0000
# 2 47.4671 77.5857 43.3255 0.0000 1.1806 0.0000
# 3 34.9362 43.3255 69.3146 0.0000 11.0488 0.0000
# 4 0.0000 0.0000 0.0000 26.3983 0.0000 4.3653
# 5 4.9029 1.1806 11.0488 0.0000 31.5605 0.0000
# 6 0.0000 0.0000 0.0000 4.3653 0.0000 16.6171
#
#
#
# Elastic Compliance Matrix: (Units=1/GPa)
#
#
# Indices 1 2 3 4 5 6 
#
# 1 0.021097 -0.010890 -0.003568 0.000000 -0.001621 0.000000
# 2 -0.010890 0.025862 -0.011430 0.000000 0.004726 0.000000
# 3 -0.003568 -0.011430 0.024585 0.000000 -0.007625 0.000000
# 4 0.000000 0.000000 0.000000 0.039602 0.000000 -0.010403
# 5 -0.001621 0.004726 -0.007625 0.000000 0.034430 0.000000
# 6 0.000000 0.000000 0.000000 -0.010403 0.000000 0.062912
#
#
# Mechanical properties :
#
#
# Convention : Reuss Voigt Hill
#
# Bulk Modulus (GPa) = 50.58588 52.94962 51.76775
# Shear Modulus (GPa) = 18.73702 21.53919 20.13811
#
# Velocity S-wave (km/s) = 3.25873 3.49392 3.37838
# Velocity P-wave (km/s) = 6.54439 6.80340 6.67515
#
# Compressibility (1/GPa) = 0.01976836
#
# Stress axis : x y z
#
# Youngs Moduli (GPa) = 47.40114 38.66665 40.67504
#
# Poissons Ratio (x) = 0.42107 0.14513
# Poissons Ratio (y) = 0.51619 0.46491
# Poissons Ratio (z) = 0.16913 0.44195
#
# Static dielectric constant tensor:
#      x y z
#    x 3.331210 0.000000 0.208880 
#    y 0.000000 3.021650 0.000000 
#    z 0.208880 0.000000 3.114540 
# 
# 
# High freq. dielectric constant tensor:
#      x y z
#    x 1.690110 0.000000 0.018010 
#    y 0.000000 1.667820 0.000000 
#    z 0.018010 0.000000 1.665440 
# 
# From -- ./inp_files/140498.got.cif
#   From: 2010.06.25/outbox.cif.g09.slc.cpg/sg12_71_cif.got.tgz:140498.got - 2010.06.28 00:19:55.
