data_PCOD8092598
_publ_section_title
;
Structure prediction by ZEFSAII (Michael W. Deem and Ramdas Pophale) SiO2 
 PCOD8092598
Probable space group: C 2/M
;
_chemical_formula_sum "Si O2"
_cell_formula_units_Z 64
_cell_length_a 16.496892
_cell_length_b 21.883852
_cell_length_c 8.851179
_cell_angle_alpha 90.000000
_cell_angle_beta 84.179583
_cell_angle_gamma 90.000000
_cell_volume 3178.939671
_symmetry_space_group_name_H-M "C 2/M"
_symmetry_group_IT_number 12
_symmetry_cell_setting 'monoclinic'
loop_
_space_group_symop_operation_xyz
x,y,z
-x,y,-z
-x,-y,-z
x,-y,z
1/2+x,1/2+y,z
1/2-x,1/2+y,-z
1/2-x,1/2-y,-z
1/2+x,1/2-y,z
loop_
_atom_site_type_symbol
_atom_site_label
_atom_site_fract_x
_atom_site_fract_y
_atom_site_fract_z
Si Si1 0.642463 0.355124 0.579802
Si Si2 0.917643 0.241266 0.607542
Si Si3 0.272249 0.929364 0.732897
Si Si4 0.380504 0.571553 0.706414
Si Si5 0.446072 0.066657 0.150791
Si Si6 0.994365 0.842580 0.824687
Si Si7 0.940841 0.378221 0.645483
Si Si8 0.226344 0.427630 0.924614
O O1 0.653003 0.291362 0.481966
O O2 0.725616 0.383937 0.627453
O O3 0.605087 0.401802 0.463704
O O4 0.583396 0.343587 0.732861
O O5 0.932229 0.207058 0.763890
O O6 0.898162 0.311930 0.640526
O O7 0.000000 0.233790 0.500000
O O8 0.368032 0.926732 0.674578
O O9 0.243639 0.000000 0.717475
O O10 0.257623 0.905198 0.906614
O O11 0.380220 0.500000 0.692680
O O12 0.454089 0.591166 0.802862
O O13 0.296332 0.595346 0.798144
O O14 0.496440 0.118425 0.228426
O O15 0.359530 0.097190 0.122886
O O16 0.433657 0.000000 0.237156
O O17 0.500000 0.050072 0.000000
O O18 0.000000 0.828194 0.000000
O O19 0.000000 0.396522 0.500000
O O20 0.220860 0.500000 0.932977
#
# Coordination Sequence:
#
# PCOD8092598 Si02
#       8
#     8   8   8   8   8   8   8   8
#     4  10  21  37  59  82 114 152 185 237 284 335
#     4   8  19  40  58  80 110 150 193 237 284 329
#     4  11  22  36  56  86 120 151 188 235 284 339
#     4  10  20  34  56  84 114 150 187 228 288 349
#     4  10  19  35  56  80 115 154 190 234 289 338
#     4  10  20  37  61  83 111 145 188 240 285 337
#     4  11  23  37  58  85 113 154 197 237 281 338
#     4   9  19  35  53  79 119 153 184 231 281 337
#
# _framework density 20.132498999999999
#
# number of rings (size 3 to 8) (size 9 to 14) (size 15 to 20)
#    0.000    2.125    1.250    2.625    1.750    3.750 
#    0.000    0.000    0.000    3.750    0.000    0.000 
#    0.000    0.000    0.000    0.000    0.000    0.000 
#
# Total GULP energy -396542.662309 kJ/mol
# GULP energy per Si atom -12391.958197 kJ/mol
# Density = 2.008668 g / cm^3
# Si number density = 20.132499 Si / 1000 Ang^3
#
#
#
# Elastic Constant Matrix: (Units=GPa)
#
#
# Indices 1 2 3 4 5 6 
#
# 1 57.5327 12.5341 32.4108 0.0000 17.2886 0.0000
# 2 12.5341 66.8491 34.4251 0.0000 10.0080 0.0000
# 3 32.4108 34.4251 123.1913 0.0000 9.3799 0.0000
# 4 0.0000 0.0000 0.0000 19.4101 0.0000 5.1990
# 5 17.2886 10.0080 9.3799 0.0000 38.2181 0.0000
# 6 0.0000 0.0000 0.0000 5.1990 0.0000 28.7665
#
#
#
# Elastic Compliance Matrix: (Units=1/GPa)
#
#
# Indices 1 2 3 4 5 6 
#
# 1 0.023179 -0.000232 -0.005339 0.000000 -0.009114 0.000000
# 2 -0.000232 0.017932 -0.004688 0.000000 -0.003440 0.000000
# 3 -0.005339 -0.004688 0.010756 0.000000 0.001003 0.000000
# 4 0.000000 0.000000 0.000000 0.054140 0.000000 -0.009785
# 5 -0.009114 -0.003440 0.001003 0.000000 0.030943 0.000000
# 6 0.000000 0.000000 0.000000 -0.009785 0.000000 0.036531
#
#
# Mechanical properties :
#
#
# Convention : Reuss Voigt Hill
#
# Bulk Modulus (GPa) = 31.90017 45.14591 38.52304
# Shear Modulus (GPa) = 24.45600 28.49248 26.47424
#
# Velocity S-wave (km/s) = 3.48911 3.76606 3.63023
# Velocity P-wave (km/s) = 5.66669 6.43304 6.06199
#
# Compressibility (1/GPa) = 0.03134779
#
# Stress axis : x y z
#
# Youngs Moduli (GPa) = 43.14308 55.76698 92.97253
#
# Poissons Ratio (x) = 0.01293 0.49642
# Poissons Ratio (y) = 0.01000 0.43585
# Poissons Ratio (z) = 0.23036 0.26143
#
# Static dielectric constant tensor:
#      x y z
#    x 3.608160 0.000000 0.000570 
#    y 0.000000 3.589470 0.000000 
#    z 0.000570 0.000000 3.667390 
# 
# 
# High freq. dielectric constant tensor:
#      x y z
#    x 1.778550 0.000000 0.002130 
#    y 0.000000 1.765740 0.000000 
#    z 0.002130 0.000000 1.789620 
# 
# From -- ./inp_files/65881.got.cif
#   From: 2010.06.25/outbox.cif.g09.slc.cpg/sg12_33_cif.got.tgz:65881.got - 2010.06.28 00:19:55.
