data_PCOD8092589
_publ_section_title
;
Structure prediction by ZEFSAII (Michael W. Deem and Ramdas Pophale) SiO2 
 PCOD8092589
Probable space group: C 2/M
;
_chemical_formula_sum "Si O2"
_cell_formula_units_Z 48
_cell_length_a 9.624223
_cell_length_b 17.478646
_cell_length_c 16.019836
_cell_angle_alpha 90.000000
_cell_angle_beta 109.959007
_cell_angle_gamma 90.000000
_cell_volume 2532.971560
_symmetry_space_group_name_H-M "C 2/M"
_symmetry_group_IT_number 12
_symmetry_cell_setting 'monoclinic'
loop_
_space_group_symop_operation_xyz
x,y,z
-x,y,-z
-x,-y,-z
x,-y,z
1/2+x,1/2+y,z
1/2-x,1/2+y,-z
1/2-x,1/2-y,-z
1/2+x,1/2-y,z
loop_
_atom_site_type_symbol
_atom_site_label
_atom_site_fract_x
_atom_site_fract_y
_atom_site_fract_z
Si Si1 0.836219 0.914524 0.492262
Si Si2 0.463443 0.589262 0.898665
Si Si3 0.661200 0.862100 0.308841
Si Si4 0.880322 0.170471 0.214951
Si Si5 0.680532 0.311258 0.359852
Si Si6 0.335156 0.157230 0.227133
O O1 0.733264 0.920132 0.389131
O O2 0.774380 0.850559 0.543644
O O3 0.000000 0.888819 0.500000
O O4 0.837431 0.000000 0.532598
O O5 0.481157 0.500000 0.886942
O O6 0.585445 0.630230 0.865812
O O7 0.294250 0.612263 0.846178
O O8 0.500000 0.613400 0.000000
O O9 0.741290 0.865184 0.235212
O O10 0.675066 0.780378 0.358710
O O11 0.492585 0.885583 0.253353
O O12 0.850040 0.259200 0.188698
O O13 0.019817 0.157027 0.303438
O O14 0.802069 0.337105 0.318306
#
# Coordination Sequence:
#
# PCOD8092589 Si02
#       6
#     8   8   8   8   8   8
#     4  11  22  33  49  78 112 148 193 231 270 328
#     4  10  22  40  61  86 117 151 181 218 284 359
#     4  10  19  35  56  80 109 144 189 239 276 313
#     4   9  18  36  60  83 110 148 191 228 277 338
#     4   9  18  35  54  77 110 149 189 227 276 331
#     4   9  20  36  59  85 109 143 190 239 279 327
#
# _framework density 18.950074999999998
#
# number of rings (size 3 to 8) (size 9 to 14) (size 15 to 20)
#    0.000    2.333    1.667    1.500    0.000    5.333 
#    0.000    1.667    0.000    2.000    0.000    0.000 
#    0.000    0.000    0.000    0.000    0.000    0.000 
#
# Total GULP energy -297549.680355 kJ/mol
# GULP energy per Si atom -12397.903348 kJ/mol
# Density = 1.890694 g / cm^3
# Si number density = 18.950075 Si / 1000 Ang^3
#
#
#
# Elastic Constant Matrix: (Units=GPa)
#
#
# Indices 1 2 3 4 5 6 
#
# 1 136.1602 29.5438 48.8452 0.0000 -6.1726 0.0000
# 2 29.5438 59.2126 39.9951 0.0000 -17.5679 0.0000
# 3 48.8452 39.9951 102.4202 0.0000 -12.5772 0.0000
# 4 0.0000 0.0000 0.0000 26.1114 0.0000 -0.6031
# 5 -6.1726 -17.5679 -12.5772 0.0000 23.9349 0.0000
# 6 0.0000 0.0000 0.0000 -0.6031 0.0000 20.2140
#
#
#
# Elastic Compliance Matrix: (Units=1/GPa)
#
#
# Indices 1 2 3 4 5 6 
#
# 1 0.009098 -0.002589 -0.003499 0.000000 -0.001393 0.000000
# 2 -0.002589 0.028179 -0.007816 0.000000 0.015908 0.000000
# 3 -0.003499 -0.007816 0.014612 0.000000 0.001039 0.000000
# 4 0.000000 0.000000 0.000000 0.038324 0.000000 0.001143
# 5 -0.001393 0.015908 0.001039 0.000000 0.053644 0.000000
# 6 0.000000 0.000000 0.000000 0.001143 0.000000 0.049505
#
#
# Mechanical properties :
#
#
# Convention : Reuss Voigt Hill
#
# Bulk Modulus (GPa) = 41.52528 59.39567 50.46048
# Shear Modulus (GPa) = 21.81538 26.01267 23.91402
#
# Velocity S-wave (km/s) = 3.39662 3.70901 3.55625
# Velocity P-wave (km/s) = 6.11091 7.05362 6.59912
#
# Compressibility (1/GPa) = 0.02408171
#
# Stress axis : x y z
#
# Youngs Moduli (GPa) = 109.91246 35.48723 68.43718
#
# Poissons Ratio (x) = 0.09189 0.23945
# Poissons Ratio (y) = 0.28461 0.53487
# Poissons Ratio (z) = 0.38457 0.27735
#
# Static dielectric constant tensor:
#      x y z
#    x 3.636270 0.000000 -0.046520 
#    y 0.000000 3.289720 0.000000 
#    z -0.046520 0.000000 3.220980 
# 
# 
# High freq. dielectric constant tensor:
#      x y z
#    x 1.745620 0.000000 -0.004870 
#    y 0.000000 1.726020 0.000000 
#    z -0.004870 0.000000 1.714110 
# 
# From -- ./inp_files/195988.got.cif
#   From: 2010.06.25/outbox.cif.g09.slc.cpg/sg12_98_cif.got.tgz:195988.got - 2010.06.28 00:19:55.
