data_PCOD8092044
_publ_section_title
;
Structure prediction by ZEFSAII (Michael W. Deem and Ramdas Pophale) SiO2 
 PCOD8092044
Probable space group: C 2/M
;
_chemical_formula_sum "Si O2"
_cell_formula_units_Z 56
_cell_length_a 20.165276
_cell_length_b 8.795150
_cell_length_c 17.343840
_cell_angle_alpha 90.000000
_cell_angle_beta 71.434949
_cell_angle_gamma 90.000000
_cell_volume 2915.976170
_symmetry_space_group_name_H-M "C 2/M"
_symmetry_group_IT_number 12
_symmetry_cell_setting 'monoclinic'
loop_
_space_group_symop_operation_xyz
x,y,z
-x,y,-z
-x,-y,-z
x,-y,z
1/2+x,1/2+y,z
1/2-x,1/2+y,-z
1/2-x,1/2-y,-z
1/2+x,1/2-y,z
loop_
_atom_site_type_symbol
_atom_site_label
_atom_site_fract_x
_atom_site_fract_y
_atom_site_fract_z
Si Si1 0.308624 0.324211 0.572360
Si Si2 0.928761 0.821651 0.245376
Si Si3 0.318640 0.678414 0.156422
Si Si4 0.575456 0.821796 0.179240
Si Si5 0.675063 0.322243 0.258906
Si Si6 0.151119 0.676926 0.592468
Si Si7 0.322961 0.821831 0.996759
O O1 0.319060 0.500000 0.547100
O O2 0.336105 0.284787 0.647056
O O3 0.227049 0.280330 0.598059
O O4 0.353069 0.224676 0.495588
O O5 0.867387 0.774719 0.209489
O O6 0.906381 0.771238 0.339181
O O7 0.996817 0.731043 0.193562
O O8 0.944330 0.000000 0.238503
O O9 0.317563 0.500000 0.142977
O O10 0.240022 0.731469 0.200482
O O11 0.348990 0.756831 0.068690
O O12 0.605392 0.731078 0.241500
O O13 0.578367 0.000000 0.195886
O O14 0.618901 0.778560 0.087309
O O15 0.688963 0.500000 0.241138
O O16 0.134142 0.500000 0.607237
O O17 0.312101 0.000000 0.007786
O O18 0.250000 0.750000 0.000000
#
# Coordination Sequence:
#
# PCOD8092044 Si02
#       7
#     8   8   8   8   8   8   8
#     4   9  19  34  56  89 121 154 197 243 295 352
#     4  11  24  41  61  87 122 162 200 245 301 357
#     4  11  23  38  61  90 120 156 201 248 295 352
#     4  11  25  42  61  87 121 158 199 247 302 360
#     4  11  21  37  62  90 120 157 200 246 296 353
#     4  10  19  34  58  88 121 157 196 244 298 351
#     4  11  23  39  62  90 120 156 198 250 301 352
#
# _framework density 19.204547000000002
#
# number of rings (size 3 to 8) (size 9 to 14) (size 15 to 20)
#    0.000    1.429    2.857    2.571    0.000    5.714 
#    0.000    3.571    0.000    4.286    0.000    0.000 
#    0.000    0.000    0.000    0.000    0.000    0.000 
#
# Total GULP energy -347384.036359 kJ/mol
# GULP energy per Si atom -12406.572727 kJ/mol
# Density = 1.916084 g / cm^3
# Si number density = 19.204547 Si / 1000 Ang^3
#
#
#
# Elastic Constant Matrix: (Units=GPa)
#
#
# Indices 1 2 3 4 5 6 
#
# 1 58.4691 23.0217 33.9819 0.0000 -3.9134 0.0000
# 2 23.0217 68.7044 50.6502 0.0000 0.5722 0.0000
# 3 33.9819 50.6502 125.4957 0.0000 1.7405 0.0000
# 4 0.0000 0.0000 0.0000 37.6913 0.0000 -0.1383
# 5 -3.9134 0.5722 1.7405 0.0000 29.9539 0.0000
# 6 0.0000 0.0000 0.0000 -0.1383 0.0000 31.5669
#
#
#
# Elastic Compliance Matrix: (Units=1/GPa)
#
#
# Indices 1 2 3 4 5 6 
#
# 1 0.021350 -0.004109 -0.004166 0.000000 0.003110 0.000000
# 2 -0.004109 0.021511 -0.007562 0.000000 -0.000508 0.000000
# 3 -0.004166 -0.007562 0.012164 0.000000 -0.001107 0.000000
# 4 0.000000 0.000000 0.000000 0.026532 0.000000 0.000116
# 5 0.003110 -0.000508 -0.001107 0.000000 0.033865 0.000000
# 6 0.000000 0.000000 0.000000 0.000116 0.000000 0.031679
#
#
# Mechanical properties :
#
#
# Convention : Reuss Voigt Hill
#
# Bulk Modulus (GPa) = 42.82429 51.99740 47.41085
# Shear Modulus (GPa) = 26.80111 29.51013 28.15562
#
# Velocity S-wave (km/s) = 3.73977 3.92423 3.83311
# Velocity P-wave (km/s) = 6.40276 6.90414 6.65817
#
# Compressibility (1/GPa) = 0.02335123
#
# Stress axis : x y z
#
# Youngs Moduli (GPa) = 46.83776 46.48739 82.20960
#
# Poissons Ratio (x) = 0.19100 0.34249
# Poissons Ratio (y) = 0.19244 0.62170
# Poissons Ratio (z) = 0.19513 0.35155
#
# Static dielectric constant tensor:
#      x y z
#    x 3.336880 0.000000 0.080900 
#    y 0.000000 3.563840 0.000000 
#    z 0.080900 0.000000 3.724460 
# 
# 
# High freq. dielectric constant tensor:
#      x y z
#    x 1.728890 0.000000 0.007210 
#    y 0.000000 1.759420 0.000000 
#    z 0.007210 0.000000 1.759620 
# 
# From -- ./inp_files/275273.got.cif
#   From: 2010.06.25/outbox.cif.g09.slc.cpg/sg12_138_cif.got.tgz:275273.got - 2010.06.28 00:19:55.
