data_PCOD8092654
_publ_section_title
;
Structure prediction by ZEFSAII (Michael W. Deem and Ramdas Pophale) SiO2 
 PCOD8092654
Probable space group: C 2/M
;
_chemical_formula_sum "Si O2"
_cell_formula_units_Z 64
_cell_length_a 27.643213
_cell_length_b 14.606947
_cell_length_c 21.772598
_cell_angle_alpha 90.000000
_cell_angle_beta 25.135278
_cell_angle_gamma 90.000000
_cell_volume 3734.209566
_symmetry_space_group_name_H-M "C 2/M"
_symmetry_group_IT_number 12
_symmetry_cell_setting 'monoclinic'
loop_
_space_group_symop_operation_xyz
x,y,z
-x,y,-z
-x,-y,-z
x,-y,z
1/2+x,1/2+y,z
1/2-x,1/2+y,-z
1/2-x,1/2-y,-z
1/2+x,1/2-y,z
loop_
_atom_site_type_symbol
_atom_site_label
_atom_site_fract_x
_atom_site_fract_y
_atom_site_fract_z
Si Si1 0.875581 0.607661 0.130196
Si Si2 0.154117 0.601544 0.264260
Si Si3 0.818238 0.394614 0.063942
Si Si4 0.257211 0.605320 0.595362
Si Si5 0.885623 0.602596 0.554461
Si Si6 0.060293 0.603963 0.724879
Si Si7 0.185678 0.756052 0.138282
Si Si8 0.426197 0.235405 0.405505
O O1 0.893874 0.500000 0.100094
O O2 0.819644 0.645761 0.131666
O O3 0.791311 0.630308 0.282248
O O4 0.000000 0.651984 0.000000
O O5 0.204358 0.500000 0.195584
O O6 0.173320 0.631064 0.313267
O O7 0.217751 0.668343 0.143547
O O8 0.020759 0.600850 0.404904
O O9 0.782227 0.500000 0.104336
O O10 0.724457 0.345182 0.130476
O O11 0.943412 0.378647 0.893976
O O12 0.298135 0.500000 0.545665
O O13 0.161889 0.624815 0.654519
O O14 0.363491 0.670763 0.460255
O O15 0.844317 0.500000 0.582949
O O16 0.854806 0.678525 0.538836
O O17 0.066602 0.500000 0.692828
O O18 0.066585 0.672218 0.661708
O O19 0.051070 0.763352 0.284296
O O20 0.250000 0.750000 0.000000
#
# Coordination Sequence:
#
# PCOD8092654 Si02
#       8
#     8   8   8   8   8   8   8   8
#     4   9  16  32  56  78  98 130 179 225 259 300
#     4   8  16  31  50  69  96 130 168 214 254 293
#     4  10  20  34  54  77 105 137 174 221 264 306
#     4  10  21  35  53  79 108 139 173 216 269 318
#     4   8  15  30  50  73  95 124 168 214 257 297
#     4  10  19  35  57  78 102 132 178 230 266 301
#     4  11  22  34  49  76 109 140 178 212 253 327
#     4  11  21  33  52  78 109 140 170 214 267 319
#
# _framework density 17.138835
#
# number of rings (size 3 to 8) (size 9 to 14) (size 15 to 20)
#    0.000    2.375    2.500    1.500    1.750    1.500 
#    0.000    0.000    0.000    2.250    0.000    0.000 
#    0.000    3.500    0.000    0.000    0.000    0.000 
#
# Total GULP energy -396701.584383 kJ/mol
# GULP energy per Si atom -12396.924512 kJ/mol
# Density = 1.709983 g / cm^3
# Si number density = 17.138835 Si / 1000 Ang^3
#
#
#
# Elastic Constant Matrix: (Units=GPa)
#
#
# Indices 1 2 3 4 5 6 
#
# 1 131.3084 74.3570 55.8829 -0.0001 18.4700 0.0000
# 2 74.3570 105.7221 55.1864 -0.0001 9.6097 0.0000
# 3 55.8829 55.1864 65.6365 -0.0003 10.0792 0.0001
# 4 -0.0001 -0.0001 -0.0003 23.2559 0.0002 2.5464
# 5 18.4700 9.6097 10.0792 0.0002 32.8964 0.0000
# 6 0.0000 0.0000 0.0001 2.5464 0.0000 30.1360
#
#
#
# Elastic Compliance Matrix: (Units=1/GPa)
#
#
# Indices 1 2 3 4 5 6 
#
# 1 0.014641 -0.006672 -0.006184 0.000000 -0.004377 0.000000
# 2 -0.006672 0.019909 -0.011271 0.000000 0.001384 0.000000
# 3 -0.006184 -0.011271 0.030367 0.000000 -0.002540 0.000000
# 4 0.000000 0.000000 0.000000 0.043401 0.000000 -0.003667
# 5 -0.004377 0.001384 -0.002540 0.000000 0.033230 0.000000
# 6 0.000000 0.000000 0.000000 -0.003667 0.000000 0.033493
#
#
# Mechanical properties :
#
#
# Convention : Reuss Voigt Hill
#
# Bulk Modulus (GPa) = 60.01181 74.83552 67.42366
# Shear Modulus (GPa) = 21.84841 25.07371 23.46106
#
# Velocity S-wave (km/s) = 3.57429 3.82904 3.70386
# Velocity P-wave (km/s) = 7.21978 7.95662 7.59714
#
# Compressibility (1/GPa) = 0.01666339
#
# Stress axis : x y z
#
# Youngs Moduli (GPa) = 68.30103 50.22857 32.93022
#
# Poissons Ratio (x) = 0.33511 0.20364
# Poissons Ratio (y) = 0.45568 0.37117
# Poissons Ratio (z) = 0.42236 0.56615
#
# Static dielectric constant tensor:
#      x y z
#    x 3.379120 0.000000 0.242750 
#    y 0.000000 3.201090 0.000000 
#    z 0.242750 0.000000 2.997700 
# 
# 
# High freq. dielectric constant tensor:
#      x y z
#    x 1.669600 0.000000 0.021220 
#    y 0.000000 1.652840 0.000000 
#    z 0.021220 0.000000 1.638530 
# 
# From -- ./inp_files/167309.got.cif
#   From: 2010.06.25/outbox.cif.g09.slc.cpg/sg12_84_cif.got.tgz:167309.got - 2010.06.28 00:19:55.
