data_PCOD8092653
_publ_section_title
;
Structure prediction by ZEFSAII (Michael W. Deem and Ramdas Pophale) SiO2 
 PCOD8092653
Probable space group: C 2/M
;
_chemical_formula_sum "Si O2"
_cell_formula_units_Z 64
_cell_length_a 14.590254
_cell_length_b 9.217910
_cell_length_c 29.857501
_cell_angle_alpha 90.000000
_cell_angle_beta 120.201392
_cell_angle_gamma 90.000000
_cell_volume 3470.519443
_symmetry_space_group_name_H-M "C 2/M"
_symmetry_group_IT_number 12
_symmetry_cell_setting 'monoclinic'
loop_
_space_group_symop_operation_xyz
x,y,z
-x,y,-z
-x,-y,-z
x,-y,z
1/2+x,1/2+y,z
1/2-x,1/2+y,-z
1/2-x,1/2-y,-z
1/2+x,1/2-y,z
loop_
_atom_site_type_symbol
_atom_site_label
_atom_site_fract_x
_atom_site_fract_y
_atom_site_fract_z
Si Si1 0.401521 0.170422 0.505966
Si Si2 0.942816 0.166044 0.115613
Si Si3 0.328834 0.828177 0.240512
Si Si4 0.609572 0.328808 0.228382
Si Si5 0.261551 0.665980 0.137576
Si Si6 0.963863 0.170637 0.693704
Si Si7 0.165131 0.831770 0.425010
Si Si8 0.025414 0.328891 0.055836
O O1 0.500000 0.227862 0.500000
O O2 0.289699 0.210296 0.454872
O O3 0.402688 0.245178 0.554791
O O4 0.413845 0.000000 0.516792
O O5 0.825603 0.179467 0.107078
O O6 0.027699 0.233812 0.171573
O O7 0.943584 0.256066 0.069988
O O8 0.972091 0.000000 0.111900
O O9 0.227619 0.781051 0.244760
O O10 0.317199 0.767017 0.187690
O O11 0.428336 0.756679 0.289910
O O12 0.342681 0.000000 0.241412
O O13 0.596610 0.500000 0.225846
O O14 0.583483 0.268989 0.271287
O O15 0.264130 0.500000 0.155567
O O16 0.143282 0.719823 0.098692
O O17 0.879540 0.208019 0.634605
O O18 0.988706 0.000000 0.701876
O O19 0.150812 0.000000 0.432930
O O20 0.010558 0.500000 0.054599
O O21 0.000000 0.271177 0.000000
#
# Coordination Sequence:
#
# PCOD8092653 Si02
#       8
#     8   8   8   8   8   8   8   8
#     4   9  18  34  57  82 108 142 183 223 267 314
#     4  10  19  35  57  78 101 138 181 213 257 318
#     4  11  21  33  53  81 106 134 178 225 264 305
#     4   9  18  33  53  76 104 138 174 215 261 315
#     4  10  20  36  57  76 103 142 175 209 264 326
#     4  10  20  37  55  75 110 149 180 212 264 326
#     4   9  19  34  54  80 109 144 181 221 266 314
#     4  10  22  38  55  80 111 138 170 220 273 314
#
# _framework density 18.441044000000002
#
# number of rings (size 3 to 8) (size 9 to 14) (size 15 to 20)
#    0.000    2.250    2.500    0.375    0.000    3.000 
#    0.000    3.750    0.000    0.000    0.000    0.000 
#    0.000    0.000    0.000    0.000    0.000    0.000 
#
# Total GULP energy -396858.964223 kJ/mol
# GULP energy per Si atom -12401.842632 kJ/mol
# Density = 1.839907 g / cm^3
# Si number density = 18.441044 Si / 1000 Ang^3
#
#
#
# Elastic Constant Matrix: (Units=GPa)
#
#
# Indices 1 2 3 4 5 6 
#
# 1 98.9872 25.5430 20.4864 0.0000 -8.4239 0.0000
# 2 25.5430 37.5846 23.3763 0.0000 -2.3186 0.0000
# 3 20.4864 23.3763 80.8043 0.0000 -10.8975 0.0000
# 4 0.0000 0.0000 0.0000 25.9463 0.0000 -3.3961
# 5 -8.4239 -2.3186 -10.8975 0.0000 27.5818 0.0000
# 6 0.0000 0.0000 0.0000 -3.3961 0.0000 28.5958
#
#
#
# Elastic Compliance Matrix: (Units=1/GPa)
#
#
# Indices 1 2 3 4 5 6 
#
# 1 0.012525 -0.008052 -0.000445 0.000000 0.002973 0.000000
# 2 -0.008052 0.037649 -0.009248 0.000000 -0.002948 0.000000
# 3 -0.000445 -0.009248 0.015887 0.000000 0.005364 0.000000
# 4 0.000000 0.000000 0.000000 0.039150 0.000000 0.004650
# 5 0.002973 -0.002948 0.005364 0.000000 0.039035 0.000000
# 6 0.000000 0.000000 0.000000 0.004650 0.000000 0.035522
#
#
# Mechanical properties :
#
#
# Convention : Reuss Voigt Hill
#
# Bulk Modulus (GPa) = 32.71061 39.57641 36.14351
# Shear Modulus (GPa) = 22.17799 26.28947 24.23373
#
# Velocity S-wave (km/s) = 3.47168 3.77980 3.62901
# Velocity P-wave (km/s) = 5.81777 6.36843 6.09932
#
# Compressibility (1/GPa) = 0.03057112
#
# Stress axis : x y z
#
# Youngs Moduli (GPa) = 79.83898 26.56121 62.94389
#
# Poissons Ratio (x) = 0.21387 0.02802
# Poissons Ratio (y) = 0.64287 0.58209
# Poissons Ratio (z) = 0.03555 0.24563
#
# Static dielectric constant tensor:
#      x y z
#    x 3.526280 0.000000 0.022690 
#    y 0.000000 3.203790 0.000000 
#    z 0.022690 0.000000 3.395530 
# 
# 
# High freq. dielectric constant tensor:
#      x y z
#    x 1.724220 0.000000 0.000800 
#    y 0.000000 1.695890 0.000000 
#    z 0.000800 0.000000 1.711280 
# 
# From -- ./inp_files/359865.got.cif
#   From: 2010.06.25/outbox.cif.g09.slc.cpg/sg12_180_cif.got.tgz:359865.got - 2010.06.28 00:19:55.
