data_PCOD8092073
_publ_section_title
;
Structure prediction by ZEFSAII (Michael W. Deem and Ramdas Pophale) SiO2 
 PCOD8092073
Probable space group: C 2/M
;
_chemical_formula_sum "Si O2"
_cell_formula_units_Z 36
_cell_length_a 13.852437
_cell_length_b 23.930831
_cell_length_c 10.834931
_cell_angle_alpha 90.000000
_cell_angle_beta 31.814563
_cell_angle_gamma 90.000000
_cell_volume 1893.486800
_symmetry_space_group_name_H-M "C 2/M"
_symmetry_group_IT_number 12
_symmetry_cell_setting 'monoclinic'
loop_
_space_group_symop_operation_xyz
x,y,z
-x,y,-z
-x,-y,-z
x,-y,z
1/2+x,1/2+y,z
1/2-x,1/2+y,-z
1/2-x,1/2-y,-z
1/2+x,1/2-y,z
loop_
_atom_site_type_symbol
_atom_site_label
_atom_site_fract_x
_atom_site_fract_y
_atom_site_fract_z
Si Si1 0.000000 0.804634 0.500000
Si Si2 0.683288 0.720286 0.863806
Si Si3 0.979008 0.136485 0.767968
Si Si4 0.793605 0.614223 0.608186
Si Si5 0.325824 0.935376 0.831965
O O1 0.175317 0.769730 0.262960
O O2 0.060032 0.842788 0.550237
O O3 0.789146 0.678493 0.656282
O O4 0.500000 0.745059 0.000000
O O5 0.621282 0.687825 0.053893
O O6 0.139166 0.107066 0.672697
O O7 0.829130 0.087904 0.907653
O O8 0.757549 0.573902 0.764859
O O9 0.990873 0.599705 0.338085
O O10 0.363313 0.000000 0.816441
#
# Coordination Sequence:
#
# PCOD8092073 Si02
#       5
#     4   8   8   8   8
#     4  12  22  34  53  74 107 152 178 200 250 310
#     4   9  19  34  54  78 104 136 174 217 259 300
#     4  10  22  35  51  79 110 137 173 216 254 307
#     4   9  18  34  55  83 107 126 166 223 268 305
#     4  10  19  34  59  82 100 130 171 220 273 309
#
# _framework density 19.012543000000001
#
# number of rings (size 3 to 8) (size 9 to 14) (size 15 to 20)
#    0.000    2.222    0.000    6.667    0.000    8.000 
#    0.000    0.556    0.000    1.333    0.000    0.000 
#    0.000    0.000    0.000    0.000    0.000    0.000 
#
# Total GULP energy -223150.626141 kJ/mol
# GULP energy per Si atom -12397.257008 kJ/mol
# Density = 1.896927 g / cm^3
# Si number density = 19.012543 Si / 1000 Ang^3
#
#
#
# Elastic Constant Matrix: (Units=GPa)
#
#
# Indices 1 2 3 4 5 6 
#
# 1 72.6379 36.3565 61.8458 -0.0003 -14.5265 -0.0001
# 2 36.3565 59.8902 42.1828 -0.0001 -12.5204 0.0000
# 3 61.8458 42.1828 89.4949 -0.0004 -18.2384 0.0001
# 4 -0.0003 -0.0001 -0.0004 6.5688 0.0003 -3.0948
# 5 -14.5265 -12.5204 -18.2384 0.0003 25.0673 0.0000
# 6 -0.0001 0.0000 0.0001 -3.0948 0.0000 14.6910
#
#
#
# Elastic Compliance Matrix: (Units=1/GPa)
#
#
# Indices 1 2 3 4 5 6 
#
# 1 0.035050 -0.006114 -0.020926 0.000000 0.002033 0.000000
# 2 -0.006114 0.026520 -0.007394 -0.000001 0.004323 0.000000
# 3 -0.020926 -0.007394 0.030404 0.000001 0.006302 0.000000
# 4 0.000000 -0.000001 0.000001 0.169009 -0.000002 0.035604
# 5 0.002033 0.004323 0.006302 -0.000002 0.047815 0.000000
# 6 0.000000 0.000000 0.000000 0.035604 0.000000 0.075569
#
#
# Mechanical properties :
#
#
# Convention : Reuss Voigt Hill
#
# Bulk Modulus (GPa) = 43.27598 55.86594 49.57096
# Shear Modulus (GPa) = 10.84746 14.70792 12.77769
#
# Velocity S-wave (km/s) = 2.39119 2.78437 2.59524
# Velocity P-wave (km/s) = 5.51679 6.30749 5.92534
#
# Compressibility (1/GPa) = 0.02310751
#
# Stress axis : x y z
#
# Youngs Moduli (GPa) = 28.53064 37.70678 32.89041
#
# Poissons Ratio (x) = 0.23052 0.68825
# Poissons Ratio (y) = 0.17442 0.24320
# Poissons Ratio (z) = 0.59702 0.27882
#
# Static dielectric constant tensor:
#      x y z
#    x 3.298460 0.000000 -0.261000 
#    y 0.000000 3.288460 0.000000 
#    z -0.261000 0.000000 3.454560 
# 
# 
# High freq. dielectric constant tensor:
#      x y z
#    x 1.717190 0.000000 -0.028010 
#    y 0.000000 1.716180 0.000000 
#    z -0.028010 0.000000 1.734940 
# 
# From -- ./inp_files/134625.got.cif
#   From: 2010.06.25/outbox.cif.g09.slc.cpg/sg12_68_cif.got.tgz:134625.got - 2010.06.28 00:19:55.
