data_PCOD8092127
_publ_section_title
;
Structure prediction by ZEFSAII (Michael W. Deem and Ramdas Pophale) SiO2 
 PCOD8092127
Probable space group: C 2/M
;
_chemical_formula_sum "Si O2"
_cell_formula_units_Z 56
_cell_length_a 18.503905
_cell_length_b 8.937564
_cell_length_c 26.989096
_cell_angle_alpha 90.000000
_cell_angle_beta 40.905830
_cell_angle_gamma 90.000000
_cell_volume 2922.747627
_symmetry_space_group_name_H-M "C 2/M"
_symmetry_group_IT_number 12
_symmetry_cell_setting 'monoclinic'
loop_
_space_group_symop_operation_xyz
x,y,z
-x,y,-z
-x,-y,-z
x,-y,z
1/2+x,1/2+y,z
1/2-x,1/2+y,-z
1/2-x,1/2-y,-z
1/2+x,1/2-y,z
loop_
_atom_site_type_symbol
_atom_site_label
_atom_site_fract_x
_atom_site_fract_y
_atom_site_fract_z
Si Si1 0.316436 0.164971 0.699230
Si Si2 0.928698 0.675649 0.083364
Si Si3 0.226036 0.324273 0.564991
Si Si4 0.629104 0.168049 0.434754
Si Si5 0.172965 0.174528 0.210691
Si Si6 0.937304 0.834629 0.176318
Si Si7 0.023625 0.322432 0.739724
O O1 0.333760 0.237699 0.636675
O O2 0.367637 0.274828 0.713682
O O3 0.188197 0.145786 0.774069
O O4 0.373997 0.000000 0.672925
O O5 0.938439 0.500000 0.086897
O O6 0.801316 0.717620 0.137416
O O7 0.984375 0.749189 0.103588
O O8 0.000000 0.731555 0.000000
O O9 0.222370 0.500000 0.558606
O O10 0.250000 0.250000 0.500000
O O11 0.330294 0.279332 0.544146
O O12 0.113969 0.270294 0.651471
O O13 0.500000 0.160033 0.500000
O O14 0.678711 0.000000 0.416607
O O15 0.098149 0.263456 0.210339
O O16 0.151134 0.000000 0.215105
O O17 0.947649 0.742069 0.221352
O O18 0.991688 0.000000 0.154390
O O19 0.022248 0.500000 0.744418
#
# Coordination Sequence:
#
# PCOD8092127 Si02
#       7
#     8   8   8   8   8   8   8
#     4   9  18  34  54  78 109 144 182 229 280 331
#     4   9  19  38  62  88 119 151 184 226 278 336
#     4  11  25  41  58  80 111 151 194 240 290 338
#     4  10  21  37  57  80 109 144 185 232 284 338
#     4  10  21  35  57  86 114 146 187 231 276 331
#     4  10  19  34  59  86 112 146 188 231 276 331
#     4  11  23  39  58  81 114 153 192 235 284 338
#
# _framework density 19.160053999999999
#
# number of rings (size 3 to 8) (size 9 to 14) (size 15 to 20)
#    0.000    2.000    1.429    1.714    2.000    4.000 
#    0.000    0.714    0.000    0.000    0.000    0.000 
#    0.000    0.000    0.000    0.000    0.000    0.000 
#
# Total GULP energy -347053.214631 kJ/mol
# GULP energy per Si atom -12394.757665 kJ/mol
# Density = 1.911645 g / cm^3
# Si number density = 19.160054 Si / 1000 Ang^3
#
#
#
# Elastic Constant Matrix: (Units=GPa)
#
#
# Indices 1 2 3 4 5 6 
#
# 1 102.0207 54.7661 54.6268 0.0000 17.4196 -0.0005
# 2 54.7661 89.0722 48.2236 -0.0001 11.2129 -0.0014
# 3 54.6268 48.2236 109.5667 0.0000 30.7483 0.0000
# 4 0.0000 -0.0001 0.0000 24.8544 0.0000 8.8897
# 5 17.4196 11.2129 30.7483 0.0000 32.0425 0.0000
# 6 -0.0005 -0.0014 0.0000 8.8897 0.0000 48.5880
#
#
#
# Elastic Compliance Matrix: (Units=1/GPa)
#
#
# Indices 1 2 3 4 5 6 
#
# 1 0.016542 -0.007567 -0.004292 0.000000 -0.002226 0.000000
# 2 -0.007567 0.018250 -0.004957 0.000000 0.002484 0.000000
# 3 -0.004292 -0.004957 0.016843 0.000000 -0.012094 0.000000
# 4 0.000000 0.000000 0.000000 0.043052 0.000000 -0.007877
# 5 -0.002226 0.002484 -0.012094 0.000000 0.043155 0.000000
# 6 0.000000 0.000000 0.000000 -0.007877 0.000000 0.022022
#
#
# Mechanical properties :
#
#
# Convention : Reuss Voigt Hill
#
# Bulk Modulus (GPa) = 55.54663 68.43253 61.98958
# Shear Modulus (GPa) = 25.06283 30.63318 27.84801
#
# Velocity S-wave (km/s) = 3.62066 4.00284 3.81654
# Velocity P-wave (km/s) = 6.82149 7.56026 7.20035
#
# Compressibility (1/GPa) = 0.01800289
#
# Stress axis : x y z
#
# Youngs Moduli (GPa) = 60.45050 54.79319 59.37281
#
# Poissons Ratio (x) = 0.41462 0.25485
# Poissons Ratio (y) = 0.45743 0.29431
# Poissons Ratio (z) = 0.25948 0.27161
#
# Static dielectric constant tensor:
#      x y z
#    x 3.452550 0.000000 0.160580 
#    y 0.000000 3.732250 0.000000 
#    z 0.160580 0.000000 3.383280 
# 
# 
# High freq. dielectric constant tensor:
#      x y z
#    x 1.744450 0.000000 0.014880 
#    y 0.000000 1.747270 0.000000 
#    z 0.014880 0.000000 1.734200 
# 
# From -- ./inp_files/342300.got.cif
#   From: 2010.06.25/outbox.cif.g09.slc.cpg/sg12_172_cif.got.tgz:342300.got - 2010.06.28 00:19:55.
