data_PCOD8092419
_publ_section_title
;
Structure prediction by ZEFSAII (Michael W. Deem and Ramdas Pophale) SiO2 
 PCOD8092419
Probable space group: C 2/M
;
_chemical_formula_sum "Si O2"
_cell_formula_units_Z 64
_cell_length_a 14.512416
_cell_length_b 22.268915
_cell_length_c 11.319616
_cell_angle_alpha 90.000000
_cell_angle_beta 107.806119
_cell_angle_gamma 90.000000
_cell_volume 3482.984559
_symmetry_space_group_name_H-M "C 2/M"
_symmetry_group_IT_number 12
_symmetry_cell_setting 'monoclinic'
loop_
_space_group_symop_operation_xyz
x,y,z
-x,y,-z
-x,-y,-z
x,-y,z
1/2+x,1/2+y,z
1/2-x,1/2+y,-z
1/2-x,1/2-y,-z
1/2+x,1/2-y,z
loop_
_atom_site_type_symbol
_atom_site_label
_atom_site_fract_x
_atom_site_fract_y
_atom_site_fract_z
Si Si1 0.591968 0.656237 0.970274
Si Si2 0.248829 0.680276 0.528775
Si Si3 0.791036 0.225140 0.786689
Si Si4 0.085354 0.324858 0.300097
Si Si5 0.418656 0.068446 0.871697
Si Si6 0.419524 0.734978 0.251666
Si Si7 0.300221 0.430908 0.156929
Si Si8 0.901671 0.870161 0.414574
O O1 0.548732 0.701627 0.855682
O O2 0.655884 0.604828 0.935815
O O3 0.500000 0.626555 0.000000
O O4 0.654094 0.693233 0.087115
O O5 0.250000 0.750000 0.500000
O O6 0.265747 0.675355 0.675974
O O7 0.144217 0.657462 0.442343
O O8 0.332056 0.642451 0.497417
O O9 0.850529 0.281705 0.758820
O O10 0.692911 0.249970 0.804231
O O11 0.060218 0.387122 0.227410
O O12 0.985185 0.293380 0.296084
O O13 0.313938 0.081938 0.886502
O O14 0.423693 0.000000 0.826849
O O15 0.500000 0.080975 0.000000
O O16 0.435615 0.692341 0.370082
O O17 0.323771 0.500000 0.144565
O O18 0.346976 0.411822 0.299551
O O19 0.000000 0.902198 0.500000
#
# Coordination Sequence:
#
# PCOD8092419 Si02
#       8
#     8   8   8   8   8   8   8   8
#     4  11  23  38  55  85 117 155 191 244 293 345
#     4  10  19  35  54  81 121 151 183 231 285 349
#     4  11  22  36  54  87 124 152 191 232 294 357
#     4  11  20  35  57  85 116 153 189 232 293 352
#     4  10  22  39  60  85 111 147 198 249 289 330
#     4  11  22  33  57  85 119 159 185 232 290 357
#     4  10  23  43  63  83 112 155 203 248 291 339
#     4  11  20  35  59  86 121 150 190 239 289 347
#
# _framework density 18.375046000000001
#
# number of rings (size 3 to 8) (size 9 to 14) (size 15 to 20)
#    0.000    1.375    5.000    2.625    5.250    0.500 
#    0.000    0.000    0.000    0.750    0.000    0.875 
#    0.000    0.000    0.000    0.000    0.000    0.000 
#
# Total GULP energy -396796.237878 kJ/mol
# GULP energy per Si atom -12399.882434 kJ/mol
# Density = 1.833322 g / cm^3
# Si number density = 18.375046 Si / 1000 Ang^3
#
#
#
# Elastic Constant Matrix: (Units=GPa)
#
#
# Indices 1 2 3 4 5 6 
#
# 1 83.2665 17.3401 18.6268 0.0000 12.0540 0.0000
# 2 17.3401 60.6527 32.4243 0.0000 3.0903 0.0000
# 3 18.6268 32.4243 72.8416 0.0000 8.5109 0.0000
# 4 0.0000 0.0000 0.0000 21.8056 0.0000 2.9272
# 5 12.0540 3.0903 8.5109 0.0000 34.9427 0.0000
# 6 0.0000 0.0000 0.0000 2.9272 0.0000 23.9010
#
#
#
# Elastic Compliance Matrix: (Units=1/GPa)
#
#
# Indices 1 2 3 4 5 6 
#
# 1 0.013554 -0.002714 -0.001791 0.000000 -0.004000 0.000000
# 2 -0.002714 0.022186 -0.009327 0.000000 0.001246 0.000000
# 3 -0.001791 -0.009327 0.018702 0.000000 -0.003113 0.000000
# 4 0.000000 0.000000 0.000000 0.046626 0.000000 -0.005710
# 5 -0.004000 0.001246 -0.003113 0.000000 0.030646 0.000000
# 6 0.000000 0.000000 0.000000 -0.005710 0.000000 0.042539
#
#
# Mechanical properties :
#
#
# Convention : Reuss Voigt Hill
#
# Bulk Modulus (GPa) = 37.34364 39.28257 38.31311
# Shear Modulus (GPa) = 23.71426 26.02115 24.86770
#
# Velocity S-wave (km/s) = 3.59635 3.76721 3.68277
# Velocity P-wave (km/s) = 6.13287 6.35194 6.24336
#
# Compressibility (1/GPa) = 0.02677832
#
# Stress axis : x y z
#
# Youngs Moduli (GPa) = 73.77677 45.07335 53.47040
#
# Poissons Ratio (x) = 0.12233 0.09575
# Poissons Ratio (y) = 0.20023 0.49874
# Poissons Ratio (z) = 0.13211 0.42042
#
# Static dielectric constant tensor:
#      x y z
#    x 3.564570 0.000000 0.028020 
#    y 0.000000 3.190950 0.000000 
#    z 0.028020 0.000000 3.848010 
# 
# 
# High freq. dielectric constant tensor:
#      x y z
#    x 1.722750 0.000000 0.015390 
#    y 0.000000 1.680060 0.000000 
#    z 0.015390 0.000000 1.722110 
# 
# From -- ./inp_files/148669.got.cif
#   From: 2010.06.25/outbox.cif.g09.slc.cpg/sg12_75_cif.got.tgz:148669.got - 2010.06.28 00:19:55.
