data_PCOD8092742
_publ_section_title
;
Structure prediction by ZEFSAII (Michael W. Deem and Ramdas Pophale) SiO2 
 PCOD8092742
Probable space group: C 2/M
;
_chemical_formula_sum "Si O2"
_cell_formula_units_Z 64
_cell_length_a 25.369863
_cell_length_b 22.300071
_cell_length_c 13.128941
_cell_angle_alpha 90.000000
_cell_angle_beta 26.862145
_cell_angle_gamma 90.000000
_cell_volume 3356.169873
_symmetry_space_group_name_H-M "C 2/M"
_symmetry_group_IT_number 12
_symmetry_cell_setting 'monoclinic'
loop_
_space_group_symop_operation_xyz
x,y,z
-x,y,-z
-x,-y,-z
x,-y,z
1/2+x,1/2+y,z
1/2-x,1/2+y,-z
1/2-x,1/2-y,-z
1/2+x,1/2-y,z
loop_
_atom_site_type_symbol
_atom_site_label
_atom_site_fract_x
_atom_site_fract_y
_atom_site_fract_z
Si Si1 0.171113 0.172031 0.274361
Si Si2 0.622471 0.431531 0.999350
Si Si3 0.206742 0.568102 0.841513
Si Si4 0.256122 0.638576 0.373853
Si Si5 0.137746 0.931698 0.625692
Si Si6 0.993598 0.640078 0.894299
Si Si7 0.657750 0.748013 0.901951
Si Si8 0.914034 0.169139 0.793384
O O1 0.246335 0.111010 0.150194
O O2 0.226123 0.224436 0.247922
O O3 0.163921 0.190994 0.167988
O O4 0.044908 0.157738 0.534590
O O5 0.639330 0.500000 0.000865
O O6 0.497545 0.419069 0.162471
O O7 0.636211 0.393837 0.079039
O O8 0.723120 0.411863 0.747502
O O9 0.209862 0.500000 0.874944
O O10 0.287612 0.578003 0.603964
O O11 0.074156 0.586459 0.045399
O O12 0.319945 0.617519 0.366568
O O13 0.308458 0.701916 0.245809
O O14 0.119333 0.646546 0.626938
O O15 0.154273 0.000000 0.638352
O O16 0.923507 0.702091 0.007884
O O17 0.000000 0.620871 0.000000
O O18 0.586447 0.717458 0.115900
#
# Coordination Sequence:
#
# PCOD8092742 Si02
#       8
#     8   8   8   8   8   8   8   8
#     4  10  20  37  57  82 108 143 190 235 286 331
#     4  10  21  36  56  87 118 145 182 231 281 334
#     4  10  21  37  57  81 115 148 180 231 282 328
#     4  11  22  37  58  82 113 155 190 223 275 332
#     4  10  19  35  57  82 114 149 183 223 277 332
#     4  11  23  39  55  84 114 150 194 228 269 331
#     4  10  23  38  55  80 114 149 184 237 281 329
#     4  10  20  35  59  82 108 144 187 236 284 333
#
# _framework density 19.069357
#
# number of rings (size 3 to 8) (size 9 to 14) (size 15 to 20)
#    0.000    1.750    2.500    1.875    0.000    5.250 
#    0.000    1.250    0.000    6.750    0.000    7.000 
#    0.000    0.000    0.000    0.000    0.000    0.000 
#
# Total GULP energy -396850.340917 kJ/mol
# GULP energy per Si atom -12401.573154 kJ/mol
# Density = 1.902595 g / cm^3
# Si number density = 19.069357 Si / 1000 Ang^3
#
#
#
# Elastic Constant Matrix: (Units=GPa)
#
#
# Indices 1 2 3 4 5 6 
#
# 1 64.8850 10.1510 10.7279 -0.0002 -10.4542 0.0001
# 2 10.1510 73.4480 -1.1073 -0.0004 -8.1184 0.0002
# 3 10.7279 -1.1073 83.2657 0.0011 -7.1587 -0.0006
# 4 -0.0002 -0.0004 0.0011 21.6743 -0.0012 0.8779
# 5 -10.4542 -8.1184 -7.1587 -0.0012 16.6531 0.0006
# 6 0.0001 0.0002 -0.0006 0.8779 0.0006 19.0005
#
#
#
# Elastic Compliance Matrix: (Units=1/GPa)
#
#
# Indices 1 2 3 4 5 6 
#
# 1 0.017417 -0.001362 -0.001432 0.000001 0.009654 -0.000001
# 2 -0.001362 0.014552 0.000940 0.000001 0.006643 0.000000
# 3 -0.001432 0.000940 0.012636 0.000000 0.004991 0.000000
# 4 0.000001 0.000001 0.000000 0.046224 0.000004 -0.002136
# 5 0.009654 0.006643 0.004991 0.000004 0.071494 -0.000003
# 6 -0.000001 0.000000 0.000000 -0.002136 -0.000003 0.052729
#
#
# Mechanical properties :
#
#
# Convention : Reuss Voigt Hill
#
# Bulk Modulus (GPa) = 24.45135 29.01578 26.73357
# Shear Modulus (GPa) = 21.51544 24.92073 23.21808
#
# Velocity S-wave (km/s) = 3.36262 3.61896 3.49314
# Velocity P-wave (km/s) = 5.28455 5.71939 5.50626
#
# Compressibility (1/GPa) = 0.04089753
#
# Stress axis : x y z
#
# Youngs Moduli (GPa) = 57.41455 68.72033 79.13981
#
# Poissons Ratio (x) = 0.09357 0.11334
# Poissons Ratio (y) = 0.07818 -0.07440
# Poissons Ratio (z) = 0.08222 -0.06460
#
# Static dielectric constant tensor:
#      x y z
#    x 3.481410 0.000000 0.001150 
#    y 0.000000 3.596970 0.000000 
#    z 0.001150 0.000000 3.497810 
# 
# 
# High freq. dielectric constant tensor:
#      x y z
#    x 1.734670 0.000000 0.000160 
#    y 0.000000 1.747010 0.000000 
#    z 0.000160 0.000000 1.742130 
# 
# From -- ./inp_files/178397.got.cif
#   From: 2010.06.25/outbox.cif.g09.slc.cpg/sg12_90_cif.got.tgz:178397.got - 2010.06.28 00:19:55.
