data_PCOD8092392
_publ_section_title
;
Structure prediction by ZEFSAII (Michael W. Deem and Ramdas Pophale) SiO2 
 PCOD8092392
Probable space group: C 2/M
;
_chemical_formula_sum "Si O2"
_cell_formula_units_Z 40
_cell_length_a 14.634153
_cell_length_b 9.011677
_cell_length_c 19.856852
_cell_angle_alpha 90.000000
_cell_angle_beta 122.756559
_cell_angle_gamma 90.000000
_cell_volume 2202.255820
_symmetry_space_group_name_H-M "C 2/M"
_symmetry_group_IT_number 12
_symmetry_cell_setting 'monoclinic'
loop_
_space_group_symop_operation_xyz
x,y,z
-x,y,-z
-x,-y,-z
x,-y,z
1/2+x,1/2+y,z
1/2-x,1/2+y,-z
1/2-x,1/2-y,-z
1/2+x,1/2-y,z
loop_
_atom_site_type_symbol
_atom_site_label
_atom_site_fract_x
_atom_site_fract_y
_atom_site_fract_z
Si Si1 0.601471 0.671784 0.088557
Si Si2 0.889167 0.825608 0.491632
Si Si3 0.667384 0.674871 0.380470
Si Si4 0.281656 0.324609 0.082158
Si Si5 0.021032 0.824961 0.201740
O O1 0.636660 0.500000 0.097903
O O2 0.698661 0.778471 0.106616
O O3 0.575357 0.721970 0.153495
O O4 0.500000 0.702038 0.000000
O O5 0.785132 0.747936 0.416795
O O6 0.889117 0.784626 0.570898
O O7 0.000000 0.768025 0.500000
O O8 0.876881 0.000000 0.475233
O O9 0.683982 0.500000 0.380117
O O10 0.588984 0.741061 0.291306
O O11 0.282781 0.500000 0.071227
O O12 0.398343 0.264391 0.153312
O O13 0.250000 0.250000 0.000000
O O14 0.017981 0.000000 0.207565
#
# Coordination Sequence:
#
# PCOD8092392 Si02
#       5
#     8   8   8   8   8
#     4  10  19  35  54  72  99 138 176 218 266 310
#     4   9  18  33  54  78 106 136 165 208 263 310
#     4   9  18  34  54  76 102 137 175 208 253 314
#     4  11  21  35  54  77 103 137 179 220 263 312
#     4   9  19  35  53  73 104 140 172 212 265 313
#
# _framework density 18.163193
#
# number of rings (size 3 to 8) (size 9 to 14) (size 15 to 20)
#    0.000    2.400    2.000    0.600    0.000    2.400 
#    0.000    5.000    0.000    0.000    0.000    0.000 
#    0.000    0.000    0.000    0.000    0.000    0.000 
#
# Total GULP energy -247989.042158 kJ/mol
# GULP energy per Si atom -12399.452108 kJ/mol
# Density = 1.812185 g / cm^3
# Si number density = 18.163193 Si / 1000 Ang^3
#
#
#
# Elastic Constant Matrix: (Units=GPa)
#
#
# Indices 1 2 3 4 5 6 
#
# 1 153.9681 38.2907 86.2968 0.0000 16.0681 0.0000
# 2 38.2907 38.3354 37.8104 0.0000 8.1799 0.0000
# 3 86.2968 37.8104 173.5422 0.0000 8.1514 0.0000
# 4 0.0000 0.0000 0.0000 20.9791 0.0000 4.8252
# 5 16.0681 8.1799 8.1514 0.0000 26.2921 0.0000
# 6 0.0000 0.0000 0.0000 4.8252 0.0000 30.8508
#
#
#
# Elastic Compliance Matrix: (Units=1/GPa)
#
#
# Indices 1 2 3 4 5 6 
#
# 1 0.010426 -0.006040 -0.003712 0.000000 -0.003342 0.000000
# 2 -0.006040 0.038569 -0.005083 0.000000 -0.006732 0.000000
# 3 -0.003712 -0.005083 0.008661 0.000000 0.001165 0.000000
# 4 0.000000 0.000000 0.000000 0.049445 0.000000 -0.007733
# 5 -0.003342 -0.006732 0.001165 0.000000 0.041810 0.000000
# 6 0.000000 0.000000 0.000000 -0.007733 0.000000 0.033624
#
#
# Mechanical properties :
#
#
# Convention : Reuss Voigt Hill
#
# Bulk Modulus (GPa) = 35.73275 76.73796 56.23535
# Shear Modulus (GPa) = 22.57000 29.18757 25.87879
#
# Velocity S-wave (km/s) = 3.52891 4.01304 3.77874
# Velocity P-wave (km/s) = 6.02662 7.98834 7.07579
#
# Compressibility (1/GPa) = 0.02798553
#
# Stress axis : x y z
#
# Youngs Moduli (GPa) = 95.91411 25.92766 115.46304
#
# Poissons Ratio (x) = 0.15660 0.42855
# Poissons Ratio (y) = 0.57932 0.58695
# Poissons Ratio (z) = 0.35599 0.13180
#
# Static dielectric constant tensor:
#      x y z
#    x 3.421100 0.000000 -0.004080 
#    y 0.000000 3.136340 0.000000 
#    z -0.004080 0.000000 3.608660 
# 
# 
# High freq. dielectric constant tensor:
#      x y z
#    x 1.713480 0.000000 0.000830 
#    y 0.000000 1.680050 0.000000 
#    z 0.000830 0.000000 1.708050 
# 
# From -- ./inp_files/202865.got.cif
#   From: 2010.06.25/outbox.cif.g09.slc.cpg/sg12_102_cif.got.tgz:202865.got - 2010.06.28 00:19:55.
