data_PCOD8092461
_publ_section_title
;
Structure prediction by ZEFSAII (Michael W. Deem and Ramdas Pophale) SiO2 
 PCOD8092461
Probable space group: C 2/M
;
_chemical_formula_sum "Si O2"
_cell_formula_units_Z 64
_cell_length_a 14.729140
_cell_length_b 9.033988
_cell_length_c 30.046337
_cell_angle_alpha 90.000000
_cell_angle_beta 60.588284
_cell_angle_gamma 90.000000
_cell_volume 3482.756678
_symmetry_space_group_name_H-M "C 2/M"
_symmetry_group_IT_number 12
_symmetry_cell_setting 'monoclinic'
loop_
_space_group_symop_operation_xyz
x,y,z
-x,y,-z
-x,-y,-z
x,-y,z
1/2+x,1/2+y,z
1/2-x,1/2+y,-z
1/2-x,1/2-y,-z
1/2+x,1/2-y,z
loop_
_atom_site_type_symbol
_atom_site_label
_atom_site_fract_x
_atom_site_fract_y
_atom_site_fract_z
Si Si1 0.421676 0.324190 0.577870
Si Si2 0.151335 0.824787 0.500209
Si Si3 0.431757 0.173975 0.235488
Si Si4 0.475380 0.324870 0.132521
Si Si5 0.204370 0.829130 0.053455
Si Si6 0.799697 0.826052 0.691379
Si Si7 0.695562 0.170422 0.877789
Si Si8 0.379196 0.325763 0.766661
O O1 0.417590 0.500000 0.579099
O O2 0.543019 0.275188 0.549968
O O3 0.360227 0.271236 0.548333
O O4 0.363616 0.254982 0.634871
O O5 0.250000 0.750000 0.500000
O O6 0.167160 0.000000 0.499457
O O7 0.435759 0.248199 0.186534
O O8 0.321531 0.212589 0.284625
O O9 0.516144 0.238439 0.248471
O O10 0.446949 0.000000 0.225203
O O11 0.474010 0.500000 0.140085
O O12 0.590490 0.266899 0.093009
O O13 0.400182 0.277015 0.110579
O O14 0.280604 0.801705 0.076443
O O15 0.194997 0.000000 0.043746
O O16 0.250000 0.750000 0.000000
O O17 0.840732 0.764337 0.728516
O O18 0.817429 0.000000 0.687191
O O19 0.795307 0.214261 0.824462
O O20 0.665132 0.000000 0.875792
O O21 0.402343 0.500000 0.761054
#
# Coordination Sequence:
#
# PCOD8092461 Si02
#       8
#     8   8   8   8   8   8   8   8
#     4   8  16  32  51  74 105 145 183 215 263 327
#     4   9  17  31  54  78 103 139 184 224 265 320
#     4  11  21  34  54  81 107 141 183 220 264 321
#     4  11  22  38  59  83 110 141 177 221 268 318
#     4  10  23  41  59  80 111 142 175 221 269 318
#     4   9  18  33  53  76 108 144 179 221 267 318
#     4  10  20  38  59  81 109 142 179 217 265 321
#     4  10  19  35  55  77 107 142 178 218 266 319
#
# _framework density 18.376248
#
# number of rings (size 3 to 8) (size 9 to 14) (size 15 to 20)
#    0.000    2.250    2.500    1.500    0.000    3.500 
#    0.000    3.750    0.000    3.000    0.000    0.000 
#    0.000    0.000    0.000    0.000    0.000    0.000 
#
# Total GULP energy -396781.887560 kJ/mol
# GULP energy per Si atom -12399.433986 kJ/mol
# Density = 1.833442 g / cm^3
# Si number density = 18.376248 Si / 1000 Ang^3
#
#
#
# Elastic Constant Matrix: (Units=GPa)
#
#
# Indices 1 2 3 4 5 6 
#
# 1 113.2206 33.7996 22.9941 0.0000 -3.9435 0.0000
# 2 33.7996 43.5792 24.6806 0.0000 -4.1919 0.0000
# 3 22.9941 24.6806 99.0388 0.0000 5.8634 0.0000
# 4 0.0000 0.0000 0.0000 17.4805 0.0000 -2.3679
# 5 -3.9435 -4.1919 5.8634 0.0000 25.9021 0.0000
# 6 0.0000 0.0000 0.0000 -2.3679 0.0000 36.6946
#
#
#
# Elastic Compliance Matrix: (Units=1/GPa)
#
#
# Indices 1 2 3 4 5 6 
#
# 1 0.011523 -0.008566 -0.000570 0.000000 0.000497 0.000000
# 2 -0.008566 0.034009 -0.006826 0.000000 0.005745 0.000000
# 3 -0.000570 -0.006826 0.012164 0.000000 -0.003945 0.000000
# 4 0.000000 0.000000 0.000000 0.057711 0.000000 0.003724
# 5 0.000497 0.005745 -0.003945 0.000000 0.040505 0.000000
# 6 0.000000 0.000000 0.000000 0.003724 0.000000 0.027492
#
#
# Mechanical properties :
#
#
# Convention : Reuss Voigt Hill
#
# Bulk Modulus (GPa) = 38.80360 46.53189 42.66775
# Shear Modulus (GPa) = 22.32937 27.63972 24.98454
#
# Velocity S-wave (km/s) = 3.48964 3.88248 3.69129
# Velocity P-wave (km/s) = 6.11546 6.74351 6.43715
#
# Compressibility (1/GPa) = 0.02577080
#
# Stress axis : x y z
#
# Youngs Moduli (GPa) = 86.78557 29.40366 82.20913
#
# Poissons Ratio (x) = 0.25188 0.04685
# Poissons Ratio (y) = 0.74343 0.56120
# Poissons Ratio (z) = 0.04946 0.20072
#
# Static dielectric constant tensor:
#      x y z
#    x 3.576870 0.000000 -0.003260 
#    y 0.000000 3.134120 0.000000 
#    z -0.003260 0.000000 3.640220 
# 
# 
# High freq. dielectric constant tensor:
#      x y z
#    x 1.725470 0.000000 -0.000200 
#    y 0.000000 1.683940 0.000000 
#    z -0.000200 0.000000 1.715590 
# 
# From -- ./inp_files/375449.got.cif
#   From: 2010.06.25/outbox.cif.g09.slc.cpg/sg12_188_cif.got.tgz:375449.got - 2010.06.28 00:19:55.
