data_PCOD8092581
_publ_section_title
;
Structure prediction by ZEFSAII (Michael W. Deem and Ramdas Pophale) SiO2 
 PCOD8092581
Probable space group: C 2/M
;
_chemical_formula_sum "Si O2"
_cell_formula_units_Z 56
_cell_length_a 14.433573
_cell_length_b 13.850464
_cell_length_c 18.085668
_cell_angle_alpha 90.000000
_cell_angle_beta 126.530529
_cell_angle_gamma 90.000000
_cell_volume 2905.227364
_symmetry_space_group_name_H-M "C 2/M"
_symmetry_group_IT_number 12
_symmetry_cell_setting 'monoclinic'
loop_
_space_group_symop_operation_xyz
x,y,z
-x,y,-z
-x,-y,-z
x,-y,z
1/2+x,1/2+y,z
1/2-x,1/2+y,-z
1/2-x,1/2-y,-z
1/2+x,1/2-y,z
loop_
_atom_site_type_symbol
_atom_site_label
_atom_site_fract_x
_atom_site_fract_y
_atom_site_fract_z
Si Si1 0.052418 0.106248 0.598057
Si Si2 0.231751 0.248849 0.747730
Si Si3 0.058642 0.388536 0.730940
Si Si4 0.176187 0.721628 0.361832
Si Si5 0.869549 0.746133 0.960273
Si Si6 0.804261 0.609765 0.056028
Si Si7 0.808872 0.104683 0.530198
O O1 0.146640 0.162977 0.688087
O O2 0.000000 0.158975 0.500000
O O3 0.945485 0.094819 0.602401
O O4 0.101138 0.000000 0.599117
O O5 0.159276 0.348024 0.724587
O O6 0.322799 0.252666 0.723541
O O7 0.299328 0.220886 0.853368
O O8 0.031324 0.500000 0.695922
O O9 0.100380 0.383233 0.834950
O O10 0.948474 0.317918 0.671529
O O11 0.226586 0.815491 0.427328
O O12 0.267183 0.637149 0.427293
O O13 0.813910 0.837054 0.976611
O O14 0.861973 0.653833 0.010067
O O15 0.000000 0.771538 0.000000
O O16 0.770030 0.500000 0.022923
O O17 0.752306 0.000000 0.521338
#
# Coordination Sequence:
#
# PCOD8092581 Si02
#       7
#     8   8   8   8   8   8   8
#     4  10  19  35  56  79 112 145 183 234 286 335
#     4  11  22  36  59  86 114 146 191 233 287 336
#     4  10  21  38  58  83 116 152 188 231 284 342
#     4  11  21  35  59  82 114 152 194 233 283 339
#     4  10  21  38  60  85 116 148 188 236 282 338
#     4   9  20  39  60  83 116 151 185 230 285 342
#     4  10  21  36  54  79 113 151 190 236 284 334
#
# _framework density 19.275601000000002
#
# number of rings (size 3 to 8) (size 9 to 14) (size 15 to 20)
#    0.000    1.857    2.857    1.286    0.000    2.286 
#    0.000    0.000    0.000    3.000    0.000    0.000 
#    0.000    0.000    0.000    0.000    0.000    0.000 
#
# Total GULP energy -347013.301495 kJ/mol
# GULP energy per Si atom -12393.332196 kJ/mol
# Density = 1.923173 g / cm^3
# Si number density = 19.275601 Si / 1000 Ang^3
#
#
#
# Elastic Constant Matrix: (Units=GPa)
#
#
# Indices 1 2 3 4 5 6 
#
# 1 77.7371 33.4353 22.4215 0.0000 2.0331 0.0000
# 2 33.4353 132.7707 43.1462 0.0000 -4.6486 0.0000
# 3 22.4215 43.1462 80.5613 0.0000 0.2899 0.0000
# 4 0.0000 0.0000 0.0000 26.4904 0.0000 -0.6419
# 5 2.0331 -4.6486 0.2899 0.0000 31.3320 0.0000
# 6 0.0000 0.0000 0.0000 -0.6419 0.0000 19.8044
#
#
#
# Elastic Compliance Matrix: (Units=1/GPa)
#
#
# Indices 1 2 3 4 5 6 
#
# 1 0.014916 -0.002975 -0.002553 0.000000 -0.001386 0.000000
# 2 -0.002975 0.009774 -0.004413 0.000000 0.001684 0.000000
# 3 -0.002553 -0.004413 0.015489 0.000000 -0.000632 0.000000
# 4 0.000000 0.000000 0.000000 0.037779 0.000000 0.001225
# 5 -0.001386 0.001684 -0.000632 0.000000 0.032262 0.000000
# 6 0.000000 0.000000 0.000000 0.001225 0.000000 0.050533
#
#
# Mechanical properties :
#
#
# Convention : Reuss Voigt Hill
#
# Bulk Modulus (GPa) = 49.26731 54.34168 51.80450
# Shear Modulus (GPa) = 26.68076 28.32977 27.50527
#
# Velocity S-wave (km/s) = 3.72448 3.83785 3.78159
# Velocity P-wave (km/s) = 6.64158 6.92040 6.78243
#
# Compressibility (1/GPa) = 0.02029743
#
# Stress axis : x y z
#
# Youngs Moduli (GPa) = 67.04162 102.31294 64.56191
#
# Poissons Ratio (x) = 0.30440 0.16483
# Poissons Ratio (y) = 0.19946 0.28489
# Poissons Ratio (z) = 0.17116 0.45147
#
# Static dielectric constant tensor:
#      x y z
#    x 3.487360 0.000000 -0.056210 
#    y 0.000000 3.656700 0.000000 
#    z -0.056210 0.000000 3.552470 
# 
# 
# High freq. dielectric constant tensor:
#      x y z
#    x 1.745310 0.000000 0.002110 
#    y 0.000000 1.749870 0.000000 
#    z 0.002110 0.000000 1.747350 
# 
# From -- ./inp_files/270363.got.cif
#   From: 2010.06.25/outbox.cif.g09.slc.cpg/sg12_136_cif.got.tgz:270363.got - 2010.06.28 00:19:55.
