data_PCOD8092455
_publ_section_title
;
Structure prediction by ZEFSAII (Michael W. Deem and Ramdas Pophale) SiO2 
 PCOD8092455
Probable space group: C 2/M
;
_chemical_formula_sum "Si O2"
_cell_formula_units_Z 56
_cell_length_a 18.120214
_cell_length_b 13.867270
_cell_length_c 16.499715
_cell_angle_alpha 90.000000
_cell_angle_beta 132.176743
_cell_angle_gamma 90.000000
_cell_volume 3072.516226
_symmetry_space_group_name_H-M "C 2/M"
_symmetry_group_IT_number 12
_symmetry_cell_setting 'monoclinic'
loop_
_space_group_symop_operation_xyz
x,y,z
-x,y,-z
-x,-y,-z
x,-y,z
1/2+x,1/2+y,z
1/2-x,1/2+y,-z
1/2-x,1/2-y,-z
1/2+x,1/2-y,z
loop_
_atom_site_type_symbol
_atom_site_label
_atom_site_fract_x
_atom_site_fract_y
_atom_site_fract_z
Si Si1 0.598359 0.740966 0.794625
Si Si2 0.421628 0.890202 0.090190
Si Si3 0.293662 0.889450 0.516588
Si Si4 0.849900 0.613696 0.734200
Si Si5 0.568204 0.389619 0.356558
Si Si6 0.767209 0.388981 0.841024
Si Si7 0.961206 0.724406 0.559834
O O1 0.633232 0.814364 0.890250
O O2 0.512025 0.664601 0.760900
O O3 0.690059 0.679845 0.828871
O O4 0.549169 0.806681 0.687093
O O5 0.535733 0.856987 0.168462
O O6 0.412167 0.000000 0.116720
O O7 0.372035 0.883164 0.965561
O O8 0.309913 0.844104 0.618966
O O9 0.179627 0.877712 0.403977
O O10 0.361591 0.836432 0.501360
O O11 0.326618 0.000000 0.542731
O O12 0.838260 0.500000 0.725387
O O13 0.784995 0.651216 0.762880
O O14 0.538151 0.500000 0.345515
O O15 0.562438 0.338115 0.441205
O O16 0.728542 0.500000 0.812390
O O17 0.000000 0.704573 0.500000
#
# Coordination Sequence:
#
# PCOD8092455 Si02
#       7
#     8   8   8   8   8   8   8
#     4  10  21  34  50  77 109 139 168 206 260 311
#     4  10  19  35  55  77 103 137 175 214 259 303
#     4  10  19  35  57  77 104 141 172 207 255 304
#     4   9  17  31  53  79 104 131 169 214 259 303
#     4   9  20  35  53  76 104 138 172 208 256 311
#     4  10  20  32  53  81 107 132 170 218 261 306
#     4  10  22  34  50  78 108 136 172 213 249 307
#
# _framework density 18.226105
#
# number of rings (size 3 to 8) (size 9 to 14) (size 15 to 20)
#    0.857    1.429    1.429    1.714    2.000    2.286 
#    0.000    0.000    0.000    0.000    0.000    0.000 
#    0.000    9.143    0.000    0.000    0.000    0.000 
#
# Total GULP energy -346920.158329 kJ/mol
# GULP energy per Si atom -12390.005655 kJ/mol
# Density = 1.818462 g / cm^3
# Si number density = 18.226105 Si / 1000 Ang^3
#
#
#
# Elastic Constant Matrix: (Units=GPa)
#
#
# Indices 1 2 3 4 5 6 
#
# 1 98.0182 47.1038 20.4695 0.0000 -8.4508 0.0000
# 2 47.1038 80.1334 16.5544 0.0000 -8.1951 0.0000
# 3 20.4695 16.5544 30.1246 0.0000 -0.6123 0.0000
# 4 0.0000 0.0000 0.0000 21.3676 0.0000 1.3938
# 5 -8.4508 -8.1951 -0.6123 0.0000 32.0227 0.0000
# 6 0.0000 0.0000 0.0000 1.3938 0.0000 24.8031
#
#
#
# Elastic Compliance Matrix: (Units=1/GPa)
#
#
# Indices 1 2 3 4 5 6 
#
# 1 0.015272 -0.007488 -0.006222 0.000000 0.001995 0.000000
# 2 -0.007488 0.018141 -0.004829 0.000000 0.002574 0.000000
# 3 -0.006222 -0.004829 0.040034 0.000000 -0.002112 0.000000
# 4 0.000000 0.000000 0.000000 0.046972 0.000000 -0.002640
# 5 0.001995 0.002574 -0.002112 0.000000 0.032373 0.000000
# 6 0.000000 0.000000 0.000000 -0.002640 0.000000 0.040466
#
#
# Mechanical properties :
#
#
# Convention : Reuss Voigt Hill
#
# Bulk Modulus (GPa) = 27.49523 41.83684 34.66604
# Shear Modulus (GPa) = 20.62209 23.91525 22.26867
#
# Velocity S-wave (km/s) = 3.36737 3.62628 3.49922
# Velocity P-wave (km/s) = 5.49884 6.36690 5.94872
#
# Compressibility (1/GPa) = 0.03636994
#
# Stress axis : x y z
#
# Youngs Moduli (GPa) = 65.48013 55.12240 24.97878
#
# Poissons Ratio (x) = 0.41274 0.15541
# Poissons Ratio (y) = 0.49029 0.12063
# Poissons Ratio (z) = 0.40741 0.26619
#
# Static dielectric constant tensor:
#      x y z
#    x 3.212910 0.000000 0.090610 
#    y 0.000000 3.269680 0.000000 
#    z 0.090610 0.000000 3.325840 
# 
# 
# High freq. dielectric constant tensor:
#      x y z
#    x 1.696660 0.000000 0.018260 
#    y 0.000000 1.693150 0.000000 
#    z 0.018260 0.000000 1.694420 
# 
# From -- ./inp_files/225366.got.cif
#   From: 2010.06.25/outbox.cif.g09.slc.cpg/sg12_113_cif.got.tgz:225366.got - 2010.06.28 00:19:55.
