data_PCOD8092495
_publ_section_title
;
Structure prediction by ZEFSAII (Michael W. Deem and Ramdas Pophale) SiO2 
 PCOD8092495
Probable space group: C 2/M
;
_chemical_formula_sum "Si O2"
_cell_formula_units_Z 56
_cell_length_a 10.685618
_cell_length_b 25.447359
_cell_length_c 8.899588
_cell_angle_alpha 90.000000
_cell_angle_beta 78.825451
_cell_angle_gamma 90.000000
_cell_volume 2374.103076
_symmetry_space_group_name_H-M "C 2/M"
_symmetry_group_IT_number 12
_symmetry_cell_setting 'monoclinic'
loop_
_space_group_symop_operation_xyz
x,y,z
-x,y,-z
-x,-y,-z
x,-y,z
1/2+x,1/2+y,z
1/2-x,1/2+y,-z
1/2-x,1/2-y,-z
1/2+x,1/2-y,z
loop_
_atom_site_type_symbol
_atom_site_label
_atom_site_fract_x
_atom_site_fract_y
_atom_site_fract_z
Si Si1 0.188060 0.558533 0.846215
Si Si2 0.387844 0.154630 0.930247
Si Si3 0.123098 0.834187 0.871251
Si Si4 0.473637 0.916500 0.679254
Si Si5 0.701836 0.443249 0.727480
Si Si6 0.629832 0.712426 0.542380
Si Si7 0.643429 0.598535 0.435116
O O1 0.207806 0.500000 0.910527
O O2 0.319464 0.579268 0.740411
O O3 0.089968 0.554369 0.731291
O O4 0.140077 0.598636 0.982596
O O5 0.252403 0.184010 0.932558
O O6 0.451653 0.142047 0.754307
O O7 0.500000 0.185426 0.000000
O O8 0.129032 0.896641 0.832871
O O9 0.107968 0.801315 0.722322
O O10 0.000000 0.822343 0.000000
O O11 0.500000 0.908239 0.500000
O O12 0.347078 0.949322 0.747136
O O13 0.633400 0.500000 0.769242
O O14 0.721605 0.429982 0.547374
O O15 0.500000 0.737011 0.500000
O O16 0.750000 0.750000 0.500000
O O17 0.664103 0.660976 0.437574
O O18 0.500000 0.582076 0.500000
#
# Coordination Sequence:
#
# PCOD8092495 Si02
#       7
#     8   8   8   8   8   8   8
#     4  11  22  35  58  91 136 189 232 274 328 391
#     4   9  22  39  58  95 136 185 235 277 324 389
#     4  10  23  44  70 100 142 184 217 278 349 401
#     4  10  19  35  55  80 125 180 238 292 326 363
#     4  10  20  34  55  91 133 180 234 272 314 388
#     4  10  24  51  78 106 132 170 218 286 356 423
#     4  10  22  38  60  89 133 174 217 274 335 393
#
# _framework density 23.587855000000001
#
# number of rings (size 3 to 8) (size 9 to 14) (size 15 to 20)
#    0.000    2.000    1.429    0.857    6.000    6.857 
#   10.286    0.714    0.000    0.000    0.000    0.000 
#    0.000    0.000    0.000    0.000    0.000    0.000 
#
# Total GULP energy -346915.622046 kJ/mol
# GULP energy per Si atom -12389.843645 kJ/mol
# Density = 2.353417 g / cm^3
# Si number density = 23.587855 Si / 1000 Ang^3
#
#
#
# Elastic Constant Matrix: (Units=GPa)
#
#
# Indices 1 2 3 4 5 6 
#
# 1 159.1496 38.7449 39.5347 0.0000 2.0788 0.0000
# 2 38.7449 44.0666 22.5409 0.0000 -5.7271 0.0000
# 3 39.5347 22.5409 111.9904 0.0000 -5.2890 0.0000
# 4 0.0000 0.0000 0.0000 11.0329 0.0000 -4.0333
# 5 2.0788 -5.7271 -5.2890 0.0000 41.1685 0.0000
# 6 0.0000 0.0000 0.0000 -4.0333 0.0000 15.0410
#
#
#
# Elastic Compliance Matrix: (Units=1/GPa)
#
#
# Indices 1 2 3 4 5 6 
#
# 1 0.008348 -0.006686 -0.001675 0.000000 -0.001567 0.000000
# 2 -0.006686 0.030998 -0.003681 0.000000 0.004177 0.000000
# 3 -0.001675 -0.003681 0.010304 0.000000 0.000896 0.000000
# 4 0.000000 0.000000 0.000000 0.100488 0.000000 0.026946
# 5 -0.001567 0.004177 0.000896 0.000000 0.025066 0.000000
# 6 0.000000 0.000000 0.000000 0.026946 0.000000 0.073711
#
#
# Mechanical properties :
#
#
# Convention : Reuss Voigt Hill
#
# Bulk Modulus (GPa) = 39.11800 57.42754 48.27277
# Shear Modulus (GPa) = 17.76062 27.74088 22.75075
#
# Velocity S-wave (km/s) = 2.74698 3.43310 3.10903
# Velocity P-wave (km/s) = 5.16538 6.33356 5.77906
#
# Compressibility (1/GPa) = 0.02556368
#
# Stress axis : x y z
#
# Youngs Moduli (GPa) = 119.79204 32.26030 97.04987
#
# Poissons Ratio (x) = 0.21571 0.16257
# Poissons Ratio (y) = 0.80099 0.35728
# Poissons Ratio (z) = 0.20066 0.11876
#
# Static dielectric constant tensor:
#      x y z
#    x 4.801080 0.000000 0.357810 
#    y 0.000000 3.805440 0.000000 
#    z 0.357810 0.000000 4.325030 
# 
# 
# High freq. dielectric constant tensor:
#      x y z
#    x 1.948830 0.000000 0.008700 
#    y 0.000000 1.889960 0.000000 
#    z 0.008700 0.000000 1.938880 
# 
# From -- ./inp_files/54194.got.cif
#   From: 2010.06.25/outbox.cif.g09.slc.cpg/sg12_28_cif.got.tgz:54194.got - 2010.06.28 00:19:55.
