data_PCOD8092199
_publ_section_title
;
Structure prediction by ZEFSAII (Michael W. Deem and Ramdas Pophale) SiO2 
 PCOD8092199
Probable space group: C 2/M
;
_chemical_formula_sum "Si O2"
_cell_formula_units_Z 64
_cell_length_a 19.539276
_cell_length_b 11.710733
_cell_length_c 32.829444
_cell_angle_alpha 90.000000
_cell_angle_beta 24.682920
_cell_angle_gamma 90.000000
_cell_volume 3136.986433
_symmetry_space_group_name_H-M "C 2/M"
_symmetry_group_IT_number 12
_symmetry_cell_setting 'monoclinic'
loop_
_space_group_symop_operation_xyz
x,y,z
-x,y,-z
-x,-y,-z
x,-y,z
1/2+x,1/2+y,z
1/2-x,1/2+y,-z
1/2-x,1/2-y,-z
1/2+x,1/2-y,z
loop_
_atom_site_type_symbol
_atom_site_label
_atom_site_fract_x
_atom_site_fract_y
_atom_site_fract_z
Si Si1 0.370955 0.124456 0.448335
Si Si2 0.175557 0.128461 0.021409
Si Si3 0.586559 0.368000 0.195419
Si Si4 0.107146 0.806323 0.774765
Si Si5 0.964081 0.370699 0.562549
Si Si6 0.485820 0.676709 0.340838
Si Si7 0.581081 0.250649 0.997177
Si Si8 0.168783 0.629341 0.807551
O O1 0.432065 0.187052 0.457049
O O2 0.449123 0.189415 0.367539
O O3 0.174330 0.114671 0.554034
O O4 0.450371 0.000000 0.402626
O O5 0.997944 0.115474 0.137782
O O6 0.260286 0.000000 0.982564
O O7 0.250000 0.250000 0.000000
O O8 0.158039 0.146490 0.982318
O O9 0.567152 0.500000 0.193340
O O10 0.492814 0.288971 0.213258
O O11 0.504930 0.348281 0.283144
O O12 0.778188 0.337909 0.092295
O O13 0.273348 0.871493 0.675623
O O14 0.142863 0.685010 0.777071
O O15 0.029065 0.500000 0.523465
O O16 0.000000 0.307149 0.500000
O O17 0.642936 0.635287 0.280695
O O18 0.500000 0.301405 0.000000
O O19 0.444041 0.186666 0.097446
O O20 0.112645 0.500000 0.833323
#
# Coordination Sequence:
#
# PCOD8092199 Si02
#       8
#     8   8   8   8   8   8   8   8
#     4  10  21  38  60  88 124 162 204 259 314 372
#     4  11  24  43  68  96 130 174 218 263 318 383
#     4  12  23  39  64  94 127 161 208 267 317 371
#     4  11  23  40  60  92 123 163 206 258 316 374
#     4  10  19  34  59  90 120 154 199 254 311 365
#     4  11  22  39  63  94 122 160 212 256 314 377
#     4  11  24  41  62  94 130 165 210 259 317 378
#     4  11  23  40  64  91 125 167 211 259 313 380
#
# _framework density 20.401747
#
# number of rings (size 3 to 8) (size 9 to 14) (size 15 to 20)
#    0.000    1.125    3.750    3.375    0.000    3.750 
#    0.000    1.250    0.000    0.375    0.000    0.000 
#    0.000    0.000    0.000    0.000    0.000    0.000 
#
# Total GULP energy -396484.972548 kJ/mol
# GULP energy per Si atom -12390.155392 kJ/mol
# Density = 2.035531 g / cm^3
# Si number density = 20.401747 Si / 1000 Ang^3
#
#
#
# Elastic Constant Matrix: (Units=GPa)
#
#
# Indices 1 2 3 4 5 6 
#
# 1 126.0323 43.6656 12.8389 -0.0143 0.3041 0.0092
# 2 43.6656 101.8027 16.4141 -0.0083 11.3404 0.0052
# 3 12.8389 16.4141 80.3954 0.1713 -3.6638 -0.1027
# 4 -0.0143 -0.0083 0.1713 211.4891 -0.0039 -123.8055
# 5 0.3041 11.3404 -3.6638 -0.0039 34.8303 0.0020
# 6 0.0092 0.0052 -0.1027 -123.8055 0.0020 94.2943
#
#
#
# Elastic Compliance Matrix: (Units=1/GPa)
#
#
# Indices 1 2 3 4 5 6 
#
# 1 0.009403 -0.004064 -0.000618 0.000001 0.001176 0.000000
# 2 -0.004064 0.012369 -0.002068 0.000002 -0.004209 0.000000
# 3 -0.000618 -0.002068 0.013053 -0.000010 0.002052 0.000002
# 4 0.000001 0.000002 -0.000010 0.020435 -0.000001 0.026830
# 5 0.001176 -0.004209 0.002052 -0.000001 0.030287 0.000001
# 6 0.000000 0.000000 0.000002 0.026830 0.000001 0.045832
#
#
# Mechanical properties :
#
#
# Convention : Reuss Voigt Hill
#
# Bulk Modulus (GPa) = 46.89745 50.45197 48.67471
# Shear Modulus (GPa) = 32.89757 83.81019 58.35388
#
# Velocity S-wave (km/s) = 4.01994 6.41631 5.35392
# Velocity P-wave (km/s) = 6.67708 8.92609 7.88221
#
# Compressibility (1/GPa) = 0.02132312
#
# Stress axis : x y z
#
# Youngs Moduli (GPa) = 106.35145 80.85010 76.61086
#
# Poissons Ratio (x) = 0.32861 0.04736
# Poissons Ratio (y) = 0.43226 0.15843
# Poissons Ratio (z) = 0.06574 0.16720
#
# Static dielectric constant tensor:
#      x y z
#    x 4.012470 0.000000 0.011630 
#    y 0.000000 3.689600 0.000000 
#    z 0.011630 0.000000 3.794280 
# 
# 
# High freq. dielectric constant tensor:
#      x y z
#    x 1.808200 0.000000 -0.005560 
#    y 0.000000 1.771430 0.000000 
#    z -0.005560 0.000000 1.805280 
# 
# From -- ./inp_files/379074.got.cif
#   From: 2010.06.25/outbox.cif.g09.slc.cpg/sg12_190_cif.got.tgz:379074.got - 2010.06.28 00:19:55.
