data_PCOD8092640
_publ_section_title
;
Structure prediction by ZEFSAII (Michael W. Deem and Ramdas Pophale) SiO2 
 PCOD8092640
Probable space group: C 2/M
;
_chemical_formula_sum "Si O2"
_cell_formula_units_Z 56
_cell_length_a 18.782349
_cell_length_b 9.044955
_cell_length_c 19.255809
_cell_angle_alpha 90.000000
_cell_angle_beta 112.844499
_cell_angle_gamma 90.000000
_cell_volume 3014.689590
_symmetry_space_group_name_H-M "C 2/M"
_symmetry_group_IT_number 12
_symmetry_cell_setting 'monoclinic'
loop_
_space_group_symop_operation_xyz
x,y,z
-x,y,-z
-x,-y,-z
x,-y,z
1/2+x,1/2+y,z
1/2-x,1/2+y,-z
1/2-x,1/2-y,-z
1/2+x,1/2-y,z
loop_
_atom_site_type_symbol
_atom_site_label
_atom_site_fract_x
_atom_site_fract_y
_atom_site_fract_z
Si Si1 0.428778 0.830053 0.927753
Si Si2 0.647197 0.838392 0.805939
Si Si3 0.505685 0.327889 0.710557
Si Si4 0.046738 0.322907 0.585012
Si Si5 0.792397 0.660077 0.322349
Si Si6 0.625308 0.672445 0.231437
Si Si7 0.732226 0.831068 0.063511
O O1 0.415460 0.745602 0.850425
O O2 0.356745 0.813152 0.951481
O O3 0.444555 0.000000 0.913975
O O4 0.500000 0.764825 0.000000
O O5 0.568462 0.746743 0.785651
O O6 0.662269 0.863999 0.731627
O O7 0.719068 0.745241 0.858635
O O8 0.640389 0.000000 0.840609
O O9 0.525754 0.500000 0.709511
O O10 0.504561 0.251791 0.634904
O O11 0.423968 0.304103 0.717610
O O12 0.045230 0.500000 0.593972
O O13 0.136825 0.265881 0.607083
O O14 0.000000 0.271474 0.500000
O O15 0.771319 0.500000 0.347121
O O16 0.710489 0.745192 0.280670
O O17 0.635554 0.500000 0.216367
O O18 0.757481 0.000000 0.066406
O O19 0.750000 0.750000 0.000000
#
# Coordination Sequence:
#
# PCOD8092640 Si02
#       7
#     8   8   8   8   8   8   8
#     4  10  23  40  55  77 109 145 184 231 280 321
#     4  10  19  35  57  76 101 141 184 227 271 321
#     4  10  21  34  53  83 114 142 179 226 276 326
#     4   9  18  35  59  84 110 144 185 225 267 323
#     4   8  15  31  55  78 101 136 178 217 261 317
#     4  10  20  36  56  79 108 145 185 226 274 330
#     4  11  23  37  54  78 108 140 181 230 279 328
#
# _framework density 18.575710999999998
#
# number of rings (size 3 to 8) (size 9 to 14) (size 15 to 20)
#    0.000    2.286    1.429    2.143    2.000    2.286 
#    0.000    0.714    0.000    0.000    0.000    0.000 
#    0.000    0.000    0.000    0.000    0.000    0.000 
#
# Total GULP energy -346932.027041 kJ/mol
# GULP energy per Si atom -12390.429537 kJ/mol
# Density = 1.853343 g / cm^3
# Si number density = 18.575711 Si / 1000 Ang^3
#
#
#
# Elastic Constant Matrix: (Units=GPa)
#
#
# Indices 1 2 3 4 5 6 
#
# 1 109.4631 39.8560 59.3346 0.0000 21.4180 0.0000
# 2 39.8560 88.0220 42.3036 0.0000 4.8789 0.0000
# 3 59.3346 42.3036 115.8898 0.0000 29.0694 0.0000
# 4 0.0000 0.0000 0.0000 24.9654 0.0000 -0.1087
# 5 21.4180 4.8789 29.0694 0.0000 34.3242 0.0000
# 6 0.0000 0.0000 0.0000 -0.1087 0.0000 22.7143
#
#
#
# Elastic Compliance Matrix: (Units=1/GPa)
#
#
# Indices 1 2 3 4 5 6 
#
# 1 0.013864 -0.003804 -0.004666 0.000000 -0.004158 0.000000
# 2 -0.003804 0.015057 -0.004580 0.000000 0.004112 0.000000
# 3 -0.004666 -0.004580 0.014978 0.000000 -0.009122 0.000000
# 4 0.000000 0.000000 0.000000 0.040056 0.000000 0.000192
# 5 -0.004158 0.004112 -0.009122 0.000000 0.038870 0.000000
# 6 0.000000 0.000000 0.000000 0.000192 0.000000 0.044026
#
#
# Mechanical properties :
#
#
# Convention : Reuss Voigt Hill
#
# Bulk Modulus (GPa) = 56.18908 66.26261 61.22585
# Shear Modulus (GPa) = 25.14033 27.85951 26.49992
#
# Velocity S-wave (km/s) = 3.68285 3.87690 3.78112
# Velocity P-wave (km/s) = 6.95693 7.46924 7.21763
#
# Compressibility (1/GPa) = 0.01779705
#
# Stress axis : x y z
#
# Youngs Moduli (GPa) = 72.13105 66.41636 66.76431
#
# Poissons Ratio (x) = 0.25266 0.31155
# Poissons Ratio (y) = 0.27440 0.30578
# Poissons Ratio (z) = 0.33659 0.30418
#
# Static dielectric constant tensor:
#      x y z
#    x 3.382540 0.000000 0.102450 
#    y 0.000000 3.446160 0.000000 
#    z 0.102450 0.000000 3.077050 
# 
# 
# High freq. dielectric constant tensor:
#      x y z
#    x 1.726260 0.000000 0.018530 
#    y 0.000000 1.708280 0.000000 
#    z 0.018530 0.000000 1.711670 
# 
# From -- ./inp_files/275675.got.cif
#   From: 2010.06.25/outbox.cif.g09.slc.cpg/sg12_138_cif.got.tgz:275675.got - 2010.06.28 00:19:55.
