data_PCOD8092862
_publ_section_title
;
Structure prediction by ZEFSAII (Michael W. Deem and Ramdas Pophale) SiO2 
 PCOD8092862
Probable space group: C 2/M
;
_chemical_formula_sum "Si O2"
_cell_formula_units_Z 56
_cell_length_a 10.229312
_cell_length_b 18.519964
_cell_length_c 22.353312
_cell_angle_alpha 90.000000
_cell_angle_beta 132.998073
_cell_angle_gamma 90.000000
_cell_volume 3097.201972
_symmetry_space_group_name_H-M "C 2/M"
_symmetry_group_IT_number 12
_symmetry_cell_setting 'monoclinic'
loop_
_space_group_symop_operation_xyz
x,y,z
-x,y,-z
-x,-y,-z
x,-y,z
1/2+x,1/2+y,z
1/2-x,1/2+y,-z
1/2-x,1/2-y,-z
1/2+x,1/2-y,z
loop_
_atom_site_type_symbol
_atom_site_label
_atom_site_fract_x
_atom_site_fract_y
_atom_site_fract_z
Si Si1 0.460323 0.170347 0.651779
Si Si2 0.351065 0.414700 0.502053
Si Si3 0.211908 0.415272 0.910339
Si Si4 0.870580 0.162592 0.754039
Si Si5 0.002356 0.084215 0.905812
Si Si6 0.607861 0.829057 0.234445
Si Si7 0.514294 0.338091 0.339852
O O1 0.334542 0.125478 0.568466
O O2 0.663484 0.148966 0.702650
O O3 0.410607 0.145311 0.702998
O O4 0.428414 0.255296 0.629889
O O5 0.500000 0.391343 0.500000
O O6 0.318898 0.500000 0.490938
O O7 0.411676 0.390373 0.586309
O O8 0.170465 0.500000 0.891865
O O9 0.338914 0.388519 0.896035
O O10 0.028856 0.371021 0.850956
O O11 0.309384 0.397684 0.003532
O O12 0.931990 0.244623 0.780851
O O13 0.906896 0.134968 0.698439
O O14 0.995673 0.119997 0.838989
O O15 0.982410 0.000000 0.890710
O O16 0.802253 0.846574 0.270225
#
# Coordination Sequence:
#
# PCOD8092862 Si02
#       7
#     8   8   8   8   8   8   8
#     4  10  20  38  59  80 108 147 186 219 268 330
#     4  11  23  38  58  84 111 142 184 227 268 321
#     4   9  18  33  57  83 108 145 188 225 264 320
#     4  10  21  35  57  83 110 145 180 226 276 317
#     4   9  18  34  55  82 113 144 182 226 271 321
#     4  10  19  35  58  82 109 144 188 223 263 328
#     4  10  22  38  55  81 114 143 179 226 276 323
#
# _framework density 18.080835
#
# number of rings (size 3 to 8) (size 9 to 14) (size 15 to 20)
#    0.000    2.143    2.857    1.286    0.000    3.429 
#    0.000    1.429    0.000    1.714    0.000    0.000 
#    0.000    0.000    0.000    0.000    0.000    0.000 
#
# Total GULP energy -347271.354276 kJ/mol
# GULP energy per Si atom -12402.548367 kJ/mol
# Density = 1.803968 g / cm^3
# Si number density = 18.080835 Si / 1000 Ang^3
#
#
#
# Elastic Constant Matrix: (Units=GPa)
#
#
# Indices 1 2 3 4 5 6 
#
# 1 78.1480 31.2966 33.6561 0.0000 -11.8198 0.0000
# 2 31.2966 58.3935 58.2884 0.0000 3.5460 0.0000
# 3 33.6561 58.2884 117.9707 0.0000 -6.6017 0.0000
# 4 0.0000 0.0000 0.0000 33.5897 0.0000 -3.2649
# 5 -11.8198 3.5460 -6.6017 0.0000 29.3685 0.0000
# 6 0.0000 0.0000 0.0000 -3.2649 0.0000 18.6123
#
#
#
# Elastic Compliance Matrix: (Units=1/GPa)
#
#
# Indices 1 2 3 4 5 6 
#
# 1 0.018242 -0.011077 0.000764 0.000000 0.008851 0.000000
# 2 -0.011077 0.042447 -0.018582 0.000000 -0.013760 0.000000
# 3 0.000764 -0.018582 0.017807 0.000000 0.006554 0.000000
# 4 0.000000 0.000000 0.000000 0.030287 0.000000 0.005313
# 5 0.008851 -0.013760 0.006554 0.000000 0.040747 0.000000
# 6 0.000000 0.000000 0.000000 0.005313 0.000000 0.054660
#
#
# Mechanical properties :
#
#
# Convention : Reuss Voigt Hill
#
# Bulk Modulus (GPa) = 48.29837 55.66605 51.98221
# Shear Modulus (GPa) = 18.59551 25.06552 21.83052
#
# Velocity S-wave (km/s) = 3.21045 3.72735 3.47851
# Velocity P-wave (km/s) = 6.36499 7.02697 6.70416
#
# Compressibility (1/GPa) = 0.02070463
#
# Stress axis : x y z
#
# Youngs Moduli (GPa) = 54.81841 23.55900 56.15838
#
# Poissons Ratio (x) = 0.26097 -0.04292
# Poissons Ratio (y) = 0.60724 1.04355
# Poissons Ratio (z) = -0.04189 0.43778
#
# Static dielectric constant tensor:
#      x y z
#    x 3.424170 0.000000 -0.070660 
#    y 0.000000 3.208150 0.000000 
#    z -0.070660 0.000000 3.340750 
# 
# 
# High freq. dielectric constant tensor:
#      x y z
#    x 1.693800 0.000000 0.001330 
#    y 0.000000 1.690880 0.000000 
#    z 0.001330 0.000000 1.708200 
# 
# From -- ./inp_files/257027.got.cif
#   From: 2010.06.25/outbox.cif.g09.slc.cpg/sg12_129_cif.got.tgz:257027.got - 2010.06.28 00:19:55.
