data_PCOD8092955
_publ_section_title
;
Structure prediction by ZEFSAII (Michael W. Deem and Ramdas Pophale) SiO2 
 PCOD8092955
Probable space group: C 2/M
;
_chemical_formula_sum "Si O2"
_cell_formula_units_Z 64
_cell_length_a 27.330603
_cell_length_b 13.306743
_cell_length_c 9.523405
_cell_angle_alpha 90.000000
_cell_angle_beta 108.765419
_cell_angle_gamma 90.000000
_cell_volume 3279.378017
_symmetry_space_group_name_H-M "C 2/M"
_symmetry_group_IT_number 12
_symmetry_cell_setting 'monoclinic'
loop_
_space_group_symop_operation_xyz
x,y,z
-x,y,-z
-x,-y,-z
x,-y,z
1/2+x,1/2+y,z
1/2-x,1/2+y,-z
1/2-x,1/2-y,-z
1/2+x,1/2-y,z
loop_
_atom_site_type_symbol
_atom_site_label
_atom_site_fract_x
_atom_site_fract_y
_atom_site_fract_z
Si Si1 0.765702 0.881727 0.905661
Si Si2 0.892879 0.264190 0.614919
Si Si3 0.331966 0.884744 0.349985
Si Si4 0.495570 0.883745 0.661869
Si Si5 0.341309 0.241936 0.855728
Si Si6 0.600466 0.790651 0.812029
Si Si7 0.255429 0.616126 0.210914
Si Si8 0.372895 0.617267 0.365989
O O1 0.720255 0.838623 0.764432
O O2 0.820117 0.848592 0.891088
O O3 0.764195 0.000000 0.909866
O O4 0.758436 0.839569 0.055739
O O5 0.845220 0.325151 0.503010
O O6 0.942572 0.334731 0.664072
O O7 0.878754 0.236047 0.760459
O O8 0.901510 0.162833 0.530054
O O9 0.377135 0.872073 0.276943
O O10 0.325168 0.000000 0.384090
O O11 0.500000 0.875057 0.500000
O O12 0.540507 0.818182 0.775668
O O13 0.497305 0.000000 0.712434
O O14 0.292616 0.173417 0.761608
O O15 0.373387 0.192908 0.012676
O O16 0.608616 0.678093 0.755832
O O17 0.240496 0.500000 0.198751
O O18 0.311320 0.632112 0.334427
O O19 0.387235 0.500000 0.359446
#
# Coordination Sequence:
#
# PCOD8092955 Si02
#       8
#     8   8   8   8   8   8   8   8
#     4  10  20  34  58  87 115 155 201 237 282 344
#     4  11  25  39  56  87 121 156 191 238 305 347
#     4  10  19  35  58  86 115 150 199 241 282 350
#     4  11  22  41  67  89 113 147 194 243 289 347
#     4  12  23  37  57  86 127 157 188 242 292 345
#     4  11  21  36  63  88 110 152 201 241 291 339
#     4  10  20  34  57  89 120 155 197 238 283 342
#     4  10  21  39  61  87 117 151 199 243 280 345
#
# _framework density 19.515895
#
# number of rings (size 3 to 8) (size 9 to 14) (size 15 to 20)
#    0.000    1.375    5.000    2.625    0.000    4.500 
#    0.000    4.375    0.000    0.000    0.000    2.625 
#    0.000    0.000    0.000    0.000    0.000    0.000 
#
# Total GULP energy -396769.855158 kJ/mol
# GULP energy per Si atom -12399.057974 kJ/mol
# Density = 1.947148 g / cm^3
# Si number density = 19.515895 Si / 1000 Ang^3
#
#
#
# Elastic Constant Matrix: (Units=GPa)
#
#
# Indices 1 2 3 4 5 6 
#
# 1 87.1737 25.1824 30.1970 0.0000 4.7628 0.0000
# 2 25.1824 79.6340 11.7532 0.0000 8.8489 0.0000
# 3 30.1970 11.7532 67.5524 0.0000 0.1038 0.0000
# 4 0.0000 0.0000 0.0000 18.0089 0.0000 6.5337
# 5 4.7628 8.8489 0.1038 0.0000 32.8115 0.0000
# 6 0.0000 0.0000 0.0000 6.5337 0.0000 24.3445
#
#
#
# Elastic Compliance Matrix: (Units=1/GPa)
#
#
# Indices 1 2 3 4 5 6 
#
# 1 0.014627 -0.003629 -0.005905 0.000000 -0.001126 0.000000
# 2 -0.003629 0.014196 -0.000843 0.000000 -0.003299 0.000000
# 3 -0.005905 -0.000843 0.017588 0.000000 0.001029 0.000000
# 4 0.000000 0.000000 0.000000 0.061518 0.000000 -0.016511
# 5 -0.001126 -0.003299 0.001029 0.000000 0.031527 0.000000
# 6 0.000000 0.000000 0.000000 -0.016511 0.000000 0.045508
#
#
# Mechanical properties :
#
#
# Convention : Reuss Voigt Hill
#
# Bulk Modulus (GPa) = 38.97527 40.95835 39.96681
# Shear Modulus (GPa) = 23.33502 26.18148 24.75825
#
# Velocity S-wave (km/s) = 3.46163 3.66669 3.56563
# Velocity P-wave (km/s) = 5.99930 6.24170 6.12170
#
# Compressibility (1/GPa) = 0.02565730
#
# Stress axis : x y z
#
# Youngs Moduli (GPa) = 68.36808 70.44275 56.85647
#
# Poissons Ratio (x) = 0.25561 0.33576
# Poissons Ratio (y) = 0.24809 0.04792
# Poissons Ratio (z) = 0.40373 0.05937
#
# Static dielectric constant tensor:
#      x y z
#    x 3.411910 0.000000 0.251820 
#    y 0.000000 3.582790 0.000000 
#    z 0.251820 0.000000 3.570880 
# 
# 
# High freq. dielectric constant tensor:
#      x y z
#    x 1.738670 0.000000 0.017420 
#    y 0.000000 1.768110 0.000000 
#    z 0.017420 0.000000 1.748010 
# 
# From -- ./inp_files/104687.got.cif
#   From: 2010.06.25/outbox.cif.g09.slc.cpg/sg12_53_cif.got.tgz:104687.got - 2010.06.28 00:19:55.
