data_PCOD8092204
_publ_section_title
;
Structure prediction by ZEFSAII (Michael W. Deem and Ramdas Pophale) SiO2 
 PCOD8092204
Probable space group: C 2/M
;
_chemical_formula_sum "Si O2"
_cell_formula_units_Z 44
_cell_length_a 22.947551
_cell_length_b 15.887722
_cell_length_c 15.164940
_cell_angle_alpha 90.000000
_cell_angle_beta 22.669135
_cell_angle_gamma 90.000000
_cell_volume 2130.887616
_symmetry_space_group_name_H-M "C 2/M"
_symmetry_group_IT_number 12
_symmetry_cell_setting 'monoclinic'
loop_
_space_group_symop_operation_xyz
x,y,z
-x,y,-z
-x,-y,-z
x,-y,z
1/2+x,1/2+y,z
1/2-x,1/2+y,-z
1/2-x,1/2-y,-z
1/2+x,1/2-y,z
loop_
_atom_site_type_symbol
_atom_site_label
_atom_site_fract_x
_atom_site_fract_y
_atom_site_fract_z
Si Si1 0.037483 0.185451 0.124733
Si Si2 0.272653 0.403685 0.579046
Si Si3 0.843772 0.905014 0.678165
Si Si4 0.500000 0.217831 0.000000
Si Si5 0.151050 0.312058 0.079758
Si Si6 0.845733 0.402646 0.756360
O O1 0.009240 0.259367 0.238183
O O2 0.894912 0.122703 0.333635
O O3 0.051616 0.220711 0.006288
O O4 0.198672 0.142954 0.922519
O O5 0.220582 0.500000 0.632463
O O6 0.355383 0.397533 0.557259
O O7 0.129257 0.342355 0.779355
O O8 0.000000 0.874435 0.500000
O O9 0.805534 0.000000 0.760615
O O10 0.721769 0.842648 0.888789
O O11 0.122919 0.391234 0.182354
O O12 0.250000 0.250000 0.000000
O O13 0.824169 0.500000 0.765063
O O14 0.000000 0.365702 0.500000
#
# Coordination Sequence:
#
# PCOD8092204 Si02
#       6
#     8   8   8   4   8   8
#     4  11  24  41  68  94 131 171 218 266 323 383
#     4  11  24  44  67  92 130 172 218 271 323 382
#     4  10  19  34  59  90 123 159 207 266 331 390
#     4  12  25  46  67  94 130 174 226 274 313 376
#     4  10  20  33  58  91 121 160 205 261 316 383
#     4  10  22  40  63  95 135 170 207 262 330 398
#
# _framework density 20.648672000000001
#
# number of rings (size 3 to 8) (size 9 to 14) (size 15 to 20)
#    0.000    1.455    1.818    4.091    2.545    4.364 
#    0.000    1.818    0.000    0.000    0.000    0.000 
#    0.000    0.000    0.000    0.000    0.000    0.000 
#
# Total GULP energy -272615.787765 kJ/mol
# GULP energy per Si atom -12391.626717 kJ/mol
# Density = 2.060167 g / cm^3
# Si number density = 20.648672 Si / 1000 Ang^3
#
#
#
# Elastic Constant Matrix: (Units=GPa)
#
#
# Indices 1 2 3 4 5 6 
#
# 1 86.9239 34.7454 25.5241 0.0001 5.5297 -0.0001
# 2 34.7454 86.5029 50.0487 0.0001 4.4718 -0.0001
# 3 25.5241 50.0487 115.0687 -0.0004 -1.0463 0.0001
# 4 0.0001 0.0001 -0.0004 38.9133 0.0001 1.8030
# 5 5.5297 4.4718 -1.0463 0.0001 28.5173 0.0000
# 6 -0.0001 -0.0001 0.0001 1.8030 0.0000 30.0515
#
#
#
# Elastic Compliance Matrix: (Units=1/GPa)
#
#
# Indices 1 2 3 4 5 6 
#
# 1 0.013876 -0.004919 -0.000956 0.000000 -0.001954 0.000000
# 2 -0.004919 0.017398 -0.006494 0.000000 -0.002013 0.000000
# 3 -0.000956 -0.006494 0.011742 0.000000 0.001635 0.000000
# 4 0.000000 0.000000 0.000000 0.025770 0.000000 -0.001546
# 5 -0.001954 -0.002013 0.001635 0.000000 0.035821 0.000000
# 6 0.000000 0.000000 0.000000 -0.001546 0.000000 0.033369
#
#
# Mechanical properties :
#
#
# Convention : Reuss Voigt Hill
#
# Bulk Modulus (GPa) = 54.71521 56.57022 55.64271
# Shear Modulus (GPa) = 29.61978 31.37489 30.49733
#
# Velocity S-wave (km/s) = 3.79154 3.90226 3.84730
# Velocity P-wave (km/s) = 6.76191 6.91082 6.83677
#
# Compressibility (1/GPa) = 0.01827645
#
# Stress axis : x y z
#
# Youngs Moduli (GPa) = 72.06845 57.47909 85.16439
#
# Poissons Ratio (x) = 0.28275 0.08142
# Poissons Ratio (y) = 0.35452 0.55307
# Poissons Ratio (z) = 0.06890 0.37328
#
# Static dielectric constant tensor:
#      x y z
#    x 3.870850 0.000000 0.138540 
#    y 0.000000 3.999400 0.000000 
#    z 0.138540 0.000000 3.716700 
# 
# 
# High freq. dielectric constant tensor:
#      x y z
#    x 1.804270 0.000000 0.006480 
#    y 0.000000 1.821980 0.000000 
#    z 0.006480 0.000000 1.794650 
# 
# From -- ./inp_files/241396.got.cif
#   From: 2010.06.25/outbox.cif.g09.slc.cpg/sg12_121_cif.got.tgz:241396.got - 2010.06.28 00:19:55.
