data_PCOD8092812
_publ_section_title
;
Structure prediction by ZEFSAII (Michael W. Deem and Ramdas Pophale) SiO2 
 PCOD8092812
Probable space group: C 2/M
;
_chemical_formula_sum "Si O2"
_cell_formula_units_Z 56
_cell_length_a 20.318821
_cell_length_b 9.120957
_cell_length_c 23.199697
_cell_angle_alpha 90.000000
_cell_angle_beta 45.873486
_cell_angle_gamma 90.000000
_cell_volume 3086.222337
_symmetry_space_group_name_H-M "C 2/M"
_symmetry_group_IT_number 12
_symmetry_cell_setting 'monoclinic'
loop_
_space_group_symop_operation_xyz
x,y,z
-x,y,-z
-x,-y,-z
x,-y,z
1/2+x,1/2+y,z
1/2-x,1/2+y,-z
1/2-x,1/2-y,-z
1/2+x,1/2-y,z
loop_
_atom_site_type_symbol
_atom_site_label
_atom_site_fract_x
_atom_site_fract_y
_atom_site_fract_z
Si Si1 0.875276 0.325761 0.344675
Si Si2 0.822266 0.328650 0.996703
Si Si3 0.441093 0.829657 0.428444
Si Si4 0.347134 0.168230 0.687307
Si Si5 0.725138 0.829085 0.146098
Si Si6 0.054309 0.329205 0.177252
Si Si7 0.185831 0.826161 0.408310
O O1 0.874797 0.500000 0.341979
O O2 0.893108 0.273477 0.399130
O O3 0.777906 0.264657 0.382524
O O4 0.955691 0.260376 0.254180
O O5 0.800238 0.500000 0.014202
O O6 0.813848 0.256338 0.065475
O O7 0.750000 0.250000 0.000000
O O8 0.921528 0.302455 0.905325
O O9 0.548778 0.798814 0.357918
O O10 0.402019 0.739505 0.505943
O O11 0.420843 0.000000 0.451742
O O12 0.281977 0.200881 0.781617
O O13 0.313847 0.275145 0.657688
O O14 0.337533 0.000000 0.672910
O O15 0.634108 0.765849 0.170055
O O16 0.737829 0.000000 0.124902
O O17 0.048816 0.500000 0.194998
O O18 0.180102 0.000000 0.413854
#
# Coordination Sequence:
#
# PCOD8092812 Si02
#       7
#     8   8   8   8   8   8   8
#     4   9  17  32  53  74  97 129 169 206 242 289
#     4   9  16  25  44  73 103 129 156 199 247 290
#     4  10  19  35  58  74  90 127 177 213 238 288
#     4  10  20  35  55  74  95 132 175 206 238 294
#     4   9  16  29  50  73  96 124 163 208 246 282
#     4   8  13  26  48  72  95 122 162 202 235 280
#     4  11  23  34  48  74 106 132 156 204 263 299
#
# _framework density 18.145160000000001
#
# number of rings (size 3 to 8) (size 9 to 14) (size 15 to 20)
#    0.000    2.571    1.429    2.571    0.000    2.857 
#    0.000    0.714    0.000    9.429    0.000    6.000 
#    0.000    0.000    0.000    0.000    0.000    0.000 
#
# Total GULP energy -347055.726104 kJ/mol
# GULP energy per Si atom -12394.847361 kJ/mol
# Density = 1.810386 g / cm^3
# Si number density = 18.145160 Si / 1000 Ang^3
#
#
#
# Elastic Constant Matrix: (Units=GPa)
#
#
# Indices 1 2 3 4 5 6 
#
# 1 58.7996 21.3842 19.7791 0.0000 17.2431 0.0007
# 2 21.3842 55.0832 42.7510 -0.0001 8.9295 0.0016
# 3 19.7791 42.7510 126.4001 -0.0001 15.9056 0.0000
# 4 0.0000 -0.0001 -0.0001 29.2599 0.0000 4.8302
# 5 17.2431 8.9295 15.9056 0.0000 18.9714 -0.0002
# 6 0.0007 0.0016 0.0000 4.8302 -0.0002 19.2542
#
#
#
# Elastic Compliance Matrix: (Units=1/GPa)
#
#
# Indices 1 2 3 4 5 6 
#
# 1 0.025318 -0.007369 0.001107 0.000000 -0.020470 -0.000001
# 2 -0.007369 0.027219 -0.008143 0.000000 0.000713 -0.000002
# 3 0.001107 -0.008143 0.011332 0.000000 -0.006674 0.000001
# 4 0.000000 0.000000 0.000000 0.035653 0.000000 -0.008944
# 5 -0.020470 0.000713 -0.006674 0.000000 0.076576 0.000001
# 6 -0.000001 -0.000002 0.000001 -0.008944 0.000001 0.054180
#
#
# Mechanical properties :
#
#
# Convention : Reuss Voigt Hill
#
# Bulk Modulus (GPa) = 28.52374 45.34572 36.93473
# Shear Modulus (GPa) = 18.46550 23.92168 21.19359
#
# Velocity S-wave (km/s) = 3.19353 3.63485 3.42131
# Velocity P-wave (km/s) = 5.41775 6.53153 6.00054
#
# Compressibility (1/GPa) = 0.03505851
#
# Stress axis : x y z
#
# Youngs Moduli (GPa) = 39.49813 36.73871 88.24509
#
# Poissons Ratio (x) = 0.27073 -0.09765
# Poissons Ratio (y) = 0.29107 0.71855
# Poissons Ratio (z) = -0.04371 0.29915
#
# Static dielectric constant tensor:
#      x y z
#    x 3.207000 0.000000 -0.050160 
#    y 0.000000 3.128370 0.000000 
#    z -0.050160 0.000000 3.854460 
# 
# 
# High freq. dielectric constant tensor:
#      x y z
#    x 1.664400 0.000000 0.002970 
#    y 0.000000 1.674710 0.000000 
#    z 0.002970 0.000000 1.726000 
# 
# From -- ./inp_files/313807.got.cif
#   From: 2010.06.25/outbox.cif.g09.slc.cpg/sg12_157_cif.got.tgz:313807.got - 2010.06.28 00:19:55.
