data_PCOD8092728
_publ_section_title
;
Structure prediction by ZEFSAII (Michael W. Deem and Ramdas Pophale) SiO2 
 PCOD8092728
Probable space group: C 2/M
;
_chemical_formula_sum "Si O2"
_cell_formula_units_Z 64
_cell_length_a 21.630514
_cell_length_b 28.622535
_cell_length_c 8.745064
_cell_angle_alpha 90.000000
_cell_angle_beta 143.301910
_cell_angle_gamma 90.000000
_cell_volume 3235.544420
_symmetry_space_group_name_H-M "C 2/M"
_symmetry_group_IT_number 12
_symmetry_cell_setting 'monoclinic'
loop_
_space_group_symop_operation_xyz
x,y,z
-x,y,-z
-x,-y,-z
x,-y,z
1/2+x,1/2+y,z
1/2-x,1/2+y,-z
1/2-x,1/2-y,-z
1/2+x,1/2-y,z
loop_
_atom_site_type_symbol
_atom_site_label
_atom_site_fract_x
_atom_site_fract_y
_atom_site_fract_z
Si Si1 0.622137 0.054289 0.071937
Si Si2 0.821506 0.296815 0.808343
Si Si3 0.204185 0.293686 0.576747
Si Si4 0.995183 0.756270 0.808681
Si Si5 0.007186 0.138560 0.832646
Si Si6 0.781572 0.118067 0.889586
Si Si7 0.707906 0.621217 0.733238
Si Si8 0.888277 0.554125 0.592974
O O1 0.708673 0.083733 0.157216
O O2 0.635886 0.063537 0.278312
O O3 0.638693 0.000000 0.065663
O O4 0.506508 0.070367 0.790823
O O5 0.822723 0.319150 0.639338
O O6 0.798177 0.241544 0.737314
O O7 0.748381 0.326833 0.772171
O O8 0.933937 0.288036 0.106053
O O9 0.115997 0.260254 0.469693
O O10 0.232625 0.331916 0.757010
O O11 0.016067 0.808331 0.784163
O O12 0.000000 0.759275 0.000000
O O13 0.904466 0.113244 0.564782
O O14 0.000000 0.138021 0.000000
O O15 0.110103 0.110575 0.985625
O O16 0.696552 0.079586 0.678229
O O17 0.806496 0.115314 0.116483
O O18 0.878587 0.500000 0.534289
#
# Coordination Sequence:
#
# PCOD8092728 Si02
#       8
#     8   8   8   8   8   8   8   8
#     4   9  20  42  70  94 115 148 198 248 290 344
#     4  10  19  35  57  81 111 156 209 249 284 337
#     4  10  19  35  57  81 111 156 209 249 284 337
#     4   9  18  33  55  80 107 148 205 257 288 322
#     4  11  21  41  64  82 111 160 214 252 286 339
#     4  12  25  38  56  90 128 159 191 239 308 366
#     4  12  25  38  56  90 128 159 191 239 308 366
#     4   9  20  42  70  94 115 148 198 248 290 344
#
# _framework density 19.780289
#
# number of rings (size 3 to 8) (size 9 to 14) (size 15 to 20)
#    0.000    1.750    2.500    3.375    1.750    1.500 
#    0.000    1.875    0.000    3.750    0.000    0.000 
#    0.000    0.000    0.000    0.000    0.000    0.000 
#
# Total GULP energy -396573.182556 kJ/mol
# GULP energy per Si atom -12392.911955 kJ/mol
# Density = 1.973527 g / cm^3
# Si number density = 19.780289 Si / 1000 Ang^3
#
#
#
# Elastic Constant Matrix: (Units=GPa)
#
#
# Indices 1 2 3 4 5 6 
#
# 1 87.0053 37.2771 58.4326 0.0000 6.2678 0.0000
# 2 37.2771 72.2190 45.9379 0.0000 6.4600 0.0000
# 3 58.4326 45.9379 127.3511 0.0000 9.7798 0.0000
# 4 0.0000 0.0000 0.0000 24.8907 0.0000 17.0127
# 5 6.2678 6.4600 9.7798 0.0000 32.0432 0.0000
# 6 0.0000 0.0000 0.0000 17.0127 0.0000 2.6748
#
#
#
# Elastic Compliance Matrix: (Units=1/GPa)
#
#
# Indices 1 2 3 4 5 6 
#
# 1 0.018034 -0.005221 -0.006350 0.000000 -0.000537 0.000000
# 2 -0.005221 0.019571 -0.004546 0.000000 -0.001537 0.000000
# 3 -0.006350 -0.004546 0.012534 0.000000 -0.001667 0.000000
# 4 0.000000 0.000000 0.000000 -0.012003 0.000000 0.076340
# 5 -0.000537 -0.001537 -0.001667 0.000000 0.032131 0.000000
# 6 0.000000 0.000000 0.000000 0.076340 0.000000 -0.111691
#
#
# Mechanical properties :
#
#
# Convention : Reuss Voigt Hill
#
# Bulk Modulus (GPa) = 55.85268 63.31894 59.58581
# Shear Modulus (GPa) = -1551.88237 21.58361 -765.14938
#
# Velocity S-wave (km/s) = -28.04039 3.30687 -19.68918
# Velocity P-wave (km/s) = 31.93827 6.83089 22.06119
#
# Compressibility (1/GPa) = 0.01790424
#
# Stress axis : x y z
#
# Youngs Moduli (GPa) = 55.45144 51.09620 79.78584
#
# Poissons Ratio (x) = 0.26679 0.50662
# Poissons Ratio (y) = 0.28953 0.36269
# Poissons Ratio (z) = 0.35210 0.23228
#
# Static dielectric constant tensor:
#      x y z
#    x 3.448560 0.000000 0.275810 
#    y 0.000000 3.457100 0.000000 
#    z 0.275810 0.000000 3.728010 
# 
# 
# High freq. dielectric constant tensor:
#      x y z
#    x 1.756980 0.000000 0.023890 
#    y 0.000000 1.753280 0.000000 
#    z 0.023890 0.000000 1.778780 
# 
# From -- ./inp_files/100246.got.cif
#   From: 2010.06.25/outbox.cif.g09.slc.cpg/sg12_51_cif.got.tgz:100246.got - 2010.06.28 00:19:55.
