data_PCOD8092153
_publ_section_title
;
Structure prediction by ZEFSAII (Michael W. Deem and Ramdas Pophale) SiO2 
 PCOD8092153
Probable space group: C 2/M
;
_chemical_formula_sum "Si O2"
_cell_formula_units_Z 64
_cell_length_a 25.115279
_cell_length_b 8.968345
_cell_length_c 14.364868
_cell_angle_alpha 90.000000
_cell_angle_beta 91.131721
_cell_angle_gamma 90.000000
_cell_volume 3234.947429
_symmetry_space_group_name_H-M "C 2/M"
_symmetry_group_IT_number 12
_symmetry_cell_setting 'monoclinic'
loop_
_space_group_symop_operation_xyz
x,y,z
-x,y,-z
-x,-y,-z
x,-y,z
1/2+x,1/2+y,z
1/2-x,1/2+y,-z
1/2-x,1/2-y,-z
1/2+x,1/2-y,z
loop_
_atom_site_type_symbol
_atom_site_label
_atom_site_fract_x
_atom_site_fract_y
_atom_site_fract_z
Si Si1 0.847852 0.670807 0.163263
Si Si2 0.906453 0.329030 0.490927
Si Si3 0.301961 0.667103 0.472497
Si Si4 0.304372 0.827090 0.969474
Si Si5 0.338252 0.322836 0.780163
Si Si6 0.939203 0.327783 0.694541
Si Si7 0.236721 0.831359 0.726865
Si Si8 0.443622 0.176787 0.293645
O O1 0.839216 0.500000 0.194830
O O2 0.849880 0.684319 0.051579
O O3 0.795651 0.763955 0.188556
O O4 0.901470 0.734233 0.214466
O O5 0.891757 0.500000 0.472463
O O6 0.852805 0.245304 0.517497
O O7 0.944003 0.310091 0.582158
O O8 0.930666 0.259337 0.396799
O O9 0.300289 0.500000 0.510870
O O10 0.250000 0.750000 0.500000
O O11 0.303543 0.674434 0.360891
O O12 0.292387 0.000000 0.946512
O O13 0.250000 0.750000 0.000000
O O14 0.329484 0.746719 0.881454
O O15 0.336343 0.500000 0.786484
O O16 0.394745 0.274208 0.740031
O O17 0.290710 0.263593 0.711655
O O18 0.927071 0.500000 0.719399
O O19 0.996878 0.273421 0.734401
O O20 0.254044 0.000000 0.750213
O O21 0.443196 0.000000 0.299533
#
# Coordination Sequence:
#
# PCOD8092153 Si02
#       8
#     8   8   8   8   8   8   8   8
#     4  10  20  36  61  90 116 146 187 235 289 346
#     4  10  19  34  59  87 116 152 195 242 289 344
#     4  11  23  35  50  78 115 156 194 235 290 347
#     4  11  22  37  61  92 121 151 191 238 295 356
#     4  12  25  40  59  84 117 158 198 242 297 351
#     4  10  21  38  60  87 118 155 199 245 292 342
#     4  11  22  36  56  82 115 151 190 238 293 347
#     4   9  18  36  62  89 118 153 196 242 289 347
#
# _framework density 19.783939
#
# number of rings (size 3 to 8) (size 9 to 14) (size 15 to 20)
#    0.000    1.500    2.500    3.375    0.000    7.000 
#    0.000    1.875    0.000    5.250    0.000    0.000 
#    0.000    0.000    0.000    0.000    0.000    0.000 
#
# Total GULP energy -396733.442650 kJ/mol
# GULP energy per Si atom -12397.920083 kJ/mol
# Density = 1.973891 g / cm^3
# Si number density = 19.783939 Si / 1000 Ang^3
#
#
#
# Elastic Constant Matrix: (Units=GPa)
#
#
# Indices 1 2 3 4 5 6 
#
# 1 124.1510 41.3460 27.6395 0.0000 5.9516 0.0000
# 2 41.3460 108.5220 27.4596 0.0000 -0.2774 0.0000
# 3 27.6395 27.4596 70.8670 0.0000 6.2504 0.0000
# 4 0.0000 0.0000 0.0000 24.4480 0.0000 -4.9558
# 5 5.9516 -0.2774 6.2504 0.0000 26.2114 0.0000
# 6 0.0000 0.0000 0.0000 -4.9558 0.0000 26.8209
#
#
#
# Elastic Compliance Matrix: (Units=1/GPa)
#
#
# Indices 1 2 3 4 5 6 
#
# 1 0.009705 -0.003083 -0.002445 0.000000 -0.001653 0.000000
# 2 -0.003083 0.011226 -0.003289 0.000000 0.001603 0.000000
# 3 -0.002445 -0.003289 0.016643 0.000000 -0.003448 0.000000
# 4 0.000000 0.000000 0.000000 0.042495 0.000000 0.007852
# 5 -0.001653 0.001603 -0.003448 0.000000 0.039366 0.000000
# 6 0.000000 0.000000 0.000000 0.007852 0.000000 0.038735
#
#
# Mechanical properties :
#
#
# Convention : Reuss Voigt Hill
#
# Bulk Modulus (GPa) = 50.14900 55.15892 52.65396
# Shear Modulus (GPa) = 27.40490 29.30240 28.35365
#
# Velocity S-wave (km/s) = 3.72588 3.85271 3.78982
# Velocity P-wave (km/s) = 6.62668 6.90886 6.76924
#
# Compressibility (1/GPa) = 0.01994058
#
# Stress axis : x y z
#
# Youngs Moduli (GPa) = 103.03971 89.08201 60.08600
#
# Poissons Ratio (x) = 0.27466 0.14689
# Poissons Ratio (y) = 0.31769 0.19760
# Poissons Ratio (z) = 0.25189 0.29296
#
# Static dielectric constant tensor:
#      x y z
#    x 3.631710 0.000000 0.278070 
#    y 0.000000 3.478610 0.000000 
#    z 0.278070 0.000000 3.896150 
# 
# 
# High freq. dielectric constant tensor:
#      x y z
#    x 1.766050 0.000000 0.011210 
#    y 0.000000 1.757720 0.000000 
#    z 0.011210 0.000000 1.774270 
# 
# From -- ./inp_files/238588.got.cif
#   From: 2010.06.25/outbox.cif.g09.slc.cpg/sg12_120_cif.got.tgz:238588.got - 2010.06.28 00:19:55.
