data_PCOD8092106
_publ_section_title
;
Structure prediction by ZEFSAII (Michael W. Deem and Ramdas Pophale) SiO2 
 PCOD8092106
Probable space group: C 2/M
;
_chemical_formula_sum "Si O2"
_cell_formula_units_Z 40
_cell_length_a 22.748725
_cell_length_b 8.979471
_cell_length_c 10.214020
_cell_angle_alpha 90.000000
_cell_angle_beta 89.927007
_cell_angle_gamma 90.000000
_cell_volume 2086.431661
_symmetry_space_group_name_H-M "C 2/M"
_symmetry_group_IT_number 12
_symmetry_cell_setting 'monoclinic'
loop_
_space_group_symop_operation_xyz
x,y,z
-x,y,-z
-x,-y,-z
x,-y,z
1/2+x,1/2+y,z
1/2-x,1/2+y,-z
1/2-x,1/2-y,-z
1/2+x,1/2-y,z
loop_
_atom_site_type_symbol
_atom_site_label
_atom_site_fract_x
_atom_site_fract_y
_atom_site_fract_z
Si Si1 0.870996 0.324870 0.228399
Si Si2 0.067661 0.322881 0.510517
Si Si3 0.067873 0.668026 0.029365
Si Si4 0.245711 0.174456 0.140381
Si Si5 0.623503 0.675614 0.262919
O O1 0.881922 0.500000 0.227593
O O2 0.904676 0.259775 0.354483
O O3 0.801937 0.283799 0.230207
O O4 0.898528 0.260032 0.094662
O O5 0.071835 0.500000 0.500352
O O6 0.107377 0.253850 0.397676
O O7 0.000000 0.269961 0.500000
O O8 0.090564 0.500000 0.059510
O O9 0.077657 0.772857 0.153339
O O10 0.000000 0.664414 0.000000
O O11 0.188547 0.228489 0.219563
O O12 0.243061 0.000000 0.112995
O O13 0.250000 0.250000 0.000000
O O14 0.619570 0.500000 0.281724
#
# Coordination Sequence:
#
# PCOD8092106 Si02
#       5
#     8   8   8   8   8
#     4   9  18  34  57  82 109 144 189 240 279 319
#     4  10  21  39  61  83 110 148 194 237 279 334
#     4  10  19  34  59  85 107 143 195 239 277 330
#     4  10  20  36  57  82 114 149 189 234 282 335
#     4  11  23  36  54  84 119 151 183 229 290 345
#
# _framework density 19.171488
#
# number of rings (size 3 to 8) (size 9 to 14) (size 15 to 20)
#    0.000    2.000    2.000    1.800    0.000    5.600 
#    0.000    2.000    0.000    0.000    0.000    0.000 
#    0.000    0.000    0.000    0.000    0.000    0.000 
#
# Total GULP energy -248015.357633 kJ/mol
# GULP energy per Si atom -12400.767882 kJ/mol
# Density = 1.912785 g / cm^3
# Si number density = 19.171488 Si / 1000 Ang^3
#
#
#
# Elastic Constant Matrix: (Units=GPa)
#
#
# Indices 1 2 3 4 5 6 
#
# 1 101.4395 24.6792 31.7341 0.0000 1.3269 0.0000
# 2 24.6792 27.4706 21.9226 0.0000 -3.1919 0.0000
# 3 31.7341 21.9226 113.9458 0.0000 2.9121 0.0000
# 4 0.0000 0.0000 0.0000 21.5323 0.0000 -16.3407
# 5 1.3269 -3.1919 2.9121 0.0000 41.4281 0.0000
# 6 0.0000 0.0000 0.0000 -16.3407 0.0000 -7.6539
#
#
#
# Elastic Compliance Matrix: (Units=1/GPa)
#
#
# Indices 1 2 3 4 5 6 
#
# 1 0.012909 -0.010491 -0.001548 0.000000 -0.001113 0.000000
# 2 -0.010491 0.052171 -0.007240 0.000000 0.004865 0.000000
# 3 -0.001548 -0.007240 0.010632 0.000000 -0.001256 0.000000
# 4 0.000000 0.000000 0.000000 0.017725 0.000000 -0.037841
# 5 -0.001113 0.004865 -0.001256 0.000000 0.024637 0.000000
# 6 0.000000 0.000000 0.000000 -0.037841 0.000000 -0.049864
#
#
# Mechanical properties :
#
#
# Convention : Reuss Voigt Hill
#
# Bulk Modulus (GPa) = 26.91544 44.39198 35.65371
# Shear Modulus (GPa) = 41.96248 22.02930 31.99589
#
# Velocity S-wave (km/s) = 4.68353 3.39346 4.08969
# Velocity P-wave (km/s) = 6.58157 6.20964 6.39831
#
# Compressibility (1/GPa) = 0.03715339
#
# Stress axis : x y z
#
# Youngs Moduli (GPa) = 77.46242 19.16782 94.05271
#
# Poissons Ratio (x) = 0.20110 0.14563
# Poissons Ratio (y) = 0.81268 0.68093
# Poissons Ratio (z) = 0.11994 0.13877
#
# Static dielectric constant tensor:
#      x y z
#    x 3.785610 0.000000 0.002490 
#    y 0.000000 3.280280 0.000000 
#    z 0.002490 0.000000 3.621540 
# 
# 
# High freq. dielectric constant tensor:
#      x y z
#    x 1.761760 0.000000 -0.002220 
#    y 0.000000 1.715250 0.000000 
#    z -0.002220 0.000000 1.751380 
# 
# From -- ./inp_files/92705.got.cif
#   From: 2010.06.25/outbox.cif.g09.slc.cpg/sg12_47_cif.got.tgz:92705.got - 2010.06.28 00:19:55.
