data_PCOD8092895
_publ_section_title
;
Structure prediction by ZEFSAII (Michael W. Deem and Ramdas Pophale) SiO2 
 PCOD8092895
Probable space group: C 2/M
;
_chemical_formula_sum "Si O2"
_cell_formula_units_Z 56
_cell_length_a 20.568825
_cell_length_b 8.822829
_cell_length_c 17.504377
_cell_angle_alpha 90.000000
_cell_angle_beta 71.077596
_cell_angle_gamma 90.000000
_cell_volume 3004.942360
_symmetry_space_group_name_H-M "C 2/M"
_symmetry_group_IT_number 12
_symmetry_cell_setting 'monoclinic'
loop_
_space_group_symop_operation_xyz
x,y,z
-x,y,-z
-x,-y,-z
x,-y,z
1/2+x,1/2+y,z
1/2-x,1/2+y,-z
1/2-x,1/2-y,-z
1/2+x,1/2-y,z
loop_
_atom_site_type_symbol
_atom_site_label
_atom_site_fract_x
_atom_site_fract_y
_atom_site_fract_z
Si Si1 0.910345 0.320368 0.591149
Si Si2 0.668922 0.822467 0.822461
Si Si3 0.923624 0.177277 0.263972
Si Si4 0.825772 0.178160 0.749197
Si Si5 0.054328 0.178580 0.573093
Si Si6 0.927678 0.179421 0.843440
Si Si7 0.075527 0.679215 0.995678
O O1 0.919423 0.500000 0.588000
O O2 0.844889 0.270006 0.665505
O O3 0.899870 0.262312 0.508314
O O4 0.977054 0.241337 0.601730
O O5 0.638952 0.751866 0.756823
O O6 0.748295 0.778310 0.800682
O O7 0.628889 0.760443 0.911927
O O8 0.657875 0.000000 0.820097
O O9 0.913005 0.214694 0.357217
O O10 0.996796 0.242456 0.206910
O O11 0.922126 0.000000 0.249533
O O12 0.874096 0.233392 0.799686
O O13 0.834409 0.000000 0.729904
O O14 0.051752 0.000000 0.557661
O O15 0.927773 0.000000 0.849412
O O16 0.902888 0.247613 0.932725
O O17 0.078361 0.500000 0.003782
O O18 0.000000 0.734826 0.000000
#
# Coordination Sequence:
#
# PCOD8092895 Si02
#       7
#     8   8   8   8   8   8   8
#     4  11  21  33  54  87 117 143 182 236 281 321
#     4  10  22  38  58  80 111 152 186 227 280 338
#     4  10  20  35  57  84 110 142 187 231 272 324
#     4  10  21  40  58  78 112 153 190 222 278 343
#     4  10  19  35  58  83 113 151 187 225 275 332
#     4  10  20  35  57  82 107 144 189 230 269 327
#     4  10  20  35  54  82 114 143 181 230 283 330
#
# _framework density 18.635966
#
# number of rings (size 3 to 8) (size 9 to 14) (size 15 to 20)
#    0.000    1.857    2.857    2.571    0.000    3.714 
#    0.000    0.714    0.000    0.000    0.000    0.000 
#    0.000    0.000    0.000    0.000    0.000    0.000 
#
# Total GULP energy -347288.914440 kJ/mol
# GULP energy per Si atom -12403.175516 kJ/mol
# Density = 1.859355 g / cm^3
# Si number density = 18.635966 Si / 1000 Ang^3
#
#
#
# Elastic Constant Matrix: (Units=GPa)
#
#
# Indices 1 2 3 4 5 6 
#
# 1 99.1530 25.6709 55.2559 0.0000 7.6076 0.0000
# 2 25.6709 39.5139 35.3259 0.0000 4.0461 0.0000
# 3 55.2559 35.3259 140.8690 0.0000 7.5135 0.0000
# 4 0.0000 0.0000 0.0000 25.9806 0.0000 4.6443
# 5 7.6076 4.0461 7.5135 0.0000 28.3926 0.0000
# 6 0.0000 0.0000 0.0000 4.6443 0.0000 23.3702
#
#
#
# Elastic Compliance Matrix: (Units=1/GPa)
#
#
# Indices 1 2 3 4 5 6 
#
# 1 0.013812 -0.005189 -0.004015 0.000000 -0.001899 0.000000
# 2 -0.005189 0.034749 -0.006582 0.000000 -0.001820 0.000000
# 3 -0.004015 -0.006582 0.010363 0.000000 -0.000729 0.000000
# 4 0.000000 0.000000 0.000000 0.039908 0.000000 -0.007931
# 5 -0.001899 -0.001820 -0.000729 0.000000 0.036181 0.000000
# 6 0.000000 0.000000 0.000000 -0.007931 0.000000 0.044366
#
#
# Mechanical properties :
#
#
# Convention : Reuss Voigt Hill
#
# Bulk Modulus (GPa) = 36.55983 56.89347 46.72665
# Shear Modulus (GPa) = 22.72013 26.43422 24.57717
#
# Velocity S-wave (km/s) = 3.49543 3.77032 3.63547
# Velocity P-wave (km/s) = 5.99593 7.03910 6.53835
#
# Compressibility (1/GPa) = 0.02735242
#
# Stress axis : x y z
#
# Youngs Moduli (GPa) = 72.39954 28.77764 96.49607
#
# Poissons Ratio (x) = 0.14933 0.38746
# Poissons Ratio (y) = 0.37570 0.63510
# Poissons Ratio (z) = 0.29070 0.18940
#
# Static dielectric constant tensor:
#      x y z
#    x 3.300090 0.000000 0.054370 
#    y 0.000000 3.271880 0.000000 
#    z 0.054370 0.000000 3.643530 
# 
# 
# High freq. dielectric constant tensor:
#      x y z
#    x 1.707630 0.000000 0.010230 
#    y 0.000000 1.716030 0.000000 
#    z 0.010230 0.000000 1.736080 
# 
# From -- ./inp_files/313707.got.cif
#   From: 2010.06.25/outbox.cif.g09.slc.cpg/sg12_157_cif.got.tgz:313707.got - 2010.06.28 00:19:55.
