data_PCOD8092727
_publ_section_title
;
Structure prediction by ZEFSAII (Michael W. Deem and Ramdas Pophale) SiO2 
 PCOD8092727
Probable space group: C 2/M
;
_chemical_formula_sum "Si O2"
_cell_formula_units_Z 48
_cell_length_a 18.810314
_cell_length_b 9.070276
_cell_length_c 14.953042
_cell_angle_alpha 90.000000
_cell_angle_beta 99.565524
_cell_angle_gamma 90.000000
_cell_volume 2515.737880
_symmetry_space_group_name_H-M "C 2/M"
_symmetry_group_IT_number 12
_symmetry_cell_setting 'monoclinic'
loop_
_space_group_symop_operation_xyz
x,y,z
-x,y,-z
-x,-y,-z
x,-y,z
1/2+x,1/2+y,z
1/2-x,1/2+y,-z
1/2-x,1/2-y,-z
1/2+x,1/2-y,z
loop_
_atom_site_type_symbol
_atom_site_label
_atom_site_fract_x
_atom_site_fract_y
_atom_site_fract_z
Si Si1 0.794142 0.335853 0.438735
Si Si2 0.233507 0.174441 0.245281
Si Si3 0.427560 0.675799 0.745402
Si Si4 0.196821 0.325382 0.920751
Si Si5 0.055011 0.332335 0.439721
Si Si6 0.530682 0.173446 0.909170
O O1 0.762370 0.500000 0.429412
O O2 0.750000 0.250000 0.500000
O O3 0.780700 0.265854 0.338318
O O4 0.875360 0.331641 0.484522
O O5 0.150854 0.230455 0.236392
O O6 0.275258 0.236723 0.168244
O O7 0.233327 0.000000 0.239274
O O8 0.433379 0.500000 0.745391
O O9 0.440071 0.733498 0.647461
O O10 0.487393 0.740320 0.823986
O O11 0.204241 0.500000 0.930933
O O12 0.114207 0.277564 0.920633
O O13 0.250000 0.250000 0.000000
O O14 0.034863 0.500000 0.406683
O O15 0.000000 0.264431 0.500000
O O16 0.521744 0.000000 0.889494
O O17 0.500000 0.217461 0.000000
#
# Coordination Sequence:
#
# PCOD8092727 Si02
#       6
#     8   8   8   8   8   8
#     4  10  19  35  57  81 111 147 189 230 274 329
#     4   9  19  35  56  81 110 148 187 226 278 331
#     4  11  22  37  58  83 114 150 188 234 283 335
#     4  10  21  38  61  84 112 146 183 231 278 331
#     4  10  22  37  58  84 112 151 193 233 279 336
#     4  10  22  39  60  86 116 149 186 231 282 336
#
# _framework density 19.079889999999999
#
# number of rings (size 3 to 8) (size 9 to 14) (size 15 to 20)
#    0.000    2.000    1.667    1.500    2.333    1.333 
#    0.000    1.667    0.000    0.000    0.000    0.000 
#    0.000    0.000    0.000    0.000    0.000    0.000 
#
# Total GULP energy -297498.961697 kJ/mol
# GULP energy per Si atom -12395.790071 kJ/mol
# Density = 1.903646 g / cm^3
# Si number density = 19.079890 Si / 1000 Ang^3
#
#
#
# Elastic Constant Matrix: (Units=GPa)
#
#
# Indices 1 2 3 4 5 6 
#
# 1 143.9376 44.6263 96.1702 0.0000 -15.5231 0.0000
# 2 44.6263 48.6422 47.5358 0.0000 2.4230 0.0000
# 3 96.1702 47.5358 186.5417 0.0000 -5.4627 0.0000
# 4 0.0000 0.0000 0.0000 32.3884 0.0000 2.4584
# 5 -15.5231 2.4230 -5.4627 0.0000 44.2553 0.0000
# 6 0.0000 0.0000 0.0000 2.4584 0.0000 23.4576
#
#
#
# Elastic Compliance Matrix: (Units=1/GPa)
#
#
# Indices 1 2 3 4 5 6 
#
# 1 0.012778 -0.007490 -0.004552 0.000000 0.004330 0.000000
# 2 -0.007490 0.032016 -0.004441 0.000000 -0.004928 0.000000
# 3 -0.004552 -0.004441 0.008832 0.000000 -0.000263 0.000000
# 4 0.000000 0.000000 0.000000 0.031123 0.000000 -0.003262
# 5 0.004330 -0.004928 -0.000263 0.000000 0.024352 0.000000
# 6 0.000000 0.000000 0.000000 -0.003262 0.000000 0.042972
#
#
# Mechanical properties :
#
#
# Convention : Reuss Voigt Hill
#
# Bulk Modulus (GPa) = 48.40682 83.97622 66.19152
# Shear Modulus (GPa) = 26.05164 32.73956 29.39560
#
# Velocity S-wave (km/s) = 3.69914 4.14686 3.92938
# Velocity P-wave (km/s) = 6.60837 8.18762 7.44001
#
# Compressibility (1/GPa) = 0.02065825
#
# Stress axis : x y z
#
# Youngs Moduli (GPa) = 78.25801 31.23448 113.22968
#
# Poissons Ratio (x) = 0.23396 0.51544
# Poissons Ratio (y) = 0.58618 0.50288
# Poissons Ratio (z) = 0.35624 0.13872
#
# Static dielectric constant tensor:
#      x y z
#    x 3.766240 0.000000 -0.447510 
#    y 0.000000 3.313790 0.000000 
#    z -0.447510 0.000000 4.355870 
# 
# 
# High freq. dielectric constant tensor:
#      x y z
#    x 1.756020 0.000000 0.000110 
#    y 0.000000 1.717230 0.000000 
#    z 0.000110 0.000000 1.760990 
# 
# From -- ./inp_files/221635.got.cif
#   From: 2010.06.25/outbox.cif.g09.slc.cpg/sg12_111_cif.got.tgz:221635.got - 2010.06.28 00:19:55.
