data_PCOD8092674
_publ_section_title
;
Structure prediction by ZEFSAII (Michael W. Deem and Ramdas Pophale) SiO2 
 PCOD8092674
Probable space group: C 2/M
;
_chemical_formula_sum "Si O2"
_cell_formula_units_Z 64
_cell_length_a 14.778916
_cell_length_b 9.016545
_cell_length_c 34.183598
_cell_angle_alpha 90.000000
_cell_angle_beta 130.427524
_cell_angle_gamma 90.000000
_cell_volume 3467.485225
_symmetry_space_group_name_H-M "C 2/M"
_symmetry_group_IT_number 12
_symmetry_cell_setting 'monoclinic'
loop_
_space_group_symop_operation_xyz
x,y,z
-x,y,-z
-x,-y,-z
x,-y,z
1/2+x,1/2+y,z
1/2-x,1/2+y,-z
1/2-x,1/2-y,-z
1/2+x,1/2-y,z
loop_
_atom_site_type_symbol
_atom_site_label
_atom_site_fract_x
_atom_site_fract_y
_atom_site_fract_z
Si Si1 0.360680 0.826466 0.576873
Si Si2 0.217440 0.172475 0.243612
Si Si3 0.035354 0.175416 0.685498
Si Si4 0.786892 0.824052 0.129536
Si Si5 0.898321 0.829102 0.871891
Si Si6 0.507499 0.674627 0.239950
Si Si7 0.614401 0.826741 0.506537
Si Si8 0.672305 0.673611 0.945557
O O1 0.460834 0.755598 0.631531
O O2 0.402427 0.792827 0.544169
O O3 0.233254 0.758214 0.553060
O O4 0.352552 0.000000 0.582428
O O5 0.328373 0.278994 0.280221
O O6 0.149897 0.207746 0.184603
O O7 0.130600 0.218294 0.254429
O O8 0.255258 0.000000 0.256636
O O9 0.989269 0.232257 0.714710
O O10 0.022588 0.000000 0.676860
O O11 0.664185 0.772886 0.113771
O O12 0.790757 0.763646 0.086471
O O13 0.896306 0.754983 0.185216
O O14 0.795754 0.000000 0.131790
O O15 0.035326 0.787140 0.913314
O O16 0.875473 0.000000 0.875719
O O17 0.488976 0.500000 0.234252
O O18 0.500000 0.772162 0.500000
O O19 0.635452 0.000000 0.520212
O O20 0.695267 0.500000 0.954541
O O21 0.750000 0.750000 0.000000
#
# Coordination Sequence:
#
# PCOD8092674 Si02
#       8
#     8   8   8   8   8   8   8   8
#     4  10  21  37  57  84 117 149 184 233 282 324
#     4  10  19  35  57  79 105 142 185 225 272 326
#     4  11  22  36  55  82 116 149 185 228 274 328
#     4  10  19  36  59  80 105 141 184 222 267 330
#     4  10  20  35  57  82 107 138 176 226 279 326
#     4   9  18  34  56  78 104 144 185 220 266 327
#     4   9  19  38  63  85 109 148 195 232 274 331
#     4  10  22  39  58  80 110 144 181 227 278 332
#
# _framework density 18.457180999999999
#
# number of rings (size 3 to 8) (size 9 to 14) (size 15 to 20)
#    0.000    2.125    2.500    0.750    0.000    3.250 
#    0.000    9.375    0.000    0.000    0.000    0.000 
#    0.000    0.000    0.000    0.000    0.000    0.000 
#
# Total GULP energy -396823.405046 kJ/mol
# GULP energy per Si atom -12400.731408 kJ/mol
# Density = 1.841517 g / cm^3
# Si number density = 18.457181 Si / 1000 Ang^3
#
#
#
# Elastic Constant Matrix: (Units=GPa)
#
#
# Indices 1 2 3 4 5 6 
#
# 1 171.2324 51.6420 107.9340 0.0000 1.4816 0.0000
# 2 51.6420 44.6226 65.2555 0.0000 5.1495 0.0000
# 3 107.9340 65.2555 193.3789 0.0000 14.6194 0.0000
# 4 0.0000 0.0000 0.0000 31.7656 0.0000 4.3849
# 5 1.4816 5.1495 14.6194 0.0000 28.8387 0.0000
# 6 0.0000 0.0000 0.0000 4.3849 0.0000 32.9883
#
#
#
# Elastic Compliance Matrix: (Units=1/GPa)
#
#
# Indices 1 2 3 4 5 6 
#
# 1 0.010095 -0.006821 -0.003520 0.000000 0.002484 0.000000
# 2 -0.006821 0.048856 -0.012526 0.000000 -0.002023 0.000000
# 3 -0.003520 -0.012526 0.011626 0.000000 -0.003476 0.000000
# 4 0.000000 0.000000 0.000000 0.032069 0.000000 -0.004263
# 5 0.002484 -0.002023 -0.003476 0.000000 0.036671 0.000000
# 6 0.000000 0.000000 0.000000 -0.004263 0.000000 0.030880
#
#
# Mechanical properties :
#
#
# Convention : Reuss Voigt Hill
#
# Bulk Modulus (GPa) = 40.25596 95.43300 67.84448
# Shear Modulus (GPa) = 22.30019 31.01201 26.65610
#
# Velocity S-wave (km/s) = 3.47971 4.10349 3.80440
# Velocity P-wave (km/s) = 6.16460 8.61794 7.49237
#
# Compressibility (1/GPa) = 0.02484104
#
# Stress axis : x y z
#
# Youngs Moduli (GPa) = 99.06145 20.46829 86.01587
#
# Poissons Ratio (x) = 0.13962 0.30280
# Poissons Ratio (y) = 0.67573 1.07745
# Poissons Ratio (z) = 0.34873 0.25639
#
# Static dielectric constant tensor:
#      x y z
#    x 3.529660 0.000000 -0.185960 
#    y 0.000000 3.237630 0.000000 
#    z -0.185960 0.000000 3.391630 
# 
# 
# High freq. dielectric constant tensor:
#      x y z
#    x 1.727810 0.000000 -0.002060 
#    y 0.000000 1.699080 0.000000 
#    z -0.002060 0.000000 1.719910 
# 
# From -- ./inp_files/375520.got.cif
#   From: 2010.06.25/outbox.cif.g09.slc.cpg/sg12_188_cif.got.tgz:375520.got - 2010.06.28 00:19:55.
