data_PCOD8092648
_publ_section_title
;
Structure prediction by ZEFSAII (Michael W. Deem and Ramdas Pophale) SiO2 
 PCOD8092648
Probable space group: C 2/M
;
_chemical_formula_sum "Si O2"
_cell_formula_units_Z 56
_cell_length_a 27.389726
_cell_length_b 8.755141
_cell_length_c 13.735577
_cell_angle_alpha 90.000000
_cell_angle_beta 120.358635
_cell_angle_gamma 90.000000
_cell_volume 2842.153490
_symmetry_space_group_name_H-M "C 2/M"
_symmetry_group_IT_number 12
_symmetry_cell_setting 'monoclinic'
loop_
_space_group_symop_operation_xyz
x,y,z
-x,y,-z
-x,-y,-z
x,-y,z
1/2+x,1/2+y,z
1/2-x,1/2+y,-z
1/2-x,1/2-y,-z
1/2+x,1/2-y,z
loop_
_atom_site_type_symbol
_atom_site_label
_atom_site_fract_x
_atom_site_fract_y
_atom_site_fract_z
Si Si1 0.775291 0.681554 0.737224
Si Si2 0.440039 0.681552 0.403825
Si Si3 0.345395 0.681407 0.455758
Si Si4 0.128362 0.320710 0.311226
Si Si5 0.911113 0.821729 0.158533
Si Si6 0.515888 0.676048 0.125793
Si Si7 0.295866 0.819735 0.975045
O O1 0.774818 0.500000 0.738461
O O2 0.716015 0.745596 0.636308
O O3 0.825455 0.741901 0.718832
O O4 0.784881 0.745040 0.855552
O O5 0.500000 0.749304 0.500000
O O6 0.441941 0.500000 0.409746
O O7 0.390905 0.745157 0.424375
O O8 0.428260 0.736837 0.282630
O O9 0.345488 0.500000 0.455465
O O10 0.362087 0.736848 0.578341
O O11 0.134833 0.500000 0.333980
O O12 0.066651 0.284276 0.208564
O O13 0.858233 0.725066 0.070126
O O14 0.962557 0.786577 0.138918
O O15 0.894856 0.000000 0.142792
O O16 0.534549 0.500000 0.155753
O O17 0.500000 0.716537 0.000000
O O18 0.289158 0.000000 0.970387
O O19 0.250000 0.750000 0.000000
#
# Coordination Sequence:
#
# PCOD8092648 Si02
#       7
#     8   8   8   8   8   8   8
#     4   9  20  37  56  78 107 147 187 222 268 332
#     4   9  17  31  54  80 105 140 183 223 269 328
#     4  10  19  35  57  77 103 141 185 229 271 321
#     4  11  22  36  55  81 112 144 181 226 279 331
#     4  10  20  36  58  83 111 144 184 226 271 326
#     4  10  21  37  58  84 112 144 185 229 271 321
#     4  11  22  38  59  83 112 145 183 224 271 325
#
# _framework density 19.703368999999999
#
# number of rings (size 3 to 8) (size 9 to 14) (size 15 to 20)
#    0.000    2.000    0.000    3.857    0.000    5.429 
#    0.000    6.429    0.000    1.714    0.000    0.000 
#    0.000    0.000    0.000    0.000    0.000    0.000 
#
# Total GULP energy -347305.562091 kJ/mol
# GULP energy per Si atom -12403.770075 kJ/mol
# Density = 1.965852 g / cm^3
# Si number density = 19.703369 Si / 1000 Ang^3
#
#
#
# Elastic Constant Matrix: (Units=GPa)
#
#
# Indices 1 2 3 4 5 6 
#
# 1 156.9244 25.6954 87.8646 0.0000 -9.6039 0.0000
# 2 25.6954 24.4366 15.7643 0.0000 -1.1424 0.0000
# 3 87.8646 15.7643 165.1077 0.0000 -11.5650 0.0000
# 4 0.0000 0.0000 0.0000 23.3400 0.0000 5.0721
# 5 -9.6039 -1.1424 -11.5650 0.0000 46.7704 0.0000
# 6 0.0000 0.0000 0.0000 5.0721 0.0000 23.8338
#
#
#
# Elastic Compliance Matrix: (Units=1/GPa)
#
#
# Indices 1 2 3 4 5 6 
#
# 1 0.010325 -0.007791 -0.004697 0.000000 0.000768 0.000000
# 2 -0.007791 0.049487 -0.000617 0.000000 -0.000544 0.000000
# 3 -0.004697 -0.000617 0.008697 0.000000 0.001171 0.000000
# 4 0.000000 0.000000 0.000000 0.044922 0.000000 -0.009560
# 5 0.000768 -0.000544 0.001171 0.000000 0.021815 0.000000
# 6 0.000000 0.000000 0.000000 -0.009560 0.000000 0.043992
#
#
# Mechanical properties :
#
#
# Convention : Reuss Voigt Hill
#
# Bulk Modulus (GPa) = 23.64089 67.23525 45.43807
# Shear Modulus (GPa) = 22.77399 33.26513 28.01956
#
# Velocity S-wave (km/s) = 3.40346 4.11335 3.77512
# Velocity P-wave (km/s) = 5.24110 7.53374 6.48947
#
# Compressibility (1/GPa) = 0.04229958
#
# Stress axis : x y z
#
# Youngs Moduli (GPa) = 96.85042 20.20724 114.98002
#
# Poissons Ratio (x) = 0.15744 0.54006
# Poissons Ratio (y) = 0.75457 0.07093
# Poissons Ratio (z) = 0.45491 0.01247
#
# Static dielectric constant tensor:
#      x y z
#    x 3.830800 0.000000 -0.017350 
#    y 0.000000 3.247590 0.000000 
#    z -0.017350 0.000000 3.824640 
# 
# 
# High freq. dielectric constant tensor:
#      x y z
#    x 1.788880 0.000000 -0.002640 
#    y 0.000000 1.731650 0.000000 
#    z -0.002640 0.000000 1.788250 
# 
# From -- ./inp_files/180662.got.cif
#   From: 2010.06.25/outbox.cif.g09.slc.cpg/sg12_91_cif.got.tgz:180662.got - 2010.06.28 00:19:55.
