data_PCOD8092367
_publ_section_title
;
Structure prediction by ZEFSAII (Michael W. Deem and Ramdas Pophale) SiO2 
 PCOD8092367
Probable space group: C 2/M
;
_chemical_formula_sum "Si O2"
_cell_formula_units_Z 64
_cell_length_a 27.273739
_cell_length_b 14.574209
_cell_length_c 14.243398
_cell_angle_alpha 90.000000
_cell_angle_beta 39.127250
_cell_angle_gamma 90.000000
_cell_volume 3572.757118
_symmetry_space_group_name_H-M "C 2/M"
_symmetry_group_IT_number 12
_symmetry_cell_setting 'monoclinic'
loop_
_space_group_symop_operation_xyz
x,y,z
-x,y,-z
-x,-y,-z
x,-y,z
1/2+x,1/2+y,z
1/2-x,1/2+y,-z
1/2-x,1/2-y,-z
1/2+x,1/2-y,z
loop_
_atom_site_type_symbol
_atom_site_label
_atom_site_fract_x
_atom_site_fract_y
_atom_site_fract_z
Si Si1 0.320233 0.100470 0.785160
Si Si2 0.069101 0.698904 0.244391
Si Si3 0.129610 0.395252 0.630950
Si Si4 0.183424 0.894126 0.321629
Si Si5 0.194355 0.836413 0.092886
Si Si6 0.174938 0.607743 0.759593
Si Si7 0.109058 0.716984 0.477766
Si Si8 0.048372 0.603664 0.085915
O O1 0.382296 0.121303 0.774447
O O2 0.332591 0.176102 0.686629
O O3 0.338116 0.000000 0.716935
O O4 0.231443 0.097445 0.958171
O O5 0.106358 0.801012 0.203753
O O6 0.071565 0.674953 0.131854
O O7 0.980273 0.694203 0.412504
O O8 0.152129 0.500000 0.566620
O O9 0.181042 0.356787 0.642327
O O10 0.138238 0.324458 0.532764
O O11 0.042433 0.395078 0.799681
O O12 0.199517 0.883389 0.186947
O O13 0.256818 0.859405 0.273206
O O14 0.115314 0.827542 0.460826
O O15 0.161191 0.000000 0.375069
O O16 0.250000 0.750000 0.000000
O O17 0.177568 0.500000 0.745945
O O18 0.093350 0.638155 0.926721
O O19 0.074964 0.500000 0.074324
#
# Coordination Sequence:
#
# PCOD8092367 Si02
#       8
#     8   8   8   8   8   8   8   8
#     4  11  21  33  54  79 106 138 171 212 266 319
#     4  10  20  33  52  74 109 142 175 211 257 314
#     4   9  18  32  49  76 111 136 162 209 267 323
#     4  11  22  36  53  72  99 138 185 223 254 299
#     4  10  19  35  53  74 104 136 174 218 251 305
#     4   9  17  30  51  75 101 135 173 213 261 311
#     4  11  22  35  51  77 109 138 175 215 263 319
#     4   9  16  27  49  79 107 135 167 205 257 318
#
# _framework density 17.913336000000001
#
# number of rings (size 3 to 8) (size 9 to 14) (size 15 to 20)
#    0.000    2.000    2.500    3.375    0.000    5.000 
#    0.000    1.875    0.000    0.000    0.000    0.000 
#    0.000    2.250    0.000    0.000    0.000    0.000 
#
# Total GULP energy -396491.900967 kJ/mol
# GULP energy per Si atom -12390.371905 kJ/mol
# Density = 1.787256 g / cm^3
# Si number density = 17.913336 Si / 1000 Ang^3
#
#
#
# Elastic Constant Matrix: (Units=GPa)
#
#
# Indices 1 2 3 4 5 6 
#
# 1 90.6120 24.0040 30.0763 0.0000 13.5473 0.0000
# 2 24.0040 85.3086 26.8201 0.0000 3.3419 0.0000
# 3 30.0763 26.8201 70.9204 0.0000 10.8429 0.0000
# 4 0.0000 0.0000 0.0000 21.1116 0.0000 1.7235
# 5 13.5473 3.3419 10.8429 0.0000 17.9297 0.0000
# 6 0.0000 0.0000 0.0000 1.7235 0.0000 21.2320
#
#
#
# Elastic Compliance Matrix: (Units=1/GPa)
#
#
# Indices 1 2 3 4 5 6 
#
# 1 0.014150 -0.002457 -0.003864 0.000000 -0.007897 0.000000
# 2 -0.002457 0.013737 -0.004457 0.000000 0.001992 0.000000
# 3 -0.003864 -0.004457 0.018568 0.000000 -0.007478 0.000000
# 4 0.000000 0.000000 0.000000 0.047683 0.000000 -0.003871
# 5 -0.007897 0.001992 -0.007478 0.000000 0.065891 0.000000
# 6 0.000000 0.000000 0.000000 -0.003871 0.000000 0.047413
#
#
# Mechanical properties :
#
#
# Convention : Reuss Voigt Hill
#
# Bulk Modulus (GPa) = 40.16488 45.40463 42.78476
# Shear Modulus (GPa) = 21.07037 23.11737 22.09387
#
# Velocity S-wave (km/s) = 3.43336 3.59627 3.51575
# Velocity P-wave (km/s) = 6.17962 6.53039 6.35743
#
# Compressibility (1/GPa) = 0.02489737
#
# Stress axis : x y z
#
# Youngs Moduli (GPa) = 70.66974 72.79666 53.85578
#
# Poissons Ratio (x) = 0.17889 0.20812
# Poissons Ratio (y) = 0.17366 0.24005
# Poissons Ratio (z) = 0.27309 0.32448
#
# Static dielectric constant tensor:
#      x y z
#    x 3.560900 0.000000 -0.004150 
#    y 0.000000 3.514310 0.000000 
#    z -0.004150 0.000000 3.517810 
# 
# 
# High freq. dielectric constant tensor:
#      x y z
#    x 1.687580 0.000000 0.011920 
#    y 0.000000 1.671240 0.000000 
#    z 0.011920 0.000000 1.686920 
# 
# From -- ./inp_files/246316.got.cif
#   From: 2010.06.25/outbox.cif.g09.slc.cpg/sg12_124_cif.got.tgz:246316.got - 2010.06.28 00:19:55.
