data_PCOD8092284
_publ_section_title
;
Structure prediction by ZEFSAII (Michael W. Deem and Ramdas Pophale) SiO2 
 PCOD8092284
Probable space group: C 2/M
;
_chemical_formula_sum "Si O2"
_cell_formula_units_Z 52
_cell_length_a 15.432713
_cell_length_b 17.233870
_cell_length_c 9.949812
_cell_angle_alpha 90.000000
_cell_angle_beta 94.129084
_cell_angle_gamma 90.000000
_cell_volume 2639.436574
_symmetry_space_group_name_H-M "C 2/M"
_symmetry_group_IT_number 12
_symmetry_cell_setting 'monoclinic'
loop_
_space_group_symop_operation_xyz
x,y,z
-x,y,-z
-x,-y,-z
x,-y,z
1/2+x,1/2+y,z
1/2-x,1/2+y,-z
1/2-x,1/2-y,-z
1/2+x,1/2-y,z
loop_
_atom_site_type_symbol
_atom_site_label
_atom_site_fract_x
_atom_site_fract_y
_atom_site_fract_z
Si Si1 0.183495 0.213830 0.170475
Si Si2 0.258134 0.164243 0.439166
Si Si3 0.500000 0.305313 0.500000
Si Si4 0.147287 0.088008 0.628229
Si Si5 0.510655 0.218383 0.232116
Si Si6 0.151259 0.813308 0.876561
Si Si7 0.934158 0.412466 0.370701
O O1 0.192686 0.158578 0.302435
O O2 0.273789 0.258692 0.172297
O O3 0.103696 0.275147 0.169111
O O4 0.168805 0.163086 0.033493
O O5 0.250000 0.250000 0.500000
O O6 0.235588 0.102096 0.553602
O O7 0.354658 0.143509 0.402300
O O8 0.419788 0.358293 0.455130
O O9 0.526878 0.250548 0.382233
O O10 0.153213 0.109405 0.786310
O O11 0.117600 0.000000 0.616063
O O12 0.440337 0.268926 0.143457
O O13 0.480085 0.128757 0.246303
O O14 0.904454 0.500000 0.326278
O O15 0.000000 0.418543 0.500000
#
# Coordination Sequence:
#
# PCOD8092284 Si02
#       7
#     8   8   4   8   8   8   8
#     4  11  21  38  64  88 118 153 218 255 295 357
#     4  12  20  39  63  91 116 159 213 256 298 361
#     4  10  19  34  61  86 114 152 198 250 297 362
#     4  11  22  37  58  89 123 154 194 253 319 364
#     4  11  19  37  63  87 119 159 211 250 305 363
#     4  10  23  38  60  89 117 162 207 256 302 368
#     4  11  23  36  55  92 133 159 194 259 322 363
#
# _framework density 19.701173000000001
#
# number of rings (size 3 to 8) (size 9 to 14) (size 15 to 20)
#    0.000    1.077    5.385    3.000    0.000    0.000 
#    0.000    1.538    0.000    3.692    0.000    0.000 
#    0.000    0.000    0.000    0.000    0.000    0.000 
#
# Total GULP energy -322312.218910 kJ/mol
# GULP energy per Si atom -12396.623804 kJ/mol
# Density = 1.965633 g / cm^3
# Si number density = 19.701173 Si / 1000 Ang^3
#
#
#
# Elastic Constant Matrix: (Units=GPa)
#
#
# Indices 1 2 3 4 5 6 
#
# 1 95.3514 11.7047 18.8093 0.0000 -2.5675 0.0000
# 2 11.7047 97.1018 34.3402 0.0000 1.8553 0.0000
# 3 18.8093 34.3402 114.9543 0.0000 10.3167 0.0000
# 4 0.0000 0.0000 0.0000 88.4847 0.0000 65.3274
# 5 -2.5675 1.8553 10.3167 0.0000 23.7915 0.0000
# 6 0.0000 0.0000 0.0000 65.3274 0.0000 88.9020
#
#
#
# Elastic Compliance Matrix: (Units=1/GPa)
#
#
# Indices 1 2 3 4 5 6 
#
# 1 0.010979 -0.000741 -0.001755 0.000000 0.002003 0.000000
# 2 -0.000741 0.011574 -0.003380 0.000000 0.000483 0.000000
# 3 -0.001755 -0.003380 0.010394 0.000000 -0.004433 0.000000
# 4 0.000000 0.000000 0.000000 0.024703 0.000000 -0.018153
# 5 0.002003 0.000483 -0.004433 0.000000 0.044133 0.000000
# 6 0.000000 0.000000 0.000000 -0.018153 0.000000 0.024587
#
#
# Mechanical properties :
#
#
# Convention : Reuss Voigt Hill
#
# Bulk Modulus (GPa) = 47.18040 48.56843 47.87442
# Shear Modulus (GPa) = 34.43886 56.40587 45.42236
#
# Velocity S-wave (km/s) = 4.18552 5.35657 4.80684
# Velocity P-wave (km/s) = 6.88172 7.93494 7.42702
#
# Compressibility (1/GPa) = 0.02119524
#
# Stress axis : x y z
#
# Youngs Moduli (GPa) = 91.08641 86.40255 96.21290
#
# Poissons Ratio (x) = 0.06403 0.16883
# Poissons Ratio (y) = 0.06750 0.32515
# Poissons Ratio (z) = 0.15984 0.29200
#
# Static dielectric constant tensor:
#      x y z
#    x 3.884990 0.000000 -0.051770 
#    y 0.000000 3.442910 0.000000 
#    z -0.051770 0.000000 3.849600 
# 
# 
# High freq. dielectric constant tensor:
#      x y z
#    x 1.784920 0.000000 0.000050 
#    y 0.000000 1.731810 0.000000 
#    z 0.000050 0.000000 1.770410 
# 
# From -- ./inp_files/75279.got.cif
#   From: 2010.06.25/outbox.cif.g09.slc.cpg/sg12_38_cif.got.tgz:75279.got - 2010.06.28 00:19:55.
