data_PCOD8092839
_publ_section_title
;
Structure prediction by ZEFSAII (Michael W. Deem and Ramdas Pophale) SiO2 
 PCOD8092839
Probable space group: C 2/M
;
_chemical_formula_sum "Si O2"
_cell_formula_units_Z 48
_cell_length_a 22.844570
_cell_length_b 13.360220
_cell_length_c 19.940256
_cell_angle_alpha 90.000000
_cell_angle_beta 154.088280
_cell_angle_gamma 90.000000
_cell_volume 2659.467197
_symmetry_space_group_name_H-M "C 2/M"
_symmetry_group_IT_number 12
_symmetry_cell_setting 'monoclinic'
loop_
_space_group_symop_operation_xyz
x,y,z
-x,y,-z
-x,-y,-z
x,-y,z
1/2+x,1/2+y,z
1/2-x,1/2+y,-z
1/2-x,1/2-y,-z
1/2+x,1/2-y,z
loop_
_atom_site_type_symbol
_atom_site_label
_atom_site_fract_x
_atom_site_fract_y
_atom_site_fract_z
Si Si1 0.952295 0.116108 0.876762
Si Si2 0.834152 0.310995 0.395392
Si Si3 0.379871 0.885416 0.298802
Si Si4 0.315695 0.615675 0.128653
Si Si5 0.653061 0.302619 0.979239
Si Si6 0.546277 0.610104 0.471579
O O1 0.795765 0.138962 0.705996
O O2 0.032443 0.183107 0.906605
O O3 0.981994 0.000000 0.893046
O O4 0.000000 0.146403 0.000000
O O5 0.832669 0.319373 0.313289
O O6 0.838811 0.193453 0.420290
O O7 0.965316 0.366092 0.559963
O O8 0.358807 0.000000 0.297908
O O9 0.288639 0.858677 0.141739
O O10 0.270948 0.500000 0.080848
O O11 0.387635 0.648294 0.133529
O O12 0.419062 0.636834 0.294877
O O13 0.183604 0.684068 0.003707
O O14 0.500000 0.612628 0.500000
O O15 0.603559 0.500000 0.511828
#
# Coordination Sequence:
#
# PCOD8092839 Si02
#       6
#     8   8   8   8   8   8
#     4  11  22  35  54  84 123 155 178 225 293 350
#     4  11  19  33  52  83 113 145 184 230 279 330
#     4  11  19  31  54  83 112 143 185 235 278 331
#     4  10  21  38  61  85 111 149 195 239 281 332
#     4  11  21  37  60  86 115 150 188 233 284 344
#     4  10  19  35  58  81 106 145 195 239 277 322
#
# _framework density 18.048729000000002
#
# number of rings (size 3 to 8) (size 9 to 14) (size 15 to 20)
#    0.000    1.333    5.000    3.500    0.000    0.000 
#    0.000    1.667    0.000    1.000    0.000    0.000 
#    0.000    0.000    0.000    0.000    0.000    0.000 
#
# Total GULP energy -297622.221083 kJ/mol
# GULP energy per Si atom -12400.925878 kJ/mol
# Density = 1.800765 g / cm^3
# Si number density = 18.048729 Si / 1000 Ang^3
#
#
#
# Elastic Constant Matrix: (Units=GPa)
#
#
# Indices 1 2 3 4 5 6 
#
# 1 106.8838 36.5362 48.7822 0.0000 5.4416 0.0000
# 2 36.5362 123.6238 27.2482 0.0000 0.7514 0.0000
# 3 48.7822 27.2482 88.8397 0.0000 -2.4583 0.0000
# 4 0.0000 0.0000 0.0000 28.2938 0.0000 -1.8974
# 5 5.4416 0.7514 -2.4583 0.0000 35.3681 0.0000
# 6 0.0000 0.0000 0.0000 -1.8974 0.0000 20.3722
#
#
#
# Elastic Compliance Matrix: (Units=1/GPa)
#
#
# Indices 1 2 3 4 5 6 
#
# 1 0.013359 -0.002468 -0.006646 0.000000 -0.002465 0.000000
# 2 -0.002468 0.009136 -0.001445 0.000000 0.000085 0.000000
# 3 -0.006646 -0.001445 0.015408 0.000000 0.002124 0.000000
# 4 0.000000 0.000000 0.000000 0.035566 0.000000 0.003313
# 5 -0.002465 0.000085 0.002124 0.000000 0.028799 0.000000
# 6 0.000000 0.000000 0.000000 0.003313 0.000000 0.049395
#
#
# Mechanical properties :
#
#
# Convention : Reuss Voigt Hill
#
# Bulk Modulus (GPa) = 59.57958 60.49783 60.03871
# Shear Modulus (GPa) = 28.03075 30.59220 29.31147
#
# Velocity S-wave (km/s) = 3.94516 4.12148 4.03428
# Velocity P-wave (km/s) = 7.33720 7.49938 7.41873
#
# Compressibility (1/GPa) = 0.01678427
#
# Stress axis : x y z
#
# Youngs Moduli (GPa) = 74.85828 109.45247 64.90264
#
# Poissons Ratio (x) = 0.27014 0.43137
# Poissons Ratio (y) = 0.18476 0.09376
# Poissons Ratio (z) = 0.49754 0.15812
#
# Static dielectric constant tensor:
#      x y z
#    x 3.081430 0.000000 -0.155750 
#    y 0.000000 3.703220 0.000000 
#    z -0.155750 0.000000 3.370940 
# 
# 
# High freq. dielectric constant tensor:
#      x y z
#    x 1.669400 0.000000 -0.018960 
#    y 0.000000 1.714360 0.000000 
#    z -0.018960 0.000000 1.694170 
# 
# From -- ./inp_files/284094.got.cif
#   From: 2010.06.25/outbox.cif.g09.slc.cpg/sg12_143_cif.got.tgz:284094.got - 2010.06.28 00:19:55.
