data_PCOD8092687
_publ_section_title
;
Structure prediction by ZEFSAII (Michael W. Deem and Ramdas Pophale) SiO2 
 PCOD8092687
Probable space group: C 2/M
;
_chemical_formula_sum "Si O2"
_cell_formula_units_Z 56
_cell_length_a 24.201409
_cell_length_b 14.616405
_cell_length_c 8.750865
_cell_angle_alpha 90.000000
_cell_angle_beta 110.624045
_cell_angle_gamma 90.000000
_cell_volume 2897.124277
_symmetry_space_group_name_H-M "C 2/M"
_symmetry_group_IT_number 12
_symmetry_cell_setting 'monoclinic'
loop_
_space_group_symop_operation_xyz
x,y,z
-x,y,-z
-x,-y,-z
x,-y,z
1/2+x,1/2+y,z
1/2-x,1/2+y,-z
1/2-x,1/2-y,-z
1/2+x,1/2-y,z
loop_
_atom_site_type_symbol
_atom_site_label
_atom_site_fract_x
_atom_site_fract_y
_atom_site_fract_z
Si Si1 0.184264 0.745850 0.877004
Si Si2 0.015866 0.788851 0.192682
Si Si3 0.773624 0.194397 0.382402
Si Si4 0.590687 0.605566 0.761127
Si Si5 0.163620 0.606535 0.103195
Si Si6 0.387757 0.601008 0.567546
Si Si7 0.546737 0.098157 0.175922
O O1 0.190067 0.737630 0.697830
O O2 0.148204 0.839593 0.878205
O O3 0.250000 0.750000 0.000000
O O4 0.152870 0.660501 0.931715
O O5 0.079535 0.833854 0.280845
O O6 0.023419 0.682783 0.256832
O O7 0.967556 0.844351 0.237793
O O8 0.000000 0.789788 0.000000
O O9 0.750000 0.250000 0.500000
O O10 0.722574 0.141145 0.243228
O O11 0.818224 0.120516 0.495247
O O12 0.594420 0.500000 0.821925
O O13 0.584708 0.610008 0.573734
O O14 0.169618 0.500000 0.068271
O O15 0.109217 0.626185 0.162066
O O16 0.396695 0.500000 0.641089
O O17 0.552967 0.000000 0.271911
O O18 0.500000 0.080430 0.000000
#
# Coordination Sequence:
#
# PCOD8092687 Si02
#       7
#     8   8   8   8   8   8   8
#     4   9  19  34  54  79 106 141 184 227 268 320
#     4  11  21  34  55  83 112 138 177 230 276 321
#     4  10  20  35  55  80 112 147 186 233 286 336
#     4  10  21  37  56  78 109 148 183 217 269 335
#     4  10  19  35  57  79 108 150 193 231 277 333
#     4  10  21  37  55  76 107 148 185 217 269 340
#     4   9  18  32  53  79 106 138 177 223 275 326
#
# _framework density 19.329512999999999
#
# number of rings (size 3 to 8) (size 9 to 14) (size 15 to 20)
#    0.000    2.143    0.000    3.857    0.000    6.857 
#    0.000    1.429    0.000    6.000    0.000    0.000 
#    0.000    0.000    0.000    0.000    0.000    0.000 
#
# Total GULP energy -346945.678098 kJ/mol
# GULP energy per Si atom -12390.917075 kJ/mol
# Density = 1.928552 g / cm^3
# Si number density = 19.329513 Si / 1000 Ang^3
#
#
#
# Elastic Constant Matrix: (Units=GPa)
#
#
# Indices 1 2 3 4 5 6 
#
# 1 94.4569 59.1709 24.2253 0.0000 7.8789 0.0000
# 2 59.1709 185.9086 51.5058 0.0000 -5.4423 0.0000
# 3 24.2253 51.5058 61.5625 0.0000 12.2067 0.0000
# 4 0.0000 0.0000 0.0000 30.1035 0.0000 1.2442
# 5 7.8789 -5.4423 12.2067 0.0000 32.7958 0.0000
# 6 0.0000 0.0000 0.0000 1.2442 0.0000 35.2767
#
#
#
# Elastic Compliance Matrix: (Units=1/GPa)
#
#
# Indices 1 2 3 4 5 6 
#
# 1 0.013803 -0.004147 -0.001261 0.000000 -0.003535 0.000000
# 2 -0.004147 0.008667 -0.006588 0.000000 0.004887 0.000000
# 3 -0.001261 -0.006588 0.024194 0.000000 -0.009796 0.000000
# 4 0.000000 0.000000 0.000000 0.033267 0.000000 -0.001173
# 5 -0.003535 0.004887 -0.009796 0.000000 0.035798 0.000000
# 6 0.000000 0.000000 0.000000 -0.001173 0.000000 0.028389
#
#
# Mechanical properties :
#
#
# Convention : Reuss Voigt Hill
#
# Bulk Modulus (GPa) = 44.10835 67.97023 56.03929
# Shear Modulus (GPa) = 28.46260 33.43695 30.94977
#
# Velocity S-wave (km/s) = 3.84147 4.16365 4.00580
# Velocity P-wave (km/s) = 6.52262 7.63904 7.10280
#
# Compressibility (1/GPa) = 0.02267144
#
# Stress axis : x y z
#
# Youngs Moduli (GPa) = 72.44721 115.37451 41.33214
#
# Poissons Ratio (x) = 0.47851 0.05211
# Poissons Ratio (y) = 0.30047 0.27232
# Poissons Ratio (z) = 0.09134 0.76014
#
# Static dielectric constant tensor:
#      x y z
#    x 3.595320 0.000000 0.036380 
#    y 0.000000 3.277380 0.000000 
#    z 0.036380 0.000000 3.538820 
# 
# 
# High freq. dielectric constant tensor:
#      x y z
#    x 1.763260 0.000000 0.019470 
#    y 0.000000 1.760750 0.000000 
#    z 0.019470 0.000000 1.728460 
# 
# From -- ./inp_files/96249.got.cif
#   From: 2010.06.25/outbox.cif.g09.slc.cpg/sg12_49_cif.got.tgz:96249.got - 2010.06.28 00:19:55.
