data_PCOD8092481
_publ_section_title
;
Structure prediction by ZEFSAII (Michael W. Deem and Ramdas Pophale) SiO2 
 PCOD8092481
Probable space group: C 2/M
;
_chemical_formula_sum "Si O2"
_cell_formula_units_Z 52
_cell_length_a 12.816088
_cell_length_b 13.012578
_cell_length_c 17.174459
_cell_angle_alpha 90.000000
_cell_angle_beta 61.875861
_cell_angle_gamma 90.000000
_cell_volume 2526.010751
_symmetry_space_group_name_H-M "C 2/M"
_symmetry_group_IT_number 12
_symmetry_cell_setting 'monoclinic'
loop_
_space_group_symop_operation_xyz
x,y,z
-x,y,-z
-x,-y,-z
x,-y,z
1/2+x,1/2+y,z
1/2-x,1/2+y,-z
1/2-x,1/2-y,-z
1/2+x,1/2-y,z
loop_
_atom_site_type_symbol
_atom_site_label
_atom_site_fract_x
_atom_site_fract_y
_atom_site_fract_z
Si Si1 0.539649 0.117019 0.608163
Si Si2 0.673330 0.185915 0.413467
Si Si3 0.000000 0.240206 0.000000
Si Si4 0.143393 0.116227 0.335193
Si Si5 0.558612 0.692422 0.698434
Si Si6 0.084094 0.119112 0.110432
Si Si7 0.807457 0.617124 0.134434
O O1 0.636496 0.162506 0.514580
O O2 0.408800 0.121738 0.616939
O O3 0.548460 0.185694 0.682705
O O4 0.569324 0.000000 0.620032
O O5 0.654940 0.307842 0.404438
O O6 0.807579 0.151688 0.353159
O O7 0.081434 0.309855 0.916562
O O8 0.919762 0.168465 0.973588
O O9 0.246071 0.145394 0.237735
O O10 0.017181 0.127700 0.337233
O O11 0.156099 0.000000 0.361285
O O12 0.511379 0.675560 0.801595
O O13 0.215738 0.133925 0.096429
O O14 0.049536 0.000000 0.118225
O O15 0.852057 0.500000 0.119947
#
# Coordination Sequence:
#
# PCOD8092481 Si02
#       7
#     8   8   4   8   8   8   8
#     4  10  22  37  53  78 111 141 174 222 269 308
#     4  10  19  35  55  79 109 141 177 219 265 309
#     4  12  20  34  60  84 104 138 180 214 260 328
#     4   9  19  35  54  78 108 141 178 219 259 305
#     4  10  20  37  57  76 103 143 182 214 261 319
#     4  10  22  38  55  79 110 139 172 221 269 310
#     4   9  19  36  55  78 111 143 173 216 265 310
#
# _framework density 20.585819000000001
#
# number of rings (size 3 to 8) (size 9 to 14) (size 15 to 20)
#    0.000    2.154    0.000    4.615    0.000    3.077 
#    0.000    8.462    0.000    5.538    0.000    0.000 
#    0.000    0.000    0.000    0.000    0.000    0.000 
#
# Total GULP energy -322491.224268 kJ/mol
# GULP energy per Si atom -12403.508626 kJ/mol
# Density = 2.053896 g / cm^3
# Si number density = 20.585819 Si / 1000 Ang^3
#
#
#
# Elastic Constant Matrix: (Units=GPa)
#
#
# Indices 1 2 3 4 5 6 
#
# 1 44.6561 14.5002 19.9486 0.0000 -16.6439 0.0000
# 2 14.5002 134.8920 46.4826 0.0000 4.1296 0.0000
# 3 19.9486 46.4826 55.8202 0.0000 -12.9236 0.0000
# 4 0.0000 0.0000 0.0000 33.6071 0.0000 0.4548
# 5 -16.6439 4.1296 -12.9236 0.0000 31.5948 0.0000
# 6 0.0000 0.0000 0.0000 0.4548 0.0000 14.5369
#
#
#
# Elastic Compliance Matrix: (Units=1/GPa)
#
#
# Indices 1 2 3 4 5 6 
#
# 1 0.030982 -0.001454 -0.006671 0.000000 0.013783 0.000000
# 2 -0.001454 0.011376 -0.010467 0.000000 -0.006534 0.000000
# 3 -0.006671 -0.010467 0.031501 0.000000 0.010739 0.000000
# 4 0.000000 0.000000 0.000000 0.029768 0.000000 -0.000931
# 5 0.013783 -0.006534 0.010739 0.000000 0.044158 0.000000
# 6 0.000000 0.000000 0.000000 -0.000931 0.000000 0.068819
#
#
# Mechanical properties :
#
#
# Convention : Reuss Voigt Hill
#
# Bulk Modulus (GPa) = 27.26484 44.13678 35.70081
# Shear Modulus (GPa) = 18.79612 26.24357 22.51984
#
# Velocity S-wave (km/s) = 3.02497 3.57436 3.31108
# Velocity P-wave (km/s) = 5.04716 6.20658 5.65665
#
# Compressibility (1/GPa) = 0.03667728
#
# Stress axis : x y z
#
# Youngs Moduli (GPa) = 32.27653 87.90202 31.74547
#
# Poissons Ratio (x) = 0.12778 0.21176
# Poissons Ratio (y) = 0.04692 0.33226
# Poissons Ratio (z) = 0.21531 0.92003
#
# Static dielectric constant tensor:
#      x y z
#    x 3.657650 0.000000 -0.079080 
#    y 0.000000 3.678980 0.000000 
#    z -0.079080 0.000000 3.538910 
# 
# 
# High freq. dielectric constant tensor:
#      x y z
#    x 1.805920 0.000000 -0.006010 
#    y 0.000000 1.806660 0.000000 
#    z -0.006010 0.000000 1.790990 
# 
# From -- ./inp_files/309781.got.cif
#   From: 2010.06.25/outbox.cif.g09.slc.cpg/sg12_155_cif.got.tgz:309781.got - 2010.06.28 00:19:55.
