data_PCOD8092866
_publ_section_title
;
Structure prediction by ZEFSAII (Michael W. Deem and Ramdas Pophale) SiO2 
 PCOD8092866
Probable space group: C 2/M
;
_chemical_formula_sum "Si O2"
_cell_formula_units_Z 56
_cell_length_a 20.386704
_cell_length_b 32.950524
_cell_length_c 8.929882
_cell_angle_alpha 90.000000
_cell_angle_beta 29.244908
_cell_angle_gamma 90.000000
_cell_volume 2930.613050
_symmetry_space_group_name_H-M "C 2/M"
_symmetry_group_IT_number 12
_symmetry_cell_setting 'monoclinic'
loop_
_space_group_symop_operation_xyz
x,y,z
-x,y,-z
-x,-y,-z
x,-y,z
1/2+x,1/2+y,z
1/2-x,1/2+y,-z
1/2-x,1/2-y,-z
1/2+x,1/2-y,z
loop_
_atom_site_type_symbol
_atom_site_label
_atom_site_fract_x
_atom_site_fract_y
_atom_site_fract_z
Si Si1 0.215873 0.000000 0.620007
Si Si2 0.504606 0.140530 0.165776
Si Si3 0.701328 0.633615 0.461574
Si Si4 0.490599 0.776313 0.696492
Si Si5 0.762655 0.585342 0.628073
Si Si6 0.002768 0.085509 0.328490
Si Si7 0.058046 0.000000 0.651386
Si Si8 0.216563 0.227653 0.412669
O O1 0.298534 0.040153 0.499176
O O2 0.189324 0.000000 0.495193
O O3 0.073723 0.000000 0.985221
O O4 0.463867 0.178296 0.350405
O O5 0.401662 0.104536 0.407182
O O6 0.500000 0.153969 0.000000
O O7 0.654520 0.124774 0.904009
O O8 0.693354 0.611789 0.637030
O O9 0.581032 0.616666 0.603201
O O10 0.683578 0.681439 0.520127
O O11 0.500000 0.770030 0.500000
O O12 0.586759 0.745239 0.589794
O O13 0.339598 0.768398 0.052259
O O14 0.657567 0.583844 0.971947
O O15 0.000000 0.103014 0.500000
O O16 0.937640 0.040515 0.457084
O O17 0.250000 0.250000 0.500000
#
# Coordination Sequence:
#
# PCOD8092866 Si02
#       8
#     4   8   8   8   8   8   4   8
#     4   9  16  30  58  84 106 140 185 231 274 316
#     4   9  20  39  59  80 112 147 186 226 281 342
#     4  10  21  37  56  82 111 141 183 233 276 325
#     4  11  23  39  60  86 115 150 187 234 289 338
#     4  10  19  35  58  82 110 143 185 229 274 328
#     4  11  22  34  54  83 112 147 186 224 274 331
#     4   9  17  34  53  77 114 146 178 225 279 325
#     4  11  23  40  61  83 113 151 193 235 282 340
#
# _framework density 19.108630000000002
#
# number of rings (size 3 to 8) (size 9 to 14) (size 15 to 20)
#    0.000    1.857    1.429    4.071    0.000    6.286 
#    0.000    3.929    0.000    0.000    0.000    4.500 
#    0.000    0.000    0.000    0.000    0.000    0.000 
#
# Total GULP energy -347238.859830 kJ/mol
# GULP energy per Si atom -12401.387851 kJ/mol
# Density = 1.906514 g / cm^3
# Si number density = 19.108630 Si / 1000 Ang^3
#
#
#
# Elastic Constant Matrix: (Units=GPa)
#
#
# Indices 1 2 3 4 5 6 
#
# 1 52.5254 28.6739 17.4145 0.0000 6.4629 0.0000
# 2 28.6739 126.9827 36.1448 0.0000 -5.4578 0.0000
# 3 17.4145 36.1448 66.0203 0.0001 3.8484 0.0000
# 4 0.0000 0.0000 0.0001 27.5827 0.0000 -6.2321
# 5 6.4629 -5.4578 3.8484 0.0000 33.6885 0.0000
# 6 0.0000 0.0000 0.0000 -6.2321 0.0000 26.5056
#
#
#
# Elastic Compliance Matrix: (Units=1/GPa)
#
#
# Indices 1 2 3 4 5 6 
#
# 1 0.023196 -0.004480 -0.003387 0.000000 -0.004789 0.000000
# 2 -0.004480 0.010345 -0.004661 0.000000 0.003068 0.000000
# 3 -0.003387 -0.004661 0.018723 0.000000 -0.002244 0.000000
# 4 0.000000 0.000000 0.000000 0.038289 0.000000 0.009003
# 5 -0.004789 0.003068 -0.002244 0.000000 0.031356 0.000000
# 6 0.000000 0.000000 0.000000 0.009003 0.000000 0.039845
#
#
# Mechanical properties :
#
#
# Convention : Reuss Voigt Hill
#
# Bulk Modulus (GPa) = 36.75249 45.55498 41.15374
# Shear Modulus (GPa) = 25.52609 28.44168 26.98388
#
# Velocity S-wave (km/s) = 3.65888 3.86219 3.76191
# Velocity P-wave (km/s) = 6.09304 6.61668 6.36025
#
# Compressibility (1/GPa) = 0.02720904
#
# Stress axis : x y z
#
# Youngs Moduli (GPa) = 43.11084 96.66291 53.41063
#
# Poissons Ratio (x) = 0.43302 0.18089
# Poissons Ratio (y) = 0.19312 0.24895
# Poissons Ratio (z) = 0.14601 0.45055
#
# Static dielectric constant tensor:
#      x y z
#    x 3.414440 0.000000 -0.103370 
#    y 0.000000 3.666720 0.000000 
#    z -0.103370 0.000000 3.478770 
# 
# 
# High freq. dielectric constant tensor:
#      x y z
#    x 1.733500 0.000000 -0.006350 
#    y 0.000000 1.752760 0.000000 
#    z -0.006350 0.000000 1.735440 
# 
# From -- ./inp_files/91585.got.cif
#   From: 2010.06.25/outbox.cif.g09.slc.cpg/sg12_46_cif.got.tgz:91585.got - 2010.06.28 00:19:55.
