data_PCOD8092722
_publ_section_title
;
Structure prediction by ZEFSAII (Michael W. Deem and Ramdas Pophale) SiO2 
 PCOD8092722
Probable space group: C 2/M
;
_chemical_formula_sum "Si O2"
_cell_formula_units_Z 48
_cell_length_a 20.620342
_cell_length_b 8.631841
_cell_length_c 27.290528
_cell_angle_alpha 90.000000
_cell_angle_beta 32.465854
_cell_angle_gamma 90.000000
_cell_volume 2607.481414
_symmetry_space_group_name_H-M "C 2/M"
_symmetry_group_IT_number 12
_symmetry_cell_setting 'monoclinic'
loop_
_space_group_symop_operation_xyz
x,y,z
-x,y,-z
-x,-y,-z
x,-y,z
1/2+x,1/2+y,z
1/2-x,1/2+y,-z
1/2-x,1/2-y,-z
1/2+x,1/2-y,z
loop_
_atom_site_type_symbol
_atom_site_label
_atom_site_fract_x
_atom_site_fract_y
_atom_site_fract_z
Si Si1 0.868248 0.684875 0.067155
Si Si2 0.984060 0.185006 0.455717
Si Si3 0.732551 0.817562 0.064574
Si Si4 0.853609 0.176362 0.731926
Si Si5 0.006560 0.822571 0.259588
Si Si6 0.240090 0.683458 0.560270
O O1 0.859236 0.500000 0.069667
O O2 0.836402 0.750165 0.034003
O O3 0.770924 0.752517 0.168737
O O4 0.000000 0.741372 0.000000
O O5 0.855376 0.239851 0.517577
O O6 0.000000 0.252508 0.500000
O O7 0.091794 0.253334 0.352287
O O8 0.990976 0.000000 0.450830
O O9 0.599420 0.772782 0.167425
O O10 0.746174 0.000000 0.054361
O O11 0.750000 0.750000 0.000000
O O12 0.957578 0.188906 0.706409
O O13 0.822432 0.000000 0.739861
O O14 0.874783 0.749681 0.337425
O O15 0.006788 0.000000 0.241609
O O16 0.230855 0.500000 0.562923
O O17 0.250000 0.750000 0.500000
#
# Coordination Sequence:
#
# PCOD8092722 Si02
#       6
#     8   8   8   8   8   8
#     4   9  18  34  56  82 111 147 189 229 276 335
#     4   9  17  30  48  74 107 141 179 222 267 317
#     4  11  22  38  59  84 114 147 184 232 285 338
#     4   8  14  28  50  73 101 140 179 218 265 318
#     4  10  19  35  57  81 109 142 182 230 280 333
#     4  11  20  32  53  82 108 141 186 230 272 326
#
# _framework density 18.408567999999999
#
# number of rings (size 3 to 8) (size 9 to 14) (size 15 to 20)
#    0.000    2.333    1.667    3.500    0.000    0.333 
#    3.000    0.000    0.000    2.000    0.000    0.000 
#    0.000    0.000    0.000    0.000    0.000    0.000 
#
# Total GULP energy -297522.365604 kJ/mol
# GULP energy per Si atom -12396.765233 kJ/mol
# Density = 1.836667 g / cm^3
# Si number density = 18.408568 Si / 1000 Ang^3
#
#
#
# Elastic Constant Matrix: (Units=GPa)
#
#
# Indices 1 2 3 4 5 6 
#
# 1 141.1493 33.4151 92.9237 -0.0141 -0.2260 0.0466
# 2 33.4151 55.5536 30.8365 0.0012 -2.6046 0.0229
# 3 92.9237 30.8365 142.0293 0.0032 -3.4575 -0.0039
# 4 -0.0141 0.0012 0.0032 26.3880 0.0033 -0.8970
# 5 -0.2260 -2.6046 -3.4575 0.0033 37.3810 -0.0142
# 6 0.0466 0.0229 -0.0039 -0.8970 -0.0142 22.2788
#
#
#
# Elastic Compliance Matrix: (Units=1/GPa)
#
#
# Indices 1 2 3 4 5 6 
#
# 1 0.013056 -0.003572 -0.007788 0.000007 -0.000890 -0.000025
# 2 -0.003572 0.021483 -0.002297 -0.000003 0.001263 -0.000014
# 3 -0.007788 -0.002297 0.012658 -0.000005 0.000964 0.000021
# 4 0.000007 -0.000003 -0.000005 0.037948 -0.000003 0.001528
# 5 -0.000890 0.001263 0.000964 -0.000003 0.026923 0.000018
# 6 -0.000025 -0.000014 0.000021 0.001528 0.000018 0.044947
#
#
# Mechanical properties :
#
#
# Convention : Reuss Voigt Hill
#
# Bulk Modulus (GPa) = 50.29116 72.56474 61.42795
# Shear Modulus (GPa) = 26.18379 29.31334 27.74856
#
# Velocity S-wave (km/s) = 3.77552 3.99479 3.88670
# Velocity P-wave (km/s) = 6.81064 7.79630 7.32008
#
# Compressibility (1/GPa) = 0.01988421
#
# Stress axis : x y z
#
# Youngs Moduli (GPa) = 76.59218 46.54826 78.99876
#
# Poissons Ratio (x) = 0.16626 0.61526
# Poissons Ratio (y) = 0.27357 0.18143
# Poissons Ratio (z) = 0.59652 0.10690
#
# Static dielectric constant tensor:
#      x y z
#    x 3.397210 0.000050 -0.033190 
#    y 0.000050 3.146360 -0.000050 
#    z -0.033190 -0.000050 3.745050 
# 
# 
# High freq. dielectric constant tensor:
#      x y z
#    x 1.699130 0.000000 -0.001300 
#    y 0.000000 1.687340 0.000000 
#    z -0.001300 0.000000 1.730550 
# 
# From -- ./inp_files/345390.got.cif
#   From: 2010.06.25/outbox.cif.g09.slc.cpg/sg12_173_cif.got.tgz:345390.got - 2010.06.28 00:19:55.
