data_PCOD8092150
_publ_section_title
;
Structure prediction by ZEFSAII (Michael W. Deem and Ramdas Pophale) SiO2 
 PCOD8092150
Probable space group: C 2/M
;
_chemical_formula_sum "Si O2"
_cell_formula_units_Z 56
_cell_length_a 11.154302
_cell_length_b 15.928084
_cell_length_c 18.001659
_cell_angle_alpha 90.000000
_cell_angle_beta 59.740266
_cell_angle_gamma 90.000000
_cell_volume 2762.526674
_symmetry_space_group_name_H-M "C 2/M"
_symmetry_group_IT_number 12
_symmetry_cell_setting 'monoclinic'
loop_
_space_group_symop_operation_xyz
x,y,z
-x,y,-z
-x,-y,-z
x,-y,z
1/2+x,1/2+y,z
1/2-x,1/2+y,-z
1/2-x,1/2-y,-z
1/2+x,1/2-y,z
loop_
_atom_site_type_symbol
_atom_site_label
_atom_site_fract_x
_atom_site_fract_y
_atom_site_fract_z
Si Si1 0.565578 0.593349 0.848006
Si Si2 0.752699 0.170830 0.819601
Si Si3 0.715538 0.500000 0.390157
Si Si4 0.808046 0.649812 0.860544
Si Si5 0.577498 0.500000 0.591827
Si Si6 0.104271 0.342882 0.713622
Si Si7 0.760809 0.096024 0.966178
Si Si8 0.567686 0.341703 0.693028
O O1 0.530715 0.500000 0.830936
O O2 0.682061 0.589240 0.875201
O O3 0.419236 0.632400 0.920895
O O4 0.624105 0.643406 0.758573
O O5 0.754760 0.258426 0.860085
O O6 0.646740 0.171708 0.785316
O O7 0.702841 0.107280 0.900280
O O8 0.902700 0.146905 0.740786
O O9 0.662345 0.500000 0.489959
O O10 0.587912 0.500000 0.372194
O O11 0.806553 0.415983 0.351879
O O12 0.944639 0.627915 0.769906
O O13 0.830599 0.642713 0.942273
O O14 0.624423 0.413968 0.619639
O O15 0.114748 0.255486 0.661756
O O16 0.754019 0.000000 0.990794
#
# Coordination Sequence:
#
# PCOD8092150 Si02
#       8
#     8   8   4   8   4   8   8   8
#     4  10  19  34  59  87 114 159 213 257 297 360
#     4  10  21  38  57  86 119 161 214 254 303 355
#     4  11  26  42  69 101 126 157 198 261 306 384
#     4  11  22  37  56  83 123 169 202 250 316 357
#     4  11  22  44  75  98 119 157 208 249 315 379
#     4  11  24  40  62  92 129 162 205 256 312 374
#     4  10  22  36  55  82 117 161 217 267 293 345
#     4  10  20  39  67  93 120 162 206 255 304 372
#
# _framework density 20.271297000000001
#
# number of rings (size 3 to 8) (size 9 to 14) (size 15 to 20)
#    0.000    1.571    3.571    1.286    4.000    2.286 
#    2.571    0.714    0.000    1.714    0.000    0.000 
#    0.000    0.000    0.000    0.000    0.000    0.000 
#
# Total GULP energy -347030.199903 kJ/mol
# GULP energy per Si atom -12393.935711 kJ/mol
# Density = 2.022516 g / cm^3
# Si number density = 20.271297 Si / 1000 Ang^3
#
#
#
# Elastic Constant Matrix: (Units=GPa)
#
#
# Indices 1 2 3 4 5 6 
#
# 1 58.5930 22.7359 22.2032 0.0000 3.6369 0.0000
# 2 22.7359 120.0121 61.0108 0.0000 -1.9945 0.0000
# 3 22.2032 61.0108 88.8531 0.0000 2.3068 0.0000
# 4 0.0000 0.0000 0.0000 28.4751 0.0000 1.1490
# 5 3.6369 -1.9945 2.3068 0.0000 23.3375 0.0000
# 6 0.0000 0.0000 0.0000 1.1490 0.0000 22.7737
#
#
#
# Elastic Compliance Matrix: (Units=1/GPa)
#
#
# Indices 1 2 3 4 5 6 
#
# 1 0.019296 -0.001980 -0.003388 0.000000 -0.002841 0.000000
# 2 -0.001980 0.013095 -0.008556 0.000000 0.002273 0.000000
# 3 -0.003388 -0.008556 0.018028 0.000000 -0.001985 0.000000
# 4 0.000000 0.000000 0.000000 0.035190 0.000000 -0.001775
# 5 -0.002841 0.002273 -0.001985 0.000000 0.043683 0.000000
# 6 0.000000 0.000000 0.000000 -0.001775 0.000000 0.044000
#
#
# Mechanical properties :
#
#
# Convention : Reuss Voigt Hill
#
# Bulk Modulus (GPa) = 44.30747 53.26202 48.78474
# Shear Modulus (GPa) = 23.96214 25.68448 24.82331
#
# Velocity S-wave (km/s) = 3.44186 3.56341 3.50316
# Velocity P-wave (km/s) = 6.14002 6.57740 6.36247
#
# Compressibility (1/GPa) = 0.02256956
#
# Stress axis : x y z
#
# Youngs Moduli (GPa) = 51.82540 76.36532 55.47063
#
# Poissons Ratio (x) = 0.15122 0.18795
# Poissons Ratio (y) = 0.10263 0.47460
# Poissons Ratio (z) = 0.17560 0.65337
#
# Static dielectric constant tensor:
#      x y z
#    x 3.692630 0.000000 0.061130 
#    y 0.000000 3.900780 0.000000 
#    z 0.061130 0.000000 3.381860 
# 
# 
# High freq. dielectric constant tensor:
#      x y z
#    x 1.780710 0.000000 0.008480 
#    y 0.000000 1.805490 0.000000 
#    z 0.008480 0.000000 1.765530 
# 
# From -- ./inp_files/263284.got.cif
#   From: 2010.06.25/outbox.cif.g09.slc.cpg/sg12_132_cif.got.tgz:263284.got - 2010.06.28 00:19:55.
