data_PCOD8092635
_publ_section_title
;
Structure prediction by ZEFSAII (Michael W. Deem and Ramdas Pophale) SiO2 
 PCOD8092635
Probable space group: C 2/M
;
_chemical_formula_sum "Si O2"
_cell_formula_units_Z 52
_cell_length_a 11.062440
_cell_length_b 22.544707
_cell_length_c 12.740430
_cell_angle_alpha 90.000000
_cell_angle_beta 54.345719
_cell_angle_gamma 90.000000
_cell_volume 2581.838770
_symmetry_space_group_name_H-M "C 2/M"
_symmetry_group_IT_number 12
_symmetry_cell_setting 'monoclinic'
loop_
_space_group_symop_operation_xyz
x,y,z
-x,y,-z
-x,-y,-z
x,-y,z
1/2+x,1/2+y,z
1/2-x,1/2+y,-z
1/2-x,1/2-y,-z
1/2+x,1/2-y,z
loop_
_atom_site_type_symbol
_atom_site_label
_atom_site_fract_x
_atom_site_fract_y
_atom_site_fract_z
Si Si1 0.952699 0.434491 0.297994
Si Si2 0.065338 0.850599 0.626649
Si Si3 0.000000 0.802247 0.000000
Si Si4 0.272781 0.650868 0.665453
Si Si5 0.811063 0.649749 0.783870
Si Si6 0.703176 0.932057 0.406390
Si Si7 0.984307 0.741295 0.214878
O O1 0.984588 0.500000 0.243329
O O2 0.806626 0.412048 0.312494
O O3 0.924646 0.431362 0.439084
O O4 0.097726 0.396699 0.189625
O O5 0.141400 0.828226 0.481737
O O6 0.137019 0.913313 0.625473
O O7 0.887785 0.858519 0.702366
O O8 0.092749 0.799073 0.696896
O O9 0.138307 0.844704 0.899750
O O10 0.942520 0.761866 0.932209
O O11 0.150234 0.699721 0.753356
O O12 0.831059 0.620481 0.659078
O O13 0.898843 0.712242 0.760933
O O14 0.715586 0.000000 0.354336
#
# Coordination Sequence:
#
# PCOD8092635 Si02
#       7
#     8   8   4   8   8   8   8
#     4   9  19  37  61  86 116 153 196 240 289 347
#     4  10  19  35  56  88 125 150 192 236 298 342
#     4  12  24  40  57  84 113 158 202 238 294 346
#     4   9  20  34  56  89 119 155 191 238 289 349
#     4  11  22  37  57  85 114 149 194 243 290 345
#     4  10  20  37  61  89 120 154 192 240 294 348
#     4  11  22  39  58  82 115 157 199 241 289 348
#
# _framework density 20.140685000000001
#
# number of rings (size 3 to 8) (size 9 to 14) (size 15 to 20)
#    0.000    1.846    1.538    2.769    0.000    1.846 
#    8.308    4.615    0.000    0.000    0.000    4.846 
#    0.000    0.000    0.000    0.000    0.000    0.000 
#
# Total GULP energy -322121.472314 kJ/mol
# GULP energy per Si atom -12389.287397 kJ/mol
# Density = 2.009484 g / cm^3
# Si number density = 20.140685 Si / 1000 Ang^3
#
#
#
# Elastic Constant Matrix: (Units=GPa)
#
#
# Indices 1 2 3 4 5 6 
#
# 1 87.3120 38.0544 34.4253 0.0000 -15.5756 0.0000
# 2 38.0544 117.3540 43.4054 0.0000 -4.6688 0.0000
# 3 34.4253 43.4054 54.9552 0.0000 -13.1241 0.0000
# 4 0.0000 0.0000 0.0000 18.5713 0.0000 -1.3530
# 5 -15.5756 -4.6688 -13.1241 0.0000 35.3075 0.0000
# 6 0.0000 0.0000 0.0000 -1.3530 0.0000 18.3589
#
#
#
# Elastic Compliance Matrix: (Units=1/GPa)
#
#
# Indices 1 2 3 4 5 6 
#
# 1 0.016061 -0.002381 -0.007203 0.000000 0.004093 0.000000
# 2 -0.002381 0.012539 -0.009072 0.000000 -0.002765 0.000000
# 3 -0.007203 -0.009072 0.031637 0.000000 0.007383 0.000000
# 4 0.000000 0.000000 0.000000 0.054137 0.000000 0.003990
# 5 0.004093 -0.002765 0.007383 0.000000 0.032507 0.000000
# 6 0.000000 0.000000 0.000000 0.003990 0.000000 0.054763
#
#
# Mechanical properties :
#
#
# Convention : Reuss Voigt Hill
#
# Bulk Modulus (GPa) = 43.62088 54.59902 49.10995
# Shear Modulus (GPa) = 20.27583 24.02996 22.15289
#
# Velocity S-wave (km/s) = 3.17631 3.45788 3.32008
# Velocity P-wave (km/s) = 5.92934 6.56584 6.25569
#
# Compressibility (1/GPa) = 0.02292480
#
# Stress axis : x y z
#
# Youngs Moduli (GPa) = 62.26226 79.75180 31.60819
#
# Poissons Ratio (x) = 0.18990 0.22767
# Poissons Ratio (y) = 0.14826 0.28676
# Poissons Ratio (z) = 0.44847 0.72353
#
# Static dielectric constant tensor:
#      x y z
#    x 3.987370 0.000000 -0.136370 
#    y 0.000000 3.717530 0.000000 
#    z -0.136370 0.000000 3.350660 
# 
# 
# High freq. dielectric constant tensor:
#      x y z
#    x 1.807700 0.000000 -0.014570 
#    y 0.000000 1.781800 0.000000 
#    z -0.014570 0.000000 1.746660 
# 
# From -- ./inp_files/207596.got.cif
#   From: 2010.06.25/outbox.cif.g09.slc.cpg/sg12_104_cif.got.tgz:207596.got - 2010.06.28 00:19:55.
