data_PCOD8092482
_publ_section_title
;
Structure prediction by ZEFSAII (Michael W. Deem and Ramdas Pophale) SiO2 
 PCOD8092482
Probable space group: C 2/M
;
_chemical_formula_sum "Si O2"
_cell_formula_units_Z 64
_cell_length_a 23.263530
_cell_length_b 13.047009
_cell_length_c 11.353623
_cell_angle_alpha 90.000000
_cell_angle_beta 64.523383
_cell_angle_gamma 90.000000
_cell_volume 3110.955434
_symmetry_space_group_name_H-M "C 2/M"
_symmetry_group_IT_number 12
_symmetry_cell_setting 'monoclinic'
loop_
_space_group_symop_operation_xyz
x,y,z
-x,y,-z
-x,-y,-z
x,-y,z
1/2+x,1/2+y,z
1/2-x,1/2+y,-z
1/2-x,1/2-y,-z
1/2+x,1/2-y,z
loop_
_atom_site_type_symbol
_atom_site_label
_atom_site_fract_x
_atom_site_fract_y
_atom_site_fract_z
Si Si1 0.302480 0.386023 0.872753
Si Si2 0.646419 0.383297 0.920856
Si Si3 0.058628 0.731513 0.872414
Si Si4 0.920271 0.113723 0.615290
Si Si5 0.321510 0.114357 0.316682
Si Si6 0.261085 0.765595 0.741283
Si Si7 0.967004 0.225487 0.370903
Si Si8 0.128927 0.383527 0.469948
O O1 0.270838 0.500000 0.915491
O O2 0.348028 0.385318 0.718778
O O3 0.254867 0.295526 0.873645
O O4 0.343068 0.357858 0.951130
O O5 0.629197 0.500000 0.915613
O O6 0.585884 0.322529 0.927772
O O7 0.710897 0.358163 0.793026
O O8 0.112910 0.646559 0.806056
O O9 0.036059 0.778328 0.767333
O O10 0.000000 0.684196 0.000000
O O11 0.921946 0.139903 0.473769
O O12 0.961350 0.200450 0.649006
O O13 0.948973 0.000000 0.612787
O O14 0.262250 0.187871 0.339526
O O15 0.329226 0.117404 0.449279
O O16 0.305323 0.000000 0.287180
O O17 0.331097 0.814241 0.658144
O O18 0.940867 0.335563 0.442157
O O19 0.119711 0.500000 0.431475
#
# Coordination Sequence:
#
# PCOD8092482 Si02
#       8
#     8   8   8   8   8   8   8   8
#     4  10  20  35  56  80 107 142 181 222 271 316
#     4  10  22  36  52  79 112 145 179 220 266 315
#     4  10  21  36  57  81 106 144 179 215 270 323
#     4  10  20  35  56  83 109 139 178 226 274 318
#     4   9  20  36  55  81 110 139 178 225 267 316
#     4  11  19  35  56  78 107 143 185 220 265 318
#     4  10  19  35  55  79 110 140 178 223 270 320
#     4  10  20  35  54  78 111 146 178 220 271 320
#
# _framework density 20.572458999999998
#
# number of rings (size 3 to 8) (size 9 to 14) (size 15 to 20)
#    0.000    2.000    1.250    3.000    0.000    1.500 
#    0.000    1.250    0.000    0.750    0.000    0.000 
#    0.000    0.000    0.000    0.000    0.000    0.000 
#
# Total GULP energy -396530.515811 kJ/mol
# GULP energy per Si atom -12391.578619 kJ/mol
# Density = 2.052564 g / cm^3
# Si number density = 20.572459 Si / 1000 Ang^3
#
#
#
# Elastic Constant Matrix: (Units=GPa)
#
#
# Indices 1 2 3 4 5 6 
#
# 1 46.0078 25.1212 7.6243 0.0000 3.5078 0.0000
# 2 25.1212 117.4458 19.8199 0.0000 9.1106 0.0000
# 3 7.6243 19.8199 74.3657 0.0000 7.1846 0.0000
# 4 0.0000 0.0000 0.0000 19.9200 0.0000 3.6866
# 5 3.5078 9.1106 7.1846 0.0000 34.0731 0.0000
# 6 0.0000 0.0000 0.0000 3.6866 0.0000 22.8322
#
#
#
# Elastic Compliance Matrix: (Units=1/GPa)
#
#
# Indices 1 2 3 4 5 6 
#
# 1 0.024739 -0.005030 -0.001102 0.000000 -0.000969 0.000000
# 2 -0.005030 0.010063 -0.001997 0.000000 -0.001752 0.000000
# 3 -0.001102 -0.001997 0.014322 0.000000 -0.002372 0.000000
# 4 0.000000 0.000000 0.000000 0.051747 0.000000 -0.008355
# 5 -0.000969 -0.001752 -0.002372 0.000000 0.030417 0.000000
# 6 0.000000 0.000000 0.000000 -0.008355 0.000000 0.045147
#
#
# Mechanical properties :
#
#
# Convention : Reuss Voigt Hill
#
# Bulk Modulus (GPa) = 30.42774 38.10556 34.26665
# Shear Modulus (GPa) = 24.55209 27.71531 26.13370
#
# Velocity S-wave (km/s) = 3.45837 3.67441 3.56803
# Velocity P-wave (km/s) = 5.54705 6.04686 5.80234
#
# Compressibility (1/GPa) = 0.03286475
#
# Stress axis : x y z
#
# Youngs Moduli (GPa) = 40.42263 99.36946 69.82507
#
# Poissons Ratio (x) = 0.49986 0.07695
# Poissons Ratio (y) = 0.20334 0.13945
# Poissons Ratio (z) = 0.04454 0.19845
#
# Static dielectric constant tensor:
#      x y z
#    x 3.510510 0.000000 0.078240 
#    y 0.000000 3.964190 0.000000 
#    z 0.078240 0.000000 3.698920 
# 
# 
# High freq. dielectric constant tensor:
#      x y z
#    x 1.791420 0.000000 0.002640 
#    y 0.000000 1.806480 0.000000 
#    z 0.002640 0.000000 1.799700 
# 
# From -- ./inp_files/175253.got.cif
#   From: 2010.06.25/outbox.cif.g09.slc.cpg/sg12_88_cif.got.tgz:175253.got - 2010.06.28 00:19:55.
