data_PCOD8092764
_publ_section_title
;
Structure prediction by ZEFSAII (Michael W. Deem and Ramdas Pophale) SiO2 
 PCOD8092764
Probable space group: C 2/M
;
_chemical_formula_sum "Si O2"
_cell_formula_units_Z 56
_cell_length_a 29.686385
_cell_length_b 9.134301
_cell_length_c 11.145478
_cell_angle_alpha 90.000000
_cell_angle_beta 66.133311
_cell_angle_gamma 90.000000
_cell_volume 2763.821448
_symmetry_space_group_name_H-M "C 2/M"
_symmetry_group_IT_number 12
_symmetry_cell_setting 'monoclinic'
loop_
_space_group_symop_operation_xyz
x,y,z
-x,y,-z
-x,-y,-z
x,-y,z
1/2+x,1/2+y,z
1/2-x,1/2+y,-z
1/2-x,1/2-y,-z
1/2+x,1/2-y,z
loop_
_atom_site_type_symbol
_atom_site_label
_atom_site_fract_x
_atom_site_fract_y
_atom_site_fract_z
Si Si1 0.636937 0.170671 0.336650
Si Si2 0.291094 0.837540 0.326098
Si Si3 0.029793 0.670462 0.081807
Si Si4 0.820021 0.831962 0.513427
Si Si5 0.030409 0.671834 0.353231
Si Si6 0.358616 0.836414 0.026178
Si Si7 0.200558 0.827859 0.092250
O O1 0.636794 0.233456 0.472257
O O2 0.587399 0.205988 0.317700
O O3 0.683181 0.262476 0.236651
O O4 0.648667 0.000000 0.324303
O O5 0.233629 0.801004 0.370088
O O6 0.317781 0.716827 0.378017
O O7 0.317738 0.833001 0.171377
O O8 0.295995 0.000000 0.378761
O O9 0.016859 0.500000 0.100730
O O10 0.017793 0.733513 0.231180
O O11 0.086696 0.698729 0.986714
O O12 0.000000 0.741616 0.000000
O O13 0.835954 0.000000 0.504097
O O14 0.019919 0.500000 0.362980
O O15 0.000000 0.740402 0.500000
O O16 0.358788 0.000000 0.965650
O O17 0.343857 0.711413 0.949278
O O18 0.209290 0.000000 0.092587
O O19 0.250000 0.750000 0.000000
#
# Coordination Sequence:
#
# PCOD8092764 Si02
#       7
#     8   8   8   8   8   8   8
#     4  11  21  36  58  84 116 151 193 245 298 352
#     4   9  19  34  53  77 108 149 193 239 289 347
#     4   9  17  31  54  84 116 150 194 252 307 355
#     4  10  20  34  52  78 114 152 192 237 289 355
#     4   9  18  33  55  85 118 150 192 250 307 356
#     4  10  19  35  57  83 114 149 196 248 296 349
#     4  12  24  37  57  85 118 156 196 238 295 360
#
# _framework density 20.261803
#
# number of rings (size 3 to 8) (size 9 to 14) (size 15 to 20)
#    0.000    2.000    1.429    3.000    0.000    3.429 
#    0.000    4.286    0.000    2.143    0.000    0.000 
#    0.000    0.000    0.000    0.000    0.000    0.000 
#
# Total GULP energy -346918.921116 kJ/mol
# GULP energy per Si atom -12389.961468 kJ/mol
# Density = 2.021569 g / cm^3
# Si number density = 20.261803 Si / 1000 Ang^3
#
#
#
# Elastic Constant Matrix: (Units=GPa)
#
#
# Indices 1 2 3 4 5 6 
#
# 1 85.6569 38.9173 14.7514 0.0000 32.8748 0.0000
# 2 38.9173 93.9957 21.1459 0.0000 9.2400 0.0000
# 3 14.7514 21.1459 70.0806 0.0000 16.2608 0.0000
# 4 0.0000 0.0000 0.0000 21.1407 0.0000 9.6443
# 5 32.8748 9.2400 16.2608 0.0000 31.0660 0.0000
# 6 0.0000 0.0000 0.0000 9.6443 0.0000 20.4514
#
#
#
# Elastic Compliance Matrix: (Units=1/GPa)
#
#
# Indices 1 2 3 4 5 6 
#
# 1 0.024654 -0.008449 0.003222 0.000000 -0.025263 0.000000
# 2 -0.008449 0.014399 -0.004151 0.000000 0.006831 0.000000
# 3 0.003222 -0.004151 0.017470 0.000000 -0.011319 0.000000
# 4 0.000000 0.000000 0.000000 0.060268 0.000000 -0.028420
# 5 -0.025263 0.006831 -0.011319 0.000000 0.062816 0.000000
# 6 0.000000 0.000000 0.000000 -0.028420 0.000000 0.062299
#
#
# Mechanical properties :
#
#
# Convention : Reuss Voigt Hill
#
# Bulk Modulus (GPa) = 26.47878 44.37362 35.42620
# Shear Modulus (GPa) = 18.29811 26.19285 22.24548
#
# Velocity S-wave (km/s) = 3.00840 3.59934 3.31706
# Velocity P-wave (km/s) = 5.01637 6.26270 5.67386
#
# Compressibility (1/GPa) = 0.03776609
#
# Stress axis : x y z
#
# Youngs Moduli (GPa) = 40.56097 69.44751 57.24075
#
# Poissons Ratio (x) = 0.58676 -0.18441
# Poissons Ratio (y) = 0.34270 0.23763
# Poissons Ratio (z) = -0.13067 0.28830
#
# Static dielectric constant tensor:
#      x y z
#    x 3.794040 0.000000 0.203890 
#    y 0.000000 3.440210 0.000000 
#    z 0.203890 0.000000 3.920860 
# 
# 
# High freq. dielectric constant tensor:
#      x y z
#    x 1.793140 0.000000 0.012770 
#    y 0.000000 1.752020 0.000000 
#    z 0.012770 0.000000 1.796080 
# 
# From -- ./inp_files/181152.got.cif
#   From: 2010.06.25/outbox.cif.g09.slc.cpg/sg12_91_cif.got.tgz:181152.got - 2010.06.28 00:19:55.
