data_PCOD8092850
_publ_section_title
;
Structure prediction by ZEFSAII (Michael W. Deem and Ramdas Pophale) SiO2 
 PCOD8092850
Probable space group: C 2/M
;
_chemical_formula_sum "Si O2"
_cell_formula_units_Z 64
_cell_length_a 20.904678
_cell_length_b 8.614759
_cell_length_c 19.088797
_cell_angle_alpha 90.000000
_cell_angle_beta 108.887781
_cell_angle_gamma 90.000000
_cell_volume 3252.574069
_symmetry_space_group_name_H-M "C 2/M"
_symmetry_group_IT_number 12
_symmetry_cell_setting 'monoclinic'
loop_
_space_group_symop_operation_xyz
x,y,z
-x,y,-z
-x,-y,-z
x,-y,z
1/2+x,1/2+y,z
1/2-x,1/2+y,-z
1/2-x,1/2-y,-z
1/2+x,1/2-y,z
loop_
_atom_site_type_symbol
_atom_site_label
_atom_site_fract_x
_atom_site_fract_y
_atom_site_fract_z
Si Si1 0.955044 0.183376 0.420703
Si Si2 0.169268 0.820000 0.141619
Si Si3 0.686095 0.819388 0.650486
Si Si4 0.834950 0.817162 0.701746
Si Si5 0.476531 0.684851 0.699273
Si Si6 0.694888 0.321254 0.801520
Si Si7 0.574820 0.829816 0.001201
Si Si8 0.422750 0.182850 0.157235
O O1 0.877641 0.233882 0.407285
O O2 0.000000 0.250865 0.500000
O O3 0.987284 0.244791 0.359016
O O4 0.957586 0.000000 0.421213
O O5 0.148387 0.764292 0.212599
O O6 0.232957 0.718124 0.139148
O O7 0.188991 0.000000 0.148732
O O8 0.110955 0.791641 0.064908
O O9 0.760243 0.754267 0.650810
O O10 0.681658 0.791197 0.731528
O O11 0.678370 0.000000 0.631185
O O12 0.896652 0.765297 0.672687
O O13 0.828347 0.000000 0.698440
O O14 0.483790 0.500000 0.709732
O O15 0.510111 0.768090 0.777391
O O16 0.690002 0.500000 0.775874
O O17 0.639113 0.285466 0.838784
O O18 0.571405 0.767240 0.921148
O O19 0.610311 0.000000 0.017026
O O20 0.500000 0.848429 0.000000
O O21 0.410205 0.000000 0.162256
#
# Coordination Sequence:
#
# PCOD8092850 Si02
#       8
#     8   8   8   8   8   8   8   8
#     4  10  21  36  56  84 116 150 186 226 274 330
#     4  10  20  35  55  79 108 141 185 235 279 327
#     4  10  19  35  58  83 113 144 184 232 277 328
#     4   8  17  33  55  82 108 143 186 231 277 321
#     4  10  19  35  58  81 109 145 188 229 272 331
#     4  11  21  35  56  80 107 143 183 224 278 335
#     4  10  22  38  53  74 108 147 183 227 283 333
#     4  11  22  35  54  80 110 141 182 232 276 323
#
# _framework density 19.676722999999999
#
# number of rings (size 3 to 8) (size 9 to 14) (size 15 to 20)
#    0.000    2.000    1.250    3.750    0.000    2.000 
#    0.000    3.750    0.000    0.000    0.000    0.000 
#    0.000    0.000    0.000    0.000    0.000    0.000 
#
# Total GULP energy -396645.700317 kJ/mol
# GULP energy per Si atom -12395.178135 kJ/mol
# Density = 1.963194 g / cm^3
# Si number density = 19.676723 Si / 1000 Ang^3
#
#
#
# Elastic Constant Matrix: (Units=GPa)
#
#
# Indices 1 2 3 4 5 6 
#
# 1 123.5937 17.7143 37.1331 0.0000 19.2100 0.0000
# 2 17.7143 37.6904 11.4507 0.0000 4.7769 0.0000
# 3 37.1331 11.4507 94.2807 0.0000 23.5835 0.0000
# 4 0.0000 0.0000 0.0000 24.0770 0.0000 7.5955
# 5 19.2100 4.7769 23.5835 0.0000 24.2163 0.0000
# 6 0.0000 0.0000 0.0000 7.5955 0.0000 26.5877
#
#
#
# Elastic Compliance Matrix: (Units=1/GPa)
#
#
# Indices 1 2 3 4 5 6 
#
# 1 0.010051 -0.003388 -0.002274 0.000000 -0.005090 0.000000
# 2 -0.003388 0.028843 -0.001874 0.000000 -0.001177 0.000000
# 3 -0.002274 -0.001874 0.014789 0.000000 -0.012229 0.000000
# 4 0.000000 0.000000 0.000000 0.045647 0.000000 -0.013040
# 5 -0.005090 -0.001177 -0.012229 0.000000 0.057474 0.000000
# 6 0.000000 0.000000 0.000000 -0.013040 0.000000 0.041337
#
#
# Mechanical properties :
#
#
# Convention : Reuss Voigt Hill
#
# Bulk Modulus (GPa) = 25.89984 43.12899 34.51441
# Shear Modulus (GPa) = 22.11577 27.59397 24.85487
#
# Velocity S-wave (km/s) = 3.35618 3.74888 3.55795
# Velocity P-wave (km/s) = 5.31130 6.38006 5.87005
#
# Compressibility (1/GPa) = 0.03861027
#
# Stress axis : x y z
#
# Youngs Moduli (GPa) = 99.49290 34.67068 67.61880
#
# Poissons Ratio (x) = 0.11746 0.15376
# Poissons Ratio (y) = 0.33707 0.12674
# Poissons Ratio (z) = 0.22623 0.06499
#
# Static dielectric constant tensor:
#      x y z
#    x 3.936680 0.000000 0.205760 
#    y 0.000000 3.425650 0.000000 
#    z 0.205760 0.000000 3.857710 
# 
# 
# High freq. dielectric constant tensor:
#      x y z
#    x 1.777740 0.000000 0.013840 
#    y 0.000000 1.751960 0.000000 
#    z 0.013840 0.000000 1.748130 
# 
# From -- ./inp_files/320082.got.cif
#   From: 2010.06.25/outbox.cif.g09.slc.cpg/sg12_161_cif.got.tgz:320082.got - 2010.06.28 00:19:55.
