data_PCOD8092330
_publ_section_title
;
Structure prediction by ZEFSAII (Michael W. Deem and Ramdas Pophale) SiO2 
 PCOD8092330
Probable space group: C 2/M
;
_chemical_formula_sum "Si O2"
_cell_formula_units_Z 56
_cell_length_a 29.344594
_cell_length_b 12.505861
_cell_length_c 9.374462
_cell_angle_alpha 90.000000
_cell_angle_beta 58.870743
_cell_angle_gamma 90.000000
_cell_volume 2944.851851
_symmetry_space_group_name_H-M "C 2/M"
_symmetry_group_IT_number 12
_symmetry_cell_setting 'monoclinic'
loop_
_space_group_symop_operation_xyz
x,y,z
-x,y,-z
-x,-y,-z
x,-y,z
1/2+x,1/2+y,z
1/2-x,1/2+y,-z
1/2-x,1/2-y,-z
1/2+x,1/2-y,z
loop_
_atom_site_type_symbol
_atom_site_label
_atom_site_fract_x
_atom_site_fract_y
_atom_site_fract_z
Si Si1 0.140679 0.302593 0.346384
Si Si2 0.723698 0.875951 0.410629
Si Si3 0.602568 0.791136 0.096542
Si Si4 0.098334 0.122614 0.599936
Si Si5 0.571799 0.000000 0.507733
Si Si6 0.042633 0.500000 0.225926
Si Si7 0.983948 0.122427 0.682676
Si Si8 0.167761 0.772514 0.721740
O O1 0.201139 0.322687 0.301078
O O2 0.137391 0.311535 0.181967
O O3 0.121466 0.185631 0.426336
O O4 0.105050 0.392561 0.483847
O O5 0.786758 0.858343 0.315148
O O6 0.693663 0.825157 0.594326
O O7 0.711094 0.000000 0.432409
O O8 0.567548 0.894723 0.114266
O O9 0.564204 0.689908 0.176209
O O10 0.644144 0.772938 0.904758
O O11 0.121033 0.169668 0.709764
O O12 0.034355 0.132546 0.706462
O O13 0.116069 0.000000 0.552559
O O14 0.553284 0.000000 0.375642
O O15 0.521016 0.000000 0.695502
O O16 0.000000 0.166799 0.500000
O O17 0.964568 0.000000 0.700842
#
# Coordination Sequence:
#
# PCOD8092330 Si02
#       8
#     8   8   8   8   4   4   8   8
#     4  10  19  34  63  87 116 155 199 250 291 349
#     4  10  21  42  63  80 112 159 208 249 305 359
#     4  11  22  37  58  92 126 151 198 248 302 358
#     4  10  20  37  59  85 119 159 203 236 293 361
#     4   9  16  32  53  91 115 159 195 225 292 358
#     4   9  20  30  55  85 129 155 186 239 293 351
#     4  10  20  35  59  88 120 162 198 242 295 359
#     4  10  24  39  60  87 116 159 198 254 305 359
#
# _framework density 19.016237
#
# number of rings (size 3 to 8) (size 9 to 14) (size 15 to 20)
#    0.000    2.000    2.143    1.286    3.000    2.286 
#    0.000    1.429    0.000    2.571    0.000    0.000 
#    0.000    0.000    0.000    0.000    0.000    0.000 
#
# Total GULP energy -347269.011228 kJ/mol
# GULP energy per Si atom -12402.464687 kJ/mol
# Density = 1.897296 g / cm^3
# Si number density = 19.016237 Si / 1000 Ang^3
#
#
#
# Elastic Constant Matrix: (Units=GPa)
#
#
# Indices 1 2 3 4 5 6 
#
# 1 100.5692 20.8157 47.5383 0.0000 2.9811 0.0000
# 2 20.8157 105.1054 44.0737 0.0000 -2.5440 0.0000
# 3 47.5383 44.0737 106.3380 0.0000 -4.4152 0.0000
# 4 0.0000 0.0000 0.0000 16.4488 0.0000 -1.4109
# 5 2.9811 -2.5440 -4.4152 0.0000 20.0092 0.0000
# 6 0.0000 0.0000 0.0000 -1.4109 0.0000 25.1160
#
#
#
# Elastic Compliance Matrix: (Units=1/GPa)
#
#
# Indices 1 2 3 4 5 6 
#
# 1 0.012811 -0.000191 -0.005781 0.000000 -0.003209 0.000000
# 2 -0.000191 0.011522 -0.004671 0.000000 0.000463 0.000000
# 3 -0.005781 -0.004671 0.014064 0.000000 0.003371 0.000000
# 4 0.000000 0.000000 0.000000 0.061089 0.000000 0.003432
# 5 -0.003209 0.000463 0.003371 0.000000 0.051258 0.000000
# 6 0.000000 0.000000 0.000000 0.003432 0.000000 0.040008
#
#
# Mechanical properties :
#
#
# Convention : Reuss Voigt Hill
#
# Bulk Modulus (GPa) = 58.44079 59.65199 59.04639
# Shear Modulus (GPa) = 22.96302 25.62046 24.29174
#
# Velocity S-wave (km/s) = 3.47875 3.67453 3.57798
# Velocity P-wave (km/s) = 6.85087 7.03136 6.94170
#
# Compressibility (1/GPa) = 0.01711134
#
# Stress axis : x y z
#
# Youngs Moduli (GPa) = 78.05968 86.79125 71.10120
#
# Poissons Ratio (x) = 0.01654 0.41106
# Poissons Ratio (y) = 0.01487 0.33212
# Poissons Ratio (z) = 0.45128 0.40541
#
# Static dielectric constant tensor:
#      x y z
#    x 3.751650 0.000000 0.030880 
#    y 0.000000 3.573560 0.000000 
#    z 0.030880 0.000000 3.084760 
# 
# 
# High freq. dielectric constant tensor:
#      x y z
#    x 1.753160 0.000000 0.003090 
#    y 0.000000 1.752150 0.000000 
#    z 0.003090 0.000000 1.701060 
# 
# From -- ./inp_files/110371.got.cif
#   From: 2010.06.25/outbox.cif.g09.slc.cpg/sg12_56_cif.got.tgz:110371.got - 2010.06.28 00:19:55.
