data_PCOD8092807
_publ_section_title
;
Structure prediction by ZEFSAII (Michael W. Deem and Ramdas Pophale) SiO2 
 PCOD8092807
Probable space group: C 2/M
;
_chemical_formula_sum "Si O2"
_cell_formula_units_Z 52
_cell_length_a 8.588170
_cell_length_b 20.124296
_cell_length_c 20.058625
_cell_angle_alpha 90.000000
_cell_angle_beta 131.233243
_cell_angle_gamma 90.000000
_cell_volume 2607.108838
_symmetry_space_group_name_H-M "C 2/M"
_symmetry_group_IT_number 12
_symmetry_cell_setting 'monoclinic'
loop_
_space_group_symop_operation_xyz
x,y,z
-x,y,-z
-x,-y,-z
x,-y,z
1/2+x,1/2+y,z
1/2-x,1/2+y,-z
1/2-x,1/2-y,-z
1/2+x,1/2-y,z
loop_
_atom_site_type_symbol
_atom_site_label
_atom_site_fract_x
_atom_site_fract_y
_atom_site_fract_z
Si Si1 0.000000 0.369467 0.000000
Si Si2 0.984454 0.426385 0.139121
Si Si3 0.595798 0.331588 0.421775
Si Si4 0.930161 0.817270 0.157200
Si Si5 0.958389 0.075514 0.275200
Si Si6 0.337701 0.180818 0.195967
Si Si7 0.191239 0.693072 0.388270
O O1 0.798140 0.323105 0.938329
O O2 0.025983 0.415530 0.942960
O O3 0.897177 0.500000 0.129531
O O4 0.847713 0.373358 0.140306
O O5 0.219766 0.420353 0.230133
O O6 0.593364 0.396753 0.374670
O O7 0.747965 0.346330 0.526977
O O8 0.366256 0.314086 0.381739
O O9 0.678284 0.270963 0.400895
O O10 0.991873 0.880934 0.218563
O O11 0.936571 0.750467 0.201677
O O12 0.097372 0.811336 0.145697
O O13 0.026033 0.000000 0.278658
O O14 0.477023 0.161644 0.299853
#
# Coordination Sequence:
#
# PCOD8092807 Si02
#       7
#     4   8   8   8   8   8   8
#     4  10  23  44  62  90 117 154 204 248 299 366
#     4  10  22  40  64  87 121 159 197 247 302 362
#     4  10  19  35  57  89 116 159 198 246 290 343
#     4  11  24  38  64  88 119 155 201 250 305 353
#     4  10  20  38  59  85 120 162 203 243 299 357
#     4  12  22  39  62  91 122 155 197 250 300 359
#     4  10  20  33  58  89 120 149 202 243 290 344
#
# _framework density 19.945466
#
# number of rings (size 3 to 8) (size 9 to 14) (size 15 to 20)
#    0.000    1.538    3.077    3.000    0.000    4.308 
#    0.000    3.077    0.000    0.923    0.000    0.000 
#    0.000    0.000    0.000    0.000    0.000    0.000 
#
# Total GULP energy -322461.912695 kJ/mol
# GULP energy per Si atom -12402.381258 kJ/mol
# Density = 1.990007 g / cm^3
# Si number density = 19.945466 Si / 1000 Ang^3
#
#
#
# Elastic Constant Matrix: (Units=GPa)
#
#
# Indices 1 2 3 4 5 6 
#
# 1 101.2878 47.7077 32.6452 0.0000 -3.1168 0.0000
# 2 47.7077 125.9644 44.1001 0.0000 -15.8822 0.0000
# 3 32.6452 44.1001 122.7338 0.0000 -1.8550 0.0000
# 4 0.0000 0.0000 0.0000 21.4193 0.0000 -4.3463
# 5 -3.1168 -15.8822 -1.8550 0.0000 25.4363 0.0000
# 6 0.0000 0.0000 0.0000 -4.3463 0.0000 26.1621
#
#
#
# Elastic Compliance Matrix: (Units=1/GPa)
#
#
# Indices 1 2 3 4 5 6 
#
# 1 0.012405 -0.004226 -0.001800 0.000000 -0.001250 0.000000
# 2 -0.004226 0.011340 -0.002855 0.000000 0.006354 0.000000
# 3 -0.001800 -0.002855 0.009633 0.000000 -0.001300 0.000000
# 4 0.000000 0.000000 0.000000 0.048316 0.000000 0.008027
# 5 -0.001250 0.006354 -0.001300 0.000000 0.043034 0.000000
# 6 0.000000 0.000000 0.000000 0.008027 0.000000 0.039557
#
#
# Mechanical properties :
#
#
# Convention : Reuss Voigt Hill
#
# Bulk Modulus (GPa) = 64.03394 66.54356 65.28875
# Shear Modulus (GPa) = 26.70242 29.63907 28.17074
#
# Velocity S-wave (km/s) = 3.66289 3.85906 3.76225
# Velocity P-wave (km/s) = 7.07554 7.30011 7.18870
#
# Compressibility (1/GPa) = 0.01561672
#
# Stress axis : x y z
#
# Youngs Moduli (GPa) = 80.61352 88.18557 103.81484
#
# Poissons Ratio (x) = 0.37264 0.18687
# Poissons Ratio (y) = 0.34064 0.29635
# Poissons Ratio (z) = 0.14511 0.25173
#
# Static dielectric constant tensor:
#      x y z
#    x 3.482220 0.000000 0.011130 
#    y 0.000000 3.487670 0.000000 
#    z 0.011130 0.000000 3.789910 
# 
# 
# High freq. dielectric constant tensor:
#      x y z
#    x 1.769690 0.000000 -0.005930 
#    y 0.000000 1.759750 0.000000 
#    z -0.005930 0.000000 1.787520 
# 
# From -- ./inp_files/301172.got.cif
#   From: 2010.06.25/outbox.cif.g09.slc.cpg/sg12_151_cif.got.tgz:301172.got - 2010.06.28 00:19:55.
