data_PCOD8092289
_publ_section_title
;
Structure prediction by ZEFSAII (Michael W. Deem and Ramdas Pophale) SiO2 
 PCOD8092289
Probable space group: C 2/M
;
_chemical_formula_sum "Si O2"
_cell_formula_units_Z 48
_cell_length_a 19.614110
_cell_length_b 13.936091
_cell_length_c 9.630778
_cell_angle_alpha 90.000000
_cell_angle_beta 67.717596
_cell_angle_gamma 90.000000
_cell_volume 2435.935672
_symmetry_space_group_name_H-M "C 2/M"
_symmetry_group_IT_number 12
_symmetry_cell_setting 'monoclinic'
loop_
_space_group_symop_operation_xyz
x,y,z
-x,y,-z
-x,-y,-z
x,-y,z
1/2+x,1/2+y,z
1/2-x,1/2+y,-z
1/2-x,1/2-y,-z
1/2+x,1/2-y,z
loop_
_atom_site_type_symbol
_atom_site_label
_atom_site_fract_x
_atom_site_fract_y
_atom_site_fract_z
Si Si1 0.490354 0.289746 0.358038
Si Si2 0.227628 0.606806 0.573293
Si Si3 0.136598 0.886260 0.705884
Si Si4 0.402030 0.893372 0.530228
Si Si5 0.298639 0.235961 0.156787
Si Si6 0.860219 0.712479 0.821375
O O1 0.500000 0.343188 0.500000
O O2 0.442340 0.349264 0.285463
O O3 0.456861 0.183494 0.417474
O O4 0.571229 0.285913 0.227268
O O5 0.234193 0.500000 0.627580
O O6 0.307481 0.643442 0.461452
O O7 0.177617 0.612807 0.476515
O O8 0.190251 0.668695 0.720502
O O9 0.162946 0.837161 0.830379
O O10 0.135179 0.000000 0.733494
O O11 0.387034 0.876220 0.705958
O O12 0.436106 0.000000 0.484498
O O13 0.212098 0.240718 0.191148
O O14 0.341023 0.186423 0.995011
#
# Coordination Sequence:
#
# PCOD8092289 Si02
#       6
#     8   8   8   8   8   8
#     4  10  21  38  58  90 120 157 194 246 302 350
#     4  10  19  34  61  89 111 148 198 243 289 352
#     4  11  22  38  64  87 115 161 209 249 289 351
#     4  10  19  36  62  89 116 151 195 238 291 358
#     4  11  21  40  59  86 118 157 198 245 297 348
#     4  10  23  36  58  85 121 156 195 244 296 353
#
# _framework density 19.704953
#
# number of rings (size 3 to 8) (size 9 to 14) (size 15 to 20)
#    0.000    1.667    3.333    2.500    0.000    4.667 
#    0.000    5.000    0.000    3.000    0.000    0.000 
#    0.000    0.000    0.000    0.000    0.000    0.000 
#
# Total GULP energy -297439.828058 kJ/mol
# GULP energy per Si atom -12393.326169 kJ/mol
# Density = 1.966010 g / cm^3
# Si number density = 19.704953 Si / 1000 Ang^3
#
#
#
# Elastic Constant Matrix: (Units=GPa)
#
#
# Indices 1 2 3 4 5 6 
#
# 1 135.7467 27.8185 37.6436 0.0000 -3.2567 0.0000
# 2 27.8185 66.8769 42.4992 0.0000 8.4193 0.0000
# 3 37.6436 42.4992 103.1545 0.0000 3.6951 0.0000
# 4 0.0000 0.0000 0.0000 13.9723 0.0000 4.2652
# 5 -3.2567 8.4193 3.6951 0.0000 26.7483 0.0000
# 6 0.0000 0.0000 0.0000 4.2652 0.0000 17.1261
#
#
#
# Elastic Compliance Matrix: (Units=1/GPa)
#
#
# Indices 1 2 3 4 5 6 
#
# 1 0.008519 -0.002418 -0.002188 0.000000 0.002101 0.000000
# 2 -0.002418 0.021703 -0.007843 0.000000 -0.006042 0.000000
# 3 -0.002188 -0.007843 0.013713 0.000000 0.000308 0.000000
# 4 0.000000 0.000000 0.000000 0.077459 0.000000 -0.019291
# 5 0.002101 -0.006042 0.000308 0.000000 0.039501 0.000000
# 6 0.000000 0.000000 0.000000 -0.019291 0.000000 0.063195
#
#
# Mechanical properties :
#
#
# Convention : Reuss Voigt Hill
#
# Bulk Modulus (GPa) = 52.52635 57.96674 55.24654
# Shear Modulus (GPa) = 19.58225 24.75711 22.16968
#
# Velocity S-wave (km/s) = 3.15584 3.54841 3.35786
# Velocity P-wave (km/s) = 6.32403 6.80216 6.56745
#
# Compressibility (1/GPa) = 0.01903807
#
# Stress axis : x y z
#
# Youngs Moduli (GPa) = 117.38085 46.07602 72.92402
#
# Poissons Ratio (x) = 0.11140 0.15956
# Poissons Ratio (y) = 0.28379 0.57194
# Poissons Ratio (z) = 0.25684 0.36137
#
# Static dielectric constant tensor:
#      x y z
#    x 3.865260 0.000000 0.035780 
#    y 0.000000 3.471430 0.000000 
#    z 0.035780 0.000000 3.512950 
# 
# 
# High freq. dielectric constant tensor:
#      x y z
#    x 1.791130 0.000000 0.002160 
#    y 0.000000 1.745450 0.000000 
#    z 0.002160 0.000000 1.753800 
# 
# From -- ./inp_files/85692.got.cif
#   From: 2010.06.25/outbox.cif.g09.slc.cpg/sg12_43_cif.got.tgz:85692.got - 2010.06.28 00:19:55.
