data_PCOD8092407
_publ_section_title
;
Structure prediction by ZEFSAII (Michael W. Deem and Ramdas Pophale) SiO2 
 PCOD8092407
Probable space group: C 2/M
;
_chemical_formula_sum "Si O2"
_cell_formula_units_Z 64
_cell_length_a 11.131739
_cell_length_b 17.824182
_cell_length_c 17.759005
_cell_angle_alpha 90.000000
_cell_angle_beta 77.682234
_cell_angle_gamma 90.000000
_cell_volume 3442.521737
_symmetry_space_group_name_H-M "C 2/M"
_symmetry_group_IT_number 12
_symmetry_cell_setting 'monoclinic'
loop_
_space_group_symop_operation_xyz
x,y,z
-x,y,-z
-x,-y,-z
x,-y,z
1/2+x,1/2+y,z
1/2-x,1/2+y,-z
1/2-x,1/2-y,-z
1/2+x,1/2-y,z
loop_
_atom_site_type_symbol
_atom_site_label
_atom_site_fract_x
_atom_site_fract_y
_atom_site_fract_z
Si Si1 0.527696 0.800870 0.910957
Si Si2 0.303267 0.735016 0.847674
Si Si3 0.461676 0.333734 0.624466
Si Si4 0.907142 0.681345 0.696362
Si Si5 0.193041 0.169250 0.492567
Si Si6 0.933184 0.416639 0.220091
Si Si7 0.658032 0.583287 0.233746
Si Si8 0.623554 0.913499 0.442489
O O1 0.407243 0.757788 0.894647
O O2 0.659301 0.755782 0.891285
O O3 0.541533 0.877252 0.862922
O O4 0.500000 0.822188 0.000000
O O5 0.310759 0.786729 0.771200
O O6 0.336011 0.647391 0.830570
O O7 0.483590 0.251965 0.656749
O O8 0.337396 0.334356 0.591467
O O9 0.575638 0.350543 0.557848
O O10 0.446915 0.396058 0.691489
O O11 0.843822 0.637627 0.635013
O O12 0.003720 0.625064 0.719558
O O13 0.250000 0.250000 0.500000
O O14 0.280978 0.101407 0.503665
O O15 0.988426 0.500000 0.206695
O O16 0.789148 0.418267 0.257911
O O17 0.628864 0.500000 0.203756
O O18 0.500000 0.887768 0.500000
O O19 0.622348 0.000000 0.417843
#
# Coordination Sequence:
#
# PCOD8092407 Si02
#       8
#     8   8   8   8   8   8   8   8
#     4  10  19  35  59  86 116 144 180 226 271 326
#     4   9  20  35  57  86 110 147 185 223 272 330
#     4  10  22  34  55  76  95 139 181 227 276 326
#     4  10  19  35  54  78 108 141 181 230 266 321
#     4  11  22  37  51  71 103 133 180 230 279 327
#     4   9  19  33  54  82 113 145 178 215 267 325
#     4   9  19  35  54  78 107 143 181 220 265 321
#     4  11  24  37  53  78 105 141 183 229 282 326
#
# _framework density 18.591024000000001
#
# number of rings (size 3 to 8) (size 9 to 14) (size 15 to 20)
#    0.000    2.125    1.250    1.500    3.500    4.250 
#    0.000    1.250    0.000    3.375    0.000    0.000 
#    0.000    0.000    0.000    0.000    0.000    0.000 
#
# Total GULP energy -396534.769788 kJ/mol
# GULP energy per Si atom -12391.711556 kJ/mol
# Density = 1.854871 g / cm^3
# Si number density = 18.591024 Si / 1000 Ang^3
#
#
#
# Elastic Constant Matrix: (Units=GPa)
#
#
# Indices 1 2 3 4 5 6 
#
# 1 91.1764 31.9186 29.6526 0.0000 4.4534 0.0000
# 2 31.9186 107.0772 35.0477 0.0000 7.2565 0.0000
# 3 29.6526 35.0477 78.7513 0.0000 2.2195 0.0000
# 4 0.0000 0.0000 0.0000 16.6683 0.0000 3.2879
# 5 4.4534 7.2565 2.2195 0.0000 25.2426 0.0000
# 6 0.0000 0.0000 0.0000 3.2879 0.0000 21.1354
#
#
#
# Elastic Compliance Matrix: (Units=1/GPa)
#
#
# Indices 1 2 3 4 5 6 
#
# 1 0.013165 -0.002609 -0.003761 0.000000 -0.001242 0.000000
# 2 -0.002609 0.011638 -0.004126 0.000000 -0.002523 0.000000
# 3 -0.003761 -0.004126 0.015938 0.000000 0.000448 0.000000
# 4 0.000000 0.000000 0.000000 0.061893 0.000000 -0.009628
# 5 -0.001242 -0.002523 0.000448 0.000000 0.040520 0.000000
# 6 0.000000 0.000000 0.000000 -0.009628 0.000000 0.048812
#
#
# Mechanical properties :
#
#
# Convention : Reuss Voigt Hill
#
# Bulk Modulus (GPa) = 50.63534 52.24917 51.44225
# Shear Modulus (GPa) = 22.77472 24.63500 23.70486
#
# Velocity S-wave (km/s) = 3.50385 3.64414 3.57469
# Velocity P-wave (km/s) = 6.60794 6.77288 6.69092
#
# Compressibility (1/GPa) = 0.01974905
#
# Stress axis : x y z
#
# Youngs Moduli (GPa) = 75.95936 85.92348 62.74352
#
# Poissons Ratio (x) = 0.22419 0.23597
# Poissons Ratio (y) = 0.19819 0.25888
# Poissons Ratio (z) = 0.28567 0.35452
#
# Static dielectric constant tensor:
#      x y z
#    x 3.632980 0.000000 0.074240 
#    y 0.000000 3.456720 0.000000 
#    z 0.074240 0.000000 3.358550 
# 
# 
# High freq. dielectric constant tensor:
#      x y z
#    x 1.719140 0.000000 -0.001170 
#    y 0.000000 1.719160 0.000000 
#    z -0.001170 0.000000 1.711690 
# 
# From -- ./inp_files/263879.got.cif
#   From: 2010.06.25/outbox.cif.g09.slc.cpg/sg12_132_cif.got.tgz:263879.got - 2010.06.28 00:19:55.
