data_PCOD8092360
_publ_section_title
;
Structure prediction by ZEFSAII (Michael W. Deem and Ramdas Pophale) SiO2 
 PCOD8092360
Probable space group: C 2/M
;
_chemical_formula_sum "Si O2"
_cell_formula_units_Z 64
_cell_length_a 22.925322
_cell_length_b 9.178963
_cell_length_c 21.444460
_cell_angle_alpha 90.000000
_cell_angle_beta 52.677266
_cell_angle_gamma 90.000000
_cell_volume 3588.546324
_symmetry_space_group_name_H-M "C 2/M"
_symmetry_group_IT_number 12
_symmetry_cell_setting 'monoclinic'
loop_
_space_group_symop_operation_xyz
x,y,z
-x,y,-z
-x,-y,-z
x,-y,z
1/2+x,1/2+y,z
1/2-x,1/2+y,-z
1/2-x,1/2-y,-z
1/2+x,1/2-y,z
loop_
_atom_site_type_symbol
_atom_site_label
_atom_site_fract_x
_atom_site_fract_y
_atom_site_fract_z
Si Si1 0.379977 0.167199 0.314880
Si Si2 0.583749 0.331224 0.454502
Si Si3 0.674660 0.827594 0.291536
Si Si4 0.519577 0.169993 0.918660
Si Si5 0.412955 0.332678 0.405610
Si Si6 0.517540 0.331707 0.171794
Si Si7 0.422563 0.333236 0.739014
Si Si8 0.183698 0.334739 0.770633
O O1 0.360284 0.232237 0.395945
O O2 0.445015 0.266025 0.248181
O O3 0.314793 0.178890 0.306237
O O4 0.405548 0.000000 0.304658
O O5 0.500000 0.282336 0.500000
O O6 0.592924 0.500000 0.429534
O O7 0.634473 0.234759 0.378071
O O8 0.609035 0.303537 0.508902
O O9 0.637449 0.771791 0.252220
O O10 0.758686 0.775469 0.236847
O O11 0.671831 0.000000 0.294979
O O12 0.465578 0.249978 0.904211
O O13 0.603952 0.206785 0.849131
O O14 0.503424 0.000000 0.922611
O O15 0.500000 0.227533 0.000000
O O16 0.400026 0.500000 0.395328
O O17 0.498165 0.291239 0.340513
O O18 0.504219 0.500000 0.165589
O O19 0.580538 0.311774 0.183676
O O20 0.404485 0.500000 0.732964
O O21 0.203951 0.500000 0.776571
#
# Coordination Sequence:
#
# PCOD8092360 Si02
#       8
#     8   8   8   8   8   8   8   8
#     4   9  17  30  50  73  98 130 167 212 259 300
#     4  10  19  35  53  69  97 136 175 211 257 316
#     4  12  24  33  48  75 103 133 172 220 260 292
#     4   9  18  34  58  86 110 132 162 204 253 299
#     4   9  17  30  51  74  95 127 169 214 260 306
#     4   9  17  29  49  77 105 134 168 204 244 296
#     4   9  17  32  50  70  99 136 174 207 250 306
#     4   9  19  36  54  72 101 140 170 195 245 314
#
# _framework density 17.834520000000001
#
# number of rings (size 3 to 8) (size 9 to 14) (size 15 to 20)
#    0.000    2.500    1.250    3.375    0.000    6.000 
#    0.000    0.625    0.000    0.750    0.000    0.000 
#    0.000    0.000    0.000    0.000    0.000    0.000 
#
# Total GULP energy -396666.783633 kJ/mol
# GULP energy per Si atom -12395.836989 kJ/mol
# Density = 1.779393 g / cm^3
# Si number density = 17.834520 Si / 1000 Ang^3
#
#
#
# Elastic Constant Matrix: (Units=GPa)
#
#
# Indices 1 2 3 4 5 6 
#
# 1 93.6476 60.7644 47.7642 0.0001 21.2536 0.0000
# 2 60.7644 97.9269 42.3339 0.0002 14.5467 -0.0004
# 3 47.7642 42.3339 72.5236 0.0003 23.7222 -0.0002
# 4 0.0001 0.0002 0.0003 24.2687 -0.0002 7.8377
# 5 21.2536 14.5467 23.7222 -0.0002 27.5955 0.0001
# 6 0.0000 -0.0004 -0.0002 7.8377 0.0001 32.5111
#
#
#
# Elastic Compliance Matrix: (Units=1/GPa)
#
#
# Indices 1 2 3 4 5 6 
#
# 1 0.021741 -0.009709 -0.006745 0.000000 -0.005828 0.000000
# 2 -0.009709 0.017999 -0.004806 0.000000 0.002121 0.000000
# 3 -0.006745 -0.004806 0.025748 0.000000 -0.014406 0.000000
# 4 0.000000 0.000000 0.000000 0.044684 0.000001 -0.010772
# 5 -0.005828 0.002121 -0.014406 0.000001 0.051993 0.000000
# 6 0.000000 0.000000 0.000000 -0.010772 0.000000 0.033356
#
#
# Mechanical properties :
#
#
# Convention : Reuss Voigt Hill
#
# Bulk Modulus (GPa) = 43.53734 62.86923 53.20328
# Shear Modulus (GPa) = 20.35039 24.42411 22.38725
#
# Velocity S-wave (km/s) = 3.38163 3.70467 3.54683
# Velocity P-wave (km/s) = 6.30175 7.32307 6.83153
#
# Compressibility (1/GPa) = 0.02296879
#
# Stress axis : x y z
#
# Youngs Moduli (GPa) = 45.99616 55.56002 38.83762
#
# Poissons Ratio (x) = 0.53942 0.26196
# Poissons Ratio (y) = 0.44657 0.18664
# Poissons Ratio (z) = 0.31024 0.26701
#
# Static dielectric constant tensor:
#      x y z
#    x 3.534710 0.000000 0.471540 
#    y 0.000000 3.339490 0.000000 
#    z 0.471540 0.000000 3.230310 
# 
# 
# High freq. dielectric constant tensor:
#      x y z
#    x 1.686110 0.000000 0.032440 
#    y 0.000000 1.689700 0.000000 
#    z 0.032440 0.000000 1.657710 
# 
# From -- ./inp_files/345521.got.cif
#   From: 2010.06.25/outbox.cif.g09.slc.cpg/sg12_173_cif.got.tgz:345521.got - 2010.06.28 00:19:55.
