data_PCOD8092061
_publ_section_title
;
Structure prediction by ZEFSAII (Michael W. Deem and Ramdas Pophale) SiO2 
 PCOD8092061
Probable space group: C 2/M
;
_chemical_formula_sum "Si O2"
_cell_formula_units_Z 64
_cell_length_a 17.899032
_cell_length_b 18.371306
_cell_length_c 13.932492
_cell_angle_alpha 90.000000
_cell_angle_beta 138.403299
_cell_angle_gamma 90.000000
_cell_volume 3041.515449
_symmetry_space_group_name_H-M "C 2/M"
_symmetry_group_IT_number 12
_symmetry_cell_setting 'monoclinic'
loop_
_space_group_symop_operation_xyz
x,y,z
-x,y,-z
-x,-y,-z
x,-y,z
1/2+x,1/2+y,z
1/2-x,1/2+y,-z
1/2-x,1/2-y,-z
1/2+x,1/2-y,z
loop_
_atom_site_type_symbol
_atom_site_label
_atom_site_fract_x
_atom_site_fract_y
_atom_site_fract_z
Si Si1 0.746435 0.832993 0.799489
Si Si2 0.590364 0.085306 0.794748
Si Si3 0.780402 0.222571 0.385336
Si Si4 0.406715 0.580480 0.829025
Si Si5 0.063350 0.824680 0.861633
Si Si6 0.082873 0.303175 0.326026
Si Si7 0.288265 0.418658 0.124374
Si Si8 0.627741 0.579899 0.590735
O O1 0.642546 0.871507 0.753596
O O2 0.712764 0.757252 0.714998
O O3 0.791336 0.887837 0.760927
O O4 0.846256 0.813920 0.968003
O O5 0.465971 0.116173 0.699539
O O6 0.580693 0.000000 0.759766
O O7 0.666768 0.098671 0.962433
O O8 0.836362 0.280589 0.509792
O O9 0.652583 0.203358 0.293744
O O10 0.847417 0.146158 0.457061
O O11 0.382346 0.500000 0.764041
O O12 0.451566 0.632646 0.788155
O O13 0.500000 0.575061 0.000000
O O14 0.115956 0.866416 0.823179
O O15 0.027961 0.746459 0.788308
O O16 0.324191 0.500000 0.127871
O O17 0.286169 0.411117 0.237009
O O18 0.500000 0.585304 0.500000
O O19 0.648492 0.500000 0.563001
#
# Coordination Sequence:
#
# PCOD8092061 Si02
#       8
#     8   8   8   8   8   8   8   8
#     4  10  21  36  62  91 122 154 203 256 297 363
#     4  10  23  42  64  91 124 163 206 252 306 366
#     4  11  25  42  60  88 124 158 203 256 304 364
#     4   9  16  30  53  84 120 155 192 244 302 351
#     4  10  19  34  58  90 120 161 198 243 304 360
#     4  11  25  42  60  84 125 163 203 250 306 367
#     4   9  19  36  60  94 125 153 200 252 299 360
#     4  10  22  40  64  91 120 158 202 249 305 365
#
# _framework density 21.042141999999998
#
# number of rings (size 3 to 8) (size 9 to 14) (size 15 to 20)
#    0.000    2.000    1.250    1.500    5.250    4.500 
#    0.000    2.500    0.000    2.250    0.000    0.000 
#    0.000    0.000    0.000    0.000    0.000    0.000 
#
# Total GULP energy -396791.059970 kJ/mol
# GULP energy per Si atom -12399.720624 kJ/mol
# Density = 2.099425 g / cm^3
# Si number density = 21.042142 Si / 1000 Ang^3
#
#
#
# Elastic Constant Matrix: (Units=GPa)
#
#
# Indices 1 2 3 4 5 6 
#
# 1 63.9208 33.9366 22.0772 0.0000 12.9727 0.0000
# 2 33.9366 111.9008 22.3901 0.0000 15.4580 0.0000
# 3 22.0772 22.3901 45.8530 0.0000 8.4834 0.0000
# 4 0.0000 0.0000 0.0000 27.2744 0.0000 6.9962
# 5 12.9727 15.4580 8.4834 0.0000 24.0773 0.0000
# 6 0.0000 0.0000 0.0000 6.9962 0.0000 32.4457
#
#
#
# Elastic Compliance Matrix: (Units=1/GPa)
#
#
# Indices 1 2 3 4 5 6 
#
# 1 0.021685 -0.004253 -0.007175 0.000000 -0.006425 0.000000
# 2 -0.004253 0.011330 -0.002741 0.000000 -0.004016 0.000000
# 3 -0.007175 -0.002741 0.027344 0.000000 -0.004008 0.000000
# 4 0.000000 0.000000 0.000000 0.038811 0.000000 -0.008369
# 5 -0.006425 -0.004016 -0.004008 0.000000 0.048985 0.000000
# 6 0.000000 0.000000 0.000000 -0.008369 0.000000 0.032625
#
#
# Mechanical properties :
#
#
# Convention : Reuss Voigt Hill
#
# Bulk Modulus (GPa) = 31.23190 42.05358 36.64274
# Shear Modulus (GPa) = 22.74880 26.31089 24.52984
#
# Velocity S-wave (km/s) = 3.29159 3.53992 3.41801
# Velocity P-wave (km/s) = 5.41487 6.06109 5.74707
#
# Compressibility (1/GPa) = 0.03201854
#
# Stress axis : x y z
#
# Youngs Moduli (GPa) = 46.11585 88.26358 36.57142
#
# Poissons Ratio (x) = 0.37540 0.26240
# Poissons Ratio (y) = 0.19614 0.10026
# Poissons Ratio (z) = 0.33089 0.24197
#
# Static dielectric constant tensor:
#      x y z
#    x 3.663090 0.000000 -0.031070 
#    y 0.000000 3.973570 0.000000 
#    z -0.031070 0.000000 3.601780 
# 
# 
# High freq. dielectric constant tensor:
#      x y z
#    x 1.809240 0.000000 -0.000530 
#    y 0.000000 1.834440 0.000000 
#    z -0.000530 0.000000 1.809850 
# 
# From -- ./inp_files/226880.got.cif
#   From: 2010.06.25/outbox.cif.g09.slc.cpg/sg12_114_cif.got.tgz:226880.got - 2010.06.28 00:19:55.
