data_PCOD8092775
_publ_section_title
;
Structure prediction by ZEFSAII (Michael W. Deem and Ramdas Pophale) SiO2 
 PCOD8092775
Probable space group: C 2/M
;
_chemical_formula_sum "Si O2"
_cell_formula_units_Z 48
_cell_length_a 14.412983
_cell_length_b 11.889829
_cell_length_c 26.565219
_cell_angle_alpha 90.000000
_cell_angle_beta 148.005944
_cell_angle_gamma 90.000000
_cell_volume 2412.017644
_symmetry_space_group_name_H-M "C 2/M"
_symmetry_group_IT_number 12
_symmetry_cell_setting 'monoclinic'
loop_
_space_group_symop_operation_xyz
x,y,z
-x,y,-z
-x,-y,-z
x,-y,z
1/2+x,1/2+y,z
1/2-x,1/2+y,-z
1/2-x,1/2-y,-z
1/2+x,1/2-y,z
loop_
_atom_site_type_symbol
_atom_site_label
_atom_site_fract_x
_atom_site_fract_y
_atom_site_fract_z
Si Si1 0.184889 0.278003 0.731885
Si Si2 0.703973 0.372579 0.914095
Si Si3 0.463012 0.180623 0.108778
Si Si4 0.638238 0.130474 0.603993
Si Si5 0.839331 0.000000 0.855756
Si Si6 0.754039 0.000000 0.932263
Si Si7 0.986000 0.870541 0.270642
O O1 0.327529 0.176084 0.793197
O O2 0.106551 0.304710 0.641388
O O3 0.265581 0.389078 0.794415
O O4 0.028507 0.220048 0.691427
O O5 0.646721 0.500000 0.896191
O O6 0.581705 0.308673 0.897675
O O7 0.672147 0.341879 0.841222
O O8 0.904269 0.350207 0.024252
O O9 0.359658 0.106136 0.101803
O O10 0.500000 0.178393 0.500000
O O11 0.833816 0.152261 0.675175
O O12 0.601580 0.000000 0.596968
O O13 0.760322 0.000000 0.875330
O O14 0.050688 0.000000 0.954795
O O15 0.977345 0.000000 0.285773
#
# Coordination Sequence:
#
# PCOD8092775 Si02
#       7
#     8   8   8   8   4   4   8
#     4  12  24  39  64  93 124 164 205 257 314 361
#     4  10  19  35  57  83 120 166 210 246 287 347
#     4  11  22  33  61  83 124 168 208 246 301 354
#     4  10  22  44  72  94 116 155 206 258 318 378
#     4  11  24  38  59  89 128 167 213 260 296 348
#     4  11  24  40  54  90 131 172 212 252 296 359
#     4  10  23  40  63  93 128 161 205 257 304 372
#
# _framework density 19.900351000000001
#
# number of rings (size 3 to 8) (size 9 to 14) (size 15 to 20)
#    0.000    1.333    3.333    3.000    2.333    2.667 
#    0.000    1.667    0.000    0.500    0.000    0.000 
#    0.000    0.000    0.000    0.000    0.000    0.000 
#
# Total GULP energy -297474.287937 kJ/mol
# GULP energy per Si atom -12394.761997 kJ/mol
# Density = 1.985506 g / cm^3
# Si number density = 19.900351 Si / 1000 Ang^3
#
#
#
# Elastic Constant Matrix: (Units=GPa)
#
#
# Indices 1 2 3 4 5 6 
#
# 1 98.9059 53.0410 48.8340 0.0000 -29.0287 0.0000
# 2 53.0410 91.3871 36.7345 0.0000 -13.7565 0.0000
# 3 48.8340 36.7345 103.2806 0.0001 -35.5467 0.0000
# 4 0.0000 0.0000 0.0001 21.7280 0.0000 -3.7142
# 5 -29.0287 -13.7565 -35.5467 0.0000 27.3255 0.0000
# 6 0.0000 0.0000 0.0000 -3.7142 0.0000 41.2430
#
#
#
# Elastic Compliance Matrix: (Units=1/GPa)
#
#
# Indices 1 2 3 4 5 6 
#
# 1 0.019815 -0.008806 -0.000938 0.000000 0.015397 0.000000
# 2 -0.008806 0.016695 -0.003805 0.000000 -0.005900 0.000000
# 3 -0.000938 -0.003805 0.018970 0.000000 0.021766 0.000000
# 4 0.000000 0.000000 0.000000 0.046743 0.000000 0.004209
# 5 0.015397 -0.005900 0.021766 0.000000 0.078298 0.000000
# 6 0.000000 0.000000 0.000000 0.004209 0.000000 0.024626
#
#
# Mechanical properties :
#
#
# Convention : Reuss Voigt Hill
#
# Bulk Modulus (GPa) = 35.23188 63.42140 49.32664
# Shear Modulus (GPa) = 20.68641 28.39024 24.53833
#
# Velocity S-wave (km/s) = 3.22762 3.78116 3.51530
# Velocity P-wave (km/s) = 5.62429 7.14154 6.42784
#
# Compressibility (1/GPa) = 0.02838339
#
# Stress axis : x y z
#
# Youngs Moduli (GPa) = 50.46655 59.89908 52.71357
#
# Poissons Ratio (x) = 0.52747 0.04943
# Poissons Ratio (y) = 0.44441 0.20056
# Poissons Ratio (z) = 0.04732 0.22790
#
# Static dielectric constant tensor:
#      x y z
#    x 3.564050 0.000000 -0.146050 
#    y 0.000000 3.712440 0.000000 
#    z -0.146050 0.000000 3.666370 
# 
# 
# High freq. dielectric constant tensor:
#      x y z
#    x 1.773710 0.000000 -0.010810 
#    y 0.000000 1.777530 0.000000 
#    z -0.010810 0.000000 1.756110 
# 
# From -- ./inp_files/361101.got.cif
#   From: 2010.06.25/outbox.cif.g09.slc.cpg/sg12_181_cif.got.tgz:361101.got - 2010.06.28 00:19:55.
