data_PCOD8092994
_publ_section_title
;
Structure prediction by ZEFSAII (Michael W. Deem and Ramdas Pophale) SiO2 
 PCOD8092994
Probable space group: C 2/M
;
_chemical_formula_sum "Si O2"
_cell_formula_units_Z 60
_cell_length_a 17.530372
_cell_length_b 14.463938
_cell_length_c 26.692696
_cell_angle_alpha 90.000000
_cell_angle_beta 27.857260
_cell_angle_gamma 90.000000
_cell_volume 3162.557483
_symmetry_space_group_name_H-M "C 2/M"
_symmetry_group_IT_number 12
_symmetry_cell_setting 'monoclinic'
loop_
_space_group_symop_operation_xyz
x,y,z
-x,y,-z
-x,-y,-z
x,-y,z
1/2+x,1/2+y,z
1/2-x,1/2+y,-z
1/2-x,1/2-y,-z
1/2+x,1/2-y,z
loop_
_atom_site_type_symbol
_atom_site_label
_atom_site_fract_x
_atom_site_fract_y
_atom_site_fract_z
Si Si1 0.480617 0.157116 0.131695
Si Si2 0.870351 0.897639 0.651947
Si Si3 0.755385 0.708281 0.093625
Si Si4 0.746362 0.603191 0.614191
Si Si5 0.490873 0.349104 0.166635
Si Si6 0.000000 0.749968 0.500000
Si Si7 0.746738 0.099399 0.057806
Si Si8 0.545721 0.606135 0.287830
O O1 0.319157 0.095579 0.221431
O O2 0.417462 0.258600 0.183291
O O3 0.598760 0.116791 0.105565
O O4 0.572650 0.164012 0.024346
O O5 0.976700 0.876961 0.640000
O O6 0.899949 0.817463 0.594573
O O7 0.917717 0.000000 0.603487
O O8 0.623690 0.681347 0.129412
O O9 0.762396 0.820513 0.090614
O O10 0.697569 0.669079 0.180610
O O11 0.820168 0.500000 0.561458
O O12 0.653704 0.596734 0.721502
O O13 0.623512 0.632681 0.641068
O O14 0.882746 0.682884 0.536051
O O15 0.583300 0.409635 0.071471
O O16 0.718282 0.000000 0.101037
O O17 0.589232 0.500000 0.250078
#
# Coordination Sequence:
#
# PCOD8092994 Si02
#       8
#     8   8   8   8   8   4   8   8
#     4   9  16  29  47  77 111 138 170 211 254 304
#     4  11  23  38  55  77 107 142 173 214 268 317
#     4   8  16  28  49  76 109 140 171 204 254 312
#     4  10  19  35  59  81 102 133 176 224 268 307
#     4   8  14  28  47  75 107 137 171 212 258 301
#     4  12  24  38  58  78 104 130 182 230 266 304
#     4   9  15  24  46  79 112 142 171 207 250 311
#     4   9  20  37  56  79 108 138 171 211 265 323
#
# _framework density 18.971988
#
# number of rings (size 3 to 8) (size 9 to 14) (size 15 to 20)
#    0.000    2.667    1.333    2.800    0.000    4.800 
#    0.000    1.333    0.000    1.600    0.000    1.867 
#    0.000    0.000    0.000    0.000    0.000    0.000 
#
# Total GULP energy -371725.016534 kJ/mol
# GULP energy per Si atom -12390.833884 kJ/mol
# Density = 1.892881 g / cm^3
# Si number density = 18.971988 Si / 1000 Ang^3
#
#
#
# Elastic Constant Matrix: (Units=GPa)
#
#
# Indices 1 2 3 4 5 6 
#
# 1 43.6225 19.8473 20.3181 -0.0085 -4.4430 0.0002
# 2 19.8473 117.2312 35.0806 -0.0141 0.6118 0.0007
# 3 20.3181 35.0806 63.3555 -0.0300 -9.7664 0.0020
# 4 -0.0085 -0.0141 -0.0300 21.3014 0.0064 -2.7018
# 5 -4.4430 0.6118 -9.7664 0.0064 17.8739 -0.0006
# 6 0.0002 0.0007 0.0020 -2.7018 -0.0006 18.6026
#
#
#
# Elastic Compliance Matrix: (Units=1/GPa)
#
#
# Indices 1 2 3 4 5 6 
#
# 1 0.027671 -0.002628 -0.006928 -0.000001 0.003183 0.000000
# 2 -0.002628 0.010711 -0.005727 -0.000001 -0.004149 0.000000
# 3 -0.006928 -0.005727 0.022868 0.000023 0.010969 0.000001
# 4 -0.000001 -0.000001 0.000023 0.047826 -0.000005 0.006946
# 5 0.003183 -0.004149 0.010969 -0.000005 0.062874 0.000000
# 6 0.000000 0.000000 0.000001 0.006946 0.000000 0.054765
#
#
# Mechanical properties :
#
#
# Convention : Reuss Voigt Hill
#
# Bulk Modulus (GPa) = 32.59229 41.63346 37.11288
# Shear Modulus (GPa) = 18.69089 21.48644 20.08867
#
# Velocity S-wave (km/s) = 3.14217 3.36897 3.25754
# Velocity P-wave (km/s) = 5.51187 6.09308 5.80975
#
# Compressibility (1/GPa) = 0.03068210
#
# Stress axis : x y z
#
# Youngs Moduli (GPa) = 36.13916 93.36526 43.72901
#
# Poissons Ratio (x) = 0.24537 0.30297
# Poissons Ratio (y) = 0.09498 0.25045
# Poissons Ratio (z) = 0.25038 0.53474
#
# Static dielectric constant tensor:
#      x y z
#    x 3.173290 -0.000010 0.017250 
#    y -0.000010 3.673490 0.000010 
#    z 0.017250 0.000010 3.469440 
# 
# 
# High freq. dielectric constant tensor:
#      x y z
#    x 1.701290 0.000000 -0.008760 
#    y 0.000000 1.746360 0.000000 
#    z -0.008760 0.000000 1.717150 
# 
# From -- ./inp_files/363997.got.cif
#   From: 2010.06.25/outbox.cif.g09.slc.cpg/sg12_182_cif.got.tgz:363997.got - 2010.06.28 00:19:55.
