data_PCOD8092576
_publ_section_title
;
Structure prediction by ZEFSAII (Michael W. Deem and Ramdas Pophale) SiO2 
 PCOD8092576
Probable space group: C 2/M
;
_chemical_formula_sum "Si O2"
_cell_formula_units_Z 48
_cell_length_a 31.088866
_cell_length_b 8.955358
_cell_length_c 19.871391
_cell_angle_alpha 90.000000
_cell_angle_beta 152.165967
_cell_angle_gamma 90.000000
_cell_volume 2583.158928
_symmetry_space_group_name_H-M "C 2/M"
_symmetry_group_IT_number 12
_symmetry_cell_setting 'monoclinic'
loop_
_space_group_symop_operation_xyz
x,y,z
-x,y,-z
-x,-y,-z
x,-y,z
1/2+x,1/2+y,z
1/2-x,1/2+y,-z
1/2-x,1/2-y,-z
1/2+x,1/2-y,z
loop_
_atom_site_type_symbol
_atom_site_label
_atom_site_fract_x
_atom_site_fract_y
_atom_site_fract_z
Si Si1 0.754980 0.669966 0.150079
Si Si2 0.728132 0.173375 0.672072
Si Si3 0.550148 0.827077 0.636729
Si Si4 0.429679 0.827290 0.104682
Si Si5 0.916073 0.326873 0.930285
Si Si6 0.952069 0.823557 0.623583
O O1 0.719191 0.500000 0.096549
O O2 0.788161 0.705462 0.271644
O O3 0.840427 0.696580 0.218656
O O4 0.672498 0.777736 0.013641
O O5 0.827585 0.231597 0.786372
O O6 0.650682 0.260697 0.523948
O O7 0.720171 0.000000 0.643627
O O8 0.500000 0.770349 0.500000
O O9 0.517132 0.730718 0.653431
O O10 0.524589 0.000000 0.614347
O O11 0.506694 0.732374 0.249076
O O12 0.441475 0.000000 0.139660
O O13 0.443588 0.795341 0.045218
O O14 0.892464 0.500000 0.886358
O O15 0.000000 0.273902 0.000000
O O16 0.948056 0.000000 0.617405
#
# Coordination Sequence:
#
# PCOD8092576 Si02
#       6
#     8   8   8   8   8   8
#     4   9  18  34  56  79 107 144 185 229 272 320
#     4  10  19  35  58  83 111 145 185 224 272 330
#     4  10  19  35  56  79 109 147 189 231 274 320
#     4  10  21  37  57  80 111 147 181 222 277 332
#     4   9  19  38  63  89 113 138 175 225 277 332
#     4  12  24  36  53  80 114 149 187 231 275 319
#
# _framework density 18.581899
#
# number of rings (size 3 to 8) (size 9 to 14) (size 15 to 20)
#    0.000    2.000    1.667    2.500    0.000    3.333 
#    0.000    0.833    0.000    0.000    0.000    0.000 
#    0.000    0.000    0.000    0.000    0.000    0.000 
#
# Total GULP energy -297716.820984 kJ/mol
# GULP energy per Si atom -12404.867541 kJ/mol
# Density = 1.853961 g / cm^3
# Si number density = 18.581899 Si / 1000 Ang^3
#
#
#
# Elastic Constant Matrix: (Units=GPa)
#
#
# Indices 1 2 3 4 5 6 
#
# 1 92.3597 48.0941 55.1864 0.0000 18.5467 0.0000
# 2 48.0941 118.0536 72.6225 0.0000 8.5004 0.0000
# 3 55.1864 72.6225 126.1263 0.0000 7.5172 0.0000
# 4 0.0000 0.0000 0.0000 35.6466 0.0000 4.3271
# 5 18.5467 8.5004 7.5172 0.0000 22.4447 0.0000
# 6 0.0000 0.0000 0.0000 4.3271 0.0000 25.4085
#
#
#
# Elastic Compliance Matrix: (Units=1/GPa)
#
#
# Indices 1 2 3 4 5 6 
#
# 1 0.018102 -0.003221 -0.005354 0.000000 -0.011945 0.000000
# 2 -0.003221 0.013827 -0.006529 0.000000 -0.000388 0.000000
# 3 -0.005354 -0.006529 0.013897 0.000000 0.002243 0.000000
# 4 0.000000 0.000000 0.000000 0.028645 0.000000 -0.004878
# 5 -0.011945 -0.000388 0.002243 0.000000 0.053821 0.000000
# 6 0.000000 0.000000 0.000000 -0.004878 0.000000 0.040188
#
#
# Mechanical properties :
#
#
# Convention : Reuss Voigt Hill
#
# Bulk Modulus (GPa) = 64.02767 76.48286 70.25527
# Shear Modulus (GPa) = 24.52235 27.40907 25.96571
#
# Velocity S-wave (km/s) = 3.63670 3.84479 3.74219
# Velocity P-wave (km/s) = 7.22260 7.80763 7.52081
#
# Compressibility (1/GPa) = 0.01561825
#
# Stress axis : x y z
#
# Youngs Moduli (GPa) = 55.24119 72.31982 71.95757
#
# Poissons Ratio (x) = 0.23294 0.38527
# Poissons Ratio (y) = 0.17793 0.46983
# Poissons Ratio (z) = 0.29577 0.47219
#
# Static dielectric constant tensor:
#      x y z
#    x 3.294150 0.000000 0.061970 
#    y 0.000000 3.417780 0.000000 
#    z 0.061970 0.000000 3.428210 
# 
# 
# High freq. dielectric constant tensor:
#      x y z
#    x 1.704700 0.000000 0.008760 
#    y 0.000000 1.723640 0.000000 
#    z 0.008760 0.000000 1.725270 
# 
# From -- ./inp_files/244588.got.cif
#   From: 2010.06.25/outbox.cif.g09.slc.cpg/sg12_123_cif.got.tgz:244588.got - 2010.06.28 00:19:55.
