data_PCOD8092745
_publ_section_title
;
Structure prediction by ZEFSAII (Michael W. Deem and Ramdas Pophale) SiO2 
 PCOD8092745
Probable space group: C 2/M
;
_chemical_formula_sum "Si O2"
_cell_formula_units_Z 40
_cell_length_a 18.239875
_cell_length_b 11.958873
_cell_length_c 17.995095
_cell_angle_alpha 90.000000
_cell_angle_beta 32.670392
_cell_angle_gamma 90.000000
_cell_volume 2118.865908
_symmetry_space_group_name_H-M "C 2/M"
_symmetry_group_IT_number 12
_symmetry_cell_setting 'monoclinic'
loop_
_space_group_symop_operation_xyz
x,y,z
-x,y,-z
-x,-y,-z
x,-y,z
1/2+x,1/2+y,z
1/2-x,1/2+y,-z
1/2-x,1/2-y,-z
1/2+x,1/2-y,z
loop_
_atom_site_type_symbol
_atom_site_label
_atom_site_fract_x
_atom_site_fract_y
_atom_site_fract_z
Si Si1 0.322676 0.259794 0.820246
Si Si2 0.847155 0.128311 0.151519
Si Si3 0.104975 0.870167 0.574607
Si Si4 0.602018 0.128606 0.102993
Si Si5 0.657913 0.725905 0.687184
O O1 0.255143 0.206982 0.805642
O O2 0.457701 0.323058 0.679360
O O3 0.354881 0.160597 0.850396
O O4 0.225655 0.351016 0.941302
O O5 0.820335 0.145560 0.261493
O O6 0.817912 0.000000 0.155836
O O7 0.000000 0.161483 0.000000
O O8 0.213261 0.805953 0.431772
O O9 0.137771 0.853264 0.633379
O O10 0.112417 0.000000 0.548518
O O11 0.474296 0.199842 0.185213
O O12 0.560309 0.000000 0.137668
#
# Coordination Sequence:
#
# PCOD8092745 Si02
#       5
#     8   8   8   8   8
#     4  10  21  36  56  87 114 147 196 233 281 342
#     4  11  22  39  61  86 116 148 186 242 296 334
#     4  10  21  39  61  84 117 156 189 234 283 334
#     4  10  19  35  57  82 115 151 191 236 276 332
#     4  10  21  38  60  88 114 148 198 231 278 345
#
# _framework density 18.878022999999999
#
# number of rings (size 3 to 8) (size 9 to 14) (size 15 to 20)
#    0.000    1.800    2.000    2.400    0.000    0.800 
#    0.000   10.000    0.000    0.000    0.000    0.000 
#    0.000    0.000    0.000    0.000    0.000    0.000 
#
# Total GULP energy -248108.884293 kJ/mol
# GULP energy per Si atom -12405.444215 kJ/mol
# Density = 1.883506 g / cm^3
# Si number density = 18.878023 Si / 1000 Ang^3
#
#
#
# Elastic Constant Matrix: (Units=GPa)
#
#
# Indices 1 2 3 4 5 6 
#
# 1 61.2512 19.1343 44.5738 -0.0002 -3.0514 0.0001
# 2 19.1343 82.3093 27.5236 -0.0001 -7.2587 0.0001
# 3 44.5738 27.5236 99.3545 0.0000 -19.3500 0.0000
# 4 -0.0002 -0.0001 0.0000 4.1072 0.0001 2.5277
# 5 -3.0514 -7.2587 -19.3500 0.0001 29.7199 0.0000
# 6 0.0001 0.0001 0.0000 2.5277 0.0000 10.3083
#
#
#
# Elastic Compliance Matrix: (Units=1/GPa)
#
#
# Indices 1 2 3 4 5 6 
#
# 1 0.025421 -0.002455 -0.011834 0.000002 -0.005694 -0.000001
# 2 -0.002455 0.013652 -0.002382 0.000000 0.001531 0.000000
# 3 -0.011834 -0.002382 0.017962 -0.000001 0.009898 0.000000
# 4 0.000002 0.000000 -0.000001 0.286744 -0.000001 -0.070311
# 5 -0.005694 0.001531 0.009898 -0.000001 0.039881 0.000000
# 6 -0.000001 0.000000 0.000000 -0.070311 0.000000 0.114250
#
#
# Mechanical properties :
#
#
# Convention : Reuss Voigt Hill
#
# Bulk Modulus (GPa) = 42.20712 47.26425 44.73568
# Shear Modulus (GPa) = 9.27389 18.93929 14.10659
#
# Velocity S-wave (km/s) = 2.21883 3.17084 2.73655
# Velocity P-wave (km/s) = 5.38243 6.20457 5.80807
#
# Compressibility (1/GPa) = 0.02369269
#
# Stress axis : x y z
#
# Youngs Moduli (GPa) = 39.33755 73.25146 55.67440
#
# Poissons Ratio (x) = 0.17981 0.65883
# Poissons Ratio (y) = 0.09656 0.13264
# Poissons Ratio (z) = 0.46551 0.17451
#
# Static dielectric constant tensor:
#      x y z
#    x 3.328820 0.000000 -0.123400 
#    y 0.000000 3.283100 0.000000 
#    z -0.123400 0.000000 3.545480 
# 
# 
# High freq. dielectric constant tensor:
#      x y z
#    x 1.726150 0.000000 -0.008430 
#    y 0.000000 1.733290 0.000000 
#    z -0.008430 0.000000 1.743110 
# 
# From -- ./inp_files/71193.got.cif
#   From: 2010.06.25/outbox.cif.g09.slc.cpg/sg12_36_cif.got.tgz:71193.got - 2010.06.28 00:19:55.
