data_PCOD8092187
_publ_section_title
;
Structure prediction by ZEFSAII (Michael W. Deem and Ramdas Pophale) SiO2 
 PCOD8092187
Probable space group: C 2/M
;
_chemical_formula_sum "Si O2"
_cell_formula_units_Z 64
_cell_length_a 29.185631
_cell_length_b 8.934156
_cell_length_c 16.830459
_cell_angle_alpha 90.000000
_cell_angle_beta 134.007755
_cell_angle_gamma 90.000000
_cell_volume 3156.428066
_symmetry_space_group_name_H-M "C 2/M"
_symmetry_group_IT_number 12
_symmetry_cell_setting 'monoclinic'
loop_
_space_group_symop_operation_xyz
x,y,z
-x,y,-z
-x,-y,-z
x,-y,z
1/2+x,1/2+y,z
1/2-x,1/2+y,-z
1/2-x,1/2-y,-z
1/2+x,1/2-y,z
loop_
_atom_site_type_symbol
_atom_site_label
_atom_site_fract_x
_atom_site_fract_y
_atom_site_fract_z
Si Si1 0.567719 0.824733 0.404582
Si Si2 0.651087 0.328937 0.944633
Si Si3 0.617723 0.324063 0.621696
Si Si4 0.048849 0.169799 0.956781
Si Si5 0.762697 0.325717 0.831900
Si Si6 0.362807 0.175260 0.821196
Si Si7 0.074559 0.674791 0.722210
Si Si8 0.590306 0.675711 0.269246
O O1 0.602348 0.746409 0.519041
O O2 0.492272 0.790990 0.315193
O O3 0.599234 0.757454 0.363660
O O4 0.581546 0.000000 0.424959
O O5 0.664991 0.500000 0.938347
O O6 0.591623 0.311746 0.930970
O O7 0.633332 0.241235 0.843180
O O8 0.713816 0.260933 0.061269
O O9 0.605605 0.500000 0.603652
O O10 0.690136 0.283578 0.729921
O O11 0.572191 0.252850 0.633441
O O12 0.978382 0.217886 0.848449
O O13 0.051343 0.000000 0.992182
O O14 0.072694 0.277402 0.055462
O O15 0.773596 0.500000 0.861276
O O16 0.802484 0.276072 0.801954
O O17 0.357939 0.261470 0.731170
O O18 0.364103 0.000000 0.805727
O O19 0.085776 0.500000 0.723705
O O20 0.599700 0.500000 0.293416
#
# Coordination Sequence:
#
# PCOD8092187 Si02
#       8
#     8   8   8   8   8   8   8   8
#     4  11  24  41  61  87 119 151 190 240 294 346
#     4  10  19  34  59  89 119 155 193 235 287 342
#     4  11  24  42  64  85 111 153 200 242 289 344
#     4   9  18  32  51  80 118 153 187 230 282 340
#     4   9  21  41  60  83 118 157 196 240 287 339
#     4  10  20  34  55  83 116 152 192 234 283 342
#     4  11  23  39  61  89 121 151 186 237 296 351
#     4  11  21  35  56  84 118 152 191 236 285 342
#
# _framework density 20.276083
#
# number of rings (size 3 to 8) (size 9 to 14) (size 15 to 20)
#    0.000    1.750    1.250    3.000    0.000    8.000 
#    0.000    0.625    0.000    0.000    0.000    0.000 
#    0.000    0.000    0.000    0.000    0.000    0.000 
#
# Total GULP energy -396955.696698 kJ/mol
# GULP energy per Si atom -12404.865522 kJ/mol
# Density = 2.022993 g / cm^3
# Si number density = 20.276083 Si / 1000 Ang^3
#
#
#
# Elastic Constant Matrix: (Units=GPa)
#
#
# Indices 1 2 3 4 5 6 
#
# 1 36.5581 23.4890 27.1301 0.0000 -18.5017 0.0000
# 2 23.4890 95.0877 55.8821 0.0000 -4.9072 0.0000
# 3 27.1301 55.8821 90.6098 0.0000 -16.6128 0.0000
# 4 0.0000 0.0000 0.0000 39.3680 0.0000 -9.0152
# 5 -18.5017 -4.9072 -16.6128 0.0000 31.0850 0.0000
# 6 0.0000 0.0000 0.0000 -9.0152 0.0000 28.8537
#
#
#
# Elastic Compliance Matrix: (Units=1/GPa)
#
#
# Indices 1 2 3 4 5 6 
#
# 1 0.048906 -0.007657 -0.005328 0.000000 0.025053 0.000000
# 2 -0.007657 0.017975 -0.010098 0.000000 -0.007117 0.000000
# 3 -0.005328 -0.010098 0.019940 0.000000 0.005891 0.000000
# 4 0.000000 0.000000 0.000000 0.027359 0.000000 0.008548
# 5 0.025053 -0.007117 0.005891 0.000000 0.049106 0.000000
# 6 0.000000 0.000000 0.000000 0.008548 0.000000 0.037328
#
#
# Mechanical properties :
#
#
# Convention : Reuss Voigt Hill
#
# Bulk Modulus (GPa) = 24.59704 48.36200 36.47952
# Shear Modulus (GPa) = 19.20622 27.57830 23.39226
#
# Velocity S-wave (km/s) = 3.08106 3.69201 3.40028
# Velocity P-wave (km/s) = 4.98143 6.48676 5.78328
#
# Compressibility (1/GPa) = 0.04065530
#
# Stress axis : x y z
#
# Youngs Moduli (GPa) = 20.44731 55.63141 50.15163
#
# Poissons Ratio (x) = 0.42598 0.26719
# Poissons Ratio (y) = 0.15657 0.50644
# Poissons Ratio (z) = 0.10894 0.56178
#
# Static dielectric constant tensor:
#      x y z
#    x 3.734270 0.000000 -0.132480 
#    y 0.000000 3.687120 0.000000 
#    z -0.132480 0.000000 3.593010 
# 
# 
# High freq. dielectric constant tensor:
#      x y z
#    x 1.792540 0.000000 -0.016200 
#    y 0.000000 1.798680 0.000000 
#    z -0.016200 0.000000 1.784050 
# 
# From -- ./inp_files/249982.got.cif
#   From: 2010.06.25/outbox.cif.g09.slc.cpg/sg12_125_cif.got.tgz:249982.got - 2010.06.28 00:19:55.
