data_PCOD8092271
_publ_section_title
;
Structure prediction by ZEFSAII (Michael W. Deem and Ramdas Pophale) SiO2 
 PCOD8092271
Probable space group: C 2/M
;
_chemical_formula_sum "Si O2"
_cell_formula_units_Z 48
_cell_length_a 24.045604
_cell_length_b 8.788864
_cell_length_c 11.379432
_cell_angle_alpha 90.000000
_cell_angle_beta 69.283789
_cell_angle_gamma 90.000000
_cell_volume 2249.367295
_symmetry_space_group_name_H-M "C 2/M"
_symmetry_group_IT_number 12
_symmetry_cell_setting 'monoclinic'
loop_
_space_group_symop_operation_xyz
x,y,z
-x,y,-z
-x,-y,-z
x,-y,z
1/2+x,1/2+y,z
1/2-x,1/2+y,-z
1/2-x,1/2-y,-z
1/2+x,1/2-y,z
loop_
_atom_site_type_symbol
_atom_site_label
_atom_site_fract_x
_atom_site_fract_y
_atom_site_fract_z
Si Si1 0.732794 0.679340 0.637162
Si Si2 0.559397 0.173281 0.518851
Si Si3 0.870294 0.676071 0.152181
Si Si4 0.610667 0.677439 0.098185
Si Si5 0.837452 0.178397 0.691308
Si Si6 0.012842 0.670782 0.808637
O O1 0.735414 0.500000 0.622052
O O2 0.750000 0.750000 0.500000
O O3 0.667034 0.730408 0.724151
O O4 0.777196 0.733757 0.706338
O O5 0.500000 0.232546 0.500000
O O6 0.613155 0.281316 0.442117
O O7 0.552477 0.185673 0.662758
O O8 0.573279 0.000000 0.469038
O O9 0.853030 0.500000 0.177387
O O10 0.941025 0.702868 0.120013
O O11 0.856588 0.733216 0.030984
O O12 0.620007 0.500000 0.070270
O O13 0.640451 0.731709 0.197153
O O14 0.540378 0.710162 0.153534
O O15 0.824887 0.000000 0.696321
O O16 0.985993 0.500000 0.839165
#
# Coordination Sequence:
#
# PCOD8092271 Si02
#       6
#     8   8   8   8   8   8
#     4  12  26  46  71  96 125 162 206 258 314 376
#     4  10  19  34  60  91 124 162 205 257 319 378
#     4  11  24  42  65  92 126 169 214 260 313 376
#     4  11  24  40  61  92 129 168 212 262 315 372
#     4  11  24  41  63  93 129 168 212 263 317 373
#     4  10  21  38  61  91 126 165 209 259 316 378
#
# _framework density 21.339334999999998
#
# number of rings (size 3 to 8) (size 9 to 14) (size 15 to 20)
#    0.000    1.167    1.667    4.500    0.000    8.333 
#    0.000    0.000    0.000    0.000    0.000    0.000 
#    0.000    0.000    0.000    0.000    0.000    0.000 
#
# Total GULP energy -297764.964728 kJ/mol
# GULP energy per Si atom -12406.873530 kJ/mol
# Density = 2.129077 g / cm^3
# Si number density = 21.339335 Si / 1000 Ang^3
#
#
#
# Elastic Constant Matrix: (Units=GPa)
#
#
# Indices 1 2 3 4 5 6 
#
# 1 85.3103 40.6132 24.8760 0.0000 5.9340 0.0000
# 2 40.6132 112.5205 39.9342 0.0000 3.7632 0.0000
# 3 24.8760 39.9342 93.9779 0.0000 9.0094 0.0000
# 4 0.0000 0.0000 0.0000 38.8529 0.0000 -3.0407
# 5 5.9340 3.7632 9.0094 0.0000 34.1791 0.0000
# 6 0.0000 0.0000 0.0000 -3.0407 0.0000 37.2413
#
#
#
# Elastic Compliance Matrix: (Units=1/GPa)
#
#
# Indices 1 2 3 4 5 6 
#
# 1 0.014514 -0.004565 -0.001753 0.000000 -0.001555 0.000000
# 2 -0.004565 0.011901 -0.003898 0.000000 0.000510 0.000000
# 3 -0.001753 -0.003898 0.013020 0.000000 -0.002698 0.000000
# 4 0.000000 0.000000 0.000000 0.025904 0.000000 0.002115
# 5 -0.001555 0.000510 -0.002698 0.000000 0.030183 0.000000
# 6 0.000000 0.000000 0.000000 0.002115 0.000000 0.027025
#
#
# Mechanical properties :
#
#
# Convention : Reuss Voigt Hill
#
# Bulk Modulus (GPa) = 52.62001 55.85061 54.23531
# Shear Modulus (GPa) = 33.48687 34.48035 33.98361
#
# Velocity S-wave (km/s) = 3.96568 4.02408 3.99499
# Velocity P-wave (km/s) = 6.75878 6.91523 6.83745
#
# Compressibility (1/GPa) = 0.01900418
#
# Stress axis : x y z
#
# Youngs Moduli (GPa) = 68.89731 84.02577 76.80579
#
# Poissons Ratio (x) = 0.38354 0.13466
# Poissons Ratio (y) = 0.31449 0.29937
# Poissons Ratio (z) = 0.12079 0.32751
#
# Static dielectric constant tensor:
#      x y z
#    x 3.892630 0.000000 0.163210 
#    y 0.000000 3.779870 0.000000 
#    z 0.163210 0.000000 3.904950 
# 
# 
# High freq. dielectric constant tensor:
#      x y z
#    x 1.838500 0.000000 0.008920 
#    y 0.000000 1.833900 0.000000 
#    z 0.008920 0.000000 1.849520 
# 
# From -- ./inp_files/172922.got.cif
#   From: 2010.06.25/outbox.cif.g09.slc.cpg/sg12_87_cif.got.tgz:172922.got - 2010.06.28 00:19:55.
