data_PCOD8092618
_publ_section_title
;
Structure prediction by ZEFSAII (Michael W. Deem and Ramdas Pophale) SiO2 
 PCOD8092618
Probable space group: C 2/M
;
_chemical_formula_sum "Si O2"
_cell_formula_units_Z 48
_cell_length_a 29.573210
_cell_length_b 17.494352
_cell_length_c 9.820038
_cell_angle_alpha 90.000000
_cell_angle_beta 148.631462
_cell_angle_gamma 90.000000
_cell_volume 2644.626331
_symmetry_space_group_name_H-M "C 2/M"
_symmetry_group_IT_number 12
_symmetry_cell_setting 'monoclinic'
loop_
_space_group_symop_operation_xyz
x,y,z
-x,y,-z
-x,-y,-z
x,-y,z
1/2+x,1/2+y,z
1/2-x,1/2+y,-z
1/2-x,1/2-y,-z
1/2+x,1/2-y,z
loop_
_atom_site_type_symbol
_atom_site_label
_atom_site_fract_x
_atom_site_fract_y
_atom_site_fract_z
Si Si1 0.501157 0.184006 0.845479
Si Si2 0.557906 0.297516 0.773492
Si Si3 0.301161 0.413083 0.794352
Si Si4 0.290763 0.191997 0.928885
Si Si5 0.826485 0.590674 0.774658
Si Si6 0.312401 0.161780 0.289310
O O1 0.503898 0.258872 0.756778
O O2 0.411340 0.141249 0.579877
O O3 0.500000 0.209309 0.000000
O O4 0.579602 0.126227 0.015798
O O5 0.500000 0.329762 0.500000
O O6 0.610255 0.365600 0.979000
O O7 0.619222 0.235152 0.862251
O O8 0.328819 0.500000 0.847761
O O9 0.238529 0.385629 0.512395
O O10 0.249366 0.401025 0.801121
O O11 0.281788 0.125537 0.794263
O O12 0.211542 0.252744 0.717626
O O13 0.293805 0.152166 0.082546
O O14 0.837112 0.500000 0.818009
#
# Coordination Sequence:
#
# PCOD8092618 Si02
#       6
#     8   8   8   8   8   8
#     4  11  21  33  57  84 107 136 180 225 268 309
#     4  10  20  36  57  79 106 139 180 225 265 314
#     4  10  22  37  54  78 110 146 178 213 266 324
#     4   9  20  35  57  78 110 140 179 219 267 314
#     4  10  22  37  53  78 113 148 175 210 266 328
#     4  10  19  35  56  83 106 137 178 229 263 308
#
# _framework density 18.150012
#
# number of rings (size 3 to 8) (size 9 to 14) (size 15 to 20)
#    0.000    2.000    3.333    0.000    2.333    4.000 
#    0.000    0.833    0.000    0.500    0.000    0.000 
#    0.000    0.000    0.000    0.000    0.000    0.000 
#
# Total GULP energy -297611.344031 kJ/mol
# GULP energy per Si atom -12400.472668 kJ/mol
# Density = 1.810870 g / cm^3
# Si number density = 18.150012 Si / 1000 Ang^3
#
#
#
# Elastic Constant Matrix: (Units=GPa)
#
#
# Indices 1 2 3 4 5 6 
#
# 1 92.4949 24.1288 22.6155 0.0000 -22.0610 0.0000
# 2 24.1288 57.4851 35.0440 0.0000 -9.0448 0.0000
# 3 22.6155 35.0440 90.8721 0.0000 -9.4322 0.0000
# 4 0.0000 0.0000 0.0000 23.1209 0.0000 -5.3605
# 5 -22.0610 -9.0448 -9.4322 0.0000 30.8518 0.0000
# 6 0.0000 0.0000 0.0000 -5.3605 0.0000 12.9042
#
#
#
# Elastic Compliance Matrix: (Units=1/GPa)
#
#
# Indices 1 2 3 4 5 6 
#
# 1 0.014165 -0.003901 -0.001124 0.000000 0.008642 0.000000
# 2 -0.003901 0.024334 -0.008224 0.000000 0.001831 0.000000
# 3 -0.001124 -0.008224 0.014585 0.000000 0.001244 0.000000
# 4 0.000000 0.000000 0.000000 0.047860 0.000000 0.019881
# 5 0.008642 0.001831 0.001244 0.000000 0.039509 0.000000
# 6 0.000000 0.000000 0.000000 0.019881 0.000000 0.085753
#
#
# Mechanical properties :
#
#
# Convention : Reuss Voigt Hill
#
# Bulk Modulus (GPa) = 37.61163 44.93651 41.27407
# Shear Modulus (GPa) = 19.11567 23.97964 21.54765
#
# Velocity S-wave (km/s) = 3.24883 3.63876 3.44931
# Velocity P-wave (km/s) = 5.90261 6.51661 6.21720
#
# Compressibility (1/GPa) = 0.02658752
#
# Stress axis : x y z
#
# Youngs Moduli (GPa) = 70.59708 41.09421 68.56503
#
# Poissons Ratio (x) = 0.16029 0.07707
# Poissons Ratio (y) = 0.27537 0.56385
# Poissons Ratio (z) = 0.07935 0.33794
#
# Static dielectric constant tensor:
#      x y z
#    x 3.532270 0.000000 -0.075640 
#    y 0.000000 3.104280 0.000000 
#    z -0.075640 0.000000 3.398220 
# 
# 
# High freq. dielectric constant tensor:
#      x y z
#    x 1.713150 0.000000 -0.007400 
#    y 0.000000 1.677810 0.000000 
#    z -0.007400 0.000000 1.711260 
# 
# From -- ./inp_files/75440.got.cif
#   From: 2010.06.25/outbox.cif.g09.slc.cpg/sg12_38_cif.got.tgz:75440.got - 2010.06.28 00:19:55.
