data_PCOD8092957
_publ_section_title
;
Structure prediction by ZEFSAII (Michael W. Deem and Ramdas Pophale) SiO2 
 PCOD8092957
Probable space group: C 2/M
;
_chemical_formula_sum "Si O2"
_cell_formula_units_Z 64
_cell_length_a 29.505239
_cell_length_b 8.803541
_cell_length_c 12.462053
_cell_angle_alpha 90.000000
_cell_angle_beta 79.610655
_cell_angle_gamma 90.000000
_cell_volume 3183.954555
_symmetry_space_group_name_H-M "C 2/M"
_symmetry_group_IT_number 12
_symmetry_cell_setting 'monoclinic'
loop_
_space_group_symop_operation_xyz
x,y,z
-x,y,-z
-x,-y,-z
x,-y,z
1/2+x,1/2+y,z
1/2-x,1/2+y,-z
1/2-x,1/2-y,-z
1/2+x,1/2-y,z
loop_
_atom_site_type_symbol
_atom_site_label
_atom_site_fract_x
_atom_site_fract_y
_atom_site_fract_z
Si Si1 0.145023 0.323918 0.894867
Si Si2 0.398267 0.178962 0.863901
Si Si3 0.631650 0.819902 0.498522
Si Si4 0.542450 0.830521 0.428154
Si Si5 0.995394 0.331102 0.786754
Si Si6 0.247829 0.323790 0.885980
Si Si7 0.334575 0.319992 0.714874
Si Si8 0.593388 0.322367 0.726177
O O1 0.132508 0.500000 0.879120
O O2 0.198735 0.290682 0.850942
O O3 0.115298 0.218478 0.830100
O O4 0.133338 0.276671 0.021653
O O5 0.451850 0.225329 0.877743
O O6 0.378401 0.261424 0.765998
O O7 0.396360 0.000000 0.841260
O O8 0.588900 0.753495 0.447480
O O9 0.670814 0.747274 0.405162
O O10 0.624506 0.758939 0.621951
O O11 0.638622 0.000000 0.501485
O O12 0.500000 0.740034 0.500000
O O13 0.535959 0.838261 0.305761
O O14 0.544530 0.000000 0.478919
O O15 0.013244 0.500000 0.811089
O O16 0.039379 0.224491 0.753882
O O17 0.254768 0.500000 0.902994
O O18 0.288025 0.261222 0.792309
O O19 0.250000 0.250000 0.000000
O O20 0.337284 0.500000 0.706080
O O21 0.595256 0.500000 0.704230
#
# Coordination Sequence:
#
# PCOD8092957 Si02
#       8
#     8   8   8   8   8   8   8   8
#     4  10  22  42  64  86 115 160 211 247 285 357
#     4  10  20  36  62  91 119 157 206 248 286 351
#     4  11  21  38  62  86 117 161 207 247 289 354
#     4   9  15  27  52  82 108 142 194 246 281 326
#     4  10  19  35  58  86 118 157 204 246 288 349
#     4  10  21  38  65  95 124 154 194 245 300 358
#     4  11  22  35  57  97 134 153 181 246 317 357
#     4  12  26  41  57  84 121 162 203 250 308 359
#
# _framework density 20.100788999999999
#
# number of rings (size 3 to 8) (size 9 to 14) (size 15 to 20)
#    0.000    1.625    3.750    1.875    0.000    2.500 
#    0.000    3.750    0.000    0.000    0.000    0.000 
#    0.000    0.000    0.000    0.000    0.000    0.000 
#
# Total GULP energy -396442.798612 kJ/mol
# GULP energy per Si atom -12388.837457 kJ/mol
# Density = 2.005504 g / cm^3
# Si number density = 20.100789 Si / 1000 Ang^3
#
#
#
# Elastic Constant Matrix: (Units=GPa)
#
#
# Indices 1 2 3 4 5 6 
#
# 1 74.4448 28.5147 25.7342 0.0000 -19.7745 0.0000
# 2 28.5147 82.8826 32.3404 0.0000 -8.7037 0.0000
# 3 25.7342 32.3404 80.2770 0.0000 -15.9012 0.0000
# 4 0.0000 0.0000 0.0000 31.5088 0.0000 -0.6343
# 5 -19.7745 -8.7037 -15.9012 0.0000 34.7813 0.0000
# 6 0.0000 0.0000 0.0000 -0.6343 0.0000 25.1526
#
#
#
# Elastic Compliance Matrix: (Units=1/GPa)
#
#
# Indices 1 2 3 4 5 6 
#
# 1 0.018117 -0.004441 -0.002417 0.000000 0.008084 0.000000
# 2 -0.004441 0.015438 -0.004982 0.000000 -0.000939 0.000000
# 3 -0.002417 -0.004982 0.016185 0.000000 0.004778 0.000000
# 4 0.000000 0.000000 0.000000 0.031753 0.000000 0.000801
# 5 0.008084 -0.000939 0.004778 0.000000 0.035297 0.000000
# 6 0.000000 0.000000 0.000000 0.000801 0.000000 0.039778
#
#
# Mechanical properties :
#
#
# Convention : Reuss Voigt Hill
#
# Bulk Modulus (GPa) = 38.37271 45.64254 42.00763
# Shear Modulus (GPa) = 26.46421 28.35620 27.41020
#
# Velocity S-wave (km/s) = 3.63240 3.76000 3.69675
# Velocity P-wave (km/s) = 6.06004 6.45030 6.25821
#
# Compressibility (1/GPa) = 0.02606018
#
# Stress axis : x y z
#
# Youngs Moduli (GPa) = 55.19820 64.77389 61.78414
#
# Poissons Ratio (x) = 0.28764 0.14936
# Poissons Ratio (y) = 0.24511 0.30781
# Poissons Ratio (z) = 0.13344 0.32270
#
# Static dielectric constant tensor:
#      x y z
#    x 3.913660 0.000000 -0.494130 
#    y 0.000000 3.416490 0.000000 
#    z -0.494130 0.000000 3.690140 
# 
# 
# High freq. dielectric constant tensor:
#      x y z
#    x 1.785930 0.000000 -0.025400 
#    y 0.000000 1.759240 0.000000 
#    z -0.025400 0.000000 1.786510 
# 
# From -- ./inp_files/187523.got.cif
#   From: 2010.06.25/outbox.cif.g09.slc.cpg/sg12_94_cif.got.tgz:187523.got - 2010.06.28 00:19:55.
