data_PCOD8092827
_publ_section_title
;
Structure prediction by ZEFSAII (Michael W. Deem and Ramdas Pophale) SiO2 
 PCOD8092827
Probable space group: C 2/M
;
_chemical_formula_sum "Si O2"
_cell_formula_units_Z 56
_cell_length_a 15.126995
_cell_length_b 8.599000
_cell_length_c 21.651999
_cell_angle_alpha 90.000000
_cell_angle_beta 80.488541
_cell_angle_gamma 90.000000
_cell_volume 2777.709088
_symmetry_space_group_name_H-M "C 2/M"
_symmetry_group_IT_number 12
_symmetry_cell_setting 'monoclinic'
loop_
_space_group_symop_operation_xyz
x,y,z
-x,y,-z
-x,-y,-z
x,-y,z
1/2+x,1/2+y,z
1/2-x,1/2+y,-z
1/2-x,1/2-y,-z
1/2+x,1/2-y,z
loop_
_atom_site_type_symbol
_atom_site_label
_atom_site_fract_x
_atom_site_fract_y
_atom_site_fract_z
Si Si1 0.686708 0.323902 0.196315
Si Si2 0.186810 0.819240 0.723250
Si Si3 0.898979 0.816107 0.495786
Si Si4 0.222877 0.322002 0.938633
Si Si5 0.224820 0.681941 0.589546
Si Si6 0.992191 0.182613 0.195877
Si Si7 0.458649 0.681987 0.066724
O O1 0.708833 0.500000 0.215326
O O2 0.746371 0.203546 0.227117
O O3 0.698042 0.311259 0.120825
O O4 0.583340 0.281345 0.221869
O O5 0.222258 0.722039 0.661586
O O6 0.090071 0.750593 0.754547
O O7 0.182643 0.000000 0.705906
O O8 0.861399 0.760045 0.433789
O O9 0.822476 0.759862 0.553450
O O10 0.000000 0.749580 0.500000
O O11 0.906475 0.000000 0.493597
O O12 0.192535 0.500000 0.952031
O O13 0.145817 0.216331 0.919233
O O14 0.250000 0.250000 0.000000
O O15 0.216356 0.500000 0.579513
O O16 0.997350 0.254785 0.125905
O O17 0.975148 0.000000 0.189691
O O18 0.478788 0.500000 0.061899
O O19 0.500000 0.760973 0.000000
#
# Coordination Sequence:
#
# PCOD8092827 Si02
#       7
#     8   8   8   8   8   8   8
#     4  10  21  39  59  80 108 147 192 238 288 344
#     4  11  22  38  59  83 116 155 196 239 284 344
#     4   9  19  38  63  89 119 156 197 235 277 334
#     4  11  22  35  55  81 111 143 184 239 297 356
#     4  10  21  37  59  88 121 155 192 238 286 334
#     4   9  19  36  57  79 107 147 190 230 284 348
#     4  10  19  35  58  80 107 143 187 235 290 354
#
# _framework density 20.160498
#
# number of rings (size 3 to 8) (size 9 to 14) (size 15 to 20)
#    0.000    2.000    1.429    2.143    0.000    5.143 
#    0.000    7.857    0.000    0.000    0.000    0.000 
#    0.000    0.000    0.000    0.000    0.000    0.000 
#
# Total GULP energy -347075.304524 kJ/mol
# GULP energy per Si atom -12395.546590 kJ/mol
# Density = 2.011461 g / cm^3
# Si number density = 20.160498 Si / 1000 Ang^3
#
#
#
# Elastic Constant Matrix: (Units=GPa)
#
#
# Indices 1 2 3 4 5 6 
#
# 1 138.8876 14.3890 41.2857 0.0000 -1.7038 0.0000
# 2 14.3890 12.2050 17.6328 0.0000 -2.7767 0.0000
# 3 41.2857 17.6328 104.9536 0.0000 -7.6166 0.0000
# 4 0.0000 0.0000 0.0000 28.0856 0.0000 3.7759
# 5 -1.7038 -2.7767 -7.6166 0.0000 27.2292 0.0000
# 6 0.0000 0.0000 0.0000 3.7759 0.0000 26.2402
#
#
#
# Elastic Compliance Matrix: (Units=1/GPa)
#
#
# Indices 1 2 3 4 5 6 
#
# 1 0.008591 -0.007059 -0.002252 0.000000 -0.000812 0.000000
# 2 -0.007059 0.114987 -0.016049 0.000000 0.006795 0.000000
# 3 -0.002252 -0.016049 0.013250 0.000000 0.001929 0.000000
# 4 0.000000 0.000000 0.000000 0.036308 0.000000 -0.005225
# 5 -0.000812 0.006795 0.001929 0.000000 0.037907 0.000000
# 6 0.000000 0.000000 0.000000 -0.005225 0.000000 0.038861
#
#
# Mechanical properties :
#
#
# Convention : Reuss Voigt Hill
#
# Bulk Modulus (GPa) = 11.61327 44.74013 28.17670
# Shear Modulus (GPa) = 15.18248 28.49359 21.83804
#
# Velocity S-wave (km/s) = 2.74721 3.76352 3.29478
# Velocity P-wave (km/s) = 3.97942 6.41292 5.33673
#
# Compressibility (1/GPa) = 0.08610839
#
# Stress axis : x y z
#
# Youngs Moduli (GPa) = 116.40124 8.69664 75.46986
#
# Poissons Ratio (x) = 0.06139 0.16999
# Poissons Ratio (y) = 0.82166 1.21119
# Poissons Ratio (z) = 0.26219 0.13957
#
# Static dielectric constant tensor:
#      x y z
#    x 3.831080 0.000000 -0.192860 
#    y 0.000000 3.304700 0.000000 
#    z -0.192860 0.000000 3.627920 
# 
# 
# High freq. dielectric constant tensor:
#      x y z
#    x 1.793580 0.000000 -0.003390 
#    y 0.000000 1.761260 0.000000 
#    z -0.003390 0.000000 1.787820 
# 
# From -- ./inp_files/308942.got.cif
#   From: 2010.06.25/outbox.cif.g09.slc.cpg/sg12_155_cif.got.tgz:308942.got - 2010.06.28 00:19:55.
