data_PCOD8092429
_publ_section_title
;
Structure prediction by ZEFSAII (Michael W. Deem and Ramdas Pophale) SiO2 
 PCOD8092429
Probable space group: C 2/M
;
_chemical_formula_sum "Si O2"
_cell_formula_units_Z 48
_cell_length_a 20.680557
_cell_length_b 9.108747
_cell_length_c 16.652276
_cell_angle_alpha 90.000000
_cell_angle_beta 117.016149
_cell_angle_gamma 90.000000
_cell_volume 2794.556949
_symmetry_space_group_name_H-M "C 2/M"
_symmetry_group_IT_number 12
_symmetry_cell_setting 'monoclinic'
loop_
_space_group_symop_operation_xyz
x,y,z
-x,y,-z
-x,-y,-z
x,-y,z
1/2+x,1/2+y,z
1/2-x,1/2+y,-z
1/2-x,1/2-y,-z
1/2+x,1/2-y,z
loop_
_atom_site_type_symbol
_atom_site_label
_atom_site_fract_x
_atom_site_fract_y
_atom_site_fract_z
Si Si1 0.579411 0.174643 0.733140
Si Si2 0.965604 0.828253 0.566163
Si Si3 0.710887 0.671880 0.722546
Si Si4 0.202755 0.662467 0.081589
Si Si5 0.640899 0.335927 0.912210
Si Si6 0.701102 0.670345 0.536503
O O1 0.503079 0.232293 0.656441
O O2 0.642512 0.232382 0.710621
O O3 0.588435 0.235528 0.828722
O O4 0.580882 0.000000 0.736567
O O5 0.882027 0.780033 0.518145
O O6 0.000000 0.788684 0.500000
O O7 0.975988 0.000000 0.591104
O O8 0.689104 0.500000 0.720322
O O9 0.781579 0.709570 0.817118
O O10 0.730203 0.709527 0.641888
O O11 0.168526 0.500000 0.058749
O O12 0.280054 0.662891 0.081742
O O13 0.146843 0.771567 0.006089
O O14 0.608828 0.500000 0.899547
O O15 0.708369 0.500000 0.523345
O O16 0.750000 0.750000 0.500000
#
# Coordination Sequence:
#
# PCOD8092429 Si02
#       6
#     8   8   8   8   8   8
#     4  11  20  28  45  73 101 126 163 212 251 286
#     4  10  19  35  55  71  96 135 173 202 246 306
#     4   9  17  32  49  67  95 135 170 198 246 304
#     4   8  14  24  41  63  90 123 163 203 238 285
#     4   9  16  26  40  61  95 131 160 193 245 304
#     4  10  21  36  54  74 100 134 169 208 248 296
#
# _framework density 17.176248000000001
#
# number of rings (size 3 to 8) (size 9 to 14) (size 15 to 20)
#    0.000    2.500    1.667    3.000    0.000    5.667 
#    0.000    0.000    0.000    0.000    0.000    1.167 
#    0.000    9.333    0.000    0.000    0.000    0.000 
#
# Total GULP energy -297534.303730 kJ/mol
# GULP energy per Si atom -12397.262655 kJ/mol
# Density = 1.713715 g / cm^3
# Si number density = 17.176248 Si / 1000 Ang^3
#
#
#
# Elastic Constant Matrix: (Units=GPa)
#
#
# Indices 1 2 3 4 5 6 
#
# 1 70.9756 35.3399 53.1556 0.0000 -4.2688 0.0000
# 2 35.3399 103.2836 77.9679 0.0000 -2.3181 0.0000
# 3 53.1556 77.9679 172.0098 0.0000 -11.4489 0.0000
# 4 0.0000 0.0000 0.0000 33.6617 0.0000 0.1125
# 5 -4.2688 -2.3181 -11.4489 0.0000 13.2758 0.0000
# 6 0.0000 0.0000 0.0000 0.1125 0.0000 20.2532
#
#
#
# Elastic Compliance Matrix: (Units=1/GPa)
#
#
# Indices 1 2 3 4 5 6 
#
# 1 0.019022 -0.003227 -0.004293 0.000000 0.001851 0.000000
# 2 -0.003227 0.015410 -0.006236 0.000000 -0.003724 0.000000
# 3 -0.004293 -0.006236 0.010399 0.000000 0.006499 0.000000
# 4 0.000000 0.000000 0.000000 0.029708 0.000000 -0.000165
# 5 0.001851 -0.003724 0.006499 0.000000 0.080875 0.000000
# 6 0.000000 0.000000 0.000000 -0.000165 0.000000 0.049376
#
#
# Mechanical properties :
#
#
# Convention : Reuss Voigt Hill
#
# Bulk Modulus (GPa) = 57.73246 75.46621 66.59933
# Shear Modulus (GPa) = 21.00196 25.42519 23.21358
#
# Velocity S-wave (km/s) = 3.50055 3.85158 3.68025
# Velocity P-wave (km/s) = 7.07271 7.98820 7.54435
#
# Compressibility (1/GPa) = 0.01732128
#
# Stress axis : x y z
#
# Youngs Moduli (GPa) = 52.57039 64.89383 96.16171
#
# Poissons Ratio (x) = 0.20940 0.41277
# Poissons Ratio (y) = 0.16963 0.59963
# Poissons Ratio (z) = 0.22566 0.40465
#
# Static dielectric constant tensor:
#      x y z
#    x 2.655040 0.000000 -0.044040 
#    y 0.000000 3.226370 0.000000 
#    z -0.044040 0.000000 3.677770 
# 
# 
# High freq. dielectric constant tensor:
#      x y z
#    x 1.592410 0.000000 -0.003840 
#    y 0.000000 1.662800 0.000000 
#    z -0.003840 0.000000 1.687010 
# 
# From -- ./inp_files/274054.got.cif
#   From: 2010.06.25/outbox.cif.g09.slc.cpg/sg12_138_cif.got.tgz:274054.got - 2010.06.28 00:19:55.
