data_PCOD8092556
_publ_section_title
;
Structure prediction by ZEFSAII (Michael W. Deem and Ramdas Pophale) SiO2 
 PCOD8092556
Probable space group: C 2/M
;
_chemical_formula_sum "Si O2"
_cell_formula_units_Z 48
_cell_length_a 14.211453
_cell_length_b 8.715743
_cell_length_c 21.124311
_cell_angle_alpha 90.000000
_cell_angle_beta 89.164614
_cell_angle_gamma 90.000000
_cell_volume 2616.250282
_symmetry_space_group_name_H-M "C 2/M"
_symmetry_group_IT_number 12
_symmetry_cell_setting 'monoclinic'
loop_
_space_group_symop_operation_xyz
x,y,z
-x,y,-z
-x,-y,-z
x,-y,z
1/2+x,1/2+y,z
1/2-x,1/2+y,-z
1/2-x,1/2-y,-z
1/2+x,1/2-y,z
loop_
_atom_site_type_symbol
_atom_site_label
_atom_site_fract_x
_atom_site_fract_y
_atom_site_fract_z
Si Si1 0.598440 0.319314 0.668548
Si Si2 0.745845 0.323026 0.100390
Si Si3 0.111822 0.817722 0.332327
Si Si4 0.606813 0.821864 0.008682
Si Si5 0.750186 0.680337 0.764931
Si Si6 0.748256 0.181540 0.430839
O O1 0.589070 0.500000 0.669776
O O2 0.494064 0.249306 0.668864
O O3 0.654906 0.264752 0.730533
O O4 0.656013 0.267444 0.605685
O O5 0.738788 0.500000 0.119967
O O6 0.836409 0.289753 0.056166
O O7 0.758326 0.220216 0.161828
O O8 0.650619 0.276285 0.065145
O O9 0.161556 0.766730 0.266984
O O10 0.159492 0.746574 0.393747
O O11 0.114055 0.000000 0.337915
O O12 0.612121 0.000000 0.027658
O O13 0.500000 0.767250 0.000000
O O14 0.765944 0.500000 0.755524
O O15 0.750000 0.250000 0.500000
O O16 0.738908 0.000000 0.434175
#
# Coordination Sequence:
#
# PCOD8092556 Si02
#       6
#     8   8   8   8   8   8
#     4   8  18  35  54  74 102 137 171 207 254 307
#     4  10  20  34  53  78 105 135 172 212 255 305
#     4  10  19  35  56  78 102 133 173 216 257 302
#     4   9  19  36  55  76 104 136 171 213 258 302
#     4  10  20  36  54  75 105 139 171 209 256 306
#     4  10  20  36  54  77 106 138 172 209 255 305
#
# _framework density 18.346868000000001
#
# number of rings (size 3 to 8) (size 9 to 14) (size 15 to 20)
#    0.000    2.500    0.000    3.000    0.000    3.000 
#    0.000   16.667    0.000    0.000    0.000    0.000 
#    0.000    0.000    0.000    0.000    0.000    0.000 
#
# Total GULP energy -297621.256520 kJ/mol
# GULP energy per Si atom -12400.885688 kJ/mol
# Density = 1.830511 g / cm^3
# Si number density = 18.346868 Si / 1000 Ang^3
#
#
#
# Elastic Constant Matrix: (Units=GPa)
#
#
# Indices 1 2 3 4 5 6 
#
# 1 173.7452 37.8115 65.2860 0.0000 5.9609 0.0000
# 2 37.8115 61.9083 34.8554 0.0000 3.5368 0.0000
# 3 65.2860 34.8554 128.9103 0.0000 4.8396 0.0000
# 4 0.0000 0.0000 0.0000 34.7701 0.0000 2.2724
# 5 5.9609 3.5368 4.8396 0.0000 12.4875 0.0000
# 6 0.0000 0.0000 0.0000 2.2724 0.0000 25.4794
#
#
#
# Elastic Compliance Matrix: (Units=1/GPa)
#
#
# Indices 1 2 3 4 5 6 
#
# 1 0.007555 -0.002832 -0.002999 0.000000 -0.001642 0.000000
# 2 -0.002832 0.020263 -0.003937 0.000000 -0.002861 0.000000
# 3 -0.002999 -0.003937 0.010396 0.000000 -0.001483 0.000000
# 4 0.000000 0.000000 0.000000 0.028929 0.000000 -0.002580
# 5 -0.001642 -0.002861 -0.001483 0.000000 0.082249 0.000000
# 6 0.000000 0.000000 0.000000 -0.002580 0.000000 0.039478
#
#
# Mechanical properties :
#
#
# Convention : Reuss Voigt Hill
#
# Bulk Modulus (GPa) = 53.53864 71.16330 62.35097
# Shear Modulus (GPa) = 23.29578 29.65480 26.47529
#
# Velocity S-wave (km/s) = 3.56721 4.02474 3.80286
# Velocity P-wave (km/s) = 6.79789 7.77624 7.30347
#
# Compressibility (1/GPa) = 0.01867810
#
# Stress axis : x y z
#
# Youngs Moduli (GPa) = 132.36137 49.35157 96.18876
#
# Poissons Ratio (x) = 0.13977 0.28845
# Poissons Ratio (y) = 0.37487 0.37869
# Poissons Ratio (z) = 0.39693 0.19430
#
# Static dielectric constant tensor:
#      x y z
#    x 3.663060 0.000000 0.012800 
#    y 0.000000 3.303070 0.000000 
#    z 0.012800 0.000000 3.330170 
# 
# 
# High freq. dielectric constant tensor:
#      x y z
#    x 1.715950 0.000000 0.001890 
#    y 0.000000 1.707990 0.000000 
#    z 0.001890 0.000000 1.713450 
# 
# From -- ./inp_files/307984.got.cif
#   From: 2010.06.25/outbox.cif.g09.slc.cpg/sg12_154_cif.got.tgz:307984.got - 2010.06.28 00:19:55.
