data_PCOD8092517
_publ_section_title
;
Structure prediction by ZEFSAII (Michael W. Deem and Ramdas Pophale) SiO2 
 PCOD8092517
Probable space group: C 2/M
;
_chemical_formula_sum "Si O2"
_cell_formula_units_Z 52
_cell_length_a 12.057381
_cell_length_b 21.741966
_cell_length_c 10.529771
_cell_angle_alpha 90.000000
_cell_angle_beta 100.502335
_cell_angle_gamma 90.000000
_cell_volume 2714.148246
_symmetry_space_group_name_H-M "C 2/M"
_symmetry_group_IT_number 12
_symmetry_cell_setting 'monoclinic'
loop_
_space_group_symop_operation_xyz
x,y,z
-x,y,-z
-x,-y,-z
x,-y,z
1/2+x,1/2+y,z
1/2-x,1/2+y,-z
1/2-x,1/2-y,-z
1/2+x,1/2-y,z
loop_
_atom_site_type_symbol
_atom_site_label
_atom_site_fract_x
_atom_site_fract_y
_atom_site_fract_z
Si Si1 0.156335 0.797364 0.602077
Si Si2 0.887852 0.292467 0.774164
Si Si3 0.157448 0.570370 0.831388
Si Si4 0.500000 0.133766 0.000000
Si Si5 0.929598 0.168146 0.682464
Si Si6 0.576897 0.165025 0.626223
Si Si7 0.590007 0.570363 0.118487
O O1 0.273994 0.818531 0.687410
O O2 0.145953 0.827343 0.460573
O O3 0.148674 0.722768 0.585564
O O4 0.059641 0.821782 0.674257
O O5 0.905035 0.322493 0.916035
O O6 0.885269 0.218222 0.776721
O O7 0.997375 0.309742 0.718590
O O8 0.131895 0.500000 0.787865
O O9 0.154119 0.611792 0.702457
O O10 0.283992 0.576851 0.913180
O O11 0.064956 0.590509 0.914699
O O12 0.918243 0.102550 0.746264
O O13 0.500000 0.135706 0.500000
O O14 0.558654 0.500000 0.139110
O O15 0.500000 0.598755 0.000000
#
# Coordination Sequence:
#
# PCOD8092517 Si02
#       7
#     8   8   8   4   8   8   8
#     4  10  19  35  58  85 114 151 175 224 288 335
#     4  10  20  33  55  85 115 144 178 228 284 330
#     4  10  22  40  59  78 109 153 189 231 279 327
#     4  10  23  38  56  86 113 144 190 236 274 332
#     4  10  20  35  57  85 111 147 187 221 280 341
#     4  10  19  35  55  85 114 140 183 229 278 338
#     4  10  23  40  59  82 111 150 192 233 275 324
#
# _framework density 19.158866
#
# number of rings (size 3 to 8) (size 9 to 14) (size 15 to 20)
#    0.000    2.000    3.077    1.615    5.385    0.308 
#    0.000    4.615    0.000    0.923    0.000    0.000 
#    0.000    0.000    0.000    0.000    0.000    0.000 
#
# Total GULP energy -322349.663106 kJ/mol
# GULP energy per Si atom -12398.063966 kJ/mol
# Density = 1.911526 g / cm^3
# Si number density = 19.158866 Si / 1000 Ang^3
#
#
#
# Elastic Constant Matrix: (Units=GPa)
#
#
# Indices 1 2 3 4 5 6 
#
# 1 60.7942 25.7204 34.8673 0.0000 22.7831 0.0000
# 2 25.7204 88.0789 60.7296 0.0000 6.0946 0.0000
# 3 34.8673 60.7296 119.6959 0.0000 23.0469 0.0000
# 4 0.0000 0.0000 0.0000 31.6995 0.0000 -0.4258
# 5 22.7831 6.0946 23.0469 0.0000 36.2899 0.0000
# 6 0.0000 0.0000 0.0000 -0.4258 0.0000 19.1362
#
#
#
# Elastic Compliance Matrix: (Units=1/GPa)
#
#
# Indices 1 2 3 4 5 6 
#
# 1 0.024730 -0.004769 -0.002220 0.000000 -0.013315 0.000000
# 2 -0.004769 0.018687 -0.009188 0.000000 0.005691 0.000000
# 3 -0.002220 -0.009188 0.014922 0.000000 -0.006540 0.000000
# 4 0.000000 0.000000 0.000000 0.031556 0.000000 0.000702
# 5 -0.013315 0.005691 -0.006540 0.000000 0.039112 0.000000
# 6 0.000000 0.000000 0.000000 0.000702 0.000000 0.052273
#
#
# Mechanical properties :
#
#
# Convention : Reuss Voigt Hill
#
# Bulk Modulus (GPa) = 38.48464 56.80041 47.64253
# Shear Modulus (GPa) = 22.49257 27.24191 24.86724
#
# Velocity S-wave (km/s) = 3.43009 3.77489 3.60662
# Velocity P-wave (km/s) = 5.98482 6.97934 6.50113
#
# Compressibility (1/GPa) = 0.02598439
#
# Stress axis : x y z
#
# Youngs Moduli (GPa) = 40.43701 53.51253 67.01521
#
# Poissons Ratio (x) = 0.25522 0.14880
# Poissons Ratio (y) = 0.19286 0.61571
# Poissons Ratio (z) = 0.08978 0.49166
#
# Static dielectric constant tensor:
#      x y z
#    x 3.538710 0.000000 0.167370 
#    y 0.000000 3.518170 0.000000 
#    z 0.167370 0.000000 3.563460 
# 
# 
# High freq. dielectric constant tensor:
#      x y z
#    x 1.757400 0.000000 0.011610 
#    y 0.000000 1.724920 0.000000 
#    z 0.011610 0.000000 1.738640 
# 
# From -- ./inp_files/133353.got.cif
#   From: 2010.06.25/outbox.cif.g09.slc.cpg/sg12_67_cif.got.tgz:133353.got - 2010.06.28 00:19:55.
