data_PCOD8092445
_publ_section_title
;
Structure prediction by ZEFSAII (Michael W. Deem and Ramdas Pophale) SiO2 
 PCOD8092445
Probable space group: C 2/M
;
_chemical_formula_sum "Si O2"
_cell_formula_units_Z 56
_cell_length_a 14.678138
_cell_length_b 25.365736
_cell_length_c 11.831732
_cell_angle_alpha 90.000000
_cell_angle_beta 142.925253
_cell_angle_gamma 90.000000
_cell_volume 2655.709892
_symmetry_space_group_name_H-M "C 2/M"
_symmetry_group_IT_number 12
_symmetry_cell_setting 'monoclinic'
loop_
_space_group_symop_operation_xyz
x,y,z
-x,y,-z
-x,-y,-z
x,-y,z
1/2+x,1/2+y,z
1/2-x,1/2+y,-z
1/2-x,1/2-y,-z
1/2+x,1/2-y,z
loop_
_atom_site_type_symbol
_atom_site_label
_atom_site_fract_x
_atom_site_fract_y
_atom_site_fract_z
Si Si1 0.151803 0.094253 0.109851
Si Si2 0.850468 0.798236 0.008020
Si Si3 0.822563 0.225751 0.338302
Si Si4 0.593856 0.784595 0.296488
Si Si5 0.627282 0.940735 0.852193
Si Si6 0.672649 0.845111 0.034141
Si Si7 0.400050 0.133589 0.508497
O O1 0.097326 0.145413 0.986584
O O2 0.250119 0.056523 0.126880
O O3 0.242062 0.110207 0.311904
O O4 0.000000 0.064198 0.000000
O O5 0.771917 0.768318 0.826076
O O6 0.726523 0.807322 0.983027
O O7 0.997324 0.769436 0.204857
O O8 0.760791 0.226639 0.407296
O O9 0.777735 0.167616 0.245443
O O10 0.000000 0.234755 0.500000
O O11 0.619297 0.811210 0.444578
O O12 0.502338 0.826578 0.125530
O O13 0.477808 0.911566 0.660402
O O14 0.589377 0.000000 0.853947
O O15 0.688156 0.907094 0.019796
O O16 0.500000 0.149192 0.500000
#
# Coordination Sequence:
#
# PCOD8092445 Si02
#       7
#     8   8   8   8   8   8   8
#     4  10  20  33  51  78 111 139 171 217 268 316
#     4  10  20  36  53  74 109 150 184 217 259 312
#     4  11  22  33  52  81 112 145 183 219 258 314
#     4  10  19  35  55  75 106 148 182 215 260 311
#     4   9  19  36  58  79  99 134 178 219 268 321
#     4   9  19  36  55  75 106 140 176 224 269 316
#     4   9  20  36  56  79 105 138 178 225 265 311
#
# _framework density 21.086639999999999
#
# number of rings (size 3 to 8) (size 9 to 14) (size 15 to 20)
#    0.000    2.286    0.000    5.143    0.000   10.286 
#    0.000    7.143    0.000    7.286    0.000    0.000 
#    0.000    0.000    0.000    0.000    0.000    0.000 
#
# Total GULP energy -347113.829609 kJ/mol
# GULP energy per Si atom -12396.922486 kJ/mol
# Density = 2.103865 g / cm^3
# Si number density = 21.086640 Si / 1000 Ang^3
#
#
#
# Elastic Constant Matrix: (Units=GPa)
#
#
# Indices 1 2 3 4 5 6 
#
# 1 83.7251 16.9994 9.8368 0.0000 17.6902 0.0000
# 2 16.9994 121.8058 15.4206 0.0000 1.0442 0.0000
# 3 9.8368 15.4206 41.8497 0.0000 18.7485 0.0000
# 4 0.0000 0.0000 0.0000 11.6018 0.0000 -0.4822
# 5 17.6902 1.0442 18.7485 0.0000 35.9553 0.0000
# 6 0.0000 0.0000 0.0000 -0.4822 0.0000 11.4636
#
#
#
# Elastic Compliance Matrix: (Units=1/GPa)
#
#
# Indices 1 2 3 4 5 6 
#
# 1 0.013750 -0.001939 0.000637 0.000000 -0.007041 0.000000
# 2 -0.001939 0.008979 -0.004127 0.000000 0.002846 0.000000
# 3 0.000637 -0.004127 0.033081 0.000000 -0.017443 0.000000
# 4 0.000000 0.000000 0.000000 0.086345 0.000000 0.003632
# 5 -0.007041 0.002846 -0.017443 0.000000 0.040289 0.000000
# 6 0.000000 0.000000 0.000000 0.003632 0.000000 0.087386
#
#
# Mechanical properties :
#
#
# Convention : Reuss Voigt Hill
#
# Bulk Modulus (GPa) = 22.24689 36.87713 29.56201
# Shear Modulus (GPa) = 16.91064 25.47907 21.19485
#
# Velocity S-wave (km/s) = 2.83496 3.47984 3.17382
# Velocity P-wave (km/s) = 4.61402 5.80276 5.24219
#
# Compressibility (1/GPa) = 0.04495010
#
# Stress axis : x y z
#
# Youngs Moduli (GPa) = 72.72478 111.37640 30.22924
#
# Poissons Ratio (x) = 0.21599 -0.01925
# Poissons Ratio (y) = 0.14104 0.12477
# Poissons Ratio (z) = -0.04632 0.45969
#
# Static dielectric constant tensor:
#      x y z
#    x 3.915030 0.000000 -0.008800 
#    y 0.000000 3.546460 0.000000 
#    z -0.008800 0.000000 4.043910 
# 
# 
# High freq. dielectric constant tensor:
#      x y z
#    x 1.823100 0.000000 0.006110 
#    y 0.000000 1.794780 0.000000 
#    z 0.006110 0.000000 1.826430 
# 
# From -- ./inp_files/149508.got.cif
#   From: 2010.06.25/outbox.cif.g09.slc.cpg/sg12_75_cif.got.tgz:149508.got - 2010.06.28 00:19:55.
