data_PCOD8092306
_publ_section_title
;
Structure prediction by ZEFSAII (Michael W. Deem and Ramdas Pophale) SiO2 
 PCOD8092306
Probable space group: C 2/M
;
_chemical_formula_sum "Si O2"
_cell_formula_units_Z 40
_cell_length_a 8.506980
_cell_length_b 26.445926
_cell_length_c 8.524126
_cell_angle_alpha 90.000000
_cell_angle_beta 108.833233
_cell_angle_gamma 90.000000
_cell_volume 1815.044657
_symmetry_space_group_name_H-M "C 2/M"
_symmetry_group_IT_number 12
_symmetry_cell_setting 'monoclinic'
loop_
_space_group_symop_operation_xyz
x,y,z
-x,y,-z
-x,-y,-z
x,-y,z
1/2+x,1/2+y,z
1/2-x,1/2+y,-z
1/2-x,1/2-y,-z
1/2+x,1/2-y,z
loop_
_atom_site_type_symbol
_atom_site_label
_atom_site_fract_x
_atom_site_fract_y
_atom_site_fract_z
Si Si1 0.007779 0.500000 0.315085
Si Si2 0.879161 0.000000 0.314795
Si Si3 0.989876 0.702568 0.683709
Si Si4 0.124672 0.398455 0.686517
Si Si5 0.880770 0.194308 0.314619
Si Si6 0.998503 0.098240 0.185055
O O1 0.193195 0.500000 0.315563
O O2 0.000000 0.500000 0.500000
O O3 0.913068 0.449260 0.223930
O O4 0.000000 0.000000 0.500000
O O5 0.906938 0.950753 0.220003
O O6 0.804009 0.699235 0.682497
O O7 0.000000 0.705032 0.500000
O O8 0.091210 0.652873 0.776131
O O9 0.072224 0.754976 0.768846
O O10 0.313838 0.399232 0.687439
O O11 0.000000 0.397409 0.500000
O O12 0.000000 0.184940 0.500000
O O13 0.895138 0.147168 0.203008
O O14 0.000000 0.095267 0.000000
#
# Coordination Sequence:
#
# PCOD8092306 Si02
#       6
#     4   4   8   8   8   8
#     4  10  20  36  63  97 122 150 201 261 307 360
#     4  12  23  42  70  97 121 166 216 255 304 376
#     4  10  19  34  61  94 122 159 217 274 307 357
#     4  10  19  38  62  88 122 165 208 254 302 366
#     4  11  20  37  62  91 122 167 216 262 313 374
#     4  12  26  43  62  94 133 165 202 261 322 374
#
# _framework density 22.038025999999999
#
# number of rings (size 3 to 8) (size 9 to 14) (size 15 to 20)
#    0.000    1.200    0.000   11.100    0.000    0.000 
#    0.000    9.000    0.000    0.000    0.000    0.000 
#    0.000    0.000    0.000    0.000    0.000    0.000 
#
# Total GULP energy -247966.184488 kJ/mol
# GULP energy per Si atom -12398.309224 kJ/mol
# Density = 2.198787 g / cm^3
# Si number density = 22.038026 Si / 1000 Ang^3
#
#
#
# Elastic Constant Matrix: (Units=GPa)
#
#
# Indices 1 2 3 4 5 6 
#
# 1 199.1032 79.0285 25.6522 0.0000 -40.5945 0.0000
# 2 79.0285 259.3054 41.2821 0.0000 -33.0014 0.0000
# 3 25.6522 41.2821 68.4505 0.0000 -21.1913 0.0000
# 4 0.0000 0.0000 0.0000 6.6528 0.0000 -16.0972
# 5 -40.5945 -33.0014 -21.1913 0.0000 28.5458 0.0000
# 6 0.0000 0.0000 0.0000 -16.0972 0.0000 42.5639
#
#
#
# Elastic Compliance Matrix: (Units=1/GPa)
#
#
# Indices 1 2 3 4 5 6 
#
# 1 0.007365 -0.001144 0.000991 0.000000 0.009886 0.000000
# 2 -0.001144 0.004811 -0.001629 0.000000 0.002726 0.000000
# 3 0.000991 -0.001629 0.019571 0.000000 0.014054 0.000000
# 4 0.000000 0.000000 0.000000 1.770073 0.000000 0.669423
# 5 0.009886 0.002726 0.014054 0.000000 0.062675 0.000000
# 6 0.000000 0.000000 0.000000 0.669423 0.000000 0.276663
#
#
# Mechanical properties :
#
#
# Convention : Reuss Voigt Hill
#
# Bulk Modulus (GPa) = 35.48319 90.97607 63.22963
# Shear Modulus (GPa) = 2.32114 40.94559 21.63336
#
# Velocity S-wave (km/s) = 1.02739 4.31507 3.13651
# Velocity P-wave (km/s) = 4.18846 8.13618 6.47073
#
# Compressibility (1/GPa) = 0.02818236
#
# Stress axis : x y z
#
# Youngs Moduli (GPa) = 135.78507 207.83843 51.09504
#
# Poissons Ratio (x) = 0.23778 -0.05061
# Poissons Ratio (y) = 0.15534 0.08323
# Poissons Ratio (z) = -0.13450 0.33857
#
# Static dielectric constant tensor:
#      x y z
#    x -0.357060 0.000000 10.929040 
#    y 0.000000 6.328680 0.000000 
#    z 10.929040 0.000000 -23.806320 
# 
# 
# High freq. dielectric constant tensor:
#      x y z
#    x 1.883960 0.000000 -0.014280 
#    y 0.000000 1.909830 0.000000 
#    z -0.014280 0.000000 1.807880 
# 
# From -- ./inp_files/40447.got.cif
#   From: 2010.06.25/outbox.cif.g09.slc.cpg/sg12_21_cif.got.tgz:40447.got - 2010.06.28 00:19:55.
