data_PCOD8092596
_publ_section_title
;
Structure prediction by ZEFSAII (Michael W. Deem and Ramdas Pophale) SiO2 
 PCOD8092596
Probable space group: C 2/M
;
_chemical_formula_sum "Si O2"
_cell_formula_units_Z 40
_cell_length_a 13.204050
_cell_length_b 20.419365
_cell_length_c 12.802215
_cell_angle_alpha 90.000000
_cell_angle_beta 143.831764
_cell_angle_gamma 90.000000
_cell_volume 2037.055968
_symmetry_space_group_name_H-M "C 2/M"
_symmetry_group_IT_number 12
_symmetry_cell_setting 'monoclinic'
loop_
_space_group_symop_operation_xyz
x,y,z
-x,y,-z
-x,-y,-z
x,-y,z
1/2+x,1/2+y,z
1/2-x,1/2+y,-z
1/2-x,1/2-y,-z
1/2+x,1/2-y,z
loop_
_atom_site_type_symbol
_atom_site_label
_atom_site_fract_x
_atom_site_fract_y
_atom_site_fract_z
Si Si1 0.695178 0.075626 0.182912
Si Si2 0.936008 0.075101 0.188665
Si Si3 0.622550 0.310430 0.004596
Si Si4 0.009664 0.730795 0.712029
Si Si5 0.295146 0.650971 0.469377
O O1 0.795794 0.089434 0.160648
O O2 0.775235 0.121432 0.337855
O O3 0.711993 0.000000 0.232070
O O4 0.500000 0.095587 0.000000
O O5 0.882815 0.115413 0.042050
O O6 0.121468 0.096690 0.385758
O O7 0.942039 0.000000 0.160271
O O8 0.555124 0.260739 0.861822
O O9 0.500000 0.302102 0.000000
O O10 0.817218 0.293273 0.200919
O O11 0.886755 0.668796 0.629922
O O12 0.915263 0.784548 0.561329
#
# Coordination Sequence:
#
# PCOD8092596 Si02
#       5
#     8   8   8   8   8
#     4  10  20  33  54  83 111 143 182 224 272 322
#     4  10  21  36  54  80 111 144 184 224 267 320
#     4  10  21  38  58  79 107 142 183 225 266 319
#     4   9  21  37  55  83 110 141 180 221 270 323
#     4  10  19  35  56  80 114 145 174 220 276 324
#
# _framework density 19.636181000000001
#
# number of rings (size 3 to 8) (size 9 to 14) (size 15 to 20)
#    0.000    2.200    0.000    2.400    0.000    9.200 
#    0.000    9.000    0.000    1.200    0.000    0.000 
#    0.000    0.000    0.000    0.000    0.000    0.000 
#
# Total GULP energy -248069.755060 kJ/mol
# GULP energy per Si atom -12403.487753 kJ/mol
# Density = 1.959149 g / cm^3
# Si number density = 19.636181 Si / 1000 Ang^3
#
#
#
# Elastic Constant Matrix: (Units=GPa)
#
#
# Indices 1 2 3 4 5 6 
#
# 1 120.0064 51.2154 50.3812 0.0000 25.2907 0.0000
# 2 51.2154 85.0018 40.0157 0.0000 11.1357 0.0000
# 3 50.3812 40.0157 97.4647 0.0000 23.7413 0.0000
# 4 0.0000 0.0000 0.0000 31.5203 0.0000 0.4790
# 5 25.2907 11.1357 23.7413 0.0000 33.0172 0.0000
# 6 0.0000 0.0000 0.0000 0.4790 0.0000 29.3162
#
#
#
# Elastic Compliance Matrix: (Units=1/GPa)
#
#
# Indices 1 2 3 4 5 6 
#
# 1 0.013384 -0.005835 -0.003037 0.000000 -0.006100 0.000000
# 2 -0.005835 0.017142 -0.004488 0.000000 0.001915 0.000000
# 3 -0.003037 -0.004488 0.015442 0.000000 -0.007264 0.000000
# 4 0.000000 0.000000 0.000000 0.031733 0.000000 -0.000518
# 5 -0.006100 0.001915 -0.007264 0.000000 0.039537 0.000000
# 6 0.000000 0.000000 0.000000 -0.000518 0.000000 0.034119
#
#
# Mechanical properties :
#
#
# Convention : Reuss Voigt Hill
#
# Bulk Modulus (GPa) = 51.95441 65.07748 58.51595
# Shear Modulus (GPa) = 27.10122 29.49478 28.29800
#
# Velocity S-wave (km/s) = 3.71909 3.87985 3.80032
# Velocity P-wave (km/s) = 6.70508 7.29963 7.00866
#
# Compressibility (1/GPa) = 0.01924764
#
# Stress axis : x y z
#
# Youngs Moduli (GPa) = 74.71836 58.33524 64.75883
#
# Poissons Ratio (x) = 0.34040 0.19664
# Poissons Ratio (y) = 0.43600 0.29066
# Poissons Ratio (z) = 0.22689 0.26182
#
# Static dielectric constant tensor:
#      x y z
#    x 3.395230 0.000000 0.303780 
#    y 0.000000 3.686580 0.000000 
#    z 0.303780 0.000000 3.771550 
# 
# 
# High freq. dielectric constant tensor:
#      x y z
#    x 1.749960 0.000000 0.019180 
#    y 0.000000 1.767450 0.000000 
#    z 0.019180 0.000000 1.772890 
# 
# From -- ./inp_files/48494.got.cif
#   From: 2010.06.25/outbox.cif.g09.slc.cpg/sg12_25_cif.got.tgz:48494.got - 2010.06.28 00:19:55.
