data_PCOD8092231
_publ_section_title
;
Structure prediction by ZEFSAII (Michael W. Deem and Ramdas Pophale) SiO2 
 PCOD8092231
Probable space group: C 2/M
;
_chemical_formula_sum "Si O2"
_cell_formula_units_Z 48
_cell_length_a 14.107919
_cell_length_b 28.035525
_cell_length_c 8.096703
_cell_angle_alpha 90.000000
_cell_angle_beta 40.451893
_cell_angle_gamma 90.000000
_cell_volume 2077.767594
_symmetry_space_group_name_H-M "C 2/M"
_symmetry_group_IT_number 12
_symmetry_cell_setting 'monoclinic'
loop_
_space_group_symop_operation_xyz
x,y,z
-x,y,-z
-x,-y,-z
x,-y,z
1/2+x,1/2+y,z
1/2-x,1/2+y,-z
1/2-x,1/2-y,-z
1/2+x,1/2-y,z
loop_
_atom_site_type_symbol
_atom_site_label
_atom_site_fract_x
_atom_site_fract_y
_atom_site_fract_z
Si Si1 0.695979 0.444619 0.049619
Si Si2 0.407090 0.890691 0.965292
Si Si3 0.094696 0.052459 0.707711
Si Si4 0.317501 0.775725 0.569593
Si Si5 0.810585 0.613927 0.590285
Si Si6 0.899775 0.282649 0.975055
O O1 0.732663 0.500000 0.967083
O O2 0.771098 0.427119 0.120693
O O3 0.766099 0.411661 0.816405
O O4 0.520402 0.436821 0.288276
O O5 0.516954 0.893333 0.663607
O O6 0.345302 0.837110 0.058759
O O7 0.500000 0.906053 0.000000
O O8 0.222967 0.091324 0.549170
O O9 0.164853 0.000000 0.590018
O O10 0.000000 0.053241 0.000000
O O11 0.250000 0.750000 0.500000
O O12 0.268394 0.830581 0.645739
O O13 0.496043 0.772886 0.323710
O O14 0.246381 0.750320 0.826159
O O15 0.000000 0.271278 0.000000
#
# Coordination Sequence:
#
# PCOD8092231 Si02
#       6
#     8   8   8   8   8   8
#     4  10  21  37  58  85 113 144 192 247 293 348
#     4  10  21  37  55  79 115 153 189 238 298 353
#     4   8  16  32  54  81 109 135 174 232 286 332
#     4   9  17  30  53  84 115 151 193 237 289 350
#     4  10  19  34  60  86 110 148 194 238 287 349
#     4   8  16  31  51  78 112 148 189 236 286 344
#
# _framework density 23.101718000000002
#
# number of rings (size 3 to 8) (size 9 to 14) (size 15 to 20)
#    0.000    2.833    0.000    3.000    0.000    8.333 
#    0.000    1.667    0.000    6.000    0.000    0.000 
#    0.000    0.000    0.000    0.000    0.000    0.000 
#
# Total GULP energy -297417.523515 kJ/mol
# GULP energy per Si atom -12392.396813 kJ/mol
# Density = 2.304914 g / cm^3
# Si number density = 23.101718 Si / 1000 Ang^3
#
#
#
# Elastic Constant Matrix: (Units=GPa)
#
#
# Indices 1 2 3 4 5 6 
#
# 1 84.7383 58.1061 13.2724 0.0000 -21.5769 0.0000
# 2 58.1061 157.5746 51.2976 0.0000 -23.8407 0.0000
# 3 13.2724 51.2976 70.0520 0.0000 -16.6036 0.0000
# 4 0.0000 0.0000 0.0000 18.7004 0.0000 7.3336
# 5 -21.5769 -23.8407 -16.6036 0.0000 29.3606 0.0000
# 6 0.0000 0.0000 0.0000 7.3336 0.0000 24.1228
#
#
#
# Elastic Compliance Matrix: (Units=1/GPa)
#
#
# Indices 1 2 3 4 5 6 
#
# 1 0.018194 -0.006335 0.003628 0.000000 0.010278 0.000000
# 2 -0.006335 0.010929 -0.006701 0.000000 0.000429 0.000000
# 3 0.003628 -0.006701 0.020598 0.000000 0.008873 0.000000
# 4 0.000000 0.000000 0.000000 0.060713 0.000000 -0.018457
# 5 0.010278 0.000429 0.008873 0.000000 0.046979 0.000000
# 6 0.000000 0.000000 0.000000 -0.018457 0.000000 0.047066
#
#
# Mechanical properties :
#
#
# Convention : Reuss Voigt Hill
#
# Bulk Modulus (GPa) = 32.35761 61.96856 47.16309
# Shear Modulus (GPa) = 21.40452 27.08268 24.24360
#
# Velocity S-wave (km/s) = 3.04720 3.42764 3.24300
# Velocity P-wave (km/s) = 5.13980 6.52283 5.87218
#
# Compressibility (1/GPa) = 0.03090463
#
# Stress axis : x y z
#
# Youngs Moduli (GPa) = 54.96318 91.50281 48.54901
#
# Poissons Ratio (x) = 0.57968 -0.17614
# Poissons Ratio (y) = 0.34820 0.32532
# Poissons Ratio (z) = -0.19941 0.61315
#
# Static dielectric constant tensor:
#      x y z
#    x 4.368750 0.000000 -0.267850 
#    y 0.000000 4.103100 0.000000 
#    z -0.267850 0.000000 4.695200 
# 
# 
# High freq. dielectric constant tensor:
#      x y z
#    x 1.905640 0.000000 -0.004090 
#    y 0.000000 1.907300 0.000000 
#    z -0.004090 0.000000 1.908230 
# 
# From -- ./inp_files/68053.got.cif
#   From: 2010.06.25/outbox.cif.g09.slc.cpg/sg12_35_cif.got.tgz:68053.got - 2010.06.28 00:19:55.
