data_PCOD8092386
_publ_section_title
;
Structure prediction by ZEFSAII (Michael W. Deem and Ramdas Pophale) SiO2 
 PCOD8092386
Probable space group: C 2/M
;
_chemical_formula_sum "Si O2"
_cell_formula_units_Z 56
_cell_length_a 22.636849
_cell_length_b 21.450336
_cell_length_c 8.713108
_cell_angle_alpha 90.000000
_cell_angle_beta 48.792899
_cell_angle_gamma 90.000000
_cell_volume 3182.976535
_symmetry_space_group_name_H-M "C 2/M"
_symmetry_group_IT_number 12
_symmetry_cell_setting 'monoclinic'
loop_
_space_group_symop_operation_xyz
x,y,z
-x,y,-z
-x,-y,-z
x,-y,z
1/2+x,1/2+y,z
1/2-x,1/2+y,-z
1/2-x,1/2-y,-z
1/2+x,1/2-y,z
loop_
_atom_site_type_symbol
_atom_site_label
_atom_site_fract_x
_atom_site_fract_y
_atom_site_fract_z
Si Si1 0.722605 0.755906 0.290408
Si Si2 0.219181 0.571548 0.997513
Si Si3 0.923642 0.570810 0.529590
Si Si4 0.538522 0.755308 0.273386
Si Si5 0.087686 0.319915 0.686671
Si Si6 0.332425 0.326013 0.886373
Si Si7 0.149057 0.335616 0.901424
O O1 0.671255 0.790314 0.504759
O O2 0.669975 0.721041 0.253655
O O3 0.777323 0.705431 0.281377
O O4 0.774053 0.808743 0.122146
O O5 0.239368 0.500000 0.935118
O O6 0.303582 0.604991 0.887051
O O7 0.180318 0.597673 0.906716
O O8 0.157092 0.581479 0.240406
O O9 0.926477 0.500000 0.462299
O O10 0.929110 0.617223 0.377478
O O11 0.000000 0.584524 0.500000
O O12 0.500000 0.774845 0.500000
O O13 0.476245 0.765795 0.242376
O O14 0.576295 0.684472 0.213255
O O15 0.611000 0.802264 0.115892
O O16 0.087242 0.339876 0.866953
#
# Coordination Sequence:
#
# PCOD8092386 Si02
#       7
#     8   8   8   8   8   8   8
#     4   9  17  30  50  72 104 128 160 211 255 302
#     4  10  19  35  54  71 100 141 175 211 248 293
#     4  10  21  33  50  74 102 136 175 205 242 299
#     4  11  20  32  52  74 102 137 169 209 257 301
#     4  12  19  31  51  75 105 136 162 202 258 308
#     4   9  17  32  51  77  97 129 177 213 246 297
#     4  10  22  32  46  78 107 129 164 207 256 310
#
# _framework density 17.593595000000001
#
# number of rings (size 3 to 8) (size 9 to 14) (size 15 to 20)
#    0.000    1.857    2.857    3.857    0.000    0.571 
#    0.000    0.000    0.000    4.714    0.000    0.000 
#    0.000    4.000    0.000    0.000    0.000    0.000 
#
# Total GULP energy -346942.922506 kJ/mol
# GULP energy per Si atom -12390.818661 kJ/mol
# Density = 1.755355 g / cm^3
# Si number density = 17.593595 Si / 1000 Ang^3
#
#
#
# Elastic Constant Matrix: (Units=GPa)
#
#
# Indices 1 2 3 4 5 6 
#
# 1 109.5539 62.8086 30.0097 0.0000 4.0335 0.0000
# 2 62.8086 97.0124 38.9605 0.0000 -4.3243 0.0000
# 3 30.0097 38.9605 55.3276 0.0000 -1.8090 0.0000
# 4 0.0000 0.0000 0.0000 18.1380 0.0000 -5.9211
# 5 4.0335 -4.3243 -1.8090 0.0000 19.9657 0.0000
# 6 0.0000 0.0000 0.0000 -5.9211 0.0000 21.7241
#
#
#
# Elastic Compliance Matrix: (Units=1/GPa)
#
#
# Indices 1 2 3 4 5 6 
#
# 1 0.015164 -0.009313 -0.001838 0.000000 -0.005247 0.000000
# 2 -0.009313 0.020190 -0.008988 0.000000 0.005440 0.000000
# 3 -0.001838 -0.008988 0.025424 0.000000 0.000728 0.000000
# 4 0.000000 0.000000 0.000000 0.060517 0.000000 0.016495
# 5 -0.005247 0.005440 0.000728 0.000000 0.052390 0.000000
# 6 0.000000 0.000000 0.000000 0.016495 0.000000 0.050528
#
#
# Mechanical properties :
#
#
# Convention : Reuss Voigt Hill
#
# Bulk Modulus (GPa) = 48.78269 58.38350 53.58310
# Shear Modulus (GPa) = 18.42811 20.63990 19.53400
#
# Velocity S-wave (km/s) = 3.23992 3.42884 3.33572
# Velocity P-wave (km/s) = 6.46404 6.99518 6.73485
#
# Compressibility (1/GPa) = 0.02049907
#
# Stress axis : x y z
#
# Youngs Moduli (GPa) = 65.94530 49.53038 39.33281
#
# Poissons Ratio (x) = 0.46129 0.07231
# Poissons Ratio (y) = 0.61417 0.35351
# Poissons Ratio (z) = 0.12123 0.44517
#
# Static dielectric constant tensor:
#      x y z
#    x 3.364260 0.000000 -0.158010 
#    y 0.000000 3.156530 0.000000 
#    z -0.158010 0.000000 3.198080 
# 
# 
# High freq. dielectric constant tensor:
#      x y z
#    x 1.676270 0.000000 -0.007010 
#    y 0.000000 1.651370 0.000000 
#    z -0.007010 0.000000 1.675060 
# 
# From -- ./inp_files/76889.got.cif
#   From: 2010.06.25/outbox.cif.g09.slc.cpg/sg12_39_cif.got.tgz:76889.got - 2010.06.28 00:19:55.
