data_PCOD8092549
_publ_section_title
;
Structure prediction by ZEFSAII (Michael W. Deem and Ramdas Pophale) SiO2 
 PCOD8092549
Probable space group: C 2/M
;
_chemical_formula_sum "Si O2"
_cell_formula_units_Z 64
_cell_length_a 14.828807
_cell_length_b 8.683934
_cell_length_c 30.358522
_cell_angle_alpha 90.000000
_cell_angle_beta 119.960617
_cell_angle_gamma 90.000000
_cell_volume 3386.929801
_symmetry_space_group_name_H-M "C 2/M"
_symmetry_group_IT_number 12
_symmetry_cell_setting 'monoclinic'
loop_
_space_group_symop_operation_xyz
x,y,z
-x,y,-z
-x,-y,-z
x,-y,z
1/2+x,1/2+y,z
1/2-x,1/2+y,-z
1/2-x,1/2-y,-z
1/2+x,1/2-y,z
loop_
_atom_site_type_symbol
_atom_site_label
_atom_site_fract_x
_atom_site_fract_y
_atom_site_fract_z
Si Si1 0.707044 0.316286 0.691889
Si Si2 0.077063 0.181149 0.236063
Si Si3 0.921076 0.817403 0.422815
Si Si4 0.850476 0.817804 0.500200
Si Si5 0.130396 0.818835 0.766650
Si Si6 0.491652 0.178822 0.871370
Si Si7 0.207544 0.320223 0.124243
Si Si8 0.791481 0.819929 0.054704
O O1 0.719928 0.500000 0.694085
O O2 0.818818 0.236946 0.714889
O O3 0.637804 0.254591 0.634550
O O4 0.652280 0.255493 0.723138
O O5 0.061299 0.272924 0.187076
O O6 0.985619 0.225364 0.247507
O O7 0.079010 0.000000 0.226337
O O8 0.858414 0.761892 0.451146
O O9 0.041397 0.760451 0.450842
O O10 0.923124 0.000000 0.423787
O O11 0.750000 0.750000 0.500000
O O12 0.840473 0.000000 0.500533
O O13 0.211934 0.743987 0.821258
O O14 0.147681 0.000000 0.770027
O O15 0.410192 0.210811 0.890516
O O16 0.588972 0.282686 0.907086
O O17 0.523200 0.000000 0.876881
O O18 0.233816 0.500000 0.128882
O O19 0.225425 0.251713 0.079745
O O20 0.776818 0.000000 0.046897
O O21 0.750000 0.750000 0.000000
#
# Coordination Sequence:
#
# PCOD8092549 Si02
#       8
#     8   8   8   8   8   8   8   8
#     4  10  19  35  56  77 105 144 188 223 259 322
#     4  11  21  34  53  81 113 143 175 222 275 318
#     4   8  17  33  53  76 107 145 182 224 270 323
#     4   9  17  33  55  79 106 142 186 226 274 325
#     4   9  17  32  53  76 103 141 178 209 261 328
#     4  11  21  37  61  84 105 141 187 221 260 323
#     4   9  18  35  58  79 105 142 177 211 260 326
#     4  11  23  41  60  82 112 142 177 225 277 323
#
# _framework density 18.896170999999999
#
# number of rings (size 3 to 8) (size 9 to 14) (size 15 to 20)
#    0.000    2.250    2.500    1.875    0.000    1.500 
#    0.000   11.250    0.000    0.000    0.000    0.000 
#    0.000    0.000    0.000    0.000    0.000    0.000 
#
# Total GULP energy -396717.658617 kJ/mol
# GULP energy per Si atom -12397.426832 kJ/mol
# Density = 1.885316 g / cm^3
# Si number density = 18.896171 Si / 1000 Ang^3
#
#
#
# Elastic Constant Matrix: (Units=GPa)
#
#
# Indices 1 2 3 4 5 6 
#
# 1 112.5602 20.2392 30.6388 0.0000 -12.4289 0.0000
# 2 20.2392 29.8063 10.2704 0.0000 -3.8895 0.0000
# 3 30.6388 10.2704 104.8490 0.0000 -12.6354 0.0000
# 4 0.0000 0.0000 0.0000 21.8215 0.0000 5.5567
# 5 -12.4289 -3.8895 -12.6354 0.0000 28.3197 0.0000
# 6 0.0000 0.0000 0.0000 5.5567 0.0000 29.2855
#
#
#
# Elastic Compliance Matrix: (Units=1/GPa)
#
#
# Indices 1 2 3 4 5 6 
#
# 1 0.010945 -0.006280 -0.002228 0.000000 0.002947 0.000000
# 2 -0.006280 0.038644 -0.001736 0.000000 0.001777 0.000000
# 3 -0.002228 -0.001736 0.010792 0.000000 0.003599 0.000000
# 4 0.000000 0.000000 0.000000 0.048153 0.000000 -0.009137
# 5 0.002947 0.001777 0.003599 0.000000 0.038454 0.000000
# 6 0.000000 0.000000 0.000000 -0.009137 0.000000 0.035880
#
#
# Mechanical properties :
#
#
# Convention : Reuss Voigt Hill
#
# Bulk Modulus (GPa) = 25.06666 41.05693 33.06180
# Shear Modulus (GPa) = 23.07816 28.28980 25.68398
#
# Velocity S-wave (km/s) = 3.49852 3.87346 3.69075
# Velocity P-wave (km/s) = 5.44186 6.46372 5.97468
#
# Compressibility (1/GPa) = 0.03989362
#
# Stress axis : x y z
#
# Youngs Moduli (GPa) = 91.36440 25.87717 92.65780
#
# Poissons Ratio (x) = 0.16250 0.20645
# Poissons Ratio (y) = 0.57374 0.16087
# Poissons Ratio (z) = 0.20357 0.04493
#
# Static dielectric constant tensor:
#      x y z
#    x 3.218820 0.000000 -0.739610 
#    y 0.000000 3.075250 0.000000 
#    z -0.739610 0.000000 2.945230 
# 
# 
# High freq. dielectric constant tensor:
#      x y z
#    x 1.747960 0.000000 -0.002960 
#    y 0.000000 1.699400 0.000000 
#    z -0.002960 0.000000 1.737410 
# 
# From -- ./inp_files/375074.got.cif
#   From: 2010.06.25/outbox.cif.g09.slc.cpg/sg12_188_cif.got.tgz:375074.got - 2010.06.28 00:19:55.
