data_PCOD8092597
_publ_section_title
;
Structure prediction by ZEFSAII (Michael W. Deem and Ramdas Pophale) SiO2 
 PCOD8092597
Probable space group: C 2/M
;
_chemical_formula_sum "Si O2"
_cell_formula_units_Z 52
_cell_length_a 18.770255
_cell_length_b 14.578276
_cell_length_c 16.815791
_cell_angle_alpha 90.000000
_cell_angle_beta 35.333929
_cell_angle_gamma 90.000000
_cell_volume 2661.199826
_symmetry_space_group_name_H-M "C 2/M"
_symmetry_group_IT_number 12
_symmetry_cell_setting 'monoclinic'
loop_
_space_group_symop_operation_xyz
x,y,z
-x,y,-z
-x,-y,-z
x,-y,z
1/2+x,1/2+y,z
1/2-x,1/2+y,-z
1/2-x,1/2-y,-z
1/2+x,1/2-y,z
loop_
_atom_site_type_symbol
_atom_site_label
_atom_site_fract_x
_atom_site_fract_y
_atom_site_fract_z
Si Si1 0.250165 0.303583 0.786990
Si Si2 0.668500 0.500000 0.274543
Si Si3 0.288231 0.312549 0.573402
Si Si4 0.695912 0.187558 0.117314
Si Si5 0.000000 0.800288 0.000000
Si Si6 0.554834 0.769700 0.699258
Si Si7 0.946960 0.104240 0.889901
Si Si8 0.400200 0.500000 0.480113
O O1 0.250481 0.409403 0.816354
O O2 0.314801 0.294466 0.642069
O O3 0.325968 0.243163 0.780779
O O4 0.112094 0.268451 0.910329
O O5 0.546951 0.500000 0.329255
O O6 0.624245 0.500000 0.404518
O O7 0.361258 0.236685 0.456143
O O8 0.140940 0.307337 0.691810
O O9 0.336725 0.411044 0.500013
O O10 0.557616 0.158392 0.215405
O O11 0.750000 0.250000 0.000000
O O12 0.796875 0.107144 0.036966
O O13 0.986968 0.865736 0.088297
O O14 0.496179 0.670941 0.775726
O O15 0.984986 0.000000 0.834912
#
# Coordination Sequence:
#
# PCOD8092597 Si02
#       8
#     8   4   8   8   4   8   8   4
#     4  10  19  35  56  80 114 152 184 226 281 329
#     4   9  18  31  52  84 108 142 186 226 261 334
#     4  10  20  34  57  82 111 152 180 225 282 333
#     4   9  20  37  54  79 112 141 183 229 278 329
#     4  10  19  35  58  80 112 144 194 237 279 332
#     4  10  20  36  55  83 116 142 187 231 284 334
#     4  10  20  36  59  82 105 146 192 240 276 327
#     4   9  18  32  50  80 116 137 187 220 265 338
#
# _framework density 19.54006
#
# number of rings (size 3 to 8) (size 9 to 14) (size 15 to 20)
#    0.000    2.308    1.538    1.154    1.077    2.154 
#    6.923    0.000    0.000    0.000    0.000    2.154 
#    0.000    0.000    0.000    0.000    0.000    0.000 
#
# Total GULP energy -322241.067712 kJ/mol
# GULP energy per Si atom -12393.887220 kJ/mol
# Density = 1.949559 g / cm^3
# Si number density = 19.540060 Si / 1000 Ang^3
#
#
#
# Elastic Constant Matrix: (Units=GPa)
#
#
# Indices 1 2 3 4 5 6 
#
# 1 93.9480 21.2059 36.7724 0.0000 -17.3607 0.0000
# 2 21.2059 74.3925 11.0568 0.0000 -13.3558 0.0000
# 3 36.7724 11.0568 55.8366 0.0000 -9.2276 0.0000
# 4 0.0000 0.0000 0.0000 23.8414 0.0000 0.3414
# 5 -17.3607 -13.3558 -9.2276 0.0000 44.4434 0.0000
# 6 0.0000 0.0000 0.0000 0.3414 0.0000 16.2921
#
#
#
# Elastic Compliance Matrix: (Units=1/GPa)
#
#
# Indices 1 2 3 4 5 6 
#
# 1 0.015373 -0.002423 -0.009084 0.000000 0.003391 0.000000
# 2 -0.002423 0.014852 -0.000791 0.000000 0.003352 0.000000
# 3 -0.009084 -0.000791 0.024255 0.000000 0.001250 0.000000
# 4 0.000000 0.000000 0.000000 0.041956 0.000000 -0.000879
# 5 0.003391 0.003352 0.001250 0.000000 0.025092 0.000000
# 6 0.000000 0.000000 0.000000 -0.000879 0.000000 0.061398
#
#
# Mechanical properties :
#
#
# Convention : Reuss Voigt Hill
#
# Bulk Modulus (GPa) = 33.46308 40.24972 36.85640
# Shear Modulus (GPa) = 22.98997 27.25819 25.12408
#
# Velocity S-wave (km/s) = 3.43382 3.73901 3.58966
# Velocity P-wave (km/s) = 5.73446 6.26766 6.00698
#
# Compressibility (1/GPa) = 0.02988368
#
# Stress axis : x y z
#
# Youngs Moduli (GPa) = 65.04701 67.32895 41.22818
#
# Poissons Ratio (x) = 0.16316 0.37453
# Poissons Ratio (y) = 0.15763 0.03262
# Poissons Ratio (z) = 0.59091 0.05327
#
# Static dielectric constant tensor:
#      x y z
#    x 4.090200 0.000000 -0.172400 
#    y 0.000000 3.325090 0.000000 
#    z -0.172400 0.000000 3.570140 
# 
# 
# High freq. dielectric constant tensor:
#      x y z
#    x 1.777300 0.000000 -0.000550 
#    y 0.000000 1.723690 0.000000 
#    z -0.000550 0.000000 1.755590 
# 
# From -- ./inp_files/284285.got.cif
#   From: 2010.06.25/outbox.cif.g09.slc.cpg/sg12_143_cif.got.tgz:284285.got - 2010.06.28 00:19:55.
