data_PCOD8092308
_publ_section_title
;
Structure prediction by ZEFSAII (Michael W. Deem and Ramdas Pophale) SiO2 
 PCOD8092308
Probable space group: C 2/M
;
_chemical_formula_sum "Si O2"
_cell_formula_units_Z 44
_cell_length_a 29.883548
_cell_length_b 7.636834
_cell_length_c 14.559108
_cell_angle_alpha 90.000000
_cell_angle_beta 137.010324
_cell_angle_gamma 90.000000
_cell_volume 2265.581421
_symmetry_space_group_name_H-M "C 2/M"
_symmetry_group_IT_number 12
_symmetry_cell_setting 'monoclinic'
loop_
_space_group_symop_operation_xyz
x,y,z
-x,y,-z
-x,-y,-z
x,-y,z
1/2+x,1/2+y,z
1/2-x,1/2+y,-z
1/2-x,1/2-y,-z
1/2+x,1/2-y,z
loop_
_atom_site_type_symbol
_atom_site_label
_atom_site_fract_x
_atom_site_fract_y
_atom_site_fract_z
Si Si1 0.276562 0.707062 0.638725
Si Si2 0.656313 0.192024 0.574489
Si Si3 0.881548 0.500000 0.807281
Si Si4 0.691772 0.697125 0.810887
Si Si5 0.664475 0.698266 0.968892
Si Si6 0.584291 0.000000 0.941507
Si Si7 0.063476 0.500000 0.313692
O O1 0.291835 0.500000 0.672607
O O2 0.250000 0.750000 0.500000
O O3 0.219134 0.776198 0.619387
O O4 0.340334 0.821538 0.753464
O O5 0.642119 0.294800 0.648494
O O6 0.677104 0.000000 0.638985
O O7 0.594619 0.173847 0.410623
O O8 0.920736 0.500000 0.770678
O O9 0.927839 0.500000 0.966567
O O10 0.713302 0.500000 0.863683
O O11 0.656428 0.764734 0.850775
O O12 0.758604 0.800761 0.888642
O O13 0.637980 0.500000 0.942852
O O14 0.623197 0.825712 0.971790
O O15 0.513841 0.000000 0.786362
#
# Coordination Sequence:
#
# PCOD8092308 Si02
#       7
#     8   8   4   8   8   4   4
#     4  11  19  34  59  90 124 143 189 249 307 355
#     4   9  19  34  56  86 120 155 191 242 302 345
#     4  12  23  40  60  92 116 161 200 256 308 343
#     4  10  19  34  61  95 124 148 190 251 313 363
#     4  10  22  39  59  92 124 150 198 254 296 358
#     4  12  25  41  66  79 117 177 212 228 306 365
#     4  10  23  43  56  85 123 163 209 253 277 364
#
# _framework density 19.421064000000001
#
# number of rings (size 3 to 8) (size 9 to 14) (size 15 to 20)
#    0.545    1.091    3.636    1.909    3.818    2.182 
#    0.000    3.636    0.000    4.364    0.000    0.000 
#    0.000    0.000    0.000    0.000    0.000    0.000 
#
# Total GULP energy -272566.755105 kJ/mol
# GULP energy per Si atom -12389.397959 kJ/mol
# Density = 1.937686 g / cm^3
# Si number density = 19.421064 Si / 1000 Ang^3
#
#
#
# Elastic Constant Matrix: (Units=GPa)
#
#
# Indices 1 2 3 4 5 6 
#
# 1 81.4781 23.1837 49.9149 0.0000 -25.6424 0.0000
# 2 23.1837 80.3844 23.2546 0.0000 1.5813 0.0000
# 3 49.9149 23.2546 91.3108 0.0000 -19.5892 0.0000
# 4 0.0000 0.0000 0.0000 17.7656 0.0000 -10.3252
# 5 -25.6424 1.5813 -19.5892 0.0000 37.9412 0.0000
# 6 0.0000 0.0000 0.0000 -10.3252 0.0000 16.7189
#
#
#
# Elastic Compliance Matrix: (Units=1/GPa)
#
#
# Indices 1 2 3 4 5 6 
#
# 1 0.022155 -0.004051 -0.008807 0.000000 0.010596 0.000000
# 2 -0.004051 0.014405 -0.002441 0.000000 -0.004598 0.000000
# 3 -0.008807 -0.002441 0.017017 0.000000 0.002936 0.000000
# 4 0.000000 0.000000 0.000000 0.087804 0.000000 0.054225
# 5 0.010596 -0.004598 0.002936 0.000000 0.035225 0.000000
# 6 0.000000 0.000000 0.000000 0.054225 0.000000 0.093301
#
#
# Mechanical properties :
#
#
# Convention : Reuss Voigt Hill
#
# Bulk Modulus (GPa) = 43.51288 49.54221 46.52755
# Shear Modulus (GPa) = 16.22515 24.93981 20.58248
#
# Velocity S-wave (km/s) = 2.89354 3.58741 3.25899
# Velocity P-wave (km/s) = 5.79802 6.53638 6.17824
#
# Compressibility (1/GPa) = 0.02298170
#
# Stress axis : x y z
#
# Youngs Moduli (GPa) = 45.13569 69.42025 58.76423
#
# Poissons Ratio (x) = 0.28120 0.51751
# Poissons Ratio (y) = 0.18283 0.14343
# Poissons Ratio (z) = 0.39749 0.16944
#
# Static dielectric constant tensor:
#      x y z
#    x 3.599810 0.000000 -0.337300 
#    y 0.000000 3.232480 0.000000 
#    z -0.337300 0.000000 3.912230 
# 
# 
# High freq. dielectric constant tensor:
#      x y z
#    x 1.748050 0.000000 -0.040810 
#    y 0.000000 1.751140 0.000000 
#    z -0.040810 0.000000 1.736220 
# 
# From -- ./inp_files/244490.got.cif
#   From: 2010.06.25/outbox.cif.g09.slc.cpg/sg12_123_cif.got.tgz:244490.got - 2010.06.28 00:19:55.
