data_PCOD8092877
_publ_section_title
;
Structure prediction by ZEFSAII (Michael W. Deem and Ramdas Pophale) SiO2 
 PCOD8092877
Probable space group: C 2/M
;
_chemical_formula_sum "Si O2"
_cell_formula_units_Z 48
_cell_length_a 24.924427
_cell_length_b 8.751678
_cell_length_c 20.409491
_cell_angle_alpha 90.000000
_cell_angle_beta 144.463282
_cell_angle_gamma 90.000000
_cell_volume 2587.573210
_symmetry_space_group_name_H-M "C 2/M"
_symmetry_group_IT_number 12
_symmetry_cell_setting 'monoclinic'
loop_
_space_group_symop_operation_xyz
x,y,z
-x,y,-z
-x,-y,-z
x,-y,z
1/2+x,1/2+y,z
1/2-x,1/2+y,-z
1/2-x,1/2-y,-z
1/2+x,1/2-y,z
loop_
_atom_site_type_symbol
_atom_site_label
_atom_site_fract_x
_atom_site_fract_y
_atom_site_fract_z
Si Si1 0.701369 0.180151 0.889275
Si Si2 0.301139 0.179210 0.727245
Si Si3 0.995081 0.680437 0.264606
Si Si4 0.317672 0.680684 0.880970
Si Si5 0.192982 0.681267 0.502775
Si Si6 0.505452 0.179928 0.883911
O O1 0.593995 0.232165 0.781906
O O2 0.750420 0.238131 0.872173
O O3 0.709844 0.000000 0.904065
O O4 0.750000 0.250000 0.000000
O O5 0.280159 0.238211 0.778891
O O6 0.230234 0.262554 0.608953
O O7 0.404968 0.221853 0.810750
O O8 0.283715 0.000000 0.705126
O O9 0.001204 0.500000 0.264781
O O10 0.087494 0.740930 0.391454
O O11 0.986707 0.743764 0.182223
O O12 0.313930 0.500000 0.867835
O O13 0.421869 0.731763 0.998893
O O14 0.199193 0.500000 0.504576
O O15 0.250000 0.750000 0.500000
O O16 0.525680 0.000000 0.909116
#
# Coordination Sequence:
#
# PCOD8092877 Si02
#       6
#     8   8   8   8   8   8
#     4  10  20  36  58  82 111 145 186 227 272 330
#     4  11  23  39  57  81 113 154 191 226 278 337
#     4   9  18  35  58  83 111 145 184 224 273 333
#     4  11  23  36  54  86 117 146 185 233 282 328
#     4  11  21  37  60  85 113 147 187 232 277 329
#     4  10  19  35  58  82 112 150 186 221 275 342
#
# _framework density 18.5502
#
# number of rings (size 3 to 8) (size 9 to 14) (size 15 to 20)
#    0.000    1.667    3.333    2.000    0.000    4.000 
#    0.000    2.500    0.000    5.000    0.000    0.000 
#    0.000    0.000    0.000    0.000    0.000    0.000 
#
# Total GULP energy -297658.887131 kJ/mol
# GULP energy per Si atom -12402.453630 kJ/mol
# Density = 1.850798 g / cm^3
# Si number density = 18.550200 Si / 1000 Ang^3
#
#
#
# Elastic Constant Matrix: (Units=GPa)
#
#
# Indices 1 2 3 4 5 6 
#
# 1 114.1622 26.4910 62.7490 0.0000 -3.2988 0.0000
# 2 26.4910 43.1706 32.6093 0.0000 3.0887 0.0000
# 3 62.7490 32.6093 150.5343 0.0000 -2.5749 0.0000
# 4 0.0000 0.0000 0.0000 30.5028 0.0000 -5.5560
# 5 -3.2988 3.0887 -2.5749 0.0000 35.2339 0.0000
# 6 0.0000 0.0000 0.0000 -5.5560 0.0000 26.4937
#
#
#
# Elastic Compliance Matrix: (Units=1/GPa)
#
#
# Indices 1 2 3 4 5 6 
#
# 1 0.012042 -0.004425 -0.004040 0.000000 0.001220 0.000000
# 2 -0.004425 0.029615 -0.004628 0.000000 -0.003349 0.000000
# 3 -0.004040 -0.004628 0.009342 0.000000 0.000710 0.000000
# 4 0.000000 0.000000 0.000000 0.034086 0.000000 0.007148
# 5 0.001220 -0.003349 0.000710 0.000000 0.028841 0.000000
# 6 0.000000 0.000000 0.000000 0.007148 0.000000 0.039244
#
#
# Mechanical properties :
#
#
# Convention : Reuss Voigt Hill
#
# Bulk Modulus (GPa) = 40.30278 61.28508 50.79393
# Shear Modulus (GPa) = 26.64859 30.84726 28.74792
#
# Velocity S-wave (km/s) = 3.79432 4.08230 3.94094
# Velocity P-wave (km/s) = 6.40073 7.43837 6.93897
#
# Compressibility (1/GPa) = 0.02481218
#
# Stress axis : x y z
#
# Youngs Moduli (GPa) = 83.04083 33.76713 107.04521
#
# Poissons Ratio (x) = 0.14942 0.43249
# Poissons Ratio (y) = 0.36745 0.49540
# Poissons Ratio (z) = 0.33551 0.15627
#
# Static dielectric constant tensor:
#      x y z
#    x 3.627140 0.000000 0.134460 
#    y 0.000000 3.293470 0.000000 
#    z 0.134460 0.000000 3.694560 
# 
# 
# High freq. dielectric constant tensor:
#      x y z
#    x 1.723140 0.000000 0.000790 
#    y 0.000000 1.708820 0.000000 
#    z 0.000790 0.000000 1.724520 
# 
# From -- ./inp_files/327171.got.cif
#   From: 2010.06.25/outbox.cif.g09.slc.cpg/sg12_164_cif.got.tgz:327171.got - 2010.06.28 00:19:55.
