data_PCOD8092660
_publ_section_title
;
Structure prediction by ZEFSAII (Michael W. Deem and Ramdas Pophale) SiO2 
 PCOD8092660
Probable space group: C 2/M
;
_chemical_formula_sum "Si O2"
_cell_formula_units_Z 40
_cell_length_a 7.877548
_cell_length_b 20.890485
_cell_length_c 15.803333
_cell_angle_alpha 90.000000
_cell_angle_beta 48.842848
_cell_angle_gamma 90.000000
_cell_volume 1958.077043
_symmetry_space_group_name_H-M "C 2/M"
_symmetry_group_IT_number 12
_symmetry_cell_setting 'monoclinic'
loop_
_space_group_symop_operation_xyz
x,y,z
-x,y,-z
-x,-y,-z
x,-y,z
1/2+x,1/2+y,z
1/2-x,1/2+y,-z
1/2-x,1/2-y,-z
1/2+x,1/2-y,z
loop_
_atom_site_type_symbol
_atom_site_label
_atom_site_fract_x
_atom_site_fract_y
_atom_site_fract_z
Si Si1 0.370747 0.730592 0.763874
Si Si2 0.766862 0.182035 0.622087
Si Si3 0.558800 0.656928 0.858443
Si Si4 0.470978 0.928218 0.740362
Si Si5 0.346311 0.927410 0.970290
O O1 0.580143 0.767664 0.651361
O O2 0.266259 0.689055 0.723523
O O3 0.448113 0.680975 0.808409
O O4 0.184859 0.782042 0.861152
O O5 0.683609 0.109820 0.631529
O O6 0.000000 0.195930 0.500000
O O7 0.741112 0.602064 0.779523
O O8 0.357594 0.623478 0.977432
O O9 0.486579 0.000000 0.701113
O O10 0.484722 0.925216 0.838031
O O11 0.253633 0.000000 0.015712
O O12 0.500000 0.906792 0.000000
#
# Coordination Sequence:
#
# PCOD8092660 Si02
#       5
#     8   8   8   8   8
#     4   9  20  35  54  81 106 137 174 211 258 312
#     4  10  19  35  57  78 105 137 173 217 261 306
#     4  10  19  36  55  76 108 140 171 210 259 310
#     4  10  21  36  54  78 105 137 177 215 257 307
#     4  10  20  35  56  79 105 139 174 209 255 311
#
# _framework density 20.428204000000001
#
# number of rings (size 3 to 8) (size 9 to 14) (size 15 to 20)
#    0.000    2.200    0.000    3.000    0.000    2.000 
#    0.000   26.000    0.000    1.200    0.000    0.000 
#    0.000    0.000    0.000    0.000    0.000    0.000 
#
# Total GULP energy -247877.639426 kJ/mol
# GULP energy per Si atom -12393.881971 kJ/mol
# Density = 2.038171 g / cm^3
# Si number density = 20.428204 Si / 1000 Ang^3
#
#
#
# Elastic Constant Matrix: (Units=GPa)
#
#
# Indices 1 2 3 4 5 6 
#
# 1 71.2419 24.7879 -4.6009 0.0000 -9.3890 0.0000
# 2 24.7879 106.4112 17.9256 0.0000 -10.4246 0.0000
# 3 -4.6009 17.9256 51.9273 0.0000 -20.6381 0.0000
# 4 0.0000 0.0000 0.0000 16.3881 0.0000 -0.1568
# 5 -9.3890 -10.4246 -20.6381 0.0000 25.5423 0.0000
# 6 0.0000 0.0000 0.0000 -0.1568 0.0000 36.5367
#
#
#
# Elastic Compliance Matrix: (Units=1/GPa)
#
#
# Indices 1 2 3 4 5 6 
#
# 1 0.017338 -0.004220 0.007132 0.000000 0.010413 0.000000
# 2 -0.004220 0.011068 -0.004442 0.000000 -0.000624 0.000000
# 3 0.007132 -0.004442 0.032030 0.000000 0.026689 0.000000
# 4 0.000000 0.000000 0.000000 0.061022 0.000000 0.000262
# 5 0.010413 -0.000624 0.026689 0.000000 0.064289 0.000000
# 6 0.000000 0.000000 0.000000 0.000262 0.000000 0.027371
#
#
# Mechanical properties :
#
#
# Convention : Reuss Voigt Hill
#
# Bulk Modulus (GPa) = 17.42932 33.97840 25.70386
# Shear Modulus (GPa) = 21.24907 28.45794 24.85351
#
# Velocity S-wave (km/s) = 3.22869 3.73644 3.49180
# Velocity P-wave (km/s) = 4.73811 5.94002 5.37278
#
# Compressibility (1/GPa) = 0.05737458
#
# Stress axis : x y z
#
# Youngs Moduli (GPa) = 57.67696 90.35221 31.22032
#
# Poissons Ratio (x) = 0.38129 -0.22265
# Poissons Ratio (y) = 0.24340 0.13869
# Poissons Ratio (z) = -0.41133 0.40138
#
# Static dielectric constant tensor:
#      x y z
#    x 3.789750 0.000000 -0.235130 
#    y 0.000000 3.929490 0.000000 
#    z -0.235130 0.000000 3.222660 
# 
# 
# High freq. dielectric constant tensor:
#      x y z
#    x 1.808290 0.000000 -0.017750 
#    y 0.000000 1.809960 0.000000 
#    z -0.017750 0.000000 1.759400 
# 
# From -- ./inp_files/120043.got.cif
#   From: 2010.06.25/outbox.cif.g09.slc.cpg/sg12_61_cif.got.tgz:120043.got - 2010.06.28 00:19:55.
