data_PCOD8092733
_publ_section_title
;
Structure prediction by ZEFSAII (Michael W. Deem and Ramdas Pophale) SiO2 
 PCOD8092733
Probable space group: C 2/M
;
_chemical_formula_sum "Si O2"
_cell_formula_units_Z 56
_cell_length_a 14.081877
_cell_length_b 13.323808
_cell_length_c 15.148115
_cell_angle_alpha 90.000000
_cell_angle_beta 78.780795
_cell_angle_gamma 90.000000
_cell_volume 2787.839778
_symmetry_space_group_name_H-M "C 2/M"
_symmetry_group_IT_number 12
_symmetry_cell_setting 'monoclinic'
loop_
_space_group_symop_operation_xyz
x,y,z
-x,y,-z
-x,-y,-z
x,-y,z
1/2+x,1/2+y,z
1/2-x,1/2+y,-z
1/2-x,1/2-y,-z
1/2+x,1/2-y,z
loop_
_atom_site_type_symbol
_atom_site_label
_atom_site_fract_x
_atom_site_fract_y
_atom_site_fract_z
Si Si1 0.219109 0.257879 0.798220
Si Si2 0.013578 0.382583 0.597821
Si Si3 0.931559 0.283286 0.776144
Si Si4 0.421019 0.617445 0.269655
Si Si5 0.554833 0.116818 0.901306
Si Si6 0.597836 0.382154 0.524122
Si Si7 0.774088 0.381328 0.377032
O O1 0.319802 0.225641 0.825306
O O2 0.166193 0.156729 0.775343
O O3 0.152656 0.317420 0.880169
O O4 0.242984 0.332121 0.714060
O O5 0.994131 0.500000 0.611403
O O6 0.121608 0.350213 0.604756
O O7 0.000000 0.347422 0.500000
O O8 0.938471 0.325385 0.675005
O O9 0.979883 0.173400 0.774463
O O10 0.986744 0.360692 0.829876
O O11 0.436522 0.500000 0.251109
O O12 0.394353 0.644856 0.374771
O O13 0.582632 0.000000 0.894875
O O14 0.500000 0.147544 0.000000
O O15 0.500000 0.334831 0.500000
O O16 0.595108 0.500000 0.510242
O O17 0.692413 0.339268 0.458060
O O18 0.766922 0.500000 0.366086
#
# Coordination Sequence:
#
# PCOD8092733 Si02
#       7
#     8   8   8   8   8   8   8
#     4  11  23  37  60  90 118 153 193 246 302 359
#     4  10  21  36  57  87 123 163 206 254 302 348
#     4  11  23  39  61  91 123 157 199 249 296 353
#     4  10  22  38  52  78 119 162 202 239 289 347
#     4  10  22  44  71  94 118 149 191 247 307 367
#     4   9  18  31  48  73 108 153 203 247 284 329
#     4  10  19  35  57  81 115 158 205 255 296 343
#
# _framework density 20.087237999999999
#
# number of rings (size 3 to 8) (size 9 to 14) (size 15 to 20)
#    0.000    1.857    2.857    1.714    2.000    6.286 
#    0.000    0.000    0.000    6.857    0.000    0.000 
#    0.000    0.000    0.000    0.000    0.000    0.000 
#
# Total GULP energy -347278.942762 kJ/mol
# GULP energy per Si atom -12402.819384 kJ/mol
# Density = 2.004152 g / cm^3
# Si number density = 20.087238 Si / 1000 Ang^3
#
#
#
# Elastic Constant Matrix: (Units=GPa)
#
#
# Indices 1 2 3 4 5 6 
#
# 1 109.0394 29.8547 19.1890 0.0000 -20.1716 0.0000
# 2 29.8547 87.7005 28.0712 0.0000 -14.2999 0.0000
# 3 19.1890 28.0712 79.3059 0.0000 -18.1398 0.0000
# 4 0.0000 0.0000 0.0000 22.1030 0.0000 -13.2909
# 5 -20.1716 -14.2999 -18.1398 0.0000 23.7950 0.0000
# 6 0.0000 0.0000 0.0000 -13.2909 0.0000 5.2776
#
#
#
# Elastic Compliance Matrix: (Units=1/GPa)
#
#
# Indices 1 2 3 4 5 6 
#
# 1 0.011368 -0.002550 0.000007 0.000000 0.008110 0.000000
# 2 -0.002550 0.013976 -0.003516 0.000000 0.003557 0.000000
# 3 0.000007 -0.003516 0.016194 0.000000 0.010238 0.000000
# 4 0.000000 0.000000 0.000000 -0.087962 0.000000 -0.221521
# 5 0.008110 0.003557 0.010238 0.000000 0.058843 0.000000
# 6 0.000000 0.000000 0.000000 -0.221521 0.000000 -0.368393
#
#
# Mechanical properties :
#
#
# Convention : Reuss Voigt Hill
#
# Bulk Modulus (GPa) = 33.99087 47.80837 40.89962
# Shear Modulus (GPa) = -14.96790 23.49717 4.26464
#
# Velocity S-wave (km/s) = -2.73270 3.42388 1.45865
# Velocity P-wave (km/s) = 2.64604 6.28352 4.82100
#
# Compressibility (1/GPa) = 0.02941967
#
# Stress axis : x y z
#
# Youngs Moduli (GPa) = 87.96461 71.55173 61.75055
#
# Poissons Ratio (x) = 0.18244 -0.00042
# Poissons Ratio (y) = 0.22429 0.21714
# Poissons Ratio (z) = -0.00060 0.25161
#
# Static dielectric constant tensor:
#      x y z
#    x 3.935150 0.000000 -0.169960 
#    y 0.000000 3.641440 0.000000 
#    z -0.169960 0.000000 3.517660 
# 
# 
# High freq. dielectric constant tensor:
#      x y z
#    x 1.784300 0.000000 -0.007950 
#    y 0.000000 1.797420 0.000000 
#    z -0.007950 0.000000 1.759470 
# 
# From -- ./inp_files/214186.got.cif
#   From: 2010.06.25/outbox.cif.g09.slc.cpg/sg12_108_cif.got.tgz:214186.got - 2010.06.28 00:19:55.
