data_PCOD8092987
_publ_section_title
;
Structure prediction by ZEFSAII (Michael W. Deem and Ramdas Pophale) SiO2 
 PCOD8092987
Probable space group: C 2/M
;
_chemical_formula_sum "Si O2"
_cell_formula_units_Z 64
_cell_length_a 17.823934
_cell_length_b 9.242288
_cell_length_c 20.550171
_cell_angle_alpha 90.000000
_cell_angle_beta 89.869755
_cell_angle_gamma 90.000000
_cell_volume 3385.301711
_symmetry_space_group_name_H-M "C 2/M"
_symmetry_group_IT_number 12
_symmetry_cell_setting 'monoclinic'
loop_
_space_group_symop_operation_xyz
x,y,z
-x,y,-z
-x,-y,-z
x,-y,z
1/2+x,1/2+y,z
1/2-x,1/2+y,-z
1/2-x,1/2-y,-z
1/2+x,1/2-y,z
loop_
_atom_site_type_symbol
_atom_site_label
_atom_site_fract_x
_atom_site_fract_y
_atom_site_fract_z
Si Si1 0.585528 0.830068 0.012068
Si Si2 0.836320 0.829170 0.616493
Si Si3 0.162673 0.167135 0.126067
Si Si4 0.579915 0.172488 0.758543
Si Si5 0.913429 0.670500 0.498146
Si Si6 0.573779 0.333935 0.255603
Si Si7 0.331444 0.171911 0.116302
Si Si8 0.167365 0.328758 0.632642
O O1 0.609822 0.753952 0.077868
O O2 0.596502 0.000000 0.021292
O O3 0.500000 0.788762 0.000000
O O4 0.633917 0.771026 0.951287
O O5 0.868473 0.751470 0.553740
O O6 0.887062 0.786725 0.677693
O O7 0.752217 0.770139 0.628711
O O8 0.835910 0.000000 0.604140
O O9 0.134642 0.189515 0.199208
O O10 0.246817 0.230046 0.121965
O O11 0.160914 0.000000 0.105338
O O12 0.496415 0.232392 0.756794
O O13 0.619884 0.231565 0.823578
O O14 0.626908 0.232687 0.697056
O O15 0.575038 0.000000 0.757771
O O16 0.903692 0.500000 0.508708
O O17 0.879707 0.722816 0.429663
O O18 0.000000 0.716764 0.500000
O O19 0.547004 0.500000 0.258209
O O20 0.332946 0.000000 0.119042
O O21 0.168882 0.500000 0.636972
#
# Coordination Sequence:
#
# PCOD8092987 Si02
#       8
#     8   8   8   8   8   8   8   8
#     4  10  20  34  52  77 107 134 167 214 258 298
#     4  10  20  35  54  75 102 137 173 208 251 304
#     4  10  20  35  54  75 102 137 173 208 251 304
#     4  10  19  35  59  79  99 134 174 208 252 308
#     4  10  20  34  52  77 107 134 167 214 258 298
#     4  10  21  35  51  75 105 132 166 214 256 294
#     4   9  18  33  54  78 102 132 171 211 251 300
#     4   9  18  33  54  78 102 132 171 211 251 300
#
# _framework density 18.905258
#
# number of rings (size 3 to 8) (size 9 to 14) (size 15 to 20)
#    0.000    2.250    0.000    3.000    0.000    6.500 
#    0.000    2.500    0.000    1.500    0.000    0.000 
#    0.000    0.000    0.000    0.000    0.000    0.000 
#
# Total GULP energy -396896.692069 kJ/mol
# GULP energy per Si atom -12403.021627 kJ/mol
# Density = 1.886223 g / cm^3
# Si number density = 18.905258 Si / 1000 Ang^3
#
#
#
# Elastic Constant Matrix: (Units=GPa)
#
#
# Indices 1 2 3 4 5 6 
#
# 1 100.1377 21.3566 6.4478 0.0000 1.3004 0.0000
# 2 21.3566 20.4057 13.4274 0.0000 3.4399 0.0000
# 3 6.4478 13.4274 78.1223 0.0000 5.1310 0.0000
# 4 0.0000 0.0000 0.0000 24.8263 0.0000 -5.1390
# 5 1.3004 3.4399 5.1310 0.0000 40.5854 0.0000
# 6 0.0000 0.0000 0.0000 -5.1390 0.0000 22.6681
#
#
#
# Elastic Compliance Matrix: (Units=1/GPa)
#
#
# Indices 1 2 3 4 5 6 
#
# 1 0.013012 -0.014650 0.001401 0.000000 0.000648 0.000000
# 2 -0.014650 0.072249 -0.010928 0.000000 -0.004273 0.000000
# 3 0.001401 -0.010928 0.014627 0.000000 -0.000968 0.000000
# 4 0.000000 0.000000 0.000000 0.042263 0.000000 0.009581
# 5 0.000648 -0.004273 -0.000968 0.000000 0.025103 0.000000
# 6 0.000000 0.000000 0.000000 0.009581 0.000000 0.046287
#
#
# Mechanical properties :
#
#
# Convention : Reuss Voigt Hill
#
# Bulk Modulus (GPa) = 19.40423 31.23659 25.32041
# Shear Modulus (GPa) = 17.91647 28.11155 23.01401
#
# Velocity S-wave (km/s) = 3.08181 3.86031 3.49282
# Velocity P-wave (km/s) = 4.79058 6.03555 5.44874
#
# Compressibility (1/GPa) = 0.05153514
#
# Stress axis : x y z
#
# Youngs Moduli (GPa) = 76.85237 13.84093 68.36831
#
# Poissons Ratio (x) = 0.20276 -0.09582
# Poissons Ratio (y) = 1.12586 0.74715
# Poissons Ratio (z) = -0.10771 0.15126
#
# Static dielectric constant tensor:
#      x y z
#    x 3.683560 0.000000 -0.005670 
#    y 0.000000 3.103370 0.000000 
#    z -0.005670 0.000000 3.663600 
# 
# 
# High freq. dielectric constant tensor:
#      x y z
#    x 1.752660 0.000000 -0.000500 
#    y 0.000000 1.696100 0.000000 
#    z -0.000500 0.000000 1.753330 
# 
# From -- ./inp_files/314080.got.cif
#   From: 2010.06.25/outbox.cif.g09.slc.cpg/sg12_158_cif.got.tgz:314080.got - 2010.06.28 00:19:55.
