data_PCOD8092081
_publ_section_title
;
Structure prediction by ZEFSAII (Michael W. Deem and Ramdas Pophale) SiO2 
 PCOD8092081
Probable space group: C 2/M
;
_chemical_formula_sum "Si O2"
_cell_formula_units_Z 64
_cell_length_a 20.510007
_cell_length_b 8.558943
_cell_length_c 21.616349
_cell_angle_alpha 90.000000
_cell_angle_beta 61.755869
_cell_angle_gamma 90.000000
_cell_volume 3342.829533
_symmetry_space_group_name_H-M "C 2/M"
_symmetry_group_IT_number 12
_symmetry_cell_setting 'monoclinic'
loop_
_space_group_symop_operation_xyz
x,y,z
-x,y,-z
-x,-y,-z
x,-y,z
1/2+x,1/2+y,z
1/2-x,1/2+y,-z
1/2-x,1/2-y,-z
1/2+x,1/2-y,z
loop_
_atom_site_type_symbol
_atom_site_label
_atom_site_fract_x
_atom_site_fract_y
_atom_site_fract_z
Si Si1 0.417901 0.184880 0.554311
Si Si2 0.333624 0.182704 0.077760
Si Si3 0.673810 0.182963 0.161690
Si Si4 0.777263 0.815701 0.552387
Si Si5 0.920410 0.317538 0.163275
Si Si6 0.842030 0.816204 0.703759
Si Si7 0.413309 0.814710 0.918702
Si Si8 0.796802 0.816719 0.297359
O O1 0.500000 0.241315 0.500000
O O2 0.358831 0.251996 0.532100
O O3 0.402599 0.247099 0.630020
O O4 0.410883 0.000000 0.556867
O O5 0.260094 0.282453 0.118077
O O6 0.386059 0.216163 0.111992
O O7 0.313012 0.000000 0.081974
O O8 0.375691 0.246610 0.998334
O O9 0.636180 0.272425 0.236202
O O10 0.633878 0.246093 0.118154
O O11 0.660792 0.000000 0.176740
O O12 0.750000 0.750000 0.500000
O O13 0.717887 0.766239 0.630722
O O14 0.781759 0.000000 0.546735
O O15 0.917627 0.500000 0.180897
O O16 0.878076 0.225268 0.236473
O O17 0.003486 0.250595 0.124594
O O18 0.761580 0.743216 0.727122
O O19 0.837051 0.000000 0.696614
O O20 0.415703 0.000000 0.920441
O O21 0.787600 0.000000 0.311011
#
# Coordination Sequence:
#
# PCOD8092081 Si02
#       8
#     8   8   8   8   8   8   8   8
#     4  10  21  39  63  91 121 153 190 234 288 344
#     4  10  19  34  59  83 107 144 194 236 280 342
#     4  11  21  35  55  80 114 149 188 235 287 339
#     4  11  22  39  63  90 121 155 195 237 284 338
#     4  10  19  35  58  82 111 148 192 235 280 339
#     4  11  21  36  59  84 111 150 196 237 278 332
#     4   9  20  36  54  81 113 150 187 232 287 341
#     4  11  21  36  59  86 116 149 190 236 285 338
#
# _framework density 19.145457
#
# number of rings (size 3 to 8) (size 9 to 14) (size 15 to 20)
#    0.000    1.625    1.250    6.375    0.000    2.500 
#    2.250    2.500    0.000    1.500    0.000    0.000 
#    0.000    0.000    0.000    0.000    0.000    0.000 
#
# Total GULP energy -396920.724873 kJ/mol
# GULP energy per Si atom -12403.772652 kJ/mol
# Density = 1.910188 g / cm^3
# Si number density = 19.145457 Si / 1000 Ang^3
#
#
#
# Elastic Constant Matrix: (Units=GPa)
#
#
# Indices 1 2 3 4 5 6 
#
# 1 96.5473 33.8641 66.9161 -0.0009 -0.1500 0.0011
# 2 33.8641 90.7008 40.0668 -0.0016 -0.4133 0.0019
# 3 66.9161 40.0668 149.3862 -0.0006 -0.9875 0.0005
# 4 -0.0009 -0.0016 -0.0006 30.6727 0.0003 -0.6494
# 5 -0.1500 -0.4133 -0.9875 0.0003 36.0536 -0.0002
# 6 0.0011 0.0019 0.0005 -0.6494 -0.0002 24.0935
#
#
#
# Elastic Compliance Matrix: (Units=1/GPa)
#
#
# Indices 1 2 3 4 5 6 
#
# 1 0.015772 -0.003140 -0.006224 0.000000 -0.000141 0.000000
# 2 -0.003140 0.013132 -0.002115 0.000001 0.000080 -0.000001
# 3 -0.006224 -0.002115 0.010051 0.000000 0.000225 0.000000
# 4 0.000000 0.000001 0.000000 0.032621 0.000000 0.000879
# 5 -0.000141 0.000080 0.000225 0.000000 0.027743 0.000000
# 6 0.000000 -0.000001 0.000000 0.000879 0.000000 0.041529
#
#
# Mechanical properties :
#
#
# Convention : Reuss Voigt Hill
#
# Bulk Modulus (GPa) = 62.50992 68.70312 65.60652
# Shear Modulus (GPa) = 29.56151 31.21644 30.38898
#
# Velocity S-wave (km/s) = 3.93370 4.04231 3.98838
# Velocity P-wave (km/s) = 7.30431 7.59933 7.45328
#
# Compressibility (1/GPa) = 0.01599746
#
# Stress axis : x y z
#
# Youngs Moduli (GPa) = 63.40152 76.14773 99.49497
#
# Poissons Ratio (x) = 0.23911 0.61924
# Poissons Ratio (y) = 0.19909 0.21044
# Poissons Ratio (z) = 0.39460 0.16106
#
# Static dielectric constant tensor:
#      x y z
#    x 3.490310 0.000000 0.021170 
#    y 0.000000 3.410260 0.000000 
#    z 0.021170 0.000000 3.714010 
# 
# 
# High freq. dielectric constant tensor:
#      x y z
#    x 1.735440 0.000000 0.001210 
#    y 0.000000 1.740680 0.000000 
#    z 0.001210 0.000000 1.759780 
# 
# From -- ./inp_files/319765.got.cif
#   From: 2010.06.25/outbox.cif.g09.slc.cpg/sg12_160_cif.got.tgz:319765.got - 2010.06.28 00:19:55.
