data_PCOD8092876
_publ_section_title
;
Structure prediction by ZEFSAII (Michael W. Deem and Ramdas Pophale) SiO2 
 PCOD8092876
Probable space group: C 2/M
;
_chemical_formula_sum "Si O2"
_cell_formula_units_Z 52
_cell_length_a 11.827855
_cell_length_b 21.141996
_cell_length_c 16.062701
_cell_angle_alpha 90.000000
_cell_angle_beta 46.220089
_cell_angle_gamma 90.000000
_cell_volume 2900.076624
_symmetry_space_group_name_H-M "C 2/M"
_symmetry_group_IT_number 12
_symmetry_cell_setting 'monoclinic'
loop_
_space_group_symop_operation_xyz
x,y,z
-x,y,-z
-x,-y,-z
x,-y,z
1/2+x,1/2+y,z
1/2-x,1/2+y,-z
1/2-x,1/2-y,-z
1/2+x,1/2-y,z
loop_
_atom_site_type_symbol
_atom_site_label
_atom_site_fract_x
_atom_site_fract_y
_atom_site_fract_z
Si Si1 0.327811 0.650222 0.618111
Si Si2 0.000000 0.370138 0.500000
Si Si3 0.569930 0.427474 0.279530
Si Si4 0.171973 0.219366 0.925815
Si Si5 0.770052 0.212047 0.285467
Si Si6 0.724226 0.072447 0.516378
Si Si7 0.387813 0.669432 0.875826
O O1 0.500000 0.669396 0.500000
O O2 0.340401 0.601061 0.687085
O O3 0.242249 0.712890 0.693861
O O4 0.227406 0.618244 0.595142
O O5 0.863294 0.324851 0.599428
O O6 0.927597 0.412864 0.463201
O O7 0.617304 0.500000 0.249988
O O8 0.382995 0.418186 0.382532
O O9 0.634918 0.396091 0.161366
O O10 0.243165 0.191917 0.804606
O O11 0.275989 0.277059 0.899537
O O12 0.153608 0.163293 0.004556
O O13 0.000000 0.248716 0.000000
O O14 0.937510 0.191805 0.234435
O O15 0.712262 0.000000 0.553260
#
# Coordination Sequence:
#
# PCOD8092876 Si02
#       7
#     8   4   8   8   8   8   8
#     4  10  20  33  54  82 117 145 185 232 283 334
#     4  12  23  34  56  84 121 152 186 232 276 338
#     4  10  19  35  58  82 112 149 193 233 273 335
#     4   9  20  36  57  82 109 144 183 238 283 341
#     4  11  21  33  54  89 117 144 182 235 293 330
#     4  10  22  37  52  77 115 163 194 219 270 336
#     4  10  19  36  58  83 110 147 190 228 287 337
#
# _framework density 17.930561000000001
#
# number of rings (size 3 to 8) (size 9 to 14) (size 15 to 20)
#    0.000    1.846    3.846    0.692    2.154    2.462 
#    0.000    0.000    0.000    6.462    0.000    0.000 
#    0.000    0.000    0.000    0.000    0.000    0.000 
#
# Total GULP energy -322299.329344 kJ/mol
# GULP energy per Si atom -12396.128052 kJ/mol
# Density = 1.788975 g / cm^3
# Si number density = 17.930561 Si / 1000 Ang^3
#
#
#
# Elastic Constant Matrix: (Units=GPa)
#
#
# Indices 1 2 3 4 5 6 
#
# 1 105.6252 29.8095 29.9672 0.0000 10.8278 0.0000
# 2 29.8095 90.1580 38.2484 0.0001 18.1183 0.0000
# 3 29.9672 38.2484 78.9924 0.0002 17.9351 -0.0001
# 4 0.0000 0.0001 0.0002 23.9561 0.0000 5.2962
# 5 10.8278 18.1183 17.9351 0.0000 26.0207 0.0000
# 6 0.0000 0.0000 -0.0001 5.2962 0.0000 26.4419
#
#
#
# Elastic Compliance Matrix: (Units=1/GPa)
#
#
# Indices 1 2 3 4 5 6 
#
# 1 0.011014 -0.002211 -0.002865 0.000000 -0.001069 0.000000
# 2 -0.002211 0.015241 -0.005145 0.000000 -0.006145 0.000000
# 3 -0.002865 -0.005145 0.017965 0.000000 -0.007608 0.000000
# 4 0.000000 0.000000 0.000000 0.043677 0.000000 -0.008748
# 5 -0.001069 -0.006145 -0.007608 0.000000 0.048398 0.000000
# 6 0.000000 0.000000 0.000000 -0.008748 0.000000 0.039571
#
#
# Mechanical properties :
#
#
# Convention : Reuss Voigt Hill
#
# Bulk Modulus (GPa) = 42.05882 52.31397 47.18640
# Shear Modulus (GPa) = 24.48160 27.06709 25.77434
#
# Velocity S-wave (km/s) = 3.69908 3.88951 3.79549
# Velocity P-wave (km/s) = 6.46155 7.02924 6.75137
#
# Compressibility (1/GPa) = 0.02377623
#
# Stress axis : x y z
#
# Youngs Moduli (GPa) = 90.79430 65.61395 55.66373
#
# Poissons Ratio (x) = 0.14510 0.15947
# Poissons Ratio (y) = 0.20079 0.28641
# Poissons Ratio (z) = 0.26012 0.33760
#
# Static dielectric constant tensor:
#      x y z
#    x 3.525020 0.000000 0.252150 
#    y 0.000000 3.166330 0.000000 
#    z 0.252150 0.000000 3.310460 
# 
# 
# High freq. dielectric constant tensor:
#      x y z
#    x 1.709620 0.000000 0.006310 
#    y 0.000000 1.676820 0.000000 
#    z 0.006310 0.000000 1.685870 
# 
# From -- ./inp_files/265003.got.cif
#   From: 2010.06.25/outbox.cif.g09.slc.cpg/sg12_133_cif.got.tgz:265003.got - 2010.06.28 00:19:55.
