data_PCOD8092880
_publ_section_title
;
Structure prediction by ZEFSAII (Michael W. Deem and Ramdas Pophale) SiO2 
 PCOD8092880
Probable space group: C 2/M
;
_chemical_formula_sum "Si O2"
_cell_formula_units_Z 64
_cell_length_a 23.730712
_cell_length_b 21.268300
_cell_length_c 12.061487
_cell_angle_alpha 90.000000
_cell_angle_beta 31.315684
_cell_angle_gamma 90.000000
_cell_volume 3164.035850
_symmetry_space_group_name_H-M "C 2/M"
_symmetry_group_IT_number 12
_symmetry_cell_setting 'monoclinic'
loop_
_space_group_symop_operation_xyz
x,y,z
-x,y,-z
-x,-y,-z
x,-y,z
1/2+x,1/2+y,z
1/2-x,1/2+y,-z
1/2-x,1/2-y,-z
1/2+x,1/2-y,z
loop_
_atom_site_type_symbol
_atom_site_label
_atom_site_fract_x
_atom_site_fract_y
_atom_site_fract_z
Si Si1 0.371526 0.927700 0.718234
Si Si2 0.727324 0.322933 0.065306
Si Si3 0.662515 0.068754 0.474050
Si Si4 0.886310 0.212985 0.333496
Si Si5 0.096389 0.826543 0.084279
Si Si6 0.985676 0.342141 0.142065
Si Si7 0.715294 0.209382 0.803790
Si Si8 0.389815 0.397647 0.150318
O O1 0.500000 0.917960 0.500000
O O2 0.322436 0.873498 0.879349
O O3 0.318929 0.914817 0.685857
O O4 0.344597 0.000000 0.802030
O O5 0.750000 0.250000 0.000000
O O6 0.621745 0.343426 0.170371
O O7 0.709602 0.324474 0.228296
O O8 0.574817 0.115768 0.668129
O O9 0.774991 0.067711 0.356483
O O10 0.610377 0.000000 0.571518
O O11 0.910152 0.281418 0.243185
O O12 0.771317 0.209025 0.589105
O O13 0.890162 0.165865 0.223513
O O14 0.976475 0.202199 0.277232
O O15 0.191100 0.781030 0.878432
O O16 0.099305 0.886460 0.999341
O O17 0.000000 0.377306 0.000000
O O18 0.102786 0.327655 0.994081
O O19 0.500000 0.436034 0.000000
#
# Coordination Sequence:
#
# PCOD8092880 Si02
#       8
#     8   8   8   8   8   8   8   8
#     4  10  21  39  62  86 117 161 206 244 296 366
#     4  10  20  35  53  84 122 148 189 253 308 344
#     4  11  23  37  58  84 112 154 198 242 287 341
#     4  10  20  33  57  83 113 153 189 230 294 358
#     4   9  18  33  50  80 114 147 187 236 291 348
#     4  11  22  36  56  81 116 155 193 237 288 352
#     4  10  20  33  50  82 115 149 188 235 295 349
#     4  10  19  35  58  82 115 146 189 241 285 346
#
# _framework density 20.227329999999998
#
# number of rings (size 3 to 8) (size 9 to 14) (size 15 to 20)
#    0.000    1.875    1.250    4.125    1.750    2.500 
#    0.000    0.000    0.000    0.750    0.000    0.875 
#    0.000    0.000    0.000    0.000    0.000    0.000 
#
# Total GULP energy -396450.458915 kJ/mol
# GULP energy per Si atom -12389.076841 kJ/mol
# Density = 2.018129 g / cm^3
# Si number density = 20.227330 Si / 1000 Ang^3
#
#
#
# Elastic Constant Matrix: (Units=GPa)
#
#
# Indices 1 2 3 4 5 6 
#
# 1 102.6161 0.6517 8.9874 0.0001 -10.6142 0.0000
# 2 0.6517 67.3317 14.8458 0.0000 1.9417 0.0000
# 3 8.9874 14.8458 71.5601 0.0001 -9.6385 0.0000
# 4 0.0001 0.0000 0.0001 -6.7982 -0.0001 14.5735
# 5 -10.6142 1.9417 -9.6385 -0.0001 31.9186 0.0000
# 6 0.0000 0.0000 0.0000 14.5735 0.0000 14.8787
#
#
#
# Elastic Compliance Matrix: (Units=1/GPa)
#
#
# Indices 1 2 3 4 5 6 
#
# 1 0.010142 0.000000 -0.000854 0.000000 0.003115 0.000000
# 2 0.000000 0.015688 -0.003527 0.000000 -0.002019 0.000000
# 3 -0.000854 -0.003527 0.015431 0.000000 0.004590 0.000000
# 4 0.000000 0.000000 0.000000 -0.047455 0.000000 0.046481
# 5 0.003115 -0.002019 0.004590 0.000000 0.033874 0.000000
# 6 0.000000 0.000000 0.000000 0.046481 0.000000 0.021682
#
#
# Mechanical properties :
#
#
# Convention : Reuss Voigt Hill
#
# Bulk Modulus (GPa) = 30.76911 32.27531 31.52221
# Shear Modulus (GPa) = 72.50844 22.46802 47.48823
#
# Velocity S-wave (km/s) = 5.99371 3.33645 4.85059
# Velocity P-wave (km/s) = 7.94633 5.55278 6.85484
#
# Compressibility (1/GPa) = 0.03250013
#
# Stress axis : x y z
#
# Youngs Moduli (GPa) = 98.59944 63.74451 64.80279
#
# Poissons Ratio (x) = -0.00002 0.05536
# Poissons Ratio (y) = -0.00004 0.22853
# Poissons Ratio (z) = 0.08424 0.22480
#
# Static dielectric constant tensor:
#      x y z
#    x 4.226260 0.000000 -0.196860 
#    y 0.000000 3.412610 0.000000 
#    z -0.196860 0.000000 3.478560 
# 
# 
# High freq. dielectric constant tensor:
#      x y z
#    x 1.817080 0.000000 -0.014020 
#    y 0.000000 1.757410 0.000000 
#    z -0.014020 0.000000 1.766940 
# 
# From -- ./inp_files/178390.got.cif
#   From: 2010.06.25/outbox.cif.g09.slc.cpg/sg12_90_cif.got.tgz:178390.got - 2010.06.28 00:19:55.
