data_PCOD8092751
_publ_section_title
;
Structure prediction by ZEFSAII (Michael W. Deem and Ramdas Pophale) SiO2 
 PCOD8092751
Probable space group: C 2/M
;
_chemical_formula_sum "Si O2"
_cell_formula_units_Z 64
_cell_length_a 23.109930
_cell_length_b 20.209157
_cell_length_c 9.240419
_cell_angle_alpha 90.000000
_cell_angle_beta 128.301796
_cell_angle_gamma 90.000000
_cell_volume 3386.676067
_symmetry_space_group_name_H-M "C 2/M"
_symmetry_group_IT_number 12
_symmetry_cell_setting 'monoclinic'
loop_
_space_group_symop_operation_xyz
x,y,z
-x,y,-z
-x,-y,-z
x,-y,z
1/2+x,1/2+y,z
1/2-x,1/2+y,-z
1/2-x,1/2-y,-z
1/2+x,1/2-y,z
loop_
_atom_site_type_symbol
_atom_site_label
_atom_site_fract_x
_atom_site_fract_y
_atom_site_fract_z
Si Si1 0.648969 0.311530 0.580988
Si Si2 0.763207 0.424727 0.752206
Si Si3 0.007983 0.793449 0.176693
Si Si4 0.009042 0.362877 0.179432
Si Si5 0.639558 0.705860 0.902616
Si Si6 0.864275 0.642897 0.120606
Si Si7 0.338329 0.075111 0.572936
Si Si8 0.288446 0.827934 0.281963
O O1 0.696343 0.375788 0.616463
O O2 0.578314 0.322184 0.369312
O O3 0.627457 0.309100 0.715730
O O4 0.693205 0.243358 0.618025
O O5 0.733557 0.500000 0.714654
O O6 0.824456 0.416957 0.721892
O O7 0.801916 0.405595 0.962167
O O8 0.018158 0.715209 0.200607
O O9 0.933990 0.820689 0.136247
O O10 0.000000 0.818218 0.000000
O O11 0.081734 0.398515 0.349749
O O12 0.943215 0.383772 0.186577
O O13 0.000000 0.386994 0.000000
O O14 0.649730 0.782897 0.958856
O O15 0.713017 0.670949 0.074106
O O16 0.855309 0.646821 0.280549
O O17 0.278627 0.119417 0.395061
O O18 0.329508 0.000000 0.508151
#
# Coordination Sequence:
#
# PCOD8092751 Si02
#       8
#     8   8   8   8   8   8   8   8
#     4  11  20  39  62  86 119 154 192 247 299 338
#     4  11  23  38  59  86 115 156 203 245 289 348
#     4  10  22  34  58  94 118 147 192 242 294 350
#     4  10  19  35  57  82 119 157 196 231 282 350
#     4  10  20  36  60  91 119 148 189 244 299 346
#     4  10  19  36  59  87 116 150 200 238 287 345
#     4  11  25  39  54  84 123 162 197 238 290 343
#     4  11  21  37  61  88 118 155 196 246 291 342
#
# _framework density 18.897586
#
# number of rings (size 3 to 8) (size 9 to 14) (size 15 to 20)
#    0.000    1.500    5.000    1.125    1.750    2.250 
#    0.000    0.625    0.000    2.625    0.000    0.000 
#    0.000    0.000    0.000    0.000    0.000    0.000 
#
# Total GULP energy -396735.898907 kJ/mol
# GULP energy per Si atom -12397.996841 kJ/mol
# Density = 1.885457 g / cm^3
# Si number density = 18.897586 Si / 1000 Ang^3
#
#
#
# Elastic Constant Matrix: (Units=GPa)
#
#
# Indices 1 2 3 4 5 6 
#
# 1 88.1740 47.9613 31.8099 0.0000 12.3050 0.0000
# 2 47.9613 88.4323 41.5426 0.0000 -0.9754 0.0000
# 3 31.8099 41.5426 107.6706 0.0000 9.5583 0.0000
# 4 0.0000 0.0000 0.0000 24.2134 0.0000 0.4009
# 5 12.3050 -0.9754 9.5583 0.0000 22.5441 0.0000
# 6 0.0000 0.0000 0.0000 0.4009 0.0000 23.2125
#
#
#
# Elastic Compliance Matrix: (Units=1/GPa)
#
#
# Indices 1 2 3 4 5 6 
#
# 1 0.018282 -0.009659 -0.000781 0.000000 -0.010065 0.000000
# 2 -0.009659 0.019109 -0.005258 0.000000 0.008329 0.000000
# 3 -0.000781 -0.005258 0.011980 0.000000 -0.004881 0.000000
# 4 0.000000 0.000000 0.000000 0.041311 0.000000 -0.000714
# 5 -0.010065 0.008329 -0.004881 0.000000 0.052281 0.000000
# 6 0.000000 0.000000 0.000000 -0.000714 0.000000 0.043093
#
#
# Mechanical properties :
#
#
# Convention : Reuss Voigt Hill
#
# Bulk Modulus (GPa) = 55.63573 58.54494 57.09034
# Shear Modulus (GPa) = 22.37697 24.85821 23.61759
#
# Velocity S-wave (km/s) = 3.44483 3.63080 3.53904
# Velocity P-wave (km/s) = 6.73254 6.97312 6.85388
#
# Compressibility (1/GPa) = 0.01797406
#
# Stress axis : x y z
#
# Youngs Moduli (GPa) = 54.69987 52.33155 83.46971
#
# Poissons Ratio (x) = 0.50549 0.06516
# Poissons Ratio (y) = 0.52836 0.43892
# Poissons Ratio (z) = 0.04270 0.27518
#
# Static dielectric constant tensor:
#      x y z
#    x 3.596510 0.000000 -0.052600 
#    y 0.000000 3.237410 0.000000 
#    z -0.052600 0.000000 3.404990 
# 
# 
# High freq. dielectric constant tensor:
#      x y z
#    x 1.736930 0.000000 -0.004200 
#    y 0.000000 1.700830 0.000000 
#    z -0.004200 0.000000 1.736100 
# 
# From -- ./inp_files/77542.got.cif
#   From: 2010.06.25/outbox.cif.g09.slc.cpg/sg12_39_cif.got.tgz:77542.got - 2010.06.28 00:19:55.
