data_PCOD8092287
_publ_section_title
;
Structure prediction by ZEFSAII (Michael W. Deem and Ramdas Pophale) SiO2 
 PCOD8092287
Probable space group: C 2/M
;
_chemical_formula_sum "Si O2"
_cell_formula_units_Z 56
_cell_length_a 10.974935
_cell_length_b 27.360215
_cell_length_c 11.255600
_cell_angle_alpha 90.000000
_cell_angle_beta 50.915366
_cell_angle_gamma 90.000000
_cell_volume 2623.447843
_symmetry_space_group_name_H-M "C 2/M"
_symmetry_group_IT_number 12
_symmetry_cell_setting 'monoclinic'
loop_
_space_group_symop_operation_xyz
x,y,z
-x,y,-z
-x,-y,-z
x,-y,z
1/2+x,1/2+y,z
1/2-x,1/2+y,-z
1/2-x,1/2-y,-z
1/2+x,1/2-y,z
loop_
_atom_site_type_symbol
_atom_site_label
_atom_site_fract_x
_atom_site_fract_y
_atom_site_fract_z
Si Si1 0.620867 0.052988 0.820632
Si Si2 0.132686 0.103389 0.183104
Si Si3 0.183711 0.055227 0.911678
Si Si4 0.839406 0.190729 0.671603
Si Si5 0.717360 0.612750 0.665239
Si Si6 0.640593 0.199892 0.320594
Si Si7 0.915534 0.361871 0.324882
O O1 0.793771 0.068994 0.759845
O O2 0.542060 0.092048 0.782110
O O3 0.640513 0.000000 0.746288
O O4 0.500000 0.048461 0.000000
O O5 0.163944 0.158969 0.205362
O O6 0.945976 0.095229 0.290894
O O7 0.213618 0.089976 0.007579
O O8 0.268901 0.077361 0.742739
O O9 0.245738 0.000000 0.898606
O O10 0.000000 0.054179 0.000000
O O11 0.802811 0.245335 0.741153
O O12 0.707840 0.174350 0.659945
O O13 0.000000 0.185545 0.500000
O O14 0.711652 0.668696 0.719374
O O15 0.851172 0.612515 0.483828
O O16 0.500000 0.203666 0.500000
O O17 0.570786 0.170809 0.250140
#
# Coordination Sequence:
#
# PCOD8092287 Si02
#       7
#     8   8   8   8   8   8   8
#     4  10  23  41  63  85 116 162 198 241 304 363
#     4  10  20  36  61  87 115 153 201 246 293 354
#     4   9  19  35  56  81 112 151 189 234 299 357
#     4  10  19  34  61  87 117 159 197 248 299 350
#     4  10  20  36  59  88 122 149 193 255 294 345
#     4   9  21  34  57  89 120 160 196 236 303 364
#     4  10  21  38  60  91 124 153 201 251 294 355
#
# _framework density 21.345956000000001
#
# number of rings (size 3 to 8) (size 9 to 14) (size 15 to 20)
#    0.000    2.286    1.429    0.429    4.000    2.857 
#    0.000    1.429    0.000    2.571    0.000    0.000 
#    0.000    0.000    0.000    0.000    0.000    0.000 
#
# Total GULP energy -347006.803447 kJ/mol
# GULP energy per Si atom -12393.100123 kJ/mol
# Density = 2.129737 g / cm^3
# Si number density = 21.345956 Si / 1000 Ang^3
#
#
#
# Elastic Constant Matrix: (Units=GPa)
#
#
# Indices 1 2 3 4 5 6 
#
# 1 71.1820 45.7802 19.8422 0.0000 14.4754 0.0000
# 2 45.7802 185.2771 49.6532 0.0000 18.9256 0.0000
# 3 19.8422 49.6532 58.2382 0.0000 18.7460 0.0000
# 4 0.0000 0.0000 0.0000 26.8663 0.0000 12.8603
# 5 14.4754 18.9256 18.7460 0.0000 30.6781 0.0000
# 6 0.0000 0.0000 0.0000 12.8603 0.0000 9.4038
#
#
#
# Elastic Compliance Matrix: (Units=1/GPa)
#
#
# Indices 1 2 3 4 5 6 
#
# 1 0.017759 -0.003474 -0.001346 0.000000 -0.005414 0.000000
# 2 -0.003474 0.007693 -0.005446 0.000000 0.000222 0.000000
# 3 -0.001346 -0.005446 0.026126 0.000000 -0.011969 0.000000
# 4 0.000000 0.000000 0.000000 0.107771 0.000000 -0.147384
# 5 -0.005414 0.000222 -0.011969 0.000000 0.042328 0.000000
# 6 0.000000 0.000000 0.000000 -0.147384 0.000000 0.307898
#
#
# Mechanical properties :
#
#
# Convention : Reuss Voigt Hill
#
# Bulk Modulus (GPa) = 32.21195 60.58316 46.39756
# Shear Modulus (GPa) = 9.25145 26.68442 17.96794
#
# Velocity S-wave (km/s) = 2.08410 3.53950 2.90444
# Velocity P-wave (km/s) = 4.57323 6.71917 5.74725
#
# Compressibility (1/GPa) = 0.03104438
#
# Stress axis : x y z
#
# Youngs Moduli (GPa) = 56.30904 129.99221 38.27663
#
# Poissons Ratio (x) = 0.45165 0.05151
# Poissons Ratio (y) = 0.19564 0.20847
# Poissons Ratio (z) = 0.07578 0.70798
#
# Static dielectric constant tensor:
#      x y z
#    x 4.108170 0.000000 0.177980 
#    y 0.000000 4.307570 0.000000 
#    z 0.177980 0.000000 3.544020 
# 
# 
# High freq. dielectric constant tensor:
#      x y z
#    x 1.852040 0.000000 0.008920 
#    y 0.000000 1.841930 0.000000 
#    z 0.008920 0.000000 1.802450 
# 
# From -- ./inp_files/136903.got.cif
#   From: 2010.06.25/outbox.cif.g09.slc.cpg/sg12_69_cif.got.tgz:136903.got - 2010.06.28 00:19:55.
