data_PCOD8092978
_publ_section_title
;
Structure prediction by ZEFSAII (Michael W. Deem and Ramdas Pophale) SiO2 
 PCOD8092978
Probable space group: C 2/M
;
_chemical_formula_sum "Si O2"
_cell_formula_units_Z 56
_cell_length_a 20.239382
_cell_length_b 8.485258
_cell_length_c 17.383097
_cell_angle_alpha 90.000000
_cell_angle_beta 108.550511
_cell_angle_gamma 90.000000
_cell_volume 2830.204021
_symmetry_space_group_name_H-M "C 2/M"
_symmetry_group_IT_number 12
_symmetry_cell_setting 'monoclinic'
loop_
_space_group_symop_operation_xyz
x,y,z
-x,y,-z
-x,-y,-z
x,-y,z
1/2+x,1/2+y,z
1/2-x,1/2+y,-z
1/2-x,1/2-y,-z
1/2+x,1/2-y,z
loop_
_atom_site_type_symbol
_atom_site_label
_atom_site_fract_x
_atom_site_fract_y
_atom_site_fract_z
Si Si1 0.174911 0.682489 0.652124
Si Si2 0.309854 0.316449 0.929048
Si Si3 0.846983 0.317106 0.096437
Si Si4 0.828496 0.816315 0.762624
Si Si5 0.575280 0.680952 0.739218
Si Si6 0.174195 0.816058 0.489739
Si Si7 0.425669 0.817844 0.673466
O O1 0.173715 0.500000 0.628014
O O2 0.250799 0.732983 0.709930
O O3 0.119422 0.710337 0.698414
O O4 0.154621 0.787092 0.571088
O O5 0.315333 0.500000 0.950431
O O6 0.229242 0.263795 0.902561
O O7 0.340231 0.276775 0.856587
O O8 0.354808 0.222189 0.008855
O O9 0.860473 0.500000 0.115963
O O10 0.904155 0.220533 0.165426
O O11 0.882867 0.713774 0.735274
O O12 0.841115 0.000000 0.750361
O O13 0.591318 0.500000 0.726832
O O14 0.494115 0.711989 0.697651
O O15 0.250000 0.750000 0.500000
O O16 0.119235 0.724827 0.417432
O O17 0.171679 0.000000 0.468869
O O18 0.446801 0.000000 0.678323
#
# Coordination Sequence:
#
# PCOD8092978 Si02
#       7
#     8   8   8   8   8   8   8
#     4  11  22  40  66  94 125 161 204 256 307 361
#     4   9  18  34  58  90 123 159 201 249 303 360
#     4  10  19  35  58  89 125 161 202 252 305 360
#     4  10  20  38  63  91 125 161 203 252 306 366
#     4  12  25  42  63  90 126 166 207 252 310 373
#     4  12  24  41  64  94 126 161 206 254 305 361
#     4  12  26  43  64  90 124 164 207 255 311 369
#
# _framework density 19.786560000000001
#
# number of rings (size 3 to 8) (size 9 to 14) (size 15 to 20)
#    0.000    1.143    2.857    4.714    0.000    2.286 
#    0.000    3.571    0.000    4.286    0.000    0.000 
#    0.000    0.000    0.000    0.000    0.000    0.000 
#
# Total GULP energy -347389.357835 kJ/mol
# GULP energy per Si atom -12406.762780 kJ/mol
# Density = 1.974152 g / cm^3
# Si number density = 19.786560 Si / 1000 Ang^3
#
#
#
# Elastic Constant Matrix: (Units=GPa)
#
#
# Indices 1 2 3 4 5 6 
#
# 1 78.1573 10.5552 28.3892 0.0000 0.2411 0.0000
# 2 10.5552 69.5972 20.3593 0.0000 -2.7724 0.0000
# 3 28.3892 20.3593 112.2829 0.0000 -6.9880 0.0000
# 4 0.0000 0.0000 0.0000 36.1874 0.0000 -3.3544
# 5 0.2411 -2.7724 -6.9880 0.0000 30.1309 0.0000
# 6 0.0000 0.0000 0.0000 -3.3544 0.0000 30.0270
#
#
#
# Elastic Compliance Matrix: (Units=1/GPa)
#
#
# Indices 1 2 3 4 5 6 
#
# 1 0.014208 -0.001189 -0.003440 0.000000 -0.001021 0.000000
# 2 -0.001189 0.015290 -0.002419 0.000000 0.000855 0.000000
# 3 -0.003440 -0.002419 0.010352 0.000000 0.002206 0.000000
# 4 0.000000 0.000000 0.000000 0.027923 0.000000 0.003119
# 5 -0.001021 0.000855 0.002206 0.000000 0.033787 0.000000
# 6 0.000000 0.000000 0.000000 0.003119 0.000000 0.033652
#
#
# Mechanical properties :
#
#
# Convention : Reuss Voigt Hill
#
# Bulk Modulus (GPa) = 38.82856 42.07165 40.45010
# Shear Modulus (GPa) = 31.66710 32.65130 32.15920
#
# Velocity S-wave (km/s) = 4.00488 4.06664 4.03588
# Velocity P-wave (km/s) = 6.40717 6.58476 6.49657
#
# Compressibility (1/GPa) = 0.02575424
#
# Stress axis : x y z
#
# Youngs Moduli (GPa) = 70.38267 65.40082 96.60243
#
# Poissons Ratio (x) = 0.07777 0.33233
# Poissons Ratio (y) = 0.08369 0.23364
# Poissons Ratio (z) = 0.24213 0.15818
#
# Static dielectric constant tensor:
#      x y z
#    x 3.494030 0.000000 -0.132120 
#    y 0.000000 3.618370 0.000000 
#    z -0.132120 0.000000 3.805740 
# 
# 
# High freq. dielectric constant tensor:
#      x y z
#    x 1.751470 0.000000 -0.006440 
#    y 0.000000 1.776530 0.000000 
#    z -0.006440 0.000000 1.786600 
# 
# From -- ./inp_files/275523.got.cif
#   From: 2010.06.25/outbox.cif.g09.slc.cpg/sg12_138_cif.got.tgz:275523.got - 2010.06.28 00:19:55.
