data_PCOD8092613
_publ_section_title
;
Structure prediction by ZEFSAII (Michael W. Deem and Ramdas Pophale) SiO2 
 PCOD8092613
Probable space group: C 2/M
;
_chemical_formula_sum "Si O2"
_cell_formula_units_Z 40
_cell_length_a 13.895554
_cell_length_b 17.982384
_cell_length_c 11.668512
_cell_angle_alpha 90.000000
_cell_angle_beta 148.624329
_cell_angle_gamma 90.000000
_cell_volume 1518.036121
_symmetry_space_group_name_H-M "C 2/M"
_symmetry_group_IT_number 12
_symmetry_cell_setting 'monoclinic'
loop_
_space_group_symop_operation_xyz
x,y,z
-x,y,-z
-x,-y,-z
x,-y,z
1/2+x,1/2+y,z
1/2-x,1/2+y,-z
1/2-x,1/2-y,-z
1/2+x,1/2-y,z
loop_
_atom_site_type_symbol
_atom_site_label
_atom_site_fract_x
_atom_site_fract_y
_atom_site_fract_z
Si Si1 0.019429 0.857810 0.693828
Si Si2 0.048207 0.691300 0.682839
Si Si3 0.263673 0.919359 0.437914
Si Si4 0.787304 0.586489 0.787520
Si Si5 0.330712 0.582431 0.900163
O O1 0.953651 0.895686 0.749343
O O2 0.832165 0.868614 0.428005
O O3 0.068199 0.771663 0.760078
O O4 0.195983 0.898999 0.818994
O O5 0.238603 0.643363 0.892358
O O6 0.000000 0.703622 0.500000
O O7 0.899520 0.647427 0.611731
O O8 0.308662 0.929127 0.349469
O O9 0.307013 0.000000 0.541446
O O10 0.774964 0.500000 0.745682
O O11 0.000000 0.614106 0.000000
O O12 0.367229 0.500000 0.991983
O O13 0.500000 0.616107 0.000000
#
# Coordination Sequence:
#
# PCOD8092613 Si02
#       5
#     8   8   8   8   8
#     4  11  20  38  58  87 117 148 187 242 292 333
#     4  10  19  35  56  82 111 152 188 228 288 346
#     4  10  20  35  58  82 110 151 194 235 281 337
#     4  10  21  38  60  83 114 158 195 227 281 347
#     4   9  19  37  58  82 114 152 194 238 283 340
#
# _framework density 26.349831999999999
#
# number of rings (size 3 to 8) (size 9 to 14) (size 15 to 20)
#    0.000    2.000    2.000    3.600    0.000    3.200 
#    3.600    1.000    0.000    0.000    0.000    0.000 
#    0.000    0.000    0.000    0.000    0.000    0.000 
#
# Total GULP energy -247802.266667 kJ/mol
# GULP energy per Si atom -12390.113333 kJ/mol
# Density = 2.628986 g / cm^3
# Si number density = 26.349832 Si / 1000 Ang^3
#
#
#
# Elastic Constant Matrix: (Units=GPa)
#
#
# Indices 1 2 3 4 5 6 
#
# 1 148.1193 74.1684 49.2329 0.0000 25.1639 0.0000
# 2 74.1684 188.9442 49.3695 0.0000 23.3574 0.0000
# 3 49.2329 49.3695 96.1877 0.0000 42.7937 0.0000
# 4 0.0000 0.0000 0.0000 34.1213 0.0000 11.9239
# 5 25.1639 23.3574 42.7937 0.0000 51.5716 0.0000
# 6 0.0000 0.0000 0.0000 11.9239 0.0000 32.1683
#
#
#
# Elastic Compliance Matrix: (Units=1/GPa)
#
#
# Indices 1 2 3 4 5 6 
#
# 1 0.009254 -0.002759 -0.002961 0.000000 -0.000809 0.000000
# 2 -0.002759 0.006937 -0.002139 0.000000 -0.000021 0.000000
# 3 -0.002961 -0.002139 0.018921 0.000000 -0.013287 0.000000
# 4 0.000000 0.000000 0.000000 0.033668 0.000000 -0.012480
# 5 -0.000809 -0.000021 -0.013287 0.000000 0.030820 0.000000
# 6 0.000000 0.000000 0.000000 -0.012480 0.000000 0.035712
#
#
# Mechanical properties :
#
#
# Convention : Reuss Voigt Hill
#
# Bulk Modulus (GPa) = 51.56020 86.53254 69.04637
# Shear Modulus (GPa) = 31.74672 40.93759 36.34216
#
# Velocity S-wave (km/s) = 3.47481 3.94587 3.71781
# Velocity P-wave (km/s) = 5.97571 7.32605 6.68507
#
# Compressibility (1/GPa) = 0.01939480
#
# Stress axis : x y z
#
# Youngs Moduli (GPa) = 108.05594 144.15182 52.85111
#
# Poissons Ratio (x) = 0.39773 0.15647
# Poissons Ratio (y) = 0.29814 0.11306
# Poissons Ratio (z) = 0.31991 0.30837
#
# Static dielectric constant tensor:
#      x y z
#    x 5.761410 0.000000 -0.375370 
#    y 0.000000 4.918720 0.000000 
#    z -0.375370 0.000000 5.147640 
# 
# 
# High freq. dielectric constant tensor:
#      x y z
#    x 2.066560 0.000000 0.004150 
#    y 0.000000 2.051870 0.000000 
#    z 0.004150 0.000000 2.073230 
# 
# From -- ./inp_files/216921.got.cif
#   From: 2010.06.25/outbox.cif.g09.slc.cpg/sg12_109_cif.got.tgz:216921.got - 2010.06.28 00:19:55.
