data_PCOD8092472
_publ_section_title
;
Structure prediction by ZEFSAII (Michael W. Deem and Ramdas Pophale) SiO2 
 PCOD8092472
Probable space group: C 2/M
;
_chemical_formula_sum "Si O2"
_cell_formula_units_Z 48
_cell_length_a 23.277148
_cell_length_b 9.073117
_cell_length_c 12.340145
_cell_angle_alpha 90.000000
_cell_angle_beta 70.018500
_cell_angle_gamma 90.000000
_cell_volume 2449.307833
_symmetry_space_group_name_H-M "C 2/M"
_symmetry_group_IT_number 12
_symmetry_cell_setting 'monoclinic'
loop_
_space_group_symop_operation_xyz
x,y,z
-x,y,-z
-x,-y,-z
x,-y,z
1/2+x,1/2+y,z
1/2-x,1/2+y,-z
1/2-x,1/2-y,-z
1/2+x,1/2-y,z
loop_
_atom_site_type_symbol
_atom_site_label
_atom_site_fract_x
_atom_site_fract_y
_atom_site_fract_z
Si Si1 0.306090 0.173963 0.708006
Si Si2 0.327525 0.673934 0.250692
Si Si3 0.639437 0.672781 0.536501
Si Si4 0.930961 0.824662 0.025344
Si Si5 0.099657 0.671886 0.173623
Si Si6 0.481709 0.165256 0.388123
O O1 0.235633 0.225543 0.765196
O O2 0.334931 0.243321 0.582759
O O3 0.342020 0.223581 0.792625
O O4 0.312267 0.000000 0.687940
O O5 0.333114 0.500000 0.242649
O O6 0.325190 0.724356 0.377560
O O7 0.386802 0.737127 0.149318
O O8 0.645278 0.500000 0.511862
O O9 0.569282 0.714028 0.603323
O O10 0.901739 0.765478 0.934084
O O11 0.931462 0.000000 0.019663
O O12 0.000000 0.764511 0.000000
O O13 0.104160 0.500000 0.141876
O O14 0.039454 0.709387 0.279651
O O15 0.500000 0.173268 0.500000
O O16 0.458599 0.000000 0.374692
#
# Coordination Sequence:
#
# PCOD8092472 Si02
#       6
#     8   8   8   8   8   8
#     4  10  20  38  58  78 112 153 187 224 278 336
#     4   9  20  37  57  80 110 152 191 224 274 337
#     4  11  21  34  56  87 115 142 186 236 279 324
#     4  10  21  39  60  81 111 147 183 226 281 334
#     4  10  21  36  57  83 110 143 187 231 272 325
#     4  10  19  35  55  78 110 149 184 217 273 337
#
# _framework density 19.597372
#
# number of rings (size 3 to 8) (size 9 to 14) (size 15 to 20)
#    0.000    2.000    1.667    2.000    0.000    4.000 
#    0.000    3.333    0.000    0.000    0.000    0.000 
#    0.000    0.000    0.000    0.000    0.000    0.000 
#
# Total GULP energy -297583.490857 kJ/mol
# GULP energy per Si atom -12399.312119 kJ/mol
# Density = 1.955277 g / cm^3
# Si number density = 19.597372 Si / 1000 Ang^3
#
#
#
# Elastic Constant Matrix: (Units=GPa)
#
#
# Indices 1 2 3 4 5 6 
#
# 1 152.3078 28.7009 55.2695 0.0000 6.2086 0.0000
# 2 28.7009 27.7752 22.9492 0.0000 4.8952 0.0000
# 3 55.2695 22.9492 77.5295 0.0000 14.6988 0.0000
# 4 0.0000 0.0000 0.0000 30.7412 0.0000 5.0331
# 5 6.2086 4.8952 14.6988 0.0000 29.5301 0.0000
# 6 0.0000 0.0000 0.0000 5.0331 0.0000 25.0047
#
#
#
# Elastic Compliance Matrix: (Units=1/GPa)
#
#
# Indices 1 2 3 4 5 6 
#
# 1 0.009536 -0.005651 -0.005436 0.000000 0.001638 0.000000
# 2 -0.005651 0.051034 -0.010710 0.000000 -0.001941 0.000000
# 3 -0.005436 -0.010710 0.021411 0.000000 -0.007739 0.000000
# 4 0.000000 0.000000 0.000000 0.033638 0.000000 -0.006771
# 5 0.001638 -0.001941 -0.007739 0.000000 0.037693 0.000000
# 6 0.000000 0.000000 0.000000 -0.006771 0.000000 0.041355
#
#
# Mechanical properties :
#
#
# Convention : Reuss Voigt Hill
#
# Bulk Modulus (GPa) = 26.05023 52.38352 39.21687
# Shear Modulus (GPa) = 19.91570 27.10139 23.50855
#
# Velocity S-wave (km/s) = 3.19132 3.72278 3.46725
# Velocity P-wave (km/s) = 5.18661 6.72805 6.00698
#
# Compressibility (1/GPa) = 0.03838738
#
# Stress axis : x y z
#
# Youngs Moduli (GPa) = 104.86051 19.59477 46.70513
#
# Poissons Ratio (x) = 0.11074 0.25389
# Poissons Ratio (y) = 0.59261 0.50019
# Poissons Ratio (z) = 0.57002 0.20985
#
# Static dielectric constant tensor:
#      x y z
#    x 3.885930 0.000000 0.026220 
#    y 0.000000 3.328670 0.000000 
#    z 0.026220 0.000000 3.582500 
# 
# 
# High freq. dielectric constant tensor:
#      x y z
#    x 1.777480 0.000000 0.001050 
#    y 0.000000 1.737370 0.000000 
#    z 0.001050 0.000000 1.767830 
# 
# From -- ./inp_files/102401.got.cif
#   From: 2010.06.25/outbox.cif.g09.slc.cpg/sg12_52_cif.got.tgz:102401.got - 2010.06.28 00:19:55.
