data_PCOD8092938
_publ_section_title
;
Structure prediction by ZEFSAII (Michael W. Deem and Ramdas Pophale) SiO2 
 PCOD8092938
Probable space group: C 2/M
;
_chemical_formula_sum "Si O2"
_cell_formula_units_Z 64
_cell_length_a 20.594079
_cell_length_b 8.572711
_cell_length_c 21.801687
_cell_angle_alpha 90.000000
_cell_angle_beta 62.246949
_cell_angle_gamma 90.000000
_cell_volume 3406.243523
_symmetry_space_group_name_H-M "C 2/M"
_symmetry_group_IT_number 12
_symmetry_cell_setting 'monoclinic'
loop_
_space_group_symop_operation_xyz
x,y,z
-x,y,-z
-x,-y,-z
x,-y,z
1/2+x,1/2+y,z
1/2-x,1/2+y,-z
1/2-x,1/2-y,-z
1/2+x,1/2-y,z
loop_
_atom_site_type_symbol
_atom_site_label
_atom_site_fract_x
_atom_site_fract_y
_atom_site_fract_z
Si Si1 0.046258 0.683850 0.675487
Si Si2 0.399639 0.816817 0.673906
Si Si3 0.672200 0.317658 0.180717
Si Si4 0.830422 0.317542 0.464575
Si Si5 0.962655 0.318845 0.826906
Si Si6 0.915208 0.181558 0.539425
Si Si7 0.943945 0.680928 0.972283
Si Si8 0.213964 0.817314 0.955034
O O1 0.050391 0.500000 0.667938
O O2 0.121725 0.752983 0.613862
O O3 0.978029 0.743222 0.664746
O O4 0.031424 0.733080 0.753136
O O5 0.338584 0.774915 0.751138
O O6 0.381577 0.723189 0.620209
O O7 0.399011 0.000000 0.660598
O O8 0.672245 0.500000 0.194459
O O9 0.609470 0.278392 0.158516
O O10 0.750253 0.265598 0.119496
O O11 0.822606 0.500000 0.460479
O O12 0.750000 0.250000 0.500000
O O13 0.871336 0.280578 0.509336
O O14 0.944130 0.500000 0.821940
O O15 0.982538 0.290355 0.889157
O O16 0.000000 0.232112 0.500000
O O17 0.904587 0.000000 0.529977
O O18 0.922180 0.500000 0.989676
O O19 0.872306 0.785869 0.008952
O O20 0.000000 0.735238 0.000000
O O21 0.229615 0.000000 0.945806
O O22 0.250000 0.750000 0.000000
#
# Coordination Sequence:
#
# PCOD8092938 Si02
#       8
#     8   8   8   8   8   8   8   8
#     4   8  16  31  54  80 106 144 190 235 286 347
#     4  10  19  35  58  85 115 150 191 236 292 348
#     4  11  21  34  55  86 118 149 189 240 294 344
#     4  11  22  38  57  81 115 155 199 243 295 350
#     4   9  17  33  56  81 110 147 191 236 286 349
#     4  11  22  36  57  87 118 148 190 241 290 341
#     4  10  21  37  58  85 118 154 194 240 293 353
#     4  12  23  37  58  84 115 152 194 242 290 341
#
# _framework density 18.789027000000001
#
# number of rings (size 3 to 8) (size 9 to 14) (size 15 to 20)
#    0.000    1.750    2.500    4.125    0.000    0.750 
#    0.000    1.875    0.000    3.000    0.000    0.000 
#    0.000    0.000    0.000    0.000    0.000    0.000 
#
# Total GULP energy -396800.493115 kJ/mol
# GULP energy per Si atom -12400.015410 kJ/mol
# Density = 1.874626 g / cm^3
# Si number density = 18.789027 Si / 1000 Ang^3
#
#
#
# Elastic Constant Matrix: (Units=GPa)
#
#
# Indices 1 2 3 4 5 6 
#
# 1 87.1205 18.1461 57.8693 0.0000 -5.1969 -0.0010
# 2 18.1461 57.8840 18.0411 0.0000 -4.4680 -0.0027
# 3 57.8693 18.0411 156.6391 0.0001 -7.3542 -0.0003
# 4 0.0000 0.0000 0.0001 27.6019 0.0000 -2.3931
# 5 -5.1969 -4.4680 -7.3542 0.0000 29.2791 -0.0001
# 6 -0.0010 -0.0027 -0.0003 -2.3931 -0.0001 24.9634
#
#
#
# Elastic Compliance Matrix: (Units=1/GPa)
#
#
# Indices 1 2 3 4 5 6 
#
# 1 0.015804 -0.003189 -0.005427 0.000000 0.000955 0.000000
# 2 -0.003189 0.018710 -0.000879 0.000000 0.002068 0.000002
# 3 -0.005427 -0.000879 0.008539 0.000000 0.001047 0.000000
# 4 0.000000 0.000000 0.000000 0.036533 0.000000 0.003502
# 5 0.000955 0.002068 0.001047 0.000000 0.034902 0.000000
# 6 0.000000 0.000002 0.000000 0.003502 0.000000 0.040394
#
#
# Mechanical properties :
#
#
# Convention : Reuss Voigt Hill
#
# Bulk Modulus (GPa) = 41.55893 54.41739 47.98816
# Shear Modulus (GPa) = 27.48846 30.20802 28.84824
#
# Velocity S-wave (km/s) = 3.82908 4.01402 3.92264
# Velocity P-wave (km/s) = 6.45878 7.10692 6.79059
#
# Compressibility (1/GPa) = 0.02406222
#
# Stress axis : x y z
#
# Youngs Moduli (GPa) = 63.27427 53.44876 117.10446
#
# Poissons Ratio (x) = 0.17047 0.63547
# Poissons Ratio (y) = 0.20181 0.10299
# Poissons Ratio (z) = 0.34336 0.04701
#
# Static dielectric constant tensor:
#      x y z
#    x 3.174120 0.000000 -0.165090 
#    y 0.000000 3.349510 0.000000 
#    z -0.165090 0.000000 3.898770 
# 
# 
# High freq. dielectric constant tensor:
#      x y z
#    x 1.692670 0.000000 -0.001940 
#    y 0.000000 1.724230 0.000000 
#    z -0.001940 0.000000 1.752760 
# 
# From -- ./inp_files/319831.got.cif
#   From: 2010.06.25/outbox.cif.g09.slc.cpg/sg12_160_cif.got.tgz:319831.got - 2010.06.28 00:19:55.
