data_PCOD8092874
_publ_section_title
;
Structure prediction by ZEFSAII (Michael W. Deem and Ramdas Pophale) SiO2 
 PCOD8092874
Probable space group: C 2/M
;
_chemical_formula_sum "Si O2"
_cell_formula_units_Z 56
_cell_length_a 23.730111
_cell_length_b 8.796735
_cell_length_c 21.885937
_cell_angle_alpha 90.000000
_cell_angle_beta 39.874845
_cell_angle_gamma 90.000000
_cell_volume 2929.009910
_symmetry_space_group_name_H-M "C 2/M"
_symmetry_group_IT_number 12
_symmetry_cell_setting 'monoclinic'
loop_
_space_group_symop_operation_xyz
x,y,z
-x,y,-z
-x,-y,-z
x,-y,z
1/2+x,1/2+y,z
1/2-x,1/2+y,-z
1/2-x,1/2-y,-z
1/2+x,1/2-y,z
loop_
_atom_site_type_symbol
_atom_site_label
_atom_site_fract_x
_atom_site_fract_y
_atom_site_fract_z
Si Si1 0.136508 0.321133 0.955154
Si Si2 0.717498 0.178446 0.089380
Si Si3 0.331623 0.323306 0.194682
Si Si4 0.356886 0.319859 0.629857
Si Si5 0.483877 0.677487 0.421847
Si Si6 0.467164 0.676040 0.749939
Si Si7 0.516340 0.325831 0.842761
O O1 0.148046 0.500000 0.945296
O O2 0.227757 0.246788 0.900284
O O3 0.118523 0.262522 0.901800
O O4 0.057633 0.279037 0.065890
O O5 0.616224 0.215469 0.183055
O O6 0.732593 0.000000 0.073888
O O7 0.750000 0.250000 0.000000
O O8 0.328721 0.500000 0.180882
O O9 0.234431 0.264352 0.286442
O O10 0.388561 0.290591 0.208074
O O11 0.339169 0.500000 0.646201
O O12 0.422599 0.264678 0.629218
O O13 0.400293 0.261781 0.529732
O O14 0.484540 0.500000 0.433457
O O15 0.473920 0.718225 0.358437
O O16 0.436777 0.500000 0.772091
O O17 0.522772 0.708178 0.764946
O O18 0.488342 0.500000 0.878003
#
# Coordination Sequence:
#
# PCOD8092874 Si02
#       7
#     8   8   8   8   8   8   8
#     4  12  24  38  58  82 108 145 190 236 283 334
#     4  12  23  36  55  83 116 148 181 226 276 327
#     4  11  23  38  55  79 111 148 189 234 285 336
#     4   9  17  34  58  84 111 139 180 234 283 333
#     4   8  16  32  58  86 109 138 180 229 283 339
#     4  10  19  35  58  82 111 151 192 228 275 334
#     4  10  22  38  55  76 111 153 190 232 279 332
#
# _framework density 19.119088000000001
#
# number of rings (size 3 to 8) (size 9 to 14) (size 15 to 20)
#    0.000    1.714    1.429    5.143    0.000    4.000 
#    0.000    2.857    0.000    0.000    0.000    0.000 
#    0.000    0.000    0.000    0.000    0.000    0.000 
#
# Total GULP energy -347206.246286 kJ/mol
# GULP energy per Si atom -12400.223082 kJ/mol
# Density = 1.907557 g / cm^3
# Si number density = 19.119088 Si / 1000 Ang^3
#
#
#
# Elastic Constant Matrix: (Units=GPa)
#
#
# Indices 1 2 3 4 5 6 
#
# 1 124.7526 42.1813 52.7603 -0.0028 19.3055 0.0023
# 2 42.1813 100.2457 28.8348 -0.0050 6.6440 0.0053
# 3 52.7603 28.8348 93.9678 -0.0021 22.8623 0.0027
# 4 -0.0028 -0.0050 -0.0021 27.5402 0.0023 -2.8854
# 5 19.3055 6.6440 22.8623 0.0023 32.7473 -0.0021
# 6 0.0023 0.0053 0.0027 -2.8854 -0.0021 22.4160
#
#
#
# Elastic Compliance Matrix: (Units=1/GPa)
#
#
# Indices 1 2 3 4 5 6 
#
# 1 0.011608 -0.003312 -0.004818 0.000000 -0.002807 0.000000
# 2 -0.003312 0.011887 -0.002019 0.000001 0.000951 -0.000002
# 3 -0.004818 -0.002019 0.015872 0.000001 -0.007831 -0.000002
# 4 0.000000 0.000001 0.000001 0.036807 -0.000003 0.004738
# 5 -0.002807 0.000951 -0.007831 -0.000003 0.037466 0.000004
# 6 0.000000 -0.000002 -0.000002 0.004738 0.000004 0.045221
#
#
# Mechanical properties :
#
#
# Convention : Reuss Voigt Hill
#
# Bulk Modulus (GPa) = 52.44433 62.94655 57.69544
# Shear Modulus (GPa) = 26.95183 29.55334 28.25258
#
# Velocity S-wave (km/s) = 3.75865 3.93587 3.84828
# Velocity P-wave (km/s) = 6.80635 7.32459 7.07022
#
# Compressibility (1/GPa) = 0.01906784
#
# Stress axis : x y z
#
# Youngs Moduli (GPa) = 86.14765 84.12502 63.00417
#
# Poissons Ratio (x) = 0.27866 0.30356
# Poissons Ratio (y) = 0.28536 0.12721
# Poissons Ratio (z) = 0.41506 0.16986
#
# Static dielectric constant tensor:
#      x y z
#    x 3.701760 0.000000 0.188720 
#    y 0.000000 3.421780 0.000010 
#    z 0.188720 0.000010 3.661770 
# 
# 
# High freq. dielectric constant tensor:
#      x y z
#    x 1.747710 0.000000 0.013130 
#    y 0.000000 1.730640 0.000000 
#    z 0.013130 0.000000 1.738470 
# 
# From -- ./inp_files/348490.got.cif
#   From: 2010.06.25/outbox.cif.g09.slc.cpg/sg12_175_cif.got.tgz:348490.got - 2010.06.28 00:19:55.
