data_PCOD8092890
_publ_section_title
;
Structure prediction by ZEFSAII (Michael W. Deem and Ramdas Pophale) SiO2 
 PCOD8092890
Probable space group: C 2/M
;
_chemical_formula_sum "Si O2"
_cell_formula_units_Z 56
_cell_length_a 12.252058
_cell_length_b 22.593926
_cell_length_c 10.340784
_cell_angle_alpha 90.000000
_cell_angle_beta 96.469848
_cell_angle_gamma 90.000000
_cell_volume 2844.326664
_symmetry_space_group_name_H-M "C 2/M"
_symmetry_group_IT_number 12
_symmetry_cell_setting 'monoclinic'
loop_
_space_group_symop_operation_xyz
x,y,z
-x,y,-z
-x,-y,-z
x,-y,z
1/2+x,1/2+y,z
1/2-x,1/2+y,-z
1/2-x,1/2-y,-z
1/2+x,1/2-y,z
loop_
_atom_site_type_symbol
_atom_site_label
_atom_site_fract_x
_atom_site_fract_y
_atom_site_fract_z
Si Si1 0.617980 0.320216 0.482305
Si Si2 0.456726 0.432157 0.669714
Si Si3 0.317286 0.569273 0.173784
Si Si4 0.612236 0.842795 0.839770
Si Si5 0.871460 0.344135 0.853103
Si Si6 0.293458 0.566628 0.878226
Si Si7 0.245041 0.750090 0.703448
O O1 0.500000 0.290480 0.500000
O O2 0.595985 0.390393 0.449052
O O3 0.677335 0.293812 0.365582
O O4 0.695640 0.304532 0.613245
O O5 0.452321 0.500000 0.618363
O O6 0.580384 0.411125 0.722285
O O7 0.394357 0.426033 0.796046
O O8 0.296404 0.500000 0.187570
O O9 0.208364 0.603317 0.204567
O O10 0.337429 0.586098 0.025586
O O11 0.484900 0.855564 0.790134
O O12 0.691398 0.896188 0.809011
O O13 0.649637 0.784349 0.767496
O O14 0.616096 0.838388 0.993337
O O15 0.825154 0.279668 0.816026
O O16 0.249378 0.500000 0.878146
#
# Coordination Sequence:
#
# PCOD8092890 Si02
#       7
#     8   8   8   8   8   8   8
#     4  11  23  37  57  79 107 147 191 233 277 331
#     4  10  19  35  58  83 112 145 186 234 283 335
#     4   9  18  32  54  86 119 147 178 226 285 336
#     4  10  20  37  58  84 113 147 186 229 281 334
#     4  10  21  35  57  84 114 146 186 232 276 334
#     4   9  17  32  56  85 115 146 182 227 282 339
#     4  11  22  39  55  77 112 151 190 233 276 330
#
# _framework density 19.688314999999999
#
# number of rings (size 3 to 8) (size 9 to 14) (size 15 to 20)
#    0.000    2.000    1.429    2.571    0.000    2.571 
#    0.000    5.000    0.000    0.000    0.000    2.000 
#    0.000    0.000    0.000    0.000    0.000    0.000 
#
# Total GULP energy -347008.720844 kJ/mol
# GULP energy per Si atom -12393.168602 kJ/mol
# Density = 1.964350 g / cm^3
# Si number density = 19.688315 Si / 1000 Ang^3
#
#
#
# Elastic Constant Matrix: (Units=GPa)
#
#
# Indices 1 2 3 4 5 6 
#
# 1 141.9711 55.3147 31.6608 0.0000 1.1108 0.0000
# 2 55.3147 102.1965 34.5690 0.0000 17.3440 0.0000
# 3 31.6608 34.5690 31.2525 0.0000 4.6245 0.0000
# 4 0.0000 0.0000 0.0000 18.1127 0.0000 16.0621
# 5 1.1108 17.3440 4.6245 0.0000 19.0216 0.0000
# 6 0.0000 0.0000 0.0000 16.0621 0.0000 23.3607
#
#
#
# Elastic Compliance Matrix: (Units=1/GPa)
#
#
# Indices 1 2 3 4 5 6 
#
# 1 0.010002 -0.004064 -0.006326 0.000000 0.004660 0.000000
# 2 -0.004064 0.019572 -0.015482 0.000000 -0.013844 0.000000
# 3 -0.006326 -0.015482 0.055380 0.000000 0.001023 0.000000
# 4 0.000000 0.000000 0.000000 0.141466 0.000000 -0.097268
# 5 0.004660 -0.013844 0.001023 0.000000 0.064674 0.000000
# 6 0.000000 0.000000 0.000000 -0.097268 0.000000 0.109685
#
#
# Mechanical properties :
#
#
# Convention : Reuss Voigt Hill
#
# Bulk Modulus (GPa) = 30.11361 57.61213 43.86287
# Shear Modulus (GPa) = 10.78532 22.35738 16.57135
#
# Velocity S-wave (km/s) = 2.34306 3.37347 2.90433
# Velocity P-wave (km/s) = 4.75902 6.67078 5.79429
#
# Compressibility (1/GPa) = 0.03320757
#
# Stress axis : x y z
#
# Youngs Moduli (GPa) = 99.98435 51.09456 18.05701
#
# Poissons Ratio (x) = 0.20767 0.11423
# Poissons Ratio (y) = 0.40638 0.27957
# Poissons Ratio (z) = 0.63250 0.79107
#
# Static dielectric constant tensor:
#      x y z
#    x 3.920030 0.000000 -0.050680 
#    y 0.000000 3.571750 0.000000 
#    z -0.050680 0.000000 3.527440 
# 
# 
# High freq. dielectric constant tensor:
#      x y z
#    x 1.774970 0.000000 -0.008540 
#    y 0.000000 1.763270 0.000000 
#    z -0.008540 0.000000 1.763700 
# 
# From -- ./inp_files/133163.got.cif
#   From: 2010.06.25/outbox.cif.g09.slc.cpg/sg12_67_cif.got.tgz:133163.got - 2010.06.28 00:19:55.
