data_PCOD8092069
_publ_section_title
;
Structure prediction by ZEFSAII (Michael W. Deem and Ramdas Pophale) SiO2 
 PCOD8092069
Probable space group: C 2/M
;
_chemical_formula_sum "Si O2"
_cell_formula_units_Z 40
_cell_length_a 27.556257
_cell_length_b 13.104405
_cell_length_c 17.996709
_cell_angle_alpha 90.000000
_cell_angle_beta 161.707963
_cell_angle_gamma 90.000000
_cell_volume 2039.704676
_symmetry_space_group_name_H-M "C 2/M"
_symmetry_group_IT_number 12
_symmetry_cell_setting 'monoclinic'
loop_
_space_group_symop_operation_xyz
x,y,z
-x,y,-z
-x,-y,-z
x,-y,z
1/2+x,1/2+y,z
1/2-x,1/2+y,-z
1/2-x,1/2-y,-z
1/2+x,1/2-y,z
loop_
_atom_site_type_symbol
_atom_site_label
_atom_site_fract_x
_atom_site_fract_y
_atom_site_fract_z
Si Si1 0.177469 0.702728 0.105435
Si Si2 0.631146 0.617669 0.484955
Si Si3 0.612758 0.214095 0.851466
Si Si4 0.591769 0.111714 0.208187
Si Si5 0.599503 0.117311 0.573061
O O1 0.181010 0.662540 0.025459
O O2 0.998284 0.694750 0.872251
O O3 0.285685 0.632521 0.314170
O O4 0.242016 0.818448 0.202127
O O5 0.583590 0.500000 0.409333
O O6 0.478558 0.684591 0.256771
O O7 0.739320 0.650911 0.572223
O O8 0.503151 0.134451 0.649722
O O9 0.750000 0.250000 0.000000
O O10 0.602751 0.000000 0.264418
O O11 0.500000 0.093434 0.000000
O O12 0.500000 0.152114 0.500000
O O13 0.648417 0.000000 0.649921
#
# Coordination Sequence:
#
# PCOD8092069 Si02
#       5
#     8   8   8   8   8
#     4  10  19  34  59  79 109 138 181 222 272 315
#     4   9  20  37  58  83 109 140 181 223 271 325
#     4  11  22  35  54  82 111 141 183 226 265 316
#     4   8  15  32  57  82 107 138 174 221 277 322
#     4  10  21  37  53  72 107 147 180 216 263 320
#
# _framework density 19.610682000000001
#
# number of rings (size 3 to 8) (size 9 to 14) (size 15 to 20)
#    0.000    2.400    2.000    1.800    0.000    4.000 
#    0.000    1.000    0.000   15.000    0.000    0.000 
#    0.000    0.000    0.000    0.000    0.000    0.000 
#
# Total GULP energy -247865.132784 kJ/mol
# GULP energy per Si atom -12393.256639 kJ/mol
# Density = 1.956605 g / cm^3
# Si number density = 19.610682 Si / 1000 Ang^3
#
#
#
# Elastic Constant Matrix: (Units=GPa)
#
#
# Indices 1 2 3 4 5 6 
#
# 1 114.1034 38.1749 40.4425 0.0000 18.1043 0.0000
# 2 38.1749 87.8384 29.1853 0.0000 28.3330 0.0000
# 3 40.4425 29.1853 67.6131 0.0000 20.2731 0.0000
# 4 0.0000 0.0000 0.0000 4.7304 0.0000 3.8142
# 5 18.1043 28.3330 20.2731 0.0000 48.8322 0.0000
# 6 0.0000 0.0000 0.0000 3.8142 0.0000 26.8336
#
#
#
# Elastic Compliance Matrix: (Units=1/GPa)
#
#
# Indices 1 2 3 4 5 6 
#
# 1 0.011877 -0.003222 -0.005658 0.000000 -0.000185 0.000000
# 2 -0.003222 0.015964 -0.002906 0.000000 -0.006861 0.000000
# 3 -0.005658 -0.002906 0.020895 0.000000 -0.004891 0.000000
# 4 0.000000 0.000000 0.000000 0.238766 0.000000 -0.033939
# 5 -0.000185 -0.006861 -0.004891 0.000000 0.026558 0.000000
# 6 0.000000 0.000000 0.000000 -0.033939 0.000000 0.042091
#
#
# Mechanical properties :
#
#
# Convention : Reuss Voigt Hill
#
# Bulk Modulus (GPa) = 39.74026 53.90670 46.82348
# Shear Modulus (GPa) = 12.88293 26.86272 19.87283
#
# Velocity S-wave (km/s) = 2.56585 3.70510 3.18680
# Velocity P-wave (km/s) = 5.39321 6.77139 6.12121
#
# Compressibility (1/GPa) = 0.02516340
#
# Stress axis : x y z
#
# Youngs Moduli (GPa) = 84.19908 62.64234 47.85803
#
# Poissons Ratio (x) = 0.20184 0.27076
# Poissons Ratio (y) = 0.27130 0.13908
# Poissons Ratio (z) = 0.47637 0.18205
#
# Static dielectric constant tensor:
#      x y z
#    x 4.007590 0.000000 0.141250 
#    y 0.000000 3.377510 0.000000 
#    z 0.141250 0.000000 3.625820 
# 
# 
# High freq. dielectric constant tensor:
#      x y z
#    x 1.766210 0.000000 0.006410 
#    y 0.000000 1.743080 0.000000 
#    z 0.006410 0.000000 1.758040 
# 
# From -- ./inp_files/129156.got.cif
#   From: 2010.06.25/outbox.cif.g09.slc.cpg/sg12_65_cif.got.tgz:129156.got - 2010.06.28 00:19:55.
