data_PCOD8092400
_publ_section_title
;
Structure prediction by ZEFSAII (Michael W. Deem and Ramdas Pophale) SiO2 
 PCOD8092400
Probable space group: C 2/M
;
_chemical_formula_sum "Si O2"
_cell_formula_units_Z 56
_cell_length_a 19.116747
_cell_length_b 8.756799
_cell_length_c 26.613759
_cell_angle_alpha 90.000000
_cell_angle_beta 41.820151
_cell_angle_gamma 90.000000
_cell_volume 2970.692342
_symmetry_space_group_name_H-M "C 2/M"
_symmetry_group_IT_number 12
_symmetry_cell_setting 'monoclinic'
loop_
_space_group_symop_operation_xyz
x,y,z
-x,y,-z
-x,-y,-z
x,-y,z
1/2+x,1/2+y,z
1/2-x,1/2+y,-z
1/2-x,1/2-y,-z
1/2+x,1/2-y,z
loop_
_atom_site_type_symbol
_atom_site_label
_atom_site_fract_x
_atom_site_fract_y
_atom_site_fract_z
Si Si1 0.320751 0.320751 0.815221
Si Si2 0.262908 0.821544 0.743477
Si Si3 0.966636 0.682139 0.573216
Si Si4 0.673155 0.819072 0.081707
Si Si5 0.446338 0.321324 0.203676
Si Si6 0.532016 0.831999 0.710864
Si Si7 0.644243 0.164839 0.549629
O O1 0.302462 0.500000 0.831689
O O2 0.260237 0.263194 0.798314
O O3 0.286777 0.236094 0.884844
O O4 0.441507 0.281400 0.741081
O O5 0.353026 0.761286 0.655794
O O6 0.146322 0.789430 0.785762
O O7 0.283470 0.000000 0.742061
O O8 0.964768 0.500000 0.574139
O O9 0.000000 0.744046 0.500000
O O10 0.056475 0.747646 0.562511
O O11 0.555629 0.761285 0.131587
O O12 0.677729 0.000000 0.076035
O O13 0.750000 0.750000 0.000000
O O14 0.469065 0.500000 0.197411
O O15 0.405209 0.249737 0.277854
O O16 0.608697 0.858633 0.624887
O O17 0.487605 0.000000 0.751739
O O18 0.750000 0.250000 0.500000
O O19 0.667016 0.000000 0.512578
#
# Coordination Sequence:
#
# PCOD8092400 Si02
#       7
#     8   8   8   8   8   8   8
#     4  11  21  35  59  87 114 148 192 234 279 338
#     4  10  20  37  58  82 116 154 195 240 289 345
#     4   9  18  34  55  77 106 149 196 240 290 344
#     4  11  22  40  65  90 122 153 186 231 280 338
#     4  10  21  35  58  89 116 148 193 236 280 341
#     4  10  19  35  54  75 108 149 189 237 289 342
#     4  10  21  34  52  75 106 141 188 240 292 348
#
# _framework density 18.850825
#
# number of rings (size 3 to 8) (size 9 to 14) (size 15 to 20)
#    0.000    1.857    1.429    5.143    2.000    2.286 
#    0.000    0.714    0.000    5.143    0.000    0.000 
#    0.000    0.000    0.000    0.000    0.000    0.000 
#
# Total GULP energy -346936.345925 kJ/mol
# GULP energy per Si atom -12390.583783 kJ/mol
# Density = 1.880792 g / cm^3
# Si number density = 18.850825 Si / 1000 Ang^3
#
#
#
# Elastic Constant Matrix: (Units=GPa)
#
#
# Indices 1 2 3 4 5 6 
#
# 1 134.5935 63.7271 66.4740 -0.0001 7.6348 -0.0008
# 2 63.7271 112.2807 48.4711 -0.0001 6.3678 -0.0032
# 3 66.4740 48.4711 123.1821 0.0000 10.3284 0.0001
# 4 -0.0001 -0.0001 0.0000 24.0173 0.0001 2.0508
# 5 7.6348 6.3678 10.3284 0.0001 21.7412 0.0000
# 6 -0.0008 -0.0032 0.0001 2.0508 0.0000 30.8670
#
#
#
# Elastic Compliance Matrix: (Units=1/GPa)
#
#
# Indices 1 2 3 4 5 6 
#
# 1 0.011974 -0.004810 -0.004514 0.000000 -0.000651 0.000000
# 2 -0.004810 0.012691 -0.002320 0.000000 -0.000925 0.000001
# 3 -0.004514 -0.002320 0.011745 0.000000 -0.003315 0.000000
# 4 0.000000 0.000000 0.000000 0.041874 0.000000 -0.002782
# 5 -0.000651 -0.000925 -0.003315 0.000000 0.048070 0.000000
# 6 0.000000 0.000001 0.000000 -0.002782 0.000000 0.032582
#
#
# Mechanical properties :
#
#
# Convention : Reuss Voigt Hill
#
# Bulk Modulus (GPa) = 76.21891 80.82230 78.52060
# Shear Modulus (GPa) = 26.79555 28.08402 27.43979
#
# Velocity S-wave (km/s) = 3.77431 3.86398 3.81941
# Velocity P-wave (km/s) = 7.71455 7.92937 7.82270
#
# Compressibility (1/GPa) = 0.01312010
#
# Stress axis : x y z
#
# Youngs Moduli (GPa) = 83.51606 78.79896 85.14289
#
# Poissons Ratio (x) = 0.37904 0.38434
# Poissons Ratio (y) = 0.40173 0.19755
# Poissons Ratio (z) = 0.37700 0.18283
#
# Static dielectric constant tensor:
#      x y z
#    x 3.578510 0.000000 0.159620 
#    y 0.000000 3.381850 0.000000 
#    z 0.159620 0.000000 3.381760 
# 
# 
# High freq. dielectric constant tensor:
#      x y z
#    x 1.734420 0.000000 0.010530 
#    y 0.000000 1.726050 0.000000 
#    z 0.010530 0.000000 1.726760 
# 
# From -- ./inp_files/342272.got.cif
#   From: 2010.06.25/outbox.cif.g09.slc.cpg/sg12_172_cif.got.tgz:342272.got - 2010.06.28 00:19:55.
