data_PCOD8092984
_publ_section_title
;
Structure prediction by ZEFSAII (Michael W. Deem and Ramdas Pophale) SiO2 
 PCOD8092984
Probable space group: C 2/M
;
_chemical_formula_sum "Si O2"
_cell_formula_units_Z 56
_cell_length_a 13.336187
_cell_length_b 17.483019
_cell_length_c 16.340856
_cell_angle_alpha 90.000000
_cell_angle_beta 43.635843
_cell_angle_gamma 90.000000
_cell_volume 2629.163466
_symmetry_space_group_name_H-M "C 2/M"
_symmetry_group_IT_number 12
_symmetry_cell_setting 'monoclinic'
loop_
_space_group_symop_operation_xyz
x,y,z
-x,y,-z
-x,-y,-z
x,-y,z
1/2+x,1/2+y,z
1/2-x,1/2+y,-z
1/2-x,1/2-y,-z
1/2+x,1/2-y,z
loop_
_atom_site_type_symbol
_atom_site_label
_atom_site_fract_x
_atom_site_fract_y
_atom_site_fract_z
Si Si1 0.837822 0.338474 0.604218
Si Si2 0.380791 0.813882 0.130800
Si Si3 0.282287 0.412671 0.473219
Si Si4 0.120896 0.297534 0.688383
Si Si5 0.930926 0.166346 0.750791
Si Si6 0.102804 0.085427 0.059620
Si Si7 0.321244 0.359903 0.148735
O O1 0.798514 0.407962 0.566676
O O2 0.737358 0.267819 0.639603
O O3 0.818072 0.365679 0.709789
O O4 0.000000 0.309327 0.500000
O O5 0.426342 0.834616 0.197068
O O6 0.216387 0.842374 0.213355
O O7 0.388652 0.724130 0.109523
O O8 0.500000 0.853214 0.000000
O O9 0.282026 0.500000 0.503761
O O10 0.192766 0.361415 0.589688
O O11 0.448740 0.385104 0.365692
O O12 0.984976 0.255290 0.723647
O O13 0.895823 0.140248 0.863388
O O14 0.943131 0.084407 0.114371
O O15 0.145535 0.000000 0.061873
O O16 0.216280 0.115006 0.922344
#
# Coordination Sequence:
#
# PCOD8092984 Si02
#       7
#     8   8   8   8   8   8   8
#     4  10  21  37  65  92 128 163 207 261 320 376
#     4  11  22  40  66  95 123 160 222 269 310 362
#     4  11  24  42  62  92 130 169 214 259 324 385
#     4  10  23  40  65  97 125 165 213 267 309 377
#     4  11  22  40  69  91 127 173 211 263 315 376
#     4  11  20  37  61  92 127 163 204 253 317 381
#     4  10  19  35  58  95 122 159 200 261 313 367
#
# _framework density 21.29955
#
# number of rings (size 3 to 8) (size 9 to 14) (size 15 to 20)
#    0.000    1.429    5.714    3.000    8.000    3.143 
#    0.000    2.143    0.000    3.000    0.000    0.000 
#    0.000    0.000    0.000    0.000    0.000    0.000 
#
# Total GULP energy -347092.643183 kJ/mol
# GULP energy per Si atom -12396.165828 kJ/mol
# Density = 2.125107 g / cm^3
# Si number density = 21.299550 Si / 1000 Ang^3
#
#
#
# Elastic Constant Matrix: (Units=GPa)
#
#
# Indices 1 2 3 4 5 6 
#
# 1 38.3153 14.2680 23.8144 0.0001 0.1754 -0.0001
# 2 14.2680 95.9875 44.4015 0.0000 20.3543 -0.0001
# 3 23.8144 44.4015 151.0339 0.0000 19.8236 0.0000
# 4 0.0001 0.0000 0.0000 17.8306 0.0000 5.2978
# 5 0.1754 20.3543 19.8236 0.0000 35.9887 0.0001
# 6 -0.0001 -0.0001 0.0000 5.2978 0.0001 8.0190
#
#
#
# Elastic Compliance Matrix: (Units=1/GPa)
#
#
# Indices 1 2 3 4 5 6 
#
# 1 0.029989 -0.003347 -0.004284 0.000000 0.004106 0.000001
# 2 -0.003347 0.013426 -0.002614 0.000000 -0.006137 0.000000
# 3 -0.004284 -0.002614 0.008481 0.000000 -0.003173 0.000000
# 4 0.000000 0.000000 0.000000 0.069781 0.000000 -0.046101
# 5 0.004106 -0.006137 -0.003173 0.000000 0.032985 -0.000001
# 6 0.000001 0.000000 0.000000 -0.046101 -0.000001 0.155161
#
#
# Mechanical properties :
#
#
# Convention : Reuss Voigt Hill
#
# Bulk Modulus (GPa) = 31.83921 50.03385 40.93653
# Shear Modulus (GPa) = 14.67216 25.89118 20.28167
#
# Velocity S-wave (km/s) = 2.62744 3.49029 3.08914
# Velocity P-wave (km/s) = 4.91786 6.30749 5.65552
#
# Compressibility (1/GPa) = 0.03140782
#
# Stress axis : x y z
#
# Youngs Moduli (GPa) = 33.34534 74.48215 117.90700
#
# Poissons Ratio (x) = 0.24929 0.50507
# Poissons Ratio (y) = 0.11161 0.30818
# Poissons Ratio (z) = 0.14284 0.19468
#
# Static dielectric constant tensor:
#      x y z
#    x 3.815570 0.000000 0.279130 
#    y 0.000000 3.517420 0.000000 
#    z 0.279130 0.000000 4.270470 
# 
# 
# High freq. dielectric constant tensor:
#      x y z
#    x 1.814040 0.000000 0.015150 
#    y 0.000000 1.799640 0.000000 
#    z 0.015150 0.000000 1.858140 
# 
# From -- ./inp_files/271371.got.cif
#   From: 2010.06.25/outbox.cif.g09.slc.cpg/sg12_136_cif.got.tgz:271371.got - 2010.06.28 00:19:55.
