data_PCOD8092924
_publ_section_title
;
Structure prediction by ZEFSAII (Michael W. Deem and Ramdas Pophale) SiO2 
 PCOD8092924
Probable space group: C 2/M
;
_chemical_formula_sum "Si O2"
_cell_formula_units_Z 40
_cell_length_a 19.061637
_cell_length_b 9.068969
_cell_length_c 24.699214
_cell_angle_alpha 90.000000
_cell_angle_beta 28.460004
_cell_angle_gamma 90.000000
_cell_volume 2034.723131
_symmetry_space_group_name_H-M "C 2/M"
_symmetry_group_IT_number 12
_symmetry_cell_setting 'monoclinic'
loop_
_space_group_symop_operation_xyz
x,y,z
-x,y,-z
-x,-y,-z
x,-y,z
1/2+x,1/2+y,z
1/2-x,1/2+y,-z
1/2-x,1/2-y,-z
1/2+x,1/2-y,z
loop_
_atom_site_type_symbol
_atom_site_label
_atom_site_fract_x
_atom_site_fract_y
_atom_site_fract_z
Si Si1 0.369431 0.326021 0.832300
Si Si2 0.456465 0.825112 0.968736
Si Si3 0.418978 0.674194 0.216312
Si Si4 0.369576 0.331252 0.551285
Si Si5 0.101083 0.832368 0.590838
O O1 0.358673 0.500000 0.833254
O O2 0.205525 0.261766 0.936098
O O3 0.440065 0.281840 0.842191
O O4 0.470431 0.261388 0.715284
O O5 0.467866 0.000000 0.954052
O O6 0.500000 0.777901 0.000000
O O7 0.568844 0.750383 0.850469
O O8 0.407699 0.500000 0.216489
O O9 0.273388 0.730162 0.345401
O O10 0.500000 0.270573 0.500000
O O11 0.326988 0.500000 0.594528
O O12 0.438898 0.319921 0.444733
O O13 0.250000 0.750000 0.500000
O O14 0.124986 0.000000 0.593313
#
# Coordination Sequence:
#
# PCOD8092924 Si02
#       5
#     8   8   8   8   8
#     4   9  19  36  58  84 113 149 188 231 281 330
#     4  10  22  39  62  85 110 147 192 238 282 332
#     4  11  22  38  59  82 117 152 186 233 283 341
#     4  10  22  37  59  87 115 149 191 236 277 331
#     4  10  19  35  58  84 116 146 184 231 279 335
#
# _framework density 19.658694000000001
#
# number of rings (size 3 to 8) (size 9 to 14) (size 15 to 20)
#    0.000    2.000    2.000    1.200    2.800    0.800 
#    0.000    2.000    0.000    0.000    0.000    0.000 
#    0.000    0.000    0.000    0.000    0.000    0.000 
#
# Total GULP energy -248014.105211 kJ/mol
# GULP energy per Si atom -12400.705261 kJ/mol
# Density = 1.961395 g / cm^3
# Si number density = 19.658694 Si / 1000 Ang^3
#
#
#
# Elastic Constant Matrix: (Units=GPa)
#
#
# Indices 1 2 3 4 5 6 
#
# 1 113.2806 32.5901 26.9348 0.0023 3.7504 0.0000
# 2 32.5901 45.3456 22.2215 -0.0039 4.4005 0.0003
# 3 26.9348 22.2215 80.2302 -0.0037 12.6655 0.0002
# 4 0.0023 -0.0039 -0.0037 29.5454 0.0001 0.3459
# 5 3.7504 4.4005 12.6655 0.0001 40.8911 0.0001
# 6 0.0000 0.0003 0.0002 0.3459 0.0001 22.8535
#
#
#
# Elastic Compliance Matrix: (Units=1/GPa)
#
#
# Indices 1 2 3 4 5 6 
#
# 1 0.011351 -0.007286 -0.001842 -0.000002 0.000314 0.000000
# 2 -0.007286 0.030206 -0.005796 0.000004 -0.000787 0.000000
# 3 -0.001842 -0.005796 0.015312 0.000001 -0.003950 0.000000
# 4 -0.000002 0.000004 0.000001 0.033852 -0.000001 -0.000512
# 5 0.000314 -0.000787 -0.003950 -0.000001 0.025735 0.000000
# 6 0.000000 0.000000 0.000000 -0.000512 0.000000 0.043765
#
#
# Mechanical properties :
#
#
# Convention : Reuss Voigt Hill
#
# Bulk Modulus (GPa) = 37.00903 44.70548 40.85726
# Shear Modulus (GPa) = 25.11605 29.13199 27.12402
#
# Velocity S-wave (km/s) = 3.57824 3.85371 3.71852
# Velocity P-wave (km/s) = 5.99486 6.52622 6.26618
#
# Compressibility (1/GPa) = 0.02702043
#
# Stress axis : x y z
#
# Youngs Moduli (GPa) = 88.09462 33.10602 65.31035
#
# Poissons Ratio (x) = 0.24121 0.12033
# Poissons Ratio (y) = 0.64185 0.37853
# Poissons Ratio (z) = 0.16230 0.19188
#
# Static dielectric constant tensor:
#      x y z
#    x 3.913230 0.000000 0.165120 
#    y 0.000000 3.313710 0.000000 
#    z 0.165120 0.000000 3.863640 
# 
# 
# High freq. dielectric constant tensor:
#      x y z
#    x 1.777250 0.000000 0.007530 
#    y 0.000000 1.736000 0.000000 
#    z 0.007530 0.000000 1.774460 
# 
# From -- ./inp_files/83357.got.cif
#   From: 2010.06.25/outbox.cif.g09.slc.cpg/sg12_42_cif.got.tgz:83357.got - 2010.06.28 00:19:55.
