data_PCOD8092224
_publ_section_title
;
Structure prediction by ZEFSAII (Michael W. Deem and Ramdas Pophale) SiO2 
 PCOD8092224
Probable space group: C 2/M
;
_chemical_formula_sum "Si O2"
_cell_formula_units_Z 48
_cell_length_a 29.354151
_cell_length_b 9.243758
_cell_length_c 19.004365
_cell_angle_alpha 90.000000
_cell_angle_beta 148.462032
_cell_angle_gamma 90.000000
_cell_volume 2697.278816
_symmetry_space_group_name_H-M "C 2/M"
_symmetry_group_IT_number 12
_symmetry_cell_setting 'monoclinic'
loop_
_space_group_symop_operation_xyz
x,y,z
-x,y,-z
-x,-y,-z
x,-y,z
1/2+x,1/2+y,z
1/2-x,1/2+y,-z
1/2-x,1/2-y,-z
1/2+x,1/2-y,z
loop_
_atom_site_type_symbol
_atom_site_label
_atom_site_fract_x
_atom_site_fract_y
_atom_site_fract_z
Si Si1 0.760698 0.165127 0.085222
Si Si2 0.711599 0.332343 0.383557
Si Si3 0.901223 0.829214 0.382926
Si Si4 0.140887 0.665269 0.052615
Si Si5 0.721178 0.168277 0.678822
Si Si6 0.039601 0.336403 0.128661
O O1 0.844445 0.217558 0.240337
O O2 0.673970 0.190861 0.016990
O O3 0.773130 0.000000 0.080310
O O4 0.750000 0.250000 0.000000
O O5 0.704695 0.500000 0.393353
O O6 0.750000 0.250000 0.500000
O O7 0.774537 0.307510 0.399416
O O8 0.615220 0.276712 0.240906
O O9 0.863892 0.749227 0.402769
O O10 0.000000 0.779782 0.500000
O O11 0.893706 0.000000 0.386537
O O12 0.160714 0.500000 0.102491
O O13 0.190341 0.769122 0.171726
O O14 0.037844 0.695842 0.917768
O O15 0.714868 0.000000 0.689837
O O16 0.075298 0.500000 0.184901
O O17 0.000000 0.313864 0.000000
#
# Coordination Sequence:
#
# PCOD8092224 Si02
#       6
#     8   8   8   8   8   8
#     4   9  18  33  53  77 107 138 170 213 265 314
#     4  11  24  39  55  79 114 149 183 227 276 324
#     4   9  19  37  59  79 103 139 183 222 263 325
#     4   9  18  34  56  81 107 142 181 218 265 324
#     4  10  20  34  55  82 109 139 179 228 273 317
#     4  10  19  34  60  85 107 140 182 224 270 327
#
# _framework density 17.795714
#
# number of rings (size 3 to 8) (size 9 to 14) (size 15 to 20)
#    0.000    2.333    1.667    2.000    0.000    6.000 
#    3.000    0.000    0.000    0.000    0.000    0.000 
#    0.000    0.000    0.000    0.000    0.000    0.000 
#
# Total GULP energy -297603.425630 kJ/mol
# GULP energy per Si atom -12400.142735 kJ/mol
# Density = 1.775521 g / cm^3
# Si number density = 17.795714 Si / 1000 Ang^3
#
#
#
# Elastic Constant Matrix: (Units=GPa)
#
#
# Indices 1 2 3 4 5 6 
#
# 1 134.6580 69.6919 71.1350 0.0000 7.7441 0.0000
# 2 69.6919 101.0153 55.5191 0.0000 -2.3391 0.0000
# 3 71.1350 55.5191 85.4233 0.0000 7.1835 0.0000
# 4 0.0000 0.0000 0.0000 27.4868 0.0000 -4.9997
# 5 7.7441 -2.3391 7.1835 0.0000 31.0537 0.0000
# 6 0.0000 0.0000 0.0000 -4.9997 0.0000 31.1666
#
#
#
# Elastic Compliance Matrix: (Units=1/GPa)
#
#
# Indices 1 2 3 4 5 6 
#
# 1 0.015077 -0.005683 -0.008679 0.000000 -0.002180 0.000000
# 2 -0.005683 0.017935 -0.007299 0.000000 0.004457 0.000000
# 3 -0.008679 -0.007299 0.024009 0.000000 -0.003939 0.000000
# 4 0.000000 0.000000 0.000000 0.037475 0.000000 0.006012
# 5 -0.002180 0.004457 -0.003939 0.000000 0.033993 0.000000
# 6 0.000000 0.000000 0.000000 0.006012 0.000000 0.033050
#
#
# Mechanical properties :
#
#
# Convention : Reuss Voigt Hill
#
# Bulk Modulus (GPa) = 72.99278 79.30986 76.15132
# Shear Modulus (GPa) = 23.87480 26.25812 25.06646
#
# Velocity S-wave (km/s) = 3.66676 3.84543 3.75716
# Velocity P-wave (km/s) = 7.68329 8.02372 7.85535
#
# Compressibility (1/GPa) = 0.01369999
#
# Stress axis : x y z
#
# Youngs Moduli (GPa) = 66.32484 55.75742 41.65168
#
# Poissons Ratio (x) = 0.31685 0.36148
# Poissons Ratio (y) = 0.37690 0.30402
# Poissons Ratio (z) = 0.57562 0.40698
#
# Static dielectric constant tensor:
#      x y z
#    x 1.052210 0.000000 -4.951200 
#    y 0.000000 3.319670 0.000000 
#    z -4.951200 0.000000 -7.345530 
# 
# 
# High freq. dielectric constant tensor:
#      x y z
#    x 1.700270 0.000000 0.007860 
#    y 0.000000 1.690340 0.000000 
#    z 0.007860 0.000000 1.668410 
# 
# From -- ./inp_files/280794.got.cif
#   From: 2010.06.25/outbox.cif.g09.slc.cpg/sg12_141_cif.got.tgz:280794.got - 2010.06.28 00:19:55.
