data_PCOD8092005
_publ_section_title
;
Structure prediction by ZEFSAII (Michael W. Deem and Ramdas Pophale) SiO2 
 PCOD8092005
Probable space group: C 2/M
;
_chemical_formula_sum "Si O2"
_cell_formula_units_Z 48
_cell_length_a 20.356848
_cell_length_b 18.272771
_cell_length_c 9.496751
_cell_angle_alpha 90.000000
_cell_angle_beta 131.108598
_cell_angle_gamma 90.000000
_cell_volume 2661.662143
_symmetry_space_group_name_H-M "C 2/M"
_symmetry_group_IT_number 12
_symmetry_cell_setting 'monoclinic'
loop_
_space_group_symop_operation_xyz
x,y,z
-x,y,-z
-x,-y,-z
x,-y,z
1/2+x,1/2+y,z
1/2-x,1/2+y,-z
1/2-x,1/2-y,-z
1/2+x,1/2-y,z
loop_
_atom_site_type_symbol
_atom_site_label
_atom_site_fract_x
_atom_site_fract_y
_atom_site_fract_z
Si Si1 0.859750 0.417044 0.510166
Si Si2 0.714339 0.166133 0.103994
Si Si3 0.536316 0.915090 0.899774
Si Si4 0.098052 0.913360 0.130509
Si Si5 0.222739 0.916809 0.550440
Si Si6 0.267826 0.336429 0.866046
O O1 0.843758 0.500000 0.432950
O O2 0.814382 0.408139 0.598516
O O3 0.819232 0.361332 0.340106
O O4 0.962102 0.401815 0.676613
O O5 0.776772 0.130667 0.308467
O O6 0.713705 0.251751 0.134107
O O7 0.616866 0.135316 0.972184
O O8 0.755688 0.146557 0.012521
O O9 0.565850 0.000000 0.944019
O O10 0.500000 0.891425 0.000000
O O11 0.145494 0.888357 0.340696
O O12 0.147273 0.880010 0.065892
O O13 0.101637 0.000000 0.118130
O O14 0.000000 0.883427 0.000000
O O15 0.206203 0.000000 0.572135
#
# Coordination Sequence:
#
# PCOD8092005 Si02
#       6
#     8   8   8   8   8   8
#     4   9  18  35  58  83 109 141 182 228 270 320
#     4  11  22  36  52  79 117 149 176 216 269 327
#     4  10  19  34  58  87 113 137 180 230 270 322
#     4   9  19  38  60  80 102 134 184 234 267 310
#     4   9  17  33  58  82 105 138 179 222 269 317
#     4  10  23  38  51  77 115 149 181 216 269 327
#
# _framework density 18.033844999999999
#
# number of rings (size 3 to 8) (size 9 to 14) (size 15 to 20)
#    0.000    2.333    1.667    2.000    0.000    6.667 
#    3.000    2.500    0.000    3.000    0.000    0.000 
#    0.000    0.000    0.000    0.000    0.000    0.000 
#
# Total GULP energy -297629.159783 kJ/mol
# GULP energy per Si atom -12401.214991 kJ/mol
# Density = 1.799280 g / cm^3
# Si number density = 18.033845 Si / 1000 Ang^3
#
#
#
# Elastic Constant Matrix: (Units=GPa)
#
#
# Indices 1 2 3 4 5 6 
#
# 1 105.2999 61.0431 73.5696 0.0000 7.4903 0.0000
# 2 61.0431 83.9383 60.6014 0.0000 -3.1429 0.0000
# 3 73.5696 60.6014 112.4832 0.0000 5.2922 0.0000
# 4 0.0000 0.0000 0.0000 25.0129 0.0000 -7.2689
# 5 7.4903 -3.1429 5.2922 0.0000 31.9219 0.0000
# 6 0.0000 0.0000 0.0000 -7.2689 0.0000 18.1498
#
#
#
# Elastic Compliance Matrix: (Units=1/GPa)
#
#
# Indices 1 2 3 4 5 6 
#
# 1 0.021336 -0.009431 -0.008662 0.000000 -0.004499 0.000000
# 2 -0.009431 0.024107 -0.007091 0.000000 0.005762 0.000000
# 3 -0.008662 -0.007091 0.018457 0.000000 -0.001726 0.000000
# 4 0.000000 0.000000 0.000000 0.045245 0.000000 0.018121
# 5 -0.004499 0.005762 -0.001726 0.000000 0.033235 0.000000
# 6 0.000000 0.000000 0.000000 0.018121 0.000000 0.062354
#
#
# Mechanical properties :
#
#
# Convention : Reuss Voigt Hill
#
# Bulk Modulus (GPa) = 73.89577 76.90550 75.40063
# Shear Modulus (GPa) = 19.25945 22.11741 20.68843
#
# Velocity S-wave (km/s) = 3.27151 3.50585 3.39071
# Velocity P-wave (km/s) = 7.43878 7.68932 7.56509
#
# Compressibility (1/GPa) = 0.01353258
#
# Stress axis : x y z
#
# Youngs Moduli (GPa) = 46.86987 41.48159 54.17995
#
# Poissons Ratio (x) = 0.39120 0.46931
# Poissons Ratio (y) = 0.44202 0.38418
# Poissons Ratio (z) = 0.40599 0.29414
#
# Static dielectric constant tensor:
#      x y z
#    x 3.258270 0.000000 0.103080 
#    y 0.000000 3.255760 0.000000 
#    z 0.103080 0.000000 3.420200 
# 
# 
# High freq. dielectric constant tensor:
#      x y z
#    x 1.685590 0.000000 0.004000 
#    y 0.000000 1.691530 0.000000 
#    z 0.004000 0.000000 1.705970 
# 
# From -- ./inp_files/75056.got.cif
#   From: 2010.06.25/outbox.cif.g09.slc.cpg/sg12_38_cif.got.tgz:75056.got - 2010.06.28 00:19:55.
