data_PCOD8092436
_publ_section_title
;
Structure prediction by ZEFSAII (Michael W. Deem and Ramdas Pophale) SiO2 
 PCOD8092436
Probable space group: C 2/M
;
_chemical_formula_sum "Si O2"
_cell_formula_units_Z 64
_cell_length_a 19.089403
_cell_length_b 11.704450
_cell_length_c 16.086701
_cell_angle_alpha 90.000000
_cell_angle_beta 89.409339
_cell_angle_gamma 90.000000
_cell_volume 3594.076106
_symmetry_space_group_name_H-M "C 2/M"
_symmetry_group_IT_number 12
_symmetry_cell_setting 'monoclinic'
loop_
_space_group_symop_operation_xyz
x,y,z
-x,y,-z
-x,-y,-z
x,-y,z
1/2+x,1/2+y,z
1/2-x,1/2+y,-z
1/2-x,1/2-y,-z
1/2+x,1/2-y,z
loop_
_atom_site_type_symbol
_atom_site_label
_atom_site_fract_x
_atom_site_fract_y
_atom_site_fract_z
Si Si1 0.859744 0.130744 0.404413
Si Si2 0.640913 0.869047 0.187811
Si Si3 0.855107 0.629490 0.166509
Si Si4 0.747509 0.758756 0.710523
Si Si5 0.994191 0.368299 0.240687
Si Si6 0.001851 0.743872 0.406782
Si Si7 0.144502 0.869841 0.407902
Si Si8 0.703589 0.866172 0.008427
O O1 0.814065 0.203202 0.341675
O O2 0.941990 0.160229 0.398526
O O3 0.831886 0.155044 0.497769
O O4 0.850747 0.000000 0.379021
O O5 0.698850 0.831733 0.253029
O O6 0.565586 0.808714 0.205946
O O7 0.661262 0.846750 0.092901
O O8 0.630603 0.000000 0.208073
O O9 0.857328 0.500000 0.197024
O O10 0.786320 0.681321 0.209419
O O11 0.927105 0.690302 0.196164
O O12 0.850067 0.639773 0.067338
O O13 0.789721 0.846294 0.652215
O O14 0.994633 0.500000 0.216484
O O15 0.987379 0.355374 0.340409
O O16 0.000000 0.691643 0.500000
O O17 0.077291 0.795722 0.384251
O O18 0.121323 0.000000 0.398145
O O19 0.736987 0.000000 0.008562
O O20 0.750000 0.750000 0.000000
#
# Coordination Sequence:
#
# PCOD8092436 Si02
#       8
#     8   8   8   8   8   8   8   8
#     4  10  21  35  52  76 106 142 184 228 272 325
#     4  10  21  35  56  82 109 141 181 226 274 328
#     4  10  21  35  56  82 109 141 181 226 274 328
#     4  12  19  33  56  78 110 138 180 219 283 328
#     4  10  20  37  55  78 109 140 182 230 267 323
#     4  10  19  35  55  74 102 143 184 226 271 325
#     4  10  21  35  52  76 106 142 184 228 272 325
#     4  10  20  37  59  89 117 149 184 226 284 338
#
# _framework density 17.807081
#
# number of rings (size 3 to 8) (size 9 to 14) (size 15 to 20)
#    0.000    1.750    3.750    1.500    0.000    2.250 
#    0.000    2.500    0.000    0.000    0.000    0.875 
#    0.000    0.000    0.000    0.000    0.000    0.000 
#
# Total GULP energy -396520.753734 kJ/mol
# GULP energy per Si atom -12391.273554 kJ/mol
# Density = 1.776655 g / cm^3
# Si number density = 17.807081 Si / 1000 Ang^3
#
#
#
# Elastic Constant Matrix: (Units=GPa)
#
#
# Indices 1 2 3 4 5 6 
#
# 1 94.4202 20.9518 34.8153 0.0000 3.8077 0.0000
# 2 20.9518 49.7244 20.3055 0.0000 1.0530 0.0000
# 3 34.8153 20.3055 96.8082 0.0000 3.3252 0.0000
# 4 0.0000 0.0000 0.0000 26.1814 0.0000 1.7536
# 5 3.8077 1.0530 3.3252 0.0000 28.5132 0.0000
# 6 0.0000 0.0000 0.0000 1.7536 0.0000 21.9417
#
#
#
# Elastic Compliance Matrix: (Units=1/GPa)
#
#
# Indices 1 2 3 4 5 6 
#
# 1 0.012890 -0.003861 -0.003787 0.000000 -0.001137 0.000000
# 2 -0.003861 0.023153 -0.003470 0.000000 0.000065 0.000000
# 3 -0.003787 -0.003470 0.012447 0.000000 -0.000818 0.000000
# 4 0.000000 0.000000 0.000000 0.038401 0.000000 -0.003069
# 5 -0.001137 0.000065 -0.000818 0.000000 0.035316 0.000000
# 6 0.000000 0.000000 0.000000 -0.003069 0.000000 0.045821
#
#
# Mechanical properties :
#
#
# Convention : Reuss Voigt Hill
#
# Bulk Modulus (GPa) = 38.08767 43.67756 40.88262
# Shear Modulus (GPa) = 25.12371 26.31928 25.72149
#
# Velocity S-wave (km/s) = 3.76025 3.84868 3.80472
# Velocity P-wave (km/s) = 6.34729 6.65817 6.50459
#
# Compressibility (1/GPa) = 0.02625522
#
# Stress axis : x y z
#
# Youngs Moduli (GPa) = 77.58080 43.19037 80.33748
#
# Poissons Ratio (x) = 0.16675 0.30422
# Poissons Ratio (y) = 0.29952 0.27878
# Poissons Ratio (z) = 0.29378 0.14988
#
# Static dielectric constant tensor:
#      x y z
#    x 3.515410 0.000000 0.000850 
#    y 0.000000 3.240540 0.000000 
#    z 0.000850 0.000000 3.374350 
# 
# 
# High freq. dielectric constant tensor:
#      x y z
#    x 1.694440 0.000000 0.001900 
#    y 0.000000 1.670260 0.000000 
#    z 0.001900 0.000000 1.700290 
# 
# From -- ./inp_files/223823.got.cif
#   From: 2010.06.25/outbox.cif.g09.slc.cpg/sg12_112_cif.got.tgz:223823.got - 2010.06.28 00:19:55.
