data_PCOD8092888
_publ_section_title
;
Structure prediction by ZEFSAII (Michael W. Deem and Ramdas Pophale) SiO2 
 PCOD8092888
Probable space group: C 2/M
;
_chemical_formula_sum "Si O2"
_cell_formula_units_Z 48
_cell_length_a 17.906195
_cell_length_b 14.476397
_cell_length_c 9.479423
_cell_angle_alpha 90.000000
_cell_angle_beta 93.885946
_cell_angle_gamma 90.000000
_cell_volume 2451.580033
_symmetry_space_group_name_H-M "C 2/M"
_symmetry_group_IT_number 12
_symmetry_cell_setting 'monoclinic'
loop_
_space_group_symop_operation_xyz
x,y,z
-x,y,-z
-x,-y,-z
x,-y,z
1/2+x,1/2+y,z
1/2-x,1/2+y,-z
1/2-x,1/2-y,-z
1/2+x,1/2-y,z
loop_
_atom_site_type_symbol
_atom_site_label
_atom_site_fract_x
_atom_site_fract_y
_atom_site_fract_z
Si Si1 0.353755 0.285385 0.116441
Si Si2 0.339371 0.608459 0.832323
Si Si3 0.780232 0.292109 0.360802
Si Si4 0.496037 0.601220 0.165162
Si Si5 0.567558 0.103146 0.595682
Si Si6 0.069632 0.397134 0.915402
O O1 0.294918 0.284097 0.239074
O O2 0.431118 0.325737 0.193283
O O3 0.365592 0.179875 0.062711
O O4 0.322308 0.343456 0.981275
O O5 0.336563 0.500000 0.861675
O O6 0.278446 0.634078 0.707770
O O7 0.421080 0.637031 0.779566
O O8 0.750000 0.250000 0.500000
O O9 0.857065 0.340175 0.413001
O O10 0.478481 0.500000 0.231131
O O11 0.500000 0.588486 0.000000
O O12 0.500000 0.150396 0.500000
O O13 0.540503 0.099941 0.752691
O O14 0.582414 0.000000 0.539059
O O15 0.099333 0.500000 0.963587
O O16 0.000000 0.365393 0.000000
#
# Coordination Sequence:
#
# PCOD8092888 Si02
#       6
#     8   8   8   8   8   8
#     4  10  19  35  58  83 111 149 194 233 274 333
#     4  10  20  38  62  85 113 147 186 236 289 337
#     4  11  24  37  52  80 119 155 185 225 282 340
#     4   8  15  30  56  85 107 135 183 240 287 327
#     4   9  19  37  57  74 101 146 191 226 267 325
#     4   9  17  29  50  83 114 138 175 231 284 327
#
# _framework density 19.579208999999999
#
# number of rings (size 3 to 8) (size 9 to 14) (size 15 to 20)
#    0.000    2.500    0.000    4.000    0.000    4.667 
#    0.000    3.333    0.000    3.000    0.000    0.000 
#    0.000    0.000    0.000    0.000    0.000    0.000 
#
# Total GULP energy -297443.772454 kJ/mol
# GULP energy per Si atom -12393.490519 kJ/mol
# Density = 1.953465 g / cm^3
# Si number density = 19.579209 Si / 1000 Ang^3
#
#
#
# Elastic Constant Matrix: (Units=GPa)
#
#
# Indices 1 2 3 4 5 6 
#
# 1 112.0768 37.0884 54.0820 0.0000 11.5230 0.0000
# 2 37.0884 87.3592 43.2245 0.0000 -0.6356 0.0000
# 3 54.0820 43.2245 93.9030 0.0000 -7.8515 0.0000
# 4 0.0000 0.0000 0.0000 19.7299 0.0000 10.7345
# 5 11.5230 -0.6356 -7.8515 0.0000 42.2043 0.0000
# 6 0.0000 0.0000 0.0000 10.7345 0.0000 17.2219
#
#
#
# Elastic Compliance Matrix: (Units=1/GPa)
#
#
# Indices 1 2 3 4 5 6 
#
# 1 0.013714 -0.002252 -0.007291 0.000000 -0.005135 0.000000
# 2 -0.002252 0.015240 -0.005737 0.000000 -0.000223 0.000000
# 3 -0.007291 -0.005737 0.017927 0.000000 0.005239 0.000000
# 4 0.000000 0.000000 0.000000 0.076693 0.000000 -0.047803
# 5 -0.005135 -0.000223 0.005239 0.000000 0.026068 0.000000
# 6 0.000000 0.000000 0.000000 -0.047803 0.000000 0.087862
#
#
# Mechanical properties :
#
#
# Convention : Reuss Voigt Hill
#
# Bulk Modulus (GPa) = 61.26892 62.45879 61.86385
# Shear Modulus (GPa) = 18.28136 26.42751 22.35443
#
# Velocity S-wave (km/s) = 3.05899 3.67791 3.38264
# Velocity P-wave (km/s) = 6.62098 7.07148 6.84993
#
# Compressibility (1/GPa) = 0.01632149
#
# Stress axis : x y z
#
# Youngs Moduli (GPa) = 72.91921 65.61703 55.78146
#
# Poissons Ratio (x) = 0.14778 0.40670
# Poissons Ratio (y) = 0.16422 0.32000
# Poissons Ratio (z) = 0.53165 0.37642
#
# Static dielectric constant tensor:
#      x y z
#    x 4.049870 0.000000 0.072290 
#    y 0.000000 3.797830 0.000000 
#    z 0.072290 0.000000 3.409420 
# 
# 
# High freq. dielectric constant tensor:
#      x y z
#    x 1.762400 0.000000 0.003770 
#    y 0.000000 1.765370 0.000000 
#    z 0.003770 0.000000 1.734020 
# 
# From -- ./inp_files/73650.got.cif
#   From: 2010.06.25/outbox.cif.g09.slc.cpg/sg12_37_cif.got.tgz:73650.got - 2010.06.28 00:19:55.
