data_PCOD8092371
_publ_section_title
;
Structure prediction by ZEFSAII (Michael W. Deem and Ramdas Pophale) SiO2 
 PCOD8092371
Probable space group: C 2/M
;
_chemical_formula_sum "Si O2"
_cell_formula_units_Z 48
_cell_length_a 22.691127
_cell_length_b 13.454023
_cell_length_c 14.880890
_cell_angle_alpha 90.000000
_cell_angle_beta 143.301411
_cell_angle_gamma 90.000000
_cell_volume 2714.886345
_symmetry_space_group_name_H-M "C 2/M"
_symmetry_group_IT_number 12
_symmetry_cell_setting 'monoclinic'
loop_
_space_group_symop_operation_xyz
x,y,z
-x,y,-z
-x,-y,-z
x,-y,z
1/2+x,1/2+y,z
1/2-x,1/2+y,-z
1/2-x,1/2-y,-z
1/2+x,1/2-y,z
loop_
_atom_site_type_symbol
_atom_site_label
_atom_site_fract_x
_atom_site_fract_y
_atom_site_fract_z
Si Si1 0.608709 0.770384 0.598505
Si Si2 0.620986 0.221771 0.924604
Si Si3 0.783354 0.383689 0.122208
Si Si4 0.603188 0.773552 0.384232
Si Si5 0.263871 0.887764 0.578559
Si Si6 0.772755 0.385135 0.793784
O O1 0.500000 0.747452 0.500000
O O2 0.658779 0.859730 0.715074
O O3 0.607947 0.803587 0.494264
O O4 0.669021 0.668619 0.687834
O O5 0.647978 0.148085 0.876566
O O6 0.506981 0.249992 0.781251
O O7 0.680410 0.324889 0.990987
O O8 0.641468 0.164643 0.042579
O O9 0.759926 0.500000 0.088979
O O10 0.647159 0.864275 0.380533
O O11 0.667008 0.676354 0.439968
O O12 0.303357 0.870129 0.727776
O O13 0.229915 0.000000 0.522684
O O14 0.759603 0.500000 0.803708
#
# Coordination Sequence:
#
# PCOD8092371 Si02
#       6
#     8   8   8   8   8   8
#     4  10  19  35  53  76 108 139 174 215 263 312
#     4  10  20  35  53  77 109 139 173 217 263 310
#     4  10  21  35  51  76 110 144 175 209 257 319
#     4  10  20  36  56  78 106 138 174 220 263 306
#     4   9  20  37  56  78 103 136 179 220 260 308
#     4   9  19  35  54  77 106 137 174 218 262 313
#
# _framework density 17.680298000000001
#
# number of rings (size 3 to 8) (size 9 to 14) (size 15 to 20)
#    0.000    2.333    1.667    0.500    0.000    4.000 
#    0.000    1.667    0.000    0.000    0.000    9.333 
#    0.000    0.000    0.000    0.000    0.000    0.000 
#
# Total GULP energy -297659.351100 kJ/mol
# GULP energy per Si atom -12402.472962 kJ/mol
# Density = 1.764006 g / cm^3
# Si number density = 17.680298 Si / 1000 Ang^3
#
#
#
# Elastic Constant Matrix: (Units=GPa)
#
#
# Indices 1 2 3 4 5 6 
#
# 1 111.4266 44.5297 59.2986 0.0000 -1.5974 0.0000
# 2 44.5297 117.4853 47.6814 0.0000 -6.9243 0.0000
# 3 59.2986 47.6814 126.7759 0.0000 5.2740 0.0000
# 4 0.0000 0.0000 0.0000 16.0354 0.0000 -6.2306
# 5 -1.5974 -6.9243 5.2740 0.0000 25.7587 0.0000
# 6 0.0000 0.0000 0.0000 -6.2306 0.0000 21.0533
#
#
#
# Elastic Compliance Matrix: (Units=1/GPa)
#
#
# Indices 1 2 3 4 5 6 
#
# 1 0.012730 -0.002747 -0.004966 0.000000 0.001068 0.000000
# 2 -0.002747 0.010961 -0.002979 0.000000 0.003386 0.000000
# 3 -0.004966 -0.002979 0.011475 0.000000 -0.003458 0.000000
# 4 0.000000 0.000000 0.000000 0.070465 0.000000 0.020854
# 5 0.001068 0.003386 -0.003458 0.000000 0.040506 0.000000
# 6 0.000000 0.000000 0.000000 0.020854 0.000000 0.053670
#
#
# Mechanical properties :
#
#
# Convention : Reuss Voigt Hill
#
# Bulk Modulus (GPa) = 72.54908 73.18965 72.86937
# Shear Modulus (GPa) = 22.14500 26.18135 24.16317
#
# Velocity S-wave (km/s) = 3.54294 3.85232 3.70086
# Velocity P-wave (km/s) = 7.60654 7.82772 7.71792
#
# Compressibility (1/GPa) = 0.01378377
#
# Stress axis : x y z
#
# Youngs Moduli (GPa) = 78.55336 91.23046 87.14716
#
# Poissons Ratio (x) = 0.25059 0.43276
# Poissons Ratio (y) = 0.21576 0.25959
# Poissons Ratio (z) = 0.39008 0.27175
#
# Static dielectric constant tensor:
#      x y z
#    x 3.391940 0.000000 -0.184430 
#    y 0.000000 3.180910 0.000000 
#    z -0.184430 0.000000 3.345100 
# 
# 
# High freq. dielectric constant tensor:
#      x y z
#    x 1.687920 0.000000 -0.011320 
#    y 0.000000 1.676950 0.000000 
#    z -0.011320 0.000000 1.688640 
# 
# From -- ./inp_files/233354.got.cif
#   From: 2010.06.25/outbox.cif.g09.slc.cpg/sg12_117_cif.got.tgz:233354.got - 2010.06.28 00:19:55.
