data_PCOD8092655
_publ_section_title
;
Structure prediction by ZEFSAII (Michael W. Deem and Ramdas Pophale) SiO2 
 PCOD8092655
Probable space group: C 2/M
;
_chemical_formula_sum "Si O2"
_cell_formula_units_Z 48
_cell_length_a 25.106899
_cell_length_b 8.884960
_cell_length_c 11.786579
_cell_angle_alpha 90.000000
_cell_angle_beta 89.342483
_cell_angle_gamma 90.000000
_cell_volume 2629.103759
_symmetry_space_group_name_H-M "C 2/M"
_symmetry_group_IT_number 12
_symmetry_cell_setting 'monoclinic'
loop_
_space_group_symop_operation_xyz
x,y,z
-x,y,-z
-x,-y,-z
x,-y,z
1/2+x,1/2+y,z
1/2-x,1/2+y,-z
1/2-x,1/2-y,-z
1/2+x,1/2-y,z
loop_
_atom_site_type_symbol
_atom_site_label
_atom_site_fract_x
_atom_site_fract_y
_atom_site_fract_z
Si Si1 0.491199 0.676137 0.130347
Si Si2 0.587369 0.174903 0.255598
Si Si3 0.559350 0.823118 0.504011
Si Si4 0.186386 0.674166 0.101685
Si Si5 0.604087 0.178449 0.737699
Si Si6 0.193195 0.824537 0.868842
O O1 0.481265 0.500000 0.147139
O O2 0.542538 0.724335 0.199807
O O3 0.439428 0.764751 0.172181
O O4 0.500000 0.719624 0.000000
O O5 0.591219 0.216433 0.388557
O O6 0.644498 0.212973 0.200859
O O7 0.571875 0.000000 0.239579
O O8 0.500000 0.752257 0.500000
O O9 0.590513 0.758193 0.612310
O O10 0.553804 0.000000 0.521443
O O11 0.184103 0.500000 0.065734
O O12 0.244665 0.716282 0.147389
O O13 0.172070 0.771299 0.991863
O O14 0.661945 0.240381 0.769832
O O15 0.605433 0.000000 0.741218
O O16 0.181939 0.000000 0.858385
#
# Coordination Sequence:
#
# PCOD8092655 Si02
#       6
#     8   8   8   8   8   8
#     4  11  23  35  49  76 111 139 166 213 273 318
#     4  10  19  35  57  78 102 135 180 220 255 311
#     4   9  17  33  55  78 102 135 177 221 262 302
#     4   9  19  35  57  81 105 141 180 214 260 316
#     4  11  21  35  56  78 103 139 182 217 257 316
#     4  10  20  35  54  79 112 141 172 219 268 311
#
# _framework density 18.257172000000001
#
# number of rings (size 3 to 8) (size 9 to 14) (size 15 to 20)
#    0.000    2.000    1.667    2.500    0.000    5.333 
#    0.000    3.333    0.000    0.000    0.000    0.000 
#    0.000    0.000    0.000    0.000    0.000    0.000 
#
# Total GULP energy -297660.693331 kJ/mol
# GULP energy per Si atom -12402.528889 kJ/mol
# Density = 1.821562 g / cm^3
# Si number density = 18.257172 Si / 1000 Ang^3
#
#
#
# Elastic Constant Matrix: (Units=GPa)
#
#
# Indices 1 2 3 4 5 6 
#
# 1 94.0138 22.8634 46.0919 0.0000 12.9804 0.0000
# 2 22.8634 50.2778 29.1845 0.0000 10.9139 0.0000
# 3 46.0919 29.1845 108.1579 0.0000 19.0650 0.0000
# 4 0.0000 0.0000 0.0000 19.7758 0.0000 6.2671
# 5 12.9804 10.9139 19.0650 0.0000 35.2312 0.0000
# 6 0.0000 0.0000 0.0000 6.2671 0.0000 30.1083
#
#
#
# Elastic Compliance Matrix: (Units=1/GPa)
#
#
# Indices 1 2 3 4 5 6 
#
# 1 0.014000 -0.003232 -0.004821 0.000000 -0.001548 0.000000
# 2 -0.003232 0.024925 -0.004640 0.000000 -0.004020 0.000000
# 3 -0.004821 -0.004640 0.013250 0.000000 -0.003956 0.000000
# 4 0.000000 0.000000 0.000000 0.054138 0.000000 -0.011269
# 5 -0.001548 -0.004020 -0.003956 0.000000 0.032340 0.000000
# 6 0.000000 0.000000 0.000000 -0.011269 0.000000 0.035559
#
#
# Mechanical properties :
#
#
# Convention : Reuss Voigt Hill
#
# Bulk Modulus (GPa) = 37.32871 49.85881 43.59376
# Shear Modulus (GPa) = 23.97762 27.31036 25.64399
#
# Velocity S-wave (km/s) = 3.62792 3.87184 3.75186
# Velocity P-wave (km/s) = 6.16761 6.88162 6.53438
#
# Compressibility (1/GPa) = 0.02678903
#
# Stress axis : x y z
#
# Youngs Moduli (GPa) = 71.42782 40.12045 75.47349
#
# Poissons Ratio (x) = 0.12966 0.36388
# Poissons Ratio (y) = 0.23084 0.35018
# Poissons Ratio (z) = 0.34437 0.18615
#
# Static dielectric constant tensor:
#      x y z
#    x 3.472160 0.000000 0.051610 
#    y 0.000000 3.252000 0.000000 
#    z 0.051610 0.000000 3.531360 
# 
# 
# High freq. dielectric constant tensor:
#      x y z
#    x 1.708730 0.000000 0.003750 
#    y 0.000000 1.696300 0.000000 
#    z 0.003750 0.000000 1.709390 
# 
# From -- ./inp_files/172272.got.cif
#   From: 2010.06.25/outbox.cif.g09.slc.cpg/sg12_87_cif.got.tgz:172272.got - 2010.06.28 00:19:55.
