data_PCOD8092375
_publ_section_title
;
Structure prediction by ZEFSAII (Michael W. Deem and Ramdas Pophale) SiO2 
 PCOD8092375
Probable space group: C 2/M
;
_chemical_formula_sum "Si O2"
_cell_formula_units_Z 52
_cell_length_a 18.124876
_cell_length_b 18.244542
_cell_length_c 9.374307
_cell_angle_alpha 90.000000
_cell_angle_beta 110.257026
_cell_angle_gamma 90.000000
_cell_volume 2908.164367
_symmetry_space_group_name_H-M "C 2/M"
_symmetry_group_IT_number 12
_symmetry_cell_setting 'monoclinic'
loop_
_space_group_symop_operation_xyz
x,y,z
-x,y,-z
-x,-y,-z
x,-y,z
1/2+x,1/2+y,z
1/2-x,1/2+y,-z
1/2-x,1/2-y,-z
1/2+x,1/2-y,z
loop_
_atom_site_type_symbol
_atom_site_label
_atom_site_fract_x
_atom_site_fract_y
_atom_site_fract_z
Si Si1 0.243195 0.816373 0.337020
Si Si2 0.957584 0.696441 0.201203
Si Si3 0.769283 0.416683 0.829713
Si Si4 0.885177 0.291903 0.858298
Si Si5 0.166056 0.828760 0.568730
Si Si6 0.671055 0.082830 0.822552
Si Si7 0.500000 0.289108 0.500000
O O1 0.166157 0.776839 0.223664
O O2 0.215914 0.855640 0.465046
O O3 0.312949 0.757341 0.400226
O O4 0.276531 0.880303 0.262820
O O5 0.914111 0.620213 0.209805
O O6 0.046042 0.688903 0.206042
O O7 0.958271 0.744195 0.344821
O O8 0.910038 0.730889 0.035641
O O9 0.776119 0.500000 0.778259
O O10 0.840335 0.368639 0.817179
O O11 0.689045 0.378922 0.719798
O O12 0.772409 0.414051 0.002261
O O13 0.071776 0.837190 0.484251
O O14 0.651981 0.000000 0.765132
#
# Coordination Sequence:
#
# PCOD8092375 Si02
#       7
#     8   8   8   8   8   8   4
#     4  10  19  35  53  80 108 138 188 222 269 316
#     4  10  20  33  52  81 113 139 179 218 273 318
#     4   9  20  36  55  79 106 144 184 220 266 319
#     4   9  19  34  55  80 107 145 179 227 264 317
#     4  10  21  33  55  79 107 139 177 232 271 316
#     4  10  21  36  56  80 112 147 181 220 266 326
#     4  12  20  34  52  82 106 138 172 230 272 318
#
# _framework density 17.880693999999998
#
# number of rings (size 3 to 8) (size 9 to 14) (size 15 to 20)
#    0.000    2.154    3.077    0.000    2.154    3.077 
#    0.000    3.846    0.000    0.000    0.000    4.308 
#    0.000    0.000    0.000    0.000    0.000    0.000 
#
# Total GULP energy -322190.160683 kJ/mol
# GULP energy per Si atom -12391.929257 kJ/mol
# Density = 1.784000 g / cm^3
# Si number density = 17.880694 Si / 1000 Ang^3
#
#
#
# Elastic Constant Matrix: (Units=GPa)
#
#
# Indices 1 2 3 4 5 6 
#
# 1 112.3093 29.7034 36.4569 0.0000 2.6058 0.0000
# 2 29.7034 26.7321 6.7869 0.0000 -13.4124 0.0000
# 3 36.4569 6.7869 61.0550 0.0000 -8.4049 0.0000
# 4 0.0000 0.0000 0.0000 23.3278 0.0000 -1.1850
# 5 2.6058 -13.4124 -8.4049 0.0000 27.0348 0.0000
# 6 0.0000 0.0000 0.0000 -1.1850 0.0000 18.7679
#
#
#
# Elastic Compliance Matrix: (Units=1/GPa)
#
#
# Indices 1 2 3 4 5 6 
#
# 1 0.022122 -0.032502 -0.012651 0.000000 -0.022190 0.000000
# 2 -0.032502 0.097852 0.016344 0.000000 0.056760 0.000000
# 3 -0.012651 0.016344 0.024446 0.000000 0.016928 0.000000
# 4 0.000000 0.000000 0.000000 0.043005 0.000000 0.002715
# 5 -0.022190 0.056760 0.016928 0.000000 0.072551 0.000000
# 6 0.000000 0.000000 0.000000 0.002715 0.000000 0.053454
#
#
# Mechanical properties :
#
#
# Convention : Reuss Voigt Hill
#
# Bulk Modulus (GPa) = 11.52052 38.44340 24.98196
# Shear Modulus (GPa) = 12.50057 22.30270 17.40164
#
# Velocity S-wave (km/s) = 2.64694 3.53555 3.12301
# Velocity P-wave (km/s) = 3.97476 6.18171 5.19674
#
# Compressibility (1/GPa) = 0.08680162
#
# Stress axis : x y z
#
# Youngs Moduli (GPa) = 45.20475 10.21952 40.90604
#
# Poissons Ratio (x) = 0.33216 0.51750
# Poissons Ratio (y) = 1.46925 -0.66856
# Poissons Ratio (z) = 0.57188 -0.16703
#
# Static dielectric constant tensor:
#      x y z
#    x 3.330610 0.000000 0.039870 
#    y 0.000000 3.059670 0.000000 
#    z 0.039870 0.000000 3.595560 
# 
# 
# High freq. dielectric constant tensor:
#      x y z
#    x 1.696860 0.000000 -0.002420 
#    y 0.000000 1.656390 0.000000 
#    z -0.002420 0.000000 1.706200 
# 
# From -- ./inp_files/76972.got.cif
#   From: 2010.06.25/outbox.cif.g09.slc.cpg/sg12_39_cif.got.tgz:76972.got - 2010.06.28 00:19:55.
