data_PCOD8092246
_publ_section_title
;
Structure prediction by ZEFSAII (Michael W. Deem and Ramdas Pophale) SiO2 
 PCOD8092246
Probable space group: C 2/M
;
_chemical_formula_sum "Si O2"
_cell_formula_units_Z 56
_cell_length_a 27.348629
_cell_length_b 13.881474
_cell_length_c 9.527064
_cell_angle_alpha 90.000000
_cell_angle_beta 126.265650
_cell_angle_gamma 90.000000
_cell_volume 2916.203069
_symmetry_space_group_name_H-M "C 2/M"
_symmetry_group_IT_number 12
_symmetry_cell_setting 'monoclinic'
loop_
_space_group_symop_operation_xyz
x,y,z
-x,y,-z
-x,-y,-z
x,-y,z
1/2+x,1/2+y,z
1/2-x,1/2+y,-z
1/2-x,1/2-y,-z
1/2+x,1/2-y,z
loop_
_atom_site_type_symbol
_atom_site_label
_atom_site_fract_x
_atom_site_fract_y
_atom_site_fract_z
Si Si1 0.115203 0.890384 0.440324
Si Si2 0.204755 0.751198 0.118728
Si Si3 0.447739 0.216987 0.798980
Si Si4 0.786741 0.892986 0.626201
Si Si5 0.333617 0.888019 0.731610
Si Si6 0.053499 0.386725 0.484673
Si Si7 0.158271 0.244909 0.740769
O O1 0.064372 0.824087 0.281360
O O2 0.176379 0.884549 0.454923
O O3 0.130622 0.850378 0.621658
O O4 0.091044 0.000000 0.411852
O O5 0.185823 0.824093 0.209735
O O6 0.189857 0.644897 0.153994
O O7 0.274776 0.767342 0.201807
O O8 0.161760 0.772426 0.913159
O O9 0.390326 0.173515 0.779887
O O10 0.467125 0.146949 0.704848
O O11 0.500000 0.225305 0.000000
O O12 0.717645 0.866460 0.471718
O O13 0.790854 0.000000 0.695175
O O14 0.350273 0.000000 0.769686
O O15 0.065953 0.500000 0.505266
O O16 0.116210 0.336323 0.635501
O O17 0.000000 0.358105 0.500000
#
# Coordination Sequence:
#
# PCOD8092246 Si02
#       7
#     8   8   8   8   8   8   8
#     4  10  20  39  63  86 116 155 194 242 302 357
#     4  11  21  36  57  89 122 158 195 247 301 352
#     4  11  24  40  62  90 118 157 203 251 294 353
#     4  10  19  34  60  87 115 151 192 238 298 356
#     4  11  22  36  60  91 125 157 195 246 303 360
#     4  10  23  42  61  85 122 165 203 243 296 355
#     4  10  23  37  58  86 122 159 201 243 298 361
#
# _framework density 19.203054000000002
#
# number of rings (size 3 to 8) (size 9 to 14) (size 15 to 20)
#    0.000    1.571    2.857    2.571    2.000    4.286 
#    0.000    2.857    0.000    6.857    0.000    0.000 
#    0.000    0.000    0.000    0.000    0.000    0.000 
#
# Total GULP energy -347240.535828 kJ/mol
# GULP energy per Si atom -12401.447708 kJ/mol
# Density = 1.915935 g / cm^3
# Si number density = 19.203054 Si / 1000 Ang^3
#
#
#
# Elastic Constant Matrix: (Units=GPa)
#
#
# Indices 1 2 3 4 5 6 
#
# 1 71.2388 43.0265 38.6528 0.0000 -6.7979 0.0000
# 2 43.0265 126.6820 70.0598 0.0000 -6.5353 0.0000
# 3 38.6528 70.0598 153.4914 0.0000 -12.2969 0.0000
# 4 0.0000 0.0000 0.0000 13.1155 0.0000 -0.9661
# 5 -6.7979 -6.5353 -12.2969 0.0000 26.7065 0.0000
# 6 0.0000 0.0000 0.0000 -0.9661 0.0000 25.9853
#
#
#
# Elastic Compliance Matrix: (Units=1/GPa)
#
#
# Indices 1 2 3 4 5 6 
#
# 1 0.018437 -0.004918 -0.002200 0.000000 0.002477 0.000000
# 2 -0.004918 0.011875 -0.004204 0.000000 -0.000282 0.000000
# 3 -0.002200 -0.004204 0.009200 0.000000 0.002647 0.000000
# 4 0.000000 0.000000 0.000000 0.076455 0.000000 0.002843
# 5 0.002477 -0.000282 0.002647 0.000000 0.039225 0.000000
# 6 0.000000 0.000000 0.000000 0.002843 0.000000 0.038589
#
#
# Mechanical properties :
#
#
# Convention : Reuss Voigt Hill
#
# Bulk Modulus (GPa) = 59.28242 72.76559 66.02401
# Shear Modulus (GPa) = 22.51773 26.47299 24.49536
#
# Velocity S-wave (km/s) = 3.42806 3.71695 3.57543
# Velocity P-wave (km/s) = 6.82694 7.50973 7.17646
#
# Compressibility (1/GPa) = 0.01686841
#
# Stress axis : x y z
#
# Youngs Moduli (GPa) = 54.23741 84.21327 108.69450
#
# Poissons Ratio (x) = 0.41414 0.23912
# Poissons Ratio (y) = 0.26673 0.45698
# Poissons Ratio (z) = 0.11932 0.35405
#
# Static dielectric constant tensor:
#      x y z
#    x 3.511860 0.000000 -0.133530 
#    y 0.000000 3.658550 0.000000 
#    z -0.133530 0.000000 3.582050 
# 
# 
# High freq. dielectric constant tensor:
#      x y z
#    x 1.742840 0.000000 -0.008630 
#    y 0.000000 1.751890 0.000000 
#    z -0.008630 0.000000 1.745450 
# 
# From -- ./inp_files/96952.got.cif
#   From: 2010.06.25/outbox.cif.g09.slc.cpg/sg12_49_cif.got.tgz:96952.got - 2010.06.28 00:19:55.
