data_PCOD8092715
_publ_section_title
;
Structure prediction by ZEFSAII (Michael W. Deem and Ramdas Pophale) SiO2 
 PCOD8092715
Probable space group: C 2/M
;
_chemical_formula_sum "Si O2"
_cell_formula_units_Z 56
_cell_length_a 14.270526
_cell_length_b 13.755006
_cell_length_c 17.609825
_cell_angle_alpha 90.000000
_cell_angle_beta 126.477580
_cell_angle_gamma 90.000000
_cell_volume 2779.458706
_symmetry_space_group_name_H-M "C 2/M"
_symmetry_group_IT_number 12
_symmetry_cell_setting 'monoclinic'
loop_
_space_group_symop_operation_xyz
x,y,z
-x,y,-z
-x,-y,-z
x,-y,z
1/2+x,1/2+y,z
1/2-x,1/2+y,-z
1/2-x,1/2-y,-z
1/2+x,1/2-y,z
loop_
_atom_site_type_symbol
_atom_site_label
_atom_site_fract_x
_atom_site_fract_y
_atom_site_fract_z
Si Si1 0.828897 0.611550 0.585020
Si Si2 0.131715 0.110784 0.367770
Si Si3 0.353112 0.611763 0.051782
Si Si4 0.344632 0.199182 0.126811
Si Si5 0.728781 0.758057 0.302763
Si Si6 0.958250 0.263235 0.332098
Si Si7 0.525028 0.239494 0.097444
O O1 0.864568 0.500000 0.611062
O O2 0.713614 0.624807 0.479922
O O3 0.804492 0.654912 0.656406
O O4 0.933616 0.667918 0.592108
O O5 0.191210 0.156688 0.322420
O O6 0.007989 0.160926 0.325447
O O7 0.105402 0.000000 0.336155
O O8 0.356647 0.500000 0.080547
O O9 0.308664 0.685919 0.097073
O O10 0.481130 0.647850 0.085786
O O11 0.264482 0.627499 0.938451
O O12 0.388841 0.181077 0.232626
O O13 0.447893 0.172548 0.117031
O O14 0.868153 0.757010 0.356913
O O15 0.659952 0.769811 0.189079
O O16 0.500000 0.202904 0.000000
#
# Coordination Sequence:
#
# PCOD8092715 Si02
#       7
#     8   8   8   8   8   8   8
#     4  10  22  41  61  87 121 155 191 245 301 352
#     4  10  22  41  63  87 119 153 195 246 298 351
#     4   9  18  33  53  76 105 146 193 234 279 334
#     4   9  19  35  54  80 114 154 190 238 290 331
#     4  11  22  37  63  88 118 156 201 237 295 352
#     4  11  21  38  61  88 118 159 192 243 293 352
#     4  10  19  35  57  80 118 152 189 239 285 335
#
# _framework density 20.147808000000001
#
# number of rings (size 3 to 8) (size 9 to 14) (size 15 to 20)
#    0.857    1.143    2.857    2.571    0.000    6.571 
#    0.000    4.286    0.000    0.857    0.000    0.000 
#    0.000    0.000    0.000    0.000    0.000    0.000 
#
# Total GULP energy -346991.118309 kJ/mol
# GULP energy per Si atom -12392.539940 kJ/mol
# Density = 2.010195 g / cm^3
# Si number density = 20.147808 Si / 1000 Ang^3
#
#
#
# Elastic Constant Matrix: (Units=GPa)
#
#
# Indices 1 2 3 4 5 6 
#
# 1 116.6006 25.9518 12.8382 0.0000 16.3404 0.0000
# 2 25.9518 61.1392 4.5229 0.0000 3.0569 0.0000
# 3 12.8382 4.5229 76.2420 0.0000 -1.8981 0.0000
# 4 0.0000 0.0000 0.0000 13.8783 0.0000 3.3317
# 5 16.3404 3.0569 -1.8981 0.0000 27.4342 0.0000
# 6 0.0000 0.0000 0.0000 3.3317 0.0000 11.4438
#
#
#
# Elastic Compliance Matrix: (Units=1/GPa)
#
#
# Indices 1 2 3 4 5 6 
#
# 1 0.010487 -0.004032 -0.001674 0.000000 -0.005913 0.000000
# 2 -0.004032 0.018078 -0.000385 0.000000 0.000360 0.000000
# 3 -0.001674 -0.000385 0.013470 0.000000 0.001972 0.000000
# 4 0.000000 0.000000 0.000000 0.077469 0.000000 -0.022554
# 5 -0.005913 0.000360 0.001972 0.000000 0.040069 0.000000
# 6 0.000000 0.000000 0.000000 -0.022554 0.000000 0.093949
#
#
# Mechanical properties :
#
#
# Convention : Reuss Voigt Hill
#
# Bulk Modulus (GPa) = 33.49637 37.84531 35.67084
# Shear Modulus (GPa) = 18.13870 24.59586 21.36728
#
# Velocity S-wave (km/s) = 3.00372 3.49774 3.26011
# Velocity P-wave (km/s) = 5.35642 5.92764 5.64925
#
# Compressibility (1/GPa) = 0.02985398
#
# Stress axis : x y z
#
# Youngs Moduli (GPa) = 95.36052 55.31613 74.23969
#
# Poissons Ratio (x) = 0.22302 0.12426
# Poissons Ratio (y) = 0.38447 0.02855
# Poissons Ratio (z) = 0.15962 0.02127
#
# Static dielectric constant tensor:
#      x y z
#    x 3.543280 0.000000 0.236470 
#    y 0.000000 3.387090 0.000000 
#    z 0.236470 0.000000 3.738080 
# 
# 
# High freq. dielectric constant tensor:
#      x y z
#    x 1.771190 0.000000 0.014800 
#    y 0.000000 1.753530 0.000000 
#    z 0.014800 0.000000 1.800310 
# 
# From -- ./inp_files/270413.got.cif
#   From: 2010.06.25/outbox.cif.g09.slc.cpg/sg12_136_cif.got.tgz:270413.got - 2010.06.28 00:19:55.
