data_PCOD8092047
_publ_section_title
;
Structure prediction by ZEFSAII (Michael W. Deem and Ramdas Pophale) SiO2 
 PCOD8092047
Probable space group: C 2/M
;
_chemical_formula_sum "Si O2"
_cell_formula_units_Z 40
_cell_length_a 10.987954
_cell_length_b 13.264870
_cell_length_c 19.017031
_cell_angle_alpha 90.000000
_cell_angle_beta 136.616475
_cell_angle_gamma 90.000000
_cell_volume 1903.892866
_symmetry_space_group_name_H-M "C 2/M"
_symmetry_group_IT_number 12
_symmetry_cell_setting 'monoclinic'
loop_
_space_group_symop_operation_xyz
x,y,z
-x,y,-z
-x,-y,-z
x,-y,z
1/2+x,1/2+y,z
1/2-x,1/2+y,-z
1/2-x,1/2-y,-z
1/2+x,1/2-y,z
loop_
_atom_site_type_symbol
_atom_site_label
_atom_site_fract_x
_atom_site_fract_y
_atom_site_fract_z
Si Si1 0.992150 0.804622 0.920135
Si Si2 0.453402 0.257753 0.559791
Si Si3 0.447839 0.618215 0.269696
Si Si4 0.706553 0.885030 0.044758
Si Si5 0.747481 0.882351 0.709383
O O1 0.124962 0.875243 0.933442
O O2 0.803873 0.818623 0.802673
O O3 0.049504 0.686538 0.950787
O O4 0.000000 0.853769 0.000000
O O5 0.500000 0.296154 0.500000
O O6 0.250000 0.250000 0.500000
O O7 0.555508 0.332973 0.654980
O O8 0.545612 0.147992 0.606449
O O9 0.444970 0.500000 0.279538
O O10 0.273986 0.649915 0.150852
O O11 0.627582 0.649014 0.303614
O O12 0.637110 0.000000 0.014997
O O13 0.756361 0.000000 0.729836
#
# Coordination Sequence:
#
# PCOD8092047 Si02
#       5
#     8   8   8   8   8
#     4  10  19  34  58  88 123 159 207 253 294 360
#     4  12  24  41  66  95 124 158 208 269 317 363
#     4   9  19  39  63  89 124 166 208 251 309 378
#     4   9  19  35  58  88 124 165 202 245 308 370
#     4  10  22  40  62  87 122 170 212 249 310 385
#
# _framework density 21.009585999999999
#
# number of rings (size 3 to 8) (size 9 to 14) (size 15 to 20)
#    0.000    2.000    2.000    3.000    0.000    3.600 
#    0.000    1.000    0.000    0.000    0.000    0.000 
#    0.000    0.000    0.000    0.000    0.000    0.000 
#
# Total GULP energy -247834.874042 kJ/mol
# GULP energy per Si atom -12391.743702 kJ/mol
# Density = 2.096177 g / cm^3
# Si number density = 21.009586 Si / 1000 Ang^3
#
#
#
# Elastic Constant Matrix: (Units=GPa)
#
#
# Indices 1 2 3 4 5 6 
#
# 1 99.4650 24.7241 56.3553 0.0000 -11.6828 0.0000
# 2 24.7241 93.4396 60.5006 0.0000 -9.3710 0.0000
# 3 56.3553 60.5006 122.2476 0.0000 -19.1059 0.0000
# 4 0.0000 0.0000 0.0000 33.0842 0.0000 -5.9344
# 5 -11.6828 -9.3710 -19.1059 0.0000 51.6106 0.0000
# 6 0.0000 0.0000 0.0000 -5.9344 0.0000 7.3787
#
#
#
# Elastic Compliance Matrix: (Units=1/GPa)
#
#
# Indices 1 2 3 4 5 6 
#
# 1 0.013669 0.000681 -0.006512 0.000000 0.000807 0.000000
# 2 0.000681 0.015783 -0.008123 0.000000 0.000013 0.000000
# 3 -0.006512 -0.008123 0.015646 0.000000 0.002843 0.000000
# 4 0.000000 0.000000 0.000000 0.035321 0.000000 0.028408
# 5 0.000807 0.000013 0.002843 0.000000 0.020613 0.000000
# 6 0.000000 0.000000 0.000000 0.028408 0.000000 0.158373
#
#
# Mechanical properties :
#
#
# Convention : Reuss Voigt Hill
#
# Bulk Modulus (GPa) = 58.17371 66.47915 62.32643
# Shear Modulus (GPa) = 17.06230 29.98617 23.52424
#
# Velocity S-wave (km/s) = 2.85286 3.78201 3.34981
# Velocity P-wave (km/s) = 6.21297 7.12618 6.68519
#
# Compressibility (1/GPa) = 0.01718990
#
# Stress axis : x y z
#
# Youngs Moduli (GPa) = 73.15812 63.36118 63.91276
#
# Poissons Ratio (x) = -0.04312 0.41620
# Poissons Ratio (y) = -0.04979 0.51913
# Poissons Ratio (z) = 0.47640 0.51465
#
# Static dielectric constant tensor:
#      x y z
#    x 4.046500 0.000000 -0.093670 
#    y 0.000000 3.493700 0.000000 
#    z -0.093670 0.000000 4.096370 
# 
# 
# High freq. dielectric constant tensor:
#      x y z
#    x 1.829520 0.000000 -0.000280 
#    y 0.000000 1.811170 0.000000 
#    z -0.000280 0.000000 1.832400 
# 
# From -- ./inp_files/176337.got.cif
#   From: 2010.06.25/outbox.cif.g09.slc.cpg/sg12_89_cif.got.tgz:176337.got - 2010.06.28 00:19:55.
