data_PCOD8092606
_publ_section_title
;
Structure prediction by ZEFSAII (Michael W. Deem and Ramdas Pophale) SiO2 
 PCOD8092606
Probable space group: C 2/M
;
_chemical_formula_sum "Si O2"
_cell_formula_units_Z 56
_cell_length_a 8.949201
_cell_length_b 21.398685
_cell_length_c 19.554109
_cell_angle_alpha 90.000000
_cell_angle_beta 46.199659
_cell_angle_gamma 90.000000
_cell_volume 2702.712488
_symmetry_space_group_name_H-M "C 2/M"
_symmetry_group_IT_number 12
_symmetry_cell_setting 'monoclinic'
loop_
_space_group_symop_operation_xyz
x,y,z
-x,y,-z
-x,-y,-z
x,-y,z
1/2+x,1/2+y,z
1/2-x,1/2+y,-z
1/2-x,1/2-y,-z
1/2+x,1/2-y,z
loop_
_atom_site_type_symbol
_atom_site_label
_atom_site_fract_x
_atom_site_fract_y
_atom_site_fract_z
Si Si1 0.454464 0.254587 0.720196
Si Si2 0.320812 0.571371 0.933522
Si Si3 0.628004 0.660644 0.775724
Si Si4 0.387799 0.430072 0.662067
Si Si5 0.313089 0.070747 0.608821
Si Si6 0.577047 0.070796 0.870734
Si Si7 0.121120 0.190263 0.397852
O O1 0.456406 0.305938 0.780825
O O2 0.246910 0.212940 0.782761
O O3 0.642642 0.208733 0.674342
O O4 0.489413 0.288280 0.636802
O O5 0.387417 0.500000 0.930631
O O6 0.519228 0.616382 0.866619
O O7 0.218905 0.572333 0.891968
O O8 0.152373 0.599101 0.041476
O O9 0.790608 0.619923 0.678586
O O10 0.333779 0.500000 0.654769
O O11 0.601062 0.430089 0.634957
O O12 0.205404 0.399120 0.767685
O O13 0.396380 0.385279 0.593708
O O14 0.500000 0.092797 0.500000
O O15 0.357423 0.000000 0.622349
O O16 0.537094 0.000000 0.862309
O O17 0.000000 0.219813 0.500000
#
# Coordination Sequence:
#
# PCOD8092606 Si02
#       7
#     8   8   8   8   8   8   8
#     4  10  24  37  54  78 108 147 190 229 272 310
#     4   9  15  27  55  88 109 133 178 231 275 319
#     4  11  20  37  57  79 113 144 186 230 270 325
#     4  10  19  35  56  81 115 147 173 219 281 333
#     4  10  20  32  53  83 112 142 177 222 279 327
#     4   8  14  26  51  86 112 137 176 220 270 329
#     4  11  22  38  57  78 104 145 190 232 264 322
#
# _framework density 20.719923999999999
#
# number of rings (size 3 to 8) (size 9 to 14) (size 15 to 20)
#    0.000    2.143    2.857    1.714    2.000    2.571 
#    0.000    1.429    0.000   16.286    0.000    3.000 
#    0.000    0.000    0.000    0.000    0.000    0.000 
#
# Total GULP energy -346932.541464 kJ/mol
# GULP energy per Si atom -12390.447909 kJ/mol
# Density = 2.067276 g / cm^3
# Si number density = 20.719924 Si / 1000 Ang^3
#
#
#
# Elastic Constant Matrix: (Units=GPa)
#
#
# Indices 1 2 3 4 5 6 
#
# 1 49.8142 23.9074 10.7539 0.0000 -0.2674 -0.0001
# 2 23.9074 90.1954 20.8822 0.0000 -8.4984 0.0000
# 3 10.7539 20.8822 84.1575 0.0001 -25.5620 0.0000
# 4 0.0000 0.0000 0.0001 11.9251 0.0000 -7.0836
# 5 -0.2674 -8.4984 -25.5620 0.0000 20.5899 0.0000
# 6 -0.0001 0.0000 0.0000 -7.0836 0.0000 19.0422
#
#
#
# Elastic Compliance Matrix: (Units=1/GPa)
#
#
# Indices 1 2 3 4 5 6 
#
# 1 0.023723 -0.006093 -0.003515 0.000000 -0.006571 0.000000
# 2 -0.006093 0.013378 -0.001425 0.000000 0.003673 0.000000
# 3 -0.003515 -0.001425 0.020055 0.000000 0.024265 0.000000
# 4 0.000000 0.000000 0.000000 0.107642 0.000000 0.040043
# 5 -0.006571 0.003673 0.024265 0.000000 0.080122 0.000000
# 6 0.000000 0.000000 0.000000 0.040043 0.000000 0.067411
#
#
# Mechanical properties :
#
#
# Convention : Reuss Voigt Hill
#
# Bulk Modulus (GPa) = 28.49926 37.25048 32.87487
# Shear Modulus (GPa) = 14.44690 21.55301 17.99996
#
# Velocity S-wave (km/s) = 2.64341 3.22872 2.95062
# Velocity P-wave (km/s) = 4.80637 5.64948 5.24490
#
# Compressibility (1/GPa) = 0.03508863
#
# Stress axis : x y z
#
# Youngs Moduli (GPa) = 42.15399 74.74846 49.86180
#
# Poissons Ratio (x) = 0.45546 0.17528
# Poissons Ratio (y) = 0.25685 0.07107
# Poissons Ratio (z) = 0.14818 0.10653
#
# Static dielectric constant tensor:
#      x y z
#    x 3.391290 0.000000 -0.194080 
#    y 0.000000 4.033220 0.000000 
#    z -0.194080 0.000000 4.018530 
# 
# 
# High freq. dielectric constant tensor:
#      x y z
#    x 1.775260 0.000000 -0.016820 
#    y 0.000000 1.813190 0.000000 
#    z -0.016820 0.000000 1.802980 
# 
# From -- ./inp_files/259129.got.cif
#   From: 2010.06.25/outbox.cif.g09.slc.cpg/sg12_130_cif.got.tgz:259129.got - 2010.06.28 00:19:55.
