data_PCOD8092359
_publ_section_title
;
Structure prediction by ZEFSAII (Michael W. Deem and Ramdas Pophale) SiO2 
 PCOD8092359
Probable space group: C 2/M
;
_chemical_formula_sum "Si O2"
_cell_formula_units_Z 64
_cell_length_a 18.382983
_cell_length_b 13.099934
_cell_length_c 29.285672
_cell_angle_alpha 90.000000
_cell_angle_beta 26.938599
_cell_angle_gamma 90.000000
_cell_volume 3195.011450
_symmetry_space_group_name_H-M "C 2/M"
_symmetry_group_IT_number 12
_symmetry_cell_setting 'monoclinic'
loop_
_space_group_symop_operation_xyz
x,y,z
-x,y,-z
-x,-y,-z
x,-y,z
1/2+x,1/2+y,z
1/2-x,1/2+y,-z
1/2-x,1/2-y,-z
1/2+x,1/2-y,z
loop_
_atom_site_type_symbol
_atom_site_label
_atom_site_fract_x
_atom_site_fract_y
_atom_site_fract_z
Si Si1 0.744150 0.113068 0.545066
Si Si2 0.317373 0.615275 0.894169
Si Si3 0.444229 0.112711 0.777827
Si Si4 0.554990 0.120624 0.885582
Si Si5 0.972407 0.276009 0.399539
Si Si6 0.141918 0.380322 0.384667
Si Si7 0.061947 0.257448 0.791928
Si Si8 0.316324 0.292029 0.801114
O O1 0.609812 0.114972 0.658297
O O2 0.890284 0.188471 0.476823
O O3 0.666700 0.149329 0.540730
O O4 0.815546 0.000000 0.498886
O O5 0.351596 0.500000 0.887691
O O6 0.413031 0.678868 0.879123
O O7 0.379893 0.637395 0.807398
O O8 0.130362 0.642034 0.001666
O O9 0.494022 0.151251 0.799438
O O10 0.306339 0.178837 0.829429
O O11 0.371429 0.000000 0.822769
O O12 0.613817 0.189894 0.810218
O O13 0.648167 0.162631 0.877809
O O14 0.591349 0.000000 0.857689
O O15 0.089358 0.347405 0.363282
O O16 0.059618 0.213831 0.310091
O O17 0.191970 0.500000 0.356527
O O18 0.292160 0.307052 0.312496
O O19 0.000000 0.360365 0.500000
#
# Coordination Sequence:
#
# PCOD8092359 Si02
#       8
#     8   8   8   8   8   8   8   8
#     4   9  18  32  53  77 108 149 193 236 283 338
#     4  10  22  39  61  86 116 153 200 249 297 350
#     4   9  19  36  57  81 113 157 195 235 293 348
#     4  11  22  38  60  88 118 154 195 247 305 349
#     4  10  19  35  52  81 114 149 193 242 287 342
#     4  11  23  38  58  85 120 158 193 235 291 347
#     4  11  21  39  60  86 119 156 198 240 288 355
#     4  10  20  36  58  84 114 152 193 245 295 350
#
# _framework density 20.031227000000001
#
# number of rings (size 3 to 8) (size 9 to 14) (size 15 to 20)
#    0.000    1.875    1.250    3.000    0.000    3.500 
#    0.000    0.000    0.000   10.125    0.000    0.000 
#    0.000    0.000    0.000    0.000    0.000    0.000 
#
# Total GULP energy -396621.409061 kJ/mol
# GULP energy per Si atom -12394.419033 kJ/mol
# Density = 1.998564 g / cm^3
# Si number density = 20.031227 Si / 1000 Ang^3
#
#
#
# Elastic Constant Matrix: (Units=GPa)
#
#
# Indices 1 2 3 4 5 6 
#
# 1 69.5279 33.2155 10.5440 0.0000 -6.9404 0.0003
# 2 33.2155 132.7030 39.0289 -0.0011 -9.0362 0.0003
# 3 10.5440 39.0289 51.5914 -0.0101 -2.5351 0.0018
# 4 0.0000 -0.0011 -0.0101 30.2004 0.0008 -4.1082
# 5 -6.9404 -9.0362 -2.5351 0.0008 28.4009 -0.0005
# 6 0.0003 0.0003 0.0018 -4.1082 -0.0005 22.2769
#
#
#
# Elastic Compliance Matrix: (Units=1/GPa)
#
#
# Indices 1 2 3 4 5 6 
#
# 1 0.016553 -0.003857 -0.000328 0.000000 0.002789 0.000000
# 2 -0.003857 0.010762 -0.007263 -0.000002 0.001833 0.000000
# 3 -0.000328 -0.007263 0.024937 0.000008 -0.000165 0.000000
# 4 0.000000 -0.000002 0.000008 0.033964 -0.000001 0.006263
# 5 0.002789 0.001833 -0.000165 -0.000001 0.036460 0.000001
# 6 0.000000 0.000000 0.000000 0.006263 0.000001 0.046045
#
#
# Mechanical properties :
#
#
# Convention : Reuss Voigt Hill
#
# Bulk Modulus (GPa) = 34.06534 46.59992 40.33263
# Shear Modulus (GPa) = 24.82589 27.57790 26.20189
#
# Velocity S-wave (km/s) = 3.52427 3.71448 3.62062
# Velocity P-wave (km/s) = 5.79687 6.45837 6.13654
#
# Compressibility (1/GPa) = 0.02935535
#
# Stress axis : x y z
#
# Youngs Moduli (GPa) = 60.41052 92.91996 40.10167
#
# Poissons Ratio (x) = 0.35838 0.01317
# Poissons Ratio (y) = 0.23299 0.29126
# Poissons Ratio (z) = 0.01984 0.67489
#
# Static dielectric constant tensor:
#      x y z
#    x 3.569810 0.000000 -0.035890 
#    y 0.000000 3.950390 0.000000 
#    z -0.035890 0.000000 3.498380 
# 
# 
# High freq. dielectric constant tensor:
#      x y z
#    x 1.776820 0.000000 -0.000970 
#    y 0.000000 1.793290 0.000000 
#    z -0.000970 0.000000 1.767250 
# 
# From -- ./inp_files/296491.got.cif
#   From: 2010.06.25/outbox.cif.g09.slc.cpg/sg12_149_cif.got.tgz:296491.got - 2010.06.28 00:19:55.
