data_PCOD8092592
_publ_section_title
;
Structure prediction by ZEFSAII (Michael W. Deem and Ramdas Pophale) SiO2 
 PCOD8092592
Probable space group: C 2/M
;
_chemical_formula_sum "Si O2"
_cell_formula_units_Z 48
_cell_length_a 19.017249
_cell_length_b 8.879668
_cell_length_c 21.895767
_cell_angle_alpha 90.000000
_cell_angle_beta 43.692828
_cell_angle_gamma 90.000000
_cell_volume 2554.181917
_symmetry_space_group_name_H-M "C 2/M"
_symmetry_group_IT_number 12
_symmetry_cell_setting 'monoclinic'
loop_
_space_group_symop_operation_xyz
x,y,z
-x,y,-z
-x,-y,-z
x,-y,z
1/2+x,1/2+y,z
1/2-x,1/2+y,-z
1/2-x,1/2-y,-z
1/2+x,1/2-y,z
loop_
_atom_site_type_symbol
_atom_site_label
_atom_site_fract_x
_atom_site_fract_y
_atom_site_fract_z
Si Si1 0.191206 0.175399 0.592067
Si Si2 0.700466 0.175415 0.712633
Si Si3 0.454111 0.326218 0.744397
Si Si4 0.105171 0.325515 0.963434
Si Si5 0.466271 0.171461 0.859441
Si Si6 0.217285 0.322685 0.221024
O O1 0.250000 0.250000 0.500000
O O2 0.230240 0.249484 0.629967
O O3 0.071969 0.206120 0.657617
O O4 0.216180 0.000000 0.578869
O O5 0.583084 0.206897 0.803303
O O6 0.769198 0.247680 0.721717
O O7 0.725187 0.000000 0.692893
O O8 0.424753 0.500000 0.754556
O O9 0.426354 0.279628 0.831136
O O10 0.392102 0.227102 0.735368
O O11 0.123586 0.500000 0.934496
O O12 0.196841 0.227484 0.880582
O O13 0.102130 0.300936 0.038064
O O14 0.000000 0.269113 0.000000
O O15 0.457112 0.000000 0.841980
O O16 0.221075 0.500000 0.226489
#
# Coordination Sequence:
#
# PCOD8092592 Si02
#       6
#     8   8   8   8   8   8
#     4  10  21  39  64  92 115 143 183 228 278 340
#     4  10  19  36  60  84 113 150 188 230 281 336
#     4  10  22  39  58  81 114 150 187 230 281 336
#     4  10  19  35  56  80 111 151 196 237 279 331
#     4   9  18  34  57  81 108 147 193 235 279 330
#     4  12  24  36  54  83 117 152 191 236 284 330
#
# _framework density 18.792708999999999
#
# number of rings (size 3 to 8) (size 9 to 14) (size 15 to 20)
#    0.000    1.833    1.667    3.000    0.000    4.333 
#    0.000    0.833    0.000    5.000    0.000    0.000 
#    0.000    0.000    0.000    0.000    0.000    0.000 
#
# Total GULP energy -297726.505763 kJ/mol
# GULP energy per Si atom -12405.271073 kJ/mol
# Density = 1.874994 g / cm^3
# Si number density = 18.792709 Si / 1000 Ang^3
#
#
#
# Elastic Constant Matrix: (Units=GPa)
#
#
# Indices 1 2 3 4 5 6 
#
# 1 120.0030 64.6639 49.6957 0.0000 17.1941 -0.0003
# 2 64.6639 123.2073 56.4986 0.0001 12.8980 -0.0005
# 3 49.6957 56.4986 105.3315 0.0000 23.1736 -0.0001
# 4 0.0000 0.0001 0.0000 33.0735 0.0000 6.2139
# 5 17.1941 12.8980 23.1736 0.0000 21.8859 0.0000
# 6 -0.0003 -0.0005 -0.0001 6.2139 0.0000 34.5261
#
#
#
# Elastic Compliance Matrix: (Units=1/GPa)
#
#
# Indices 1 2 3 4 5 6 
#
# 1 0.012688 -0.005168 -0.002205 0.000000 -0.004588 0.000000
# 2 -0.005168 0.012870 -0.004810 0.000000 0.001569 0.000000
# 3 -0.002205 -0.004810 0.015787 0.000000 -0.012149 0.000000
# 4 0.000000 0.000000 0.000000 0.031294 0.000000 -0.005632
# 5 -0.004588 0.001569 -0.012149 0.000000 0.061235 0.000000
# 6 0.000000 0.000000 0.000000 -0.005632 0.000000 0.029977
#
#
# Mechanical properties :
#
#
# Convention : Reuss Voigt Hill
#
# Bulk Modulus (GPa) = 58.89498 76.69534 67.79516
# Shear Modulus (GPa) = 25.78929 29.74267 27.76598
#
# Velocity S-wave (km/s) = 3.70848 3.98260 3.84798
# Velocity P-wave (km/s) = 7.05297 7.87705 7.47637
#
# Compressibility (1/GPa) = 0.01697938
#
# Stress axis : x y z
#
# Youngs Moduli (GPa) = 78.81233 77.69772 63.34223
#
# Poissons Ratio (x) = 0.40153 0.13967
# Poissons Ratio (y) = 0.40729 0.30470
# Poissons Ratio (z) = 0.17378 0.37376
#
# Static dielectric constant tensor:
#      x y z
#    x 3.451820 0.000000 0.095410 
#    y 0.000000 3.502720 0.000000 
#    z 0.095410 0.000000 3.299720 
# 
# 
# High freq. dielectric constant tensor:
#      x y z
#    x 1.730680 0.000000 0.013710 
#    y 0.000000 1.737090 0.000000 
#    z 0.013710 0.000000 1.718580 
# 
# From -- ./inp_files/313581.got.cif
#   From: 2010.06.25/outbox.cif.g09.slc.cpg/sg12_157_cif.got.tgz:313581.got - 2010.06.28 00:19:55.
