data_PCOD8092749
_publ_section_title
;
Structure prediction by ZEFSAII (Michael W. Deem and Ramdas Pophale) SiO2 
 PCOD8092749
Probable space group: C 2/M
;
_chemical_formula_sum "Si O2"
_cell_formula_units_Z 48
_cell_length_a 18.684125
_cell_length_b 7.571567
_cell_length_c 16.653642
_cell_angle_alpha 90.000000
_cell_angle_beta 90.762438
_cell_angle_gamma 90.000000
_cell_volume 2355.750572
_symmetry_space_group_name_H-M "C 2/M"
_symmetry_group_IT_number 12
_symmetry_cell_setting 'monoclinic'
loop_
_space_group_symop_operation_xyz
x,y,z
-x,y,-z
-x,-y,-z
x,-y,z
1/2+x,1/2+y,z
1/2-x,1/2+y,-z
1/2-x,1/2-y,-z
1/2+x,1/2-y,z
loop_
_atom_site_type_symbol
_atom_site_label
_atom_site_fract_x
_atom_site_fract_y
_atom_site_fract_z
Si Si1 0.821675 0.707955 0.873130
Si Si2 0.093925 0.000000 0.581715
Si Si3 0.930713 0.000000 0.606135
Si Si4 0.578870 0.209087 0.986667
Si Si5 0.682178 0.801222 0.664628
Si Si6 0.655204 0.204305 0.306617
Si Si7 0.166698 0.796016 0.838354
O O1 0.822295 0.500000 0.883914
O O2 0.868912 0.793650 0.944971
O O3 0.853337 0.759279 0.786816
O O4 0.740131 0.778735 0.878991
O O5 0.135277 0.823789 0.607925
O O6 0.089600 0.000000 0.486657
O O7 0.015758 0.000000 0.620858
O O8 0.899312 0.176945 0.644593
O O9 0.578564 0.000000 0.992981
O O10 0.500000 0.286357 0.000000
O O11 0.602065 0.267389 0.898405
O O12 0.763754 0.735780 0.664070
O O13 0.650961 0.802203 0.754756
O O14 0.677364 0.000000 0.630298
O O15 0.634890 0.000000 0.320092
O O16 0.176972 0.000000 0.815754
#
# Coordination Sequence:
#
# PCOD8092749 Si02
#       7
#     8   4   4   8   8   8   8
#     4   8  17  34  56  80 116 156 197 255 306 355
#     4  11  26  46  62  97 138 162 207 259 314 398
#     4  11  26  44  66  95 134 172 199 253 330 386
#     4  10  20  33  49  79 118 158 207 251 300 367
#     4  11  21  41  69  95 124 166 214 265 320 371
#     4  10  20  41  67  96 127 163 218 267 309 377
#     4  10  19  35  57  82 117 155 204 262 306 362
#
# _framework density 20.375672000000002
#
# number of rings (size 3 to 8) (size 9 to 14) (size 15 to 20)
#    0.000    2.000    2.500    2.000    0.000    3.667 
#    1.500    3.333    0.000    0.000    0.000    0.000 
#    0.000    0.000    0.000    0.000    0.000    0.000 
#
# Total GULP energy -297616.661326 kJ/mol
# GULP energy per Si atom -12400.694222 kJ/mol
# Density = 2.032930 g / cm^3
# Si number density = 20.375672 Si / 1000 Ang^3
#
#
#
# Elastic Constant Matrix: (Units=GPa)
#
#
# Indices 1 2 3 4 5 6 
#
# 1 56.4220 22.6112 12.8283 0.0000 -14.3155 0.0000
# 2 22.6112 95.3640 15.9808 0.0000 -4.7940 0.0000
# 3 12.8283 15.9808 47.6586 0.0000 -11.4861 0.0000
# 4 0.0000 0.0000 0.0000 26.1309 0.0000 -5.8176
# 5 -14.3155 -4.7940 -11.4861 0.0000 37.2819 0.0000
# 6 0.0000 0.0000 0.0000 -5.8176 0.0000 20.6489
#
#
#
# Elastic Compliance Matrix: (Units=1/GPa)
#
#
# Indices 1 2 3 4 5 6 
#
# 1 0.021874 -0.004377 -0.002735 0.000000 0.006994 0.000000
# 2 -0.004377 0.011989 -0.003106 0.000000 -0.001096 0.000000
# 3 -0.002735 -0.003106 0.024208 0.000000 0.006009 0.000000
# 4 0.000000 0.000000 0.000000 0.040830 0.000000 0.011503
# 5 0.006994 -0.001096 0.006009 0.000000 0.031218 0.000000
# 6 0.000000 0.000000 0.000000 0.011503 0.000000 0.051670
#
#
# Mechanical properties :
#
#
# Convention : Reuss Voigt Hill
#
# Bulk Modulus (GPa) = 26.56998 33.58726 30.07862
# Shear Modulus (GPa) = 23.28072 26.68063 24.98068
#
# Velocity S-wave (km/s) = 3.38387 3.62254 3.50523
# Velocity P-wave (km/s) = 5.32313 5.83239 5.58357
#
# Compressibility (1/GPa) = 0.03763646
#
# Stress axis : x y z
#
# Youngs Moduli (GPa) = 45.71692 83.40778 41.30785
#
# Poissons Ratio (x) = 0.36503 0.11296
# Poissons Ratio (y) = 0.20008 0.12831
# Poissons Ratio (z) = 0.12502 0.25909
#
# Static dielectric constant tensor:
#      x y z
#    x 3.857100 0.000000 0.112570 
#    y 0.000000 3.656690 0.000000 
#    z 0.112570 0.000000 3.685810 
# 
# 
# High freq. dielectric constant tensor:
#      x y z
#    x 1.789470 0.000000 -0.000810 
#    y 0.000000 1.795490 0.000000 
#    z -0.000810 0.000000 1.793060 
# 
# From -- ./inp_files/221743.got.cif
#   From: 2010.06.25/outbox.cif.g09.slc.cpg/sg12_111_cif.got.tgz:221743.got - 2010.06.28 00:19:55.
