data_PCOD8092304
_publ_section_title
;
Structure prediction by ZEFSAII (Michael W. Deem and Ramdas Pophale) SiO2 
 PCOD8092304
Probable space group: C 2/M
;
_chemical_formula_sum "Si O2"
_cell_formula_units_Z 64
_cell_length_a 29.075181
_cell_length_b 19.832229
_cell_length_c 11.620666
_cell_angle_alpha 90.000000
_cell_angle_beta 28.394051
_cell_angle_gamma 90.000000
_cell_volume 3186.438340
_symmetry_space_group_name_H-M "C 2/M"
_symmetry_group_IT_number 12
_symmetry_cell_setting 'monoclinic'
loop_
_space_group_symop_operation_xyz
x,y,z
-x,y,-z
-x,-y,-z
x,-y,z
1/2+x,1/2+y,z
1/2-x,1/2+y,-z
1/2-x,1/2-y,-z
1/2+x,1/2-y,z
loop_
_atom_site_type_symbol
_atom_site_label
_atom_site_fract_x
_atom_site_fract_y
_atom_site_fract_z
Si Si1 0.766961 0.072430 0.831765
Si Si2 0.082913 0.105736 0.662439
Si Si3 0.832601 0.304416 0.847214
Si Si4 0.942089 0.250533 0.240860
Si Si5 0.630100 0.574573 0.811276
Si Si6 0.209262 0.676154 0.553919
Si Si7 0.629531 0.922975 0.924146
Si Si8 0.517565 0.183259 0.285705
O O1 0.878652 0.079433 0.545887
O O2 0.719048 0.076181 0.812157
O O3 0.749851 0.000000 0.929070
O O4 0.727574 0.126841 0.007362
O O5 0.115622 0.183883 0.595286
O O6 0.124089 0.069797 0.685810
O O7 0.968442 0.096173 0.910880
O O8 0.896357 0.288966 0.821175
O O9 0.910199 0.313296 0.575013
O O10 0.750000 0.250000 0.000000
O O11 0.868076 0.311312 0.377575
O O12 0.018207 0.269969 0.171877
O O13 0.000000 0.229445 0.000000
O O14 0.661398 0.500000 0.784724
O O15 0.706192 0.630557 0.684823
O O16 0.250000 0.750000 0.500000
O O17 0.154357 0.631171 0.770661
O O18 0.607327 0.000000 0.928713
O O19 0.538925 0.893699 0.197998
#
# Coordination Sequence:
#
# PCOD8092304 Si02
#       8
#     8   8   8   8   8   8   8   8
#     4  10  19  34  61  92 122 159 208 263 318 379
#     4  11  19  34  54  87 125 161 214 262 314 375
#     4  10  22  43  66  96 121 160 215 273 328 372
#     4  12  21  37  58  93 127 168 209 254 321 386
#     4  11  21  33  52  82 124 170 212 254 307 378
#     4  12  21  35  54  83 128 166 209 252 307 375
#     4  10  20  35  58  87 124 170 211 257 314 377
#     4  10  23  41  64  91 129 162 212 267 320 388
#
# _framework density 20.085121999999998
#
# number of rings (size 3 to 8) (size 9 to 14) (size 15 to 20)
#    0.000    1.250    5.000    2.625    0.000    1.500 
#    0.000    4.375    0.000    0.000    0.000    2.625 
#    0.000    0.000    0.000    0.000    0.000    0.000 
#
# Total GULP energy -396495.666537 kJ/mol
# GULP energy per Si atom -12390.489579 kJ/mol
# Density = 2.003941 g / cm^3
# Si number density = 20.085122 Si / 1000 Ang^3
#
#
#
# Elastic Constant Matrix: (Units=GPa)
#
#
# Indices 1 2 3 4 5 6 
#
# 1 65.5078 49.6202 23.5077 0.0000 -2.8439 0.0000
# 2 49.6202 176.6879 59.8794 0.0000 -5.2890 0.0000
# 3 23.5077 59.8794 114.8706 0.0000 -7.8236 0.0000
# 4 0.0000 0.0000 0.0000 30.3669 0.0000 2.8607
# 5 -2.8439 -5.2890 -7.8236 0.0000 24.0310 0.0000
# 6 0.0000 0.0000 0.0000 2.8607 0.0000 18.6517
#
#
#
# Elastic Compliance Matrix: (Units=1/GPa)
#
#
# Indices 1 2 3 4 5 6 
#
# 1 0.019584 -0.005024 -0.001336 0.000000 0.000777 0.000000
# 2 -0.005024 0.008166 -0.003218 0.000000 0.000155 0.000000
# 3 -0.001336 -0.003218 0.010838 0.000000 0.002662 0.000000
# 4 0.000000 0.000000 0.000000 0.033413 0.000000 -0.005125
# 5 0.000777 0.000155 0.002662 0.000000 0.042606 0.000000
# 6 0.000000 0.000000 0.000000 -0.005125 0.000000 0.054400
#
#
# Mechanical properties :
#
#
# Convention : Reuss Voigt Hill
#
# Bulk Modulus (GPa) = 51.46239 69.23122 60.34681
# Shear Modulus (GPa) = 25.68850 29.54718 27.61784
#
# Velocity S-wave (km/s) = 3.58017 3.83965 3.71218
# Velocity P-wave (km/s) = 6.53972 7.36213 6.96308
#
# Compressibility (1/GPa) = 0.01943167
#
# Stress axis : x y z
#
# Youngs Moduli (GPa) = 51.06234 122.46237 92.27116
#
# Poissons Ratio (x) = 0.61523 0.12328
# Poissons Ratio (y) = 0.25653 0.29693
# Poissons Ratio (z) = 0.06822 0.39408
#
# Static dielectric constant tensor:
#      x y z
#    x 3.355230 0.000000 -0.154540 
#    y 0.000000 3.916210 0.000000 
#    z -0.154540 0.000000 3.814400 
# 
# 
# High freq. dielectric constant tensor:
#      x y z
#    x 1.733780 0.000000 -0.008970 
#    y 0.000000 1.794520 0.000000 
#    z -0.008970 0.000000 1.797410 
# 
# From -- ./inp_files/190024.got.cif
#   From: 2010.06.25/outbox.cif.g09.slc.cpg/sg12_96_cif.got.tgz:190024.got - 2010.06.28 00:19:55.
