data_PCOD8092390
_publ_section_title
;
Structure prediction by ZEFSAII (Michael W. Deem and Ramdas Pophale) SiO2 
 PCOD8092390
Probable space group: C 2/M
;
_chemical_formula_sum "Si O2"
_cell_formula_units_Z 64
_cell_length_a 20.668979
_cell_length_b 8.846369
_cell_length_c 20.457030
_cell_angle_alpha 90.000000
_cell_angle_beta 106.489107
_cell_angle_gamma 90.000000
_cell_volume 3586.642333
_symmetry_space_group_name_H-M "C 2/M"
_symmetry_group_IT_number 12
_symmetry_cell_setting 'monoclinic'
loop_
_space_group_symop_operation_xyz
x,y,z
-x,y,-z
-x,-y,-z
x,-y,z
1/2+x,1/2+y,z
1/2-x,1/2+y,-z
1/2-x,1/2-y,-z
1/2+x,1/2-y,z
loop_
_atom_site_type_symbol
_atom_site_label
_atom_site_fract_x
_atom_site_fract_y
_atom_site_fract_z
Si Si1 0.046705 0.321845 0.358737
Si Si2 0.605715 0.820946 0.650928
Si Si3 0.945633 0.821081 0.772889
Si Si4 0.418171 0.822026 0.136663
Si Si5 0.842961 0.820436 0.852380
Si Si6 0.306869 0.820454 0.207035
Si Si7 0.075175 0.177021 0.998999
Si Si8 0.573542 0.179263 0.505346
O O1 0.052266 0.500000 0.346944
O O2 0.076090 0.232418 0.305447
O O3 0.091672 0.272705 0.435887
O O4 0.969116 0.273156 0.347803
O O5 0.660724 0.752585 0.716721
O O6 0.620835 0.765281 0.579801
O O7 0.610245 0.000000 0.655075
O O8 0.889438 0.759105 0.806954
O O9 0.017521 0.755696 0.813002
O O10 0.950227 0.000000 0.777054
O O11 0.352503 0.772265 0.158748
O O12 0.429764 0.000000 0.143179
O O13 0.405848 0.770373 0.059448
O O14 0.767908 0.751794 0.823429
O O15 0.873725 0.768012 0.930229
O O16 0.841486 0.000000 0.849573
O O17 0.302573 0.000000 0.210475
O O18 0.081892 0.000000 0.985363
O O19 0.000000 0.216692 0.000000
O O20 0.500000 0.245035 0.500000
O O21 0.570119 0.000000 0.505870
#
# Coordination Sequence:
#
# PCOD8092390 Si02
#       8
#     8   8   8   8   8   8   8   8
#     4   9  15  26  45  73  99 122 157 205 245 273
#     4   8  12  22  43  71  97 123 155 197 243 280
#     4  11  20  32  50  72  98 132 167 195 235 291
#     4  11  21  33  53  79  99 120 157 207 252 281
#     4   9  19  34  50  68  95 131 166 196 233 289
#     4   9  17  30  49  74 100 124 159 205 244 279
#     4  10  19  35  54  72  97 132 164 192 234 290
#     4   7  11  19  37  66  98 123 151 194 240 281
#
# _framework density 17.843988
#
# number of rings (size 3 to 8) (size 9 to 14) (size 15 to 20)
#    0.000    2.750    2.500    2.250    0.000    0.750 
#    0.000    0.000    0.000    7.875    0.000    0.000 
#    0.000    0.000    0.000    0.000    0.000    0.125 
#
# Total GULP energy -396487.222158 kJ/mol
# GULP energy per Si atom -12390.225692 kJ/mol
# Density = 1.780337 g / cm^3
# Si number density = 17.843988 Si / 1000 Ang^3
#
#
#
# Elastic Constant Matrix: (Units=GPa)
#
#
# Indices 1 2 3 4 5 6 
#
# 1 98.3935 22.7013 64.1813 0.0000 -0.5302 0.0000
# 2 22.7013 29.8395 27.9474 0.0000 -5.3858 0.0000
# 3 64.1813 27.9474 184.4153 0.0000 -5.7354 0.0000
# 4 0.0000 0.0000 0.0000 14.8333 0.0000 -3.7835
# 5 -0.5302 -5.3858 -5.7354 0.0000 25.1381 0.0000
# 6 0.0000 0.0000 0.0000 -3.7835 0.0000 11.8097
#
#
#
# Elastic Compliance Matrix: (Units=1/GPa)
#
#
# Indices 1 2 3 4 5 6 
#
# 1 0.014514 -0.007753 -0.003947 0.000000 -0.002255 0.000000
# 2 -0.007753 0.044485 -0.003779 0.000000 0.008505 0.000000
# 3 -0.003947 -0.003779 0.007393 0.000000 0.000794 0.000000
# 4 0.000000 0.000000 0.000000 0.073415 0.000000 0.023520
# 5 -0.002255 0.008505 0.000794 0.000000 0.041736 0.000000
# 6 0.000000 0.000000 0.000000 0.023520 0.000000 0.092211
#
#
# Mechanical properties :
#
#
# Convention : Reuss Voigt Hill
#
# Bulk Modulus (GPa) = 28.21966 60.25647 44.23806
# Shear Modulus (GPa) = 15.79662 23.54412 19.67037
#
# Velocity S-wave (km/s) = 2.97856 3.63635 3.32377
# Velocity P-wave (km/s) = 5.26100 7.17444 6.29089
#
# Compressibility (1/GPa) = 0.03543629
#
# Stress axis : x y z
#
# Youngs Moduli (GPa) = 68.89833 22.47937 135.25591
#
# Poissons Ratio (x) = 0.17428 0.53379
# Poissons Ratio (y) = 0.53416 0.51111
# Poissons Ratio (z) = 0.27191 0.08495
#
# Static dielectric constant tensor:
#      x y z
#    x 3.237490 0.000000 0.052000 
#    y 0.000000 2.835890 0.000000 
#    z 0.052000 0.000000 3.967910 
# 
# 
# High freq. dielectric constant tensor:
#      x y z
#    x 1.656250 0.000000 -0.003200 
#    y 0.000000 1.641210 0.000000 
#    z -0.003200 0.000000 1.720140 
# 
# From -- ./inp_files/319229.got.cif
#   From: 2010.06.25/outbox.cif.g09.slc.cpg/sg12_160_cif.got.tgz:319229.got - 2010.06.28 00:19:55.
