data_PCOD8092845
_publ_section_title
;
Structure prediction by ZEFSAII (Michael W. Deem and Ramdas Pophale) SiO2 
 PCOD8092845
Probable space group: C 2/M
;
_chemical_formula_sum "Si O2"
_cell_formula_units_Z 48
_cell_length_a 28.516904
_cell_length_b 8.733087
_cell_length_c 17.584120
_cell_angle_alpha 90.000000
_cell_angle_beta 144.609995
_cell_angle_gamma 90.000000
_cell_volume 2536.142121
_symmetry_space_group_name_H-M "C 2/M"
_symmetry_group_IT_number 12
_symmetry_cell_setting 'monoclinic'
loop_
_space_group_symop_operation_xyz
x,y,z
-x,y,-z
-x,-y,-z
x,-y,z
1/2+x,1/2+y,z
1/2-x,1/2+y,-z
1/2-x,1/2-y,-z
1/2+x,1/2-y,z
loop_
_atom_site_type_symbol
_atom_site_label
_atom_site_fract_x
_atom_site_fract_y
_atom_site_fract_z
Si Si1 0.960388 0.820699 0.218134
Si Si2 0.711907 0.819870 0.024089
Si Si3 0.951783 0.820319 0.511637
Si Si4 0.477250 0.319958 0.855488
Si Si5 0.627350 0.318257 0.150514
Si Si6 0.780737 0.318909 0.265584
O O1 0.994795 0.772956 0.345158
O O2 0.025834 0.778848 0.238295
O O3 0.938223 0.000000 0.186678
O O4 0.881384 0.724974 0.094140
O O5 0.763048 0.758024 0.161988
O O6 0.721698 0.000000 0.034496
O O7 0.750000 0.750000 0.000000
O O8 0.869100 0.728246 0.410191
O O9 0.000000 0.770001 0.500000
O O10 0.932582 0.000000 0.485319
O O11 0.478568 0.500000 0.868817
O O12 0.398983 0.257952 0.799591
O O13 0.560567 0.256169 0.002291
O O14 0.630479 0.500000 0.153037
O O15 0.715658 0.257333 0.242042
O O16 0.775657 0.500000 0.248710
#
# Coordination Sequence:
#
# PCOD8092845 Si02
#       6
#     8   8   8   8   8   8
#     4  10  19  35  58  81 108 145 190 231 273 329
#     4  12  24  37  56  82 112 141 180 232 280 329
#     4  10  22  38  54  75 109 151 188 228 282 337
#     4   8  13  26  51  81 109 139 180 224 270 326
#     4   8  14  26  50  82 110 138 177 225 271 326
#     4  11  21  36  58  83 111 144 186 229 275 329
#
# _framework density 18.926385
#
# number of rings (size 3 to 8) (size 9 to 14) (size 15 to 20)
#    0.000    2.167    1.667    4.000    0.000    2.333 
#    0.000    0.833    0.000    3.000    0.000    0.000 
#    0.000    0.000    0.000    0.000    0.000    0.000 
#
# Total GULP energy -297477.786064 kJ/mol
# GULP energy per Si atom -12394.907753 kJ/mol
# Density = 1.888331 g / cm^3
# Si number density = 18.926385 Si / 1000 Ang^3
#
#
#
# Elastic Constant Matrix: (Units=GPa)
#
#
# Indices 1 2 3 4 5 6 
#
# 1 131.0286 13.5394 20.3126 0.0000 -0.2611 0.0000
# 2 13.5394 54.8272 15.9594 0.0000 3.0501 0.0000
# 3 20.3126 15.9594 56.4971 0.0000 -0.8109 0.0000
# 4 0.0000 0.0000 0.0000 27.3748 0.0000 4.7864
# 5 -0.2611 3.0501 -0.8109 0.0000 35.5432 0.0000
# 6 0.0000 0.0000 0.0000 4.7864 0.0000 14.9631
#
#
#
# Elastic Compliance Matrix: (Units=1/GPa)
#
#
# Indices 1 2 3 4 5 6 
#
# 1 0.008163 -0.001273 -0.002574 0.000000 0.000110 0.000000
# 2 -0.001273 0.020192 -0.005273 0.000000 -0.001862 0.000000
# 3 -0.002574 -0.005273 0.020128 0.000000 0.000893 0.000000
# 4 0.000000 0.000000 0.000000 0.038694 0.000000 -0.012377
# 5 0.000110 -0.001862 0.000893 0.000000 0.028316 0.000000
# 6 0.000000 0.000000 0.000000 -0.012377 0.000000 0.070790
#
#
# Mechanical properties :
#
#
# Convention : Reuss Voigt Hill
#
# Bulk Modulus (GPa) = 33.06495 37.99731 35.53113
# Shear Modulus (GPa) = 23.29893 28.41234 25.85564
#
# Velocity S-wave (km/s) = 3.51241 3.87874 3.70011
# Velocity P-wave (km/s) = 5.82731 6.33873 6.08839
#
# Compressibility (1/GPa) = 0.03024351
#
# Stress axis : x y z
#
# Youngs Moduli (GPa) = 122.50959 49.52482 49.68294
#
# Poissons Ratio (x) = 0.06303 0.12786
# Poissons Ratio (y) = 0.15592 0.26198
# Poissons Ratio (z) = 0.31529 0.26114
#
# Static dielectric constant tensor:
#      x y z
#    x 4.106970 0.000000 0.024880 
#    y 0.000000 3.266520 0.000000 
#    z 0.024880 0.000000 3.299850 
# 
# 
# High freq. dielectric constant tensor:
#      x y z
#    x 1.762960 0.000000 0.000220 
#    y 0.000000 1.700700 0.000000 
#    z 0.000220 0.000000 1.713890 
# 
# From -- ./inp_files/244859.got.cif
#   From: 2010.06.25/outbox.cif.g09.slc.cpg/sg12_123_cif.got.tgz:244859.got - 2010.06.28 00:19:55.
