data_PCOD8092949
_publ_section_title
;
Structure prediction by ZEFSAII (Michael W. Deem and Ramdas Pophale) SiO2 
 PCOD8092949
Probable space group: C 2/M
;
_chemical_formula_sum "Si O2"
_cell_formula_units_Z 40
_cell_length_a 7.900969
_cell_length_b 30.872918
_cell_length_c 14.969010
_cell_angle_alpha 90.000000
_cell_angle_beta 35.367233
_cell_angle_gamma 90.000000
_cell_volume 2113.444402
_symmetry_space_group_name_H-M "C 2/M"
_symmetry_group_IT_number 12
_symmetry_cell_setting 'monoclinic'
loop_
_space_group_symop_operation_xyz
x,y,z
-x,y,-z
-x,-y,-z
x,-y,z
1/2+x,1/2+y,z
1/2-x,1/2+y,-z
1/2-x,1/2-y,-z
1/2+x,1/2-y,z
loop_
_atom_site_type_symbol
_atom_site_label
_atom_site_fract_x
_atom_site_fract_y
_atom_site_fract_z
Si Si1 0.044053 0.197448 0.670935
Si Si2 0.500000 0.733459 0.500000
Si Si3 0.855021 0.889742 0.972156
Si Si4 0.500000 0.174724 0.000000
Si Si5 0.125465 0.548632 0.846573
Si Si6 0.323287 0.599828 0.338602
O O1 0.229000 0.235117 0.638389
O O2 0.056098 0.202387 0.559231
O O3 0.167356 0.150309 0.640336
O O4 0.719442 0.204342 0.849284
O O5 0.109087 0.906916 0.795948
O O6 0.673220 0.853928 0.997061
O O7 0.626368 0.927094 0.102087
O O8 0.000000 0.870860 0.000000
O O9 0.169464 0.500000 0.791151
O O10 0.435181 0.573628 0.707778
O O11 0.000000 0.548844 0.000000
O O12 0.000000 0.581624 0.500000
#
# Coordination Sequence:
#
# PCOD8092949 Si02
#       6
#     8   4   8   4   8   8
#     4  10  20  38  56  80 113 143 185 231 280 333
#     4  10  22  36  56  82 106 148 186 224 286 340
#     4  10  19  35  58  86 108 151 192 224 276 331
#     4  10  20  40  57  82 116 142 188 238 267 334
#     4   9  17  34  57  81 114 150 186 228 274 330
#     4  10  19  36  57  82 115 150 182 234 281 330
#
# _framework density 18.926449000000002
#
# number of rings (size 3 to 8) (size 9 to 14) (size 15 to 20)
#    0.000    2.200    6.000    0.000    0.000    3.200 
#    3.600    0.000    0.000    1.200    0.000    0.000 
#    0.000    0.000    0.000    0.000    0.000    0.000 
#
# Total GULP energy -247905.697235 kJ/mol
# GULP energy per Si atom -12395.284862 kJ/mol
# Density = 1.888337 g / cm^3
# Si number density = 18.926449 Si / 1000 Ang^3
#
#
#
# Elastic Constant Matrix: (Units=GPa)
#
#
# Indices 1 2 3 4 5 6 
#
# 1 111.0113 29.6198 33.4657 0.0000 -8.2185 0.0000
# 2 29.6198 76.5735 35.8653 0.0000 -1.9408 0.0000
# 3 33.4657 35.8653 145.1970 0.0000 -24.8786 0.0000
# 4 0.0000 0.0000 0.0000 15.2829 0.0000 -5.9879
# 5 -8.2185 -1.9408 -24.8786 0.0000 19.6242 0.0000
# 6 0.0000 0.0000 0.0000 -5.9879 0.0000 2.2218
#
#
#
# Elastic Compliance Matrix: (Units=1/GPa)
#
#
# Indices 1 2 3 4 5 6 
#
# 1 0.010460 -0.003462 -0.001103 0.000000 0.002639 0.000000
# 2 -0.003462 0.016169 -0.004050 0.000000 -0.004986 0.000000
# 3 -0.001103 -0.004050 0.010213 0.000000 0.012084 0.000000
# 4 0.000000 0.000000 0.000000 -1.170284 0.000000 -3.153937
# 5 0.002639 -0.004986 0.012084 0.000000 0.066890 0.000000
# 6 0.000000 0.000000 0.000000 -3.153937 0.000000 -8.049838
#
#
# Mechanical properties :
#
#
# Convention : Reuss Voigt Hill
#
# Bulk Modulus (GPa) = 50.99478 58.96481 54.97979
# Shear Modulus (GPa) = -0.54990 23.01451 11.23231
#
# Velocity S-wave (km/s) = -0.53961 3.49090 2.43877
# Velocity P-wave (km/s) = 5.15887 6.88991 6.08625
#
# Compressibility (1/GPa) = 0.01960985
#
# Stress axis : x y z
#
# Youngs Moduli (GPa) = 95.60286 61.84552 97.91893
#
# Poissons Ratio (x) = 0.21413 0.10804
# Poissons Ratio (y) = 0.33101 0.39659
# Poissons Ratio (z) = 0.10549 0.25049
#
# Static dielectric constant tensor:
#      x y z
#    x 3.272400 0.000000 -0.228640 
#    y 0.000000 3.444630 0.000000 
#    z -0.228640 0.000000 3.733600 
# 
# 
# High freq. dielectric constant tensor:
#      x y z
#    x 1.718490 0.000000 -0.018980 
#    y 0.000000 1.720690 0.000000 
#    z -0.018980 0.000000 1.739040 
# 
# From -- ./inp_files/259653.got.cif
#   From: 2010.06.25/outbox.cif.g09.slc.cpg/sg12_130_cif.got.tgz:259653.got - 2010.06.28 00:19:55.
