data_PCOD8092781
_publ_section_title
;
Structure prediction by ZEFSAII (Michael W. Deem and Ramdas Pophale) SiO2 
 PCOD8092781
Probable space group: C 2/M
;
_chemical_formula_sum "Si O2"
_cell_formula_units_Z 64
_cell_length_a 22.056373
_cell_length_b 18.269797
_cell_length_c 10.005679
_cell_angle_alpha 90.000000
_cell_angle_beta 123.886632
_cell_angle_gamma 90.000000
_cell_volume 3347.086822
_symmetry_space_group_name_H-M "C 2/M"
_symmetry_group_IT_number 12
_symmetry_cell_setting 'monoclinic'
loop_
_space_group_symop_operation_xyz
x,y,z
-x,y,-z
-x,-y,-z
x,-y,z
1/2+x,1/2+y,z
1/2-x,1/2+y,-z
1/2-x,1/2-y,-z
1/2+x,1/2-y,z
loop_
_atom_site_type_symbol
_atom_site_label
_atom_site_fract_x
_atom_site_fract_y
_atom_site_fract_z
Si Si1 0.050315 0.822420 0.437602
Si Si2 0.785599 0.414613 0.936626
Si Si3 0.024329 0.914359 0.879297
Si Si4 0.571811 0.154169 0.449902
Si Si5 0.266999 0.160174 0.398338
Si Si6 0.928396 0.584211 0.267222
Si Si7 0.783775 0.826508 0.374771
Si Si8 0.310683 0.586252 0.937733
O O1 0.043382 0.736745 0.397270
O O2 0.134174 0.841421 0.575160
O O3 0.000000 0.845979 0.500000
O O4 0.027707 0.868556 0.280800
O O5 0.771977 0.500000 0.894979
O O6 0.772024 0.372346 0.783104
O O7 0.868909 0.398567 0.081385
O O8 0.731554 0.383272 0.984485
O O9 0.017837 0.000000 0.835009
O O10 0.106707 0.884337 0.962204
O O11 0.000000 0.899359 0.000000
O O12 0.648079 0.140986 0.468061
O O13 0.509532 0.101552 0.310127
O O14 0.584704 0.136393 0.621947
O O15 0.222611 0.148528 0.479724
O O16 0.261191 0.242089 0.334174
O O17 0.232241 0.107025 0.248049
O O18 0.922825 0.500000 0.306664
O O19 0.310803 0.500000 0.942651
#
# Coordination Sequence:
#
# PCOD8092781 Si02
#       8
#     8   8   8   8   8   8   8   8
#     4  11  21  36  58  84 112 146 192 234 279 334
#     4  10  21  37  56  84 113 142 185 235 281 329
#     4  10  22  38  55  79 111 147 188 233 281 334
#     4  10  19  35  57  84 113 143 188 231 277 333
#     4  10  21  38  56  81 114 151 188 225 277 342
#     4  10  19  35  59  86 114 144 184 233 281 333
#     4  10  23  38  54  81 118 149 184 230 284 336
#     4  10  20  35  57  82 106 141 190 230 272 330
#
# _framework density 19.121106000000001
#
# number of rings (size 3 to 8) (size 9 to 14) (size 15 to 20)
#    0.000    1.875    2.500    2.250    0.000    3.250 
#    0.000    0.625    0.000    1.500    0.000    0.000 
#    0.000    0.000    0.000    0.000    0.000    0.000 
#
# Total GULP energy -396867.260481 kJ/mol
# GULP energy per Si atom -12402.101890 kJ/mol
# Density = 1.907759 g / cm^3
# Si number density = 19.121106 Si / 1000 Ang^3
#
#
#
# Elastic Constant Matrix: (Units=GPa)
#
#
# Indices 1 2 3 4 5 6 
#
# 1 85.8480 26.4896 35.9261 0.0000 11.1391 0.0000
# 2 26.4896 54.8345 46.9325 0.0000 4.8433 0.0000
# 3 35.9261 46.9325 109.3158 0.0000 11.3356 0.0000
# 4 0.0000 0.0000 0.0000 25.9204 0.0000 -2.1066
# 5 11.1391 4.8433 11.3356 0.0000 26.3942 0.0000
# 6 0.0000 0.0000 0.0000 -2.1066 0.0000 18.0181
#
#
#
# Elastic Compliance Matrix: (Units=1/GPa)
#
#
# Indices 1 2 3 4 5 6 
#
# 1 0.014635 -0.004672 -0.002357 0.000000 -0.004307 0.000000
# 2 -0.004672 0.030322 -0.011628 0.000000 0.001402 0.000000
# 3 -0.002357 -0.011628 0.015271 0.000000 -0.003430 0.000000
# 4 0.000000 0.000000 0.000000 0.038950 0.000000 0.004554
# 5 -0.004307 0.001402 -0.003430 0.000000 0.040921 0.000000
# 6 0.000000 0.000000 0.000000 0.004554 0.000000 0.056032
#
#
# Mechanical properties :
#
#
# Convention : Reuss Voigt Hill
#
# Bulk Modulus (GPa) = 43.64323 52.07718 47.86020
# Shear Modulus (GPa) = 20.73970 23.44322 22.09146
#
# Velocity S-wave (km/s) = 3.29697 3.50528 3.40272
# Velocity P-wave (km/s) = 6.11290 6.60888 6.36572
#
# Compressibility (1/GPa) = 0.02291306
#
# Stress axis : x y z
#
# Youngs Moduli (GPa) = 68.32705 32.97903 65.48573
#
# Poissons Ratio (x) = 0.15408 0.15438
# Poissons Ratio (y) = 0.31923 0.76148
# Poissons Ratio (z) = 0.16108 0.38348
#
# Static dielectric constant tensor:
#      x y z
#    x 3.836610 0.000000 0.221020 
#    y 0.000000 3.410930 0.000000 
#    z 0.221020 0.000000 3.304040 
# 
# 
# High freq. dielectric constant tensor:
#      x y z
#    x 1.752920 0.000000 0.016020 
#    y 0.000000 1.737650 0.000000 
#    z 0.016020 0.000000 1.734590 
# 
# From -- ./inp_files/99107.got.cif
#   From: 2010.06.25/outbox.cif.g09.slc.cpg/sg12_50_cif.got.tgz:99107.got - 2010.06.28 00:19:55.
