data_PCOD8092250
_publ_section_title
;
Structure prediction by ZEFSAII (Michael W. Deem and Ramdas Pophale) SiO2 
 PCOD8092250
Probable space group: C 2/M
;
_chemical_formula_sum "Si O2"
_cell_formula_units_Z 52
_cell_length_a 22.011224
_cell_length_b 30.004797
_cell_length_c 9.394789
_cell_angle_alpha 90.000000
_cell_angle_beta 27.870071
_cell_angle_gamma 90.000000
_cell_volume 2900.506903
_symmetry_space_group_name_H-M "C 2/M"
_symmetry_group_IT_number 12
_symmetry_cell_setting 'monoclinic'
loop_
_space_group_symop_operation_xyz
x,y,z
-x,y,-z
-x,-y,-z
x,-y,z
1/2+x,1/2+y,z
1/2-x,1/2+y,-z
1/2-x,1/2-y,-z
1/2+x,1/2-y,z
loop_
_atom_site_type_symbol
_atom_site_label
_atom_site_fract_x
_atom_site_fract_y
_atom_site_fract_z
Si Si1 0.880777 0.245425 0.643258
Si Si2 0.612008 0.842071 0.385947
Si Si3 0.991314 0.406716 0.177264
Si Si4 0.626956 0.649717 0.330779
Si Si5 0.843763 0.500000 0.823866
Si Si6 0.352136 0.000000 0.486031
Si Si7 0.243836 0.072239 0.243175
Si Si8 0.350407 0.500000 0.346779
O O1 0.897832 0.292026 0.522454
O O2 0.877533 0.197094 0.570567
O O3 0.000000 0.240662 0.500000
O O4 0.750000 0.250000 0.000000
O O5 0.500000 0.849393 0.500000
O O6 0.604628 0.876635 0.530665
O O7 0.749839 0.850313 0.028491
O O8 0.944689 0.457728 0.271256
O O9 0.000000 0.387729 0.000000
O O10 0.132313 0.402228 0.953338
O O11 0.500000 0.641669 0.500000
O O12 0.638006 0.609083 0.418067
O O13 0.792803 0.500000 0.767625
O O14 0.000000 0.500000 0.500000
O O15 0.788131 0.543587 0.015360
O O16 0.233022 0.000000 0.624216
O O17 0.180507 0.043541 0.498514
O O18 0.500000 0.500000 0.000000
#
# Coordination Sequence:
#
# PCOD8092250 Si02
#       8
#     8   8   8   8   4   4   8   4
#     4   8  16  31  53  85 114 146 182 234 286 338
#     4  10  19  34  60  88 113 149 198 240 285 334
#     4  12  22  35  58  86 115 147 194 243 287 333
#     4  10  20  35  58  89 121 147 186 241 294 342
#     4  11  21  33  60  88 114 135 186 254 295 321
#     4  12  22  36  58  85 114 148 189 235 293 331
#     4  11  22  38  58  87 112 148 193 242 282 338
#     4  11  26  44  56  74 119 164 193 221 286 367
#
# _framework density 17.927900999999999
#
# number of rings (size 3 to 8) (size 9 to 14) (size 15 to 20)
#    0.000    1.538    4.615    1.615    0.000    2.462 
#    0.000    1.538    0.000    1.846    0.000    0.000 
#    0.000    0.000    0.000    0.000    0.000    0.000 
#
# Total GULP energy -322207.940373 kJ/mol
# GULP energy per Si atom -12392.613091 kJ/mol
# Density = 1.788710 g / cm^3
# Si number density = 17.927901 Si / 1000 Ang^3
#
#
#
# Elastic Constant Matrix: (Units=GPa)
#
#
# Indices 1 2 3 4 5 6 
#
# 1 108.8827 51.6338 43.9837 0.0001 -1.2448 0.0000
# 2 51.6338 133.0090 26.6188 0.0000 2.2595 0.0000
# 3 43.9837 26.6188 86.3856 0.0001 -8.7055 0.0000
# 4 0.0001 0.0000 0.0001 19.1750 -0.0001 -7.8385
# 5 -1.2448 2.2595 -8.7055 -0.0001 38.1207 -0.0001
# 6 0.0000 0.0000 0.0000 -7.8385 -0.0001 20.6990
#
#
#
# Elastic Compliance Matrix: (Units=1/GPa)
#
#
# Indices 1 2 3 4 5 6 
#
# 1 0.013370 -0.004055 -0.005619 0.000000 -0.000606 0.000000
# 2 -0.004055 0.009285 -0.000885 0.000000 -0.000885 0.000000
# 3 -0.005619 -0.000885 0.015043 0.000000 0.003304 0.000000
# 4 0.000000 0.000000 0.000000 0.061703 0.000000 0.023366
# 5 -0.000606 -0.000885 0.003304 0.000000 0.027020 0.000000
# 6 0.000000 0.000000 0.000000 0.023366 0.000000 0.057160
#
#
# Mechanical properties :
#
#
# Convention : Reuss Voigt Hill
#
# Bulk Modulus (GPa) = 60.32009 63.63888 61.97949
# Shear Modulus (GPa) = 23.78390 29.33502 26.55946
#
# Velocity S-wave (km/s) = 3.64626 4.04948 3.85315
# Velocity P-wave (km/s) = 7.17258 7.57882 7.37850
#
# Compressibility (1/GPa) = 0.01657823
#
# Stress axis : x y z
#
# Youngs Moduli (GPa) = 74.79290 107.70254 66.47734
#
# Poissons Ratio (x) = 0.43679 0.37353
# Poissons Ratio (y) = 0.30332 0.05885
# Poissons Ratio (z) = 0.42026 0.09535
#
# Static dielectric constant tensor:
#      x y z
#    x 3.356850 0.000000 -0.158580 
#    y 0.000000 3.995700 0.000000 
#    z -0.158580 0.000000 3.506280 
# 
# 
# High freq. dielectric constant tensor:
#      x y z
#    x 1.671890 0.000000 -0.021350 
#    y 0.000000 1.715580 0.000000 
#    z -0.021350 0.000000 1.685980 
# 
# From -- ./inp_files/53780.got.cif
#   From: 2010.06.25/outbox.cif.g09.slc.cpg/sg12_27_cif.got.tgz:53780.got - 2010.06.28 00:19:55.
