data_PCOD8092447
_publ_section_title
;
Structure prediction by ZEFSAII (Michael W. Deem and Ramdas Pophale) SiO2 
 PCOD8092447
Probable space group: C 2/M
;
_chemical_formula_sum "Si O2"
_cell_formula_units_Z 64
_cell_length_a 28.809882
_cell_length_b 9.044743
_cell_length_c 26.531903
_cell_angle_alpha 90.000000
_cell_angle_beta 150.248925
_cell_angle_gamma 90.000000
_cell_volume 3430.769751
_symmetry_space_group_name_H-M "C 2/M"
_symmetry_group_IT_number 12
_symmetry_cell_setting 'monoclinic'
loop_
_space_group_symop_operation_xyz
x,y,z
-x,y,-z
-x,-y,-z
x,-y,z
1/2+x,1/2+y,z
1/2-x,1/2+y,-z
1/2-x,1/2-y,-z
1/2+x,1/2-y,z
loop_
_atom_site_type_symbol
_atom_site_label
_atom_site_fract_x
_atom_site_fract_y
_atom_site_fract_z
Si Si1 0.862520 0.325737 0.009977
Si Si2 0.811414 0.324694 0.707399
Si Si3 0.663772 0.176489 0.823852
Si Si4 0.134473 0.325185 0.588962
Si Si5 0.566849 0.825210 0.632529
Si Si6 0.827411 0.324817 0.607254
Si Si7 0.492850 0.175263 0.936679
Si Si8 0.964213 0.674870 0.206589
O O1 0.842214 0.500000 0.992774
O O2 0.767077 0.238331 0.924763
O O3 0.927609 0.274427 0.117593
O O4 0.914774 0.279772 0.007636
O O5 0.809553 0.500000 0.708922
O O6 0.719594 0.261077 0.645810
O O7 0.815057 0.272523 0.653106
O O8 0.901172 0.261439 0.822162
O O9 0.615746 0.240536 0.728105
O O10 0.603073 0.238479 0.813331
O O11 0.668209 0.000000 0.827995
O O12 0.150204 0.500000 0.598425
O O13 0.125340 0.276141 0.638658
O O14 0.040620 0.272326 0.471680
O O15 0.565525 0.000000 0.633415
O O16 0.817504 0.500000 0.592984
O O17 0.750000 0.250000 0.500000
O O18 0.929626 0.269560 0.685238
O O19 0.484803 0.000000 0.931374
O O20 0.500000 0.241657 0.000000
O O21 0.964042 0.500000 0.209066
#
# Coordination Sequence:
#
# PCOD8092447 Si02
#       8
#     8   8   8   8   8   8   8   8
#     4  10  19  35  55  76 101 133 173 215 256 308
#     4  10  20  35  55  81 110 137 171 220 267 307
#     4  10  20  33  53  77 101 133 172 215 261 306
#     4   9  18  34  55  75 102 139 176 210 252 310
#     4   8  17  34  52  74 103 137 175 213 252 307
#     4  10  21  37  56  80 108 140 177 218 261 310
#     4   9  18  33  54  77 104 141 178 208 252 317
#     4   9  18  35  56  74 100 138 174 208 258 317
#
# _framework density 18.654706999999998
#
# number of rings (size 3 to 8) (size 9 to 14) (size 15 to 20)
#    0.000    2.625    1.250    1.125    3.500    0.500 
#    0.000    3.750    0.000    0.750    0.000    0.000 
#    0.000    0.000    0.000    0.000    0.000    0.000 
#
# Total GULP energy -396732.117282 kJ/mol
# GULP energy per Si atom -12397.878665 kJ/mol
# Density = 1.861225 g / cm^3
# Si number density = 18.654707 Si / 1000 Ang^3
#
#
#
# Elastic Constant Matrix: (Units=GPa)
#
#
# Indices 1 2 3 4 5 6 
#
# 1 163.1103 22.3604 95.3270 0.0000 5.3381 0.0000
# 2 22.3604 11.0452 20.6651 0.0000 -1.8742 0.0000
# 3 95.3270 20.6651 150.8024 0.0000 -1.0502 0.0000
# 4 0.0000 0.0000 0.0000 26.3327 0.0000 8.5107
# 5 5.3381 -1.8742 -1.0502 0.0000 39.6223 0.0000
# 6 0.0000 0.0000 0.0000 8.5107 0.0000 23.5794
#
#
#
# Elastic Compliance Matrix: (Units=1/GPa)
#
#
# Indices 1 2 3 4 5 6 
#
# 1 0.011024 -0.012950 -0.005210 0.000000 -0.002236 0.000000
# 2 -0.012950 0.138096 -0.010682 0.000000 0.007994 0.000000
# 3 -0.005210 -0.010682 0.011392 0.000000 0.000498 0.000000
# 4 0.000000 0.000000 0.000000 0.042991 0.000000 -0.015517
# 5 -0.002236 0.007994 0.000498 0.000000 0.025931 0.000000
# 6 0.000000 0.000000 0.000000 -0.015517 0.000000 0.048011
#
#
# Mechanical properties :
#
#
# Convention : Reuss Voigt Hill
#
# Bulk Modulus (GPa) = 9.72496 66.85145 38.28820
# Shear Modulus (GPa) = 13.53536 30.34724 21.94130
#
# Velocity S-wave (km/s) = 2.69657 4.03772 3.43327
# Velocity P-wave (km/s) = 3.86261 7.59287 6.02376
#
# Compressibility (1/GPa) = 0.10282822
#
# Stress axis : x y z
#
# Youngs Moduli (GPa) = 90.71206 7.24134 87.78377
#
# Poissons Ratio (x) = 0.09377 0.45731
# Poissons Ratio (y) = 1.17471 0.93773
# Poissons Ratio (z) = 0.47257 0.07735
#
# Static dielectric constant tensor:
#      x y z
#    x 3.822550 0.000000 -0.206070 
#    y 0.000000 2.925490 0.000000 
#    z -0.206070 0.000000 3.738580 
# 
# 
# High freq. dielectric constant tensor:
#      x y z
#    x 1.741520 0.000000 0.000390 
#    y 0.000000 1.673130 0.000000 
#    z 0.000390 0.000000 1.737940 
# 
# From -- ./inp_files/349406.got.cif
#   From: 2010.06.25/outbox.cif.g09.slc.cpg/sg12_175_cif.got.tgz:349406.got - 2010.06.28 00:19:55.
