data_PCOD8092934
_publ_section_title
;
Structure prediction by ZEFSAII (Michael W. Deem and Ramdas Pophale) SiO2 
 PCOD8092934
Probable space group: C 2/M
;
_chemical_formula_sum "Si O2"
_cell_formula_units_Z 36
_cell_length_a 8.961273
_cell_length_b 15.073427
_cell_length_c 21.138576
_cell_angle_alpha 90.000000
_cell_angle_beta 144.906966
_cell_angle_gamma 90.000000
_cell_volume 1641.549983
_symmetry_space_group_name_H-M "C 2/M"
_symmetry_group_IT_number 12
_symmetry_cell_setting 'monoclinic'
loop_
_space_group_symop_operation_xyz
x,y,z
-x,y,-z
-x,-y,-z
x,-y,z
1/2+x,1/2+y,z
1/2-x,1/2+y,-z
1/2-x,1/2-y,-z
1/2+x,1/2-y,z
loop_
_atom_site_type_symbol
_atom_site_label
_atom_site_fract_x
_atom_site_fract_y
_atom_site_fract_z
Si Si1 0.397988 0.671781 0.132635
Si Si2 0.820191 0.097349 0.243769
Si Si3 0.000000 0.764865 0.500000
Si Si4 0.463121 0.778941 0.349409
Si Si5 0.250835 0.131859 0.053772
O O1 0.319417 0.624192 0.169785
O O2 0.710936 0.675908 0.232426
O O3 0.269116 0.768240 0.086508
O O4 0.288577 0.619404 0.034965
O O5 0.966605 0.172478 0.335544
O O6 0.523220 0.086041 0.164571
O O7 0.952598 0.000000 0.298329
O O8 0.270494 0.820706 0.587747
O O9 0.028940 0.704558 0.572657
O O10 0.000000 0.086941 0.000000
#
# Coordination Sequence:
#
# PCOD8092934 Si02
#       5
#     8   8   4   8   8
#     4  10  19  35  58  85 114 152 192 232 277 338
#     4  11  23  38  56  85 123 154 183 229 289 349
#     4  10  20  36  66  86 108 140 206 242 284 324
#     4  10  20  37  62  90 109 147 192 245 278 340
#     4  10  20  33  58  84 113 153 196 231 272 332
#
# _framework density 21.930492999999998
#
# number of rings (size 3 to 8) (size 9 to 14) (size 15 to 20)
#    0.000    1.778    2.222    4.667    3.111    2.222 
#    0.000    1.111    0.000    0.000    0.000    0.000 
#    0.000    0.000    0.000    0.000    0.000    0.000 
#
# Total GULP energy -222994.121938 kJ/mol
# GULP energy per Si atom -12388.562330 kJ/mol
# Density = 2.188058 g / cm^3
# Si number density = 21.930493 Si / 1000 Ang^3
#
#
#
# Elastic Constant Matrix: (Units=GPa)
#
#
# Indices 1 2 3 4 5 6 
#
# 1 119.9048 9.5278 27.5347 0.0003 22.7134 0.0002
# 2 9.5278 75.4286 7.9780 0.0000 -13.8536 0.0001
# 3 27.5347 7.9780 94.5015 0.0009 19.1702 0.0004
# 4 0.0003 0.0000 0.0009 -1.2844 0.0002 -2.5852
# 5 22.7134 -13.8536 19.1702 0.0002 54.9135 0.0002
# 6 0.0002 0.0001 0.0004 -2.5852 0.0002 6.2859
#
#
#
# Elastic Compliance Matrix: (Units=1/GPa)
#
#
# Indices 1 2 3 4 5 6 
#
# 1 0.009621 -0.001702 -0.001900 0.000000 -0.003746 0.000000
# 2 -0.001702 0.014574 -0.001747 0.000000 0.004991 0.000000
# 3 -0.001900 -0.001747 0.012067 0.000004 -0.003868 0.000001
# 4 0.000000 0.000000 0.000004 -0.425960 0.000000 -0.175185
# 5 -0.003746 0.004991 -0.003868 0.000000 0.022369 0.000000
# 6 0.000000 0.000000 0.000001 -0.175185 0.000000 0.087037
#
#
# Mechanical properties :
#
#
# Convention : Reuss Voigt Hill
#
# Bulk Modulus (GPa) = 39.11622 42.21289 40.66455
# Shear Modulus (GPa) = -19.15177 28.30263 4.57543
#
# Velocity S-wave (km/s) = -2.95836 3.59633 1.44598
# Velocity P-wave (km/s) = 2.49118 6.04443 4.62283
#
# Compressibility (1/GPa) = 0.02556484
#
# Stress axis : x y z
#
# Youngs Moduli (GPa) = 103.93921 68.61555 82.86797
#
# Poissons Ratio (x) = 0.11681 0.15742
# Poissons Ratio (y) = 0.17694 0.14475
# Poissons Ratio (z) = 0.19745 0.11985
#
# Static dielectric constant tensor:
#      x y z
#    x 4.233780 0.000000 0.244740 
#    y 0.000000 3.431960 0.000000 
#    z 0.244740 0.000000 4.174050 
# 
# 
# High freq. dielectric constant tensor:
#      x y z
#    x 1.885380 0.000000 0.012070 
#    y 0.000000 1.789370 0.000000 
#    z 0.012070 0.000000 1.872780 
# 
# From -- ./inp_files/194861.got.cif
#   From: 2010.06.25/outbox.cif.g09.slc.cpg/sg12_98_cif.got.tgz:194861.got - 2010.06.28 00:19:55.
