data_PCOD8092159
_publ_section_title
;
Structure prediction by ZEFSAII (Michael W. Deem and Ramdas Pophale) SiO2 
 PCOD8092159
Probable space group: C 2/M
;
_chemical_formula_sum "Si O2"
_cell_formula_units_Z 64
_cell_length_a 28.810510
_cell_length_b 19.060244
_cell_length_c 7.890870
_cell_angle_alpha 90.000000
_cell_angle_beta 131.564870
_cell_angle_gamma 90.000000
_cell_volume 3242.088844
_symmetry_space_group_name_H-M "C 2/M"
_symmetry_group_IT_number 12
_symmetry_cell_setting 'monoclinic'
loop_
_space_group_symop_operation_xyz
x,y,z
-x,y,-z
-x,-y,-z
x,-y,z
1/2+x,1/2+y,z
1/2-x,1/2+y,-z
1/2-x,1/2-y,-z
1/2+x,1/2-y,z
loop_
_atom_site_type_symbol
_atom_site_label
_atom_site_fract_x
_atom_site_fract_y
_atom_site_fract_z
Si Si1 0.930050 0.923056 0.768924
Si Si2 0.623663 0.846908 0.992759
Si Si3 0.987847 0.359061 0.784225
Si Si4 0.163385 0.078336 0.149477
Si Si5 0.869532 0.418863 0.340572
Si Si6 0.593556 0.300914 0.845583
Si Si7 0.460777 0.293331 0.644262
Si Si8 0.804909 0.581771 0.527099
O O1 0.880313 0.914548 0.795244
O O2 0.919865 0.856018 0.624038
O O3 0.919534 0.000000 0.655248
O O4 0.000000 0.919874 0.000000
O O5 0.550202 0.861218 0.825428
O O6 0.648606 0.877901 0.875397
O O7 0.632859 0.762878 0.021152
O O8 0.659255 0.877549 0.239373
O O9 0.940423 0.407457 0.567475
O O10 0.960321 0.280092 0.744601
O O11 0.000000 0.390930 0.000000
O O12 0.232514 0.098594 0.372049
O O13 0.161661 0.000000 0.067936
O O14 0.137782 0.131145 0.944496
O O15 0.858067 0.500000 0.273280
O O16 0.826399 0.393015 0.392358
O O17 0.531851 0.319838 0.803350
O O18 0.571456 0.275305 0.609890
O O19 0.819964 0.500000 0.586990
#
# Coordination Sequence:
#
# PCOD8092159 Si02
#       8
#     8   8   8   8   8   8   8   8
#     4  10  19  34  59  88 114 148 198 247 292 349
#     4  11  22  40  62  91 122 155 205 249 296 357
#     4  11  21  36  61  91 123 157 192 247 306 357
#     4  10  22  41  60  85 119 156 201 248 298 357
#     4  11  23  40  62  88 119 157 203 254 302 354
#     4  10  21  36  59  87 121 157 191 244 304 354
#     4  10  20  35  56  89 124 152 191 238 307 362
#     4  10  23  43  63  83 119 167 204 244 303 358
#
# _framework density 19.740359999999999
#
# number of rings (size 3 to 8) (size 9 to 14) (size 15 to 20)
#    0.000    1.625    3.750    1.125    1.750    2.750 
#    2.250    1.875    0.000    0.000    0.000    0.000 
#    0.000    0.000    0.000    0.000    0.000    0.000 
#
# Total GULP energy -396734.678774 kJ/mol
# GULP energy per Si atom -12397.958712 kJ/mol
# Density = 1.969543 g / cm^3
# Si number density = 19.740360 Si / 1000 Ang^3
#
#
#
# Elastic Constant Matrix: (Units=GPa)
#
#
# Indices 1 2 3 4 5 6 
#
# 1 100.1331 37.7928 40.9626 0.0000 1.7479 0.0000
# 2 37.7928 85.4639 49.2714 0.0000 -1.7861 0.0000
# 3 40.9626 49.2714 68.3678 0.0000 2.6732 0.0000
# 4 0.0000 0.0000 0.0000 30.4236 0.0000 -7.2593
# 5 1.7479 -1.7861 2.6732 0.0000 32.8674 0.0000
# 6 0.0000 0.0000 0.0000 -7.2593 0.0000 25.3834
#
#
#
# Elastic Compliance Matrix: (Units=1/GPa)
#
#
# Indices 1 2 3 4 5 6 
#
# 1 0.013477 -0.002255 -0.006437 0.000000 -0.000316 0.000000
# 2 -0.002255 0.020565 -0.013562 0.000000 0.002340 0.000000
# 3 -0.006437 -0.013562 0.028363 0.000000 -0.002701 0.000000
# 4 0.000000 0.000000 0.000000 0.035276 0.000000 0.010089
# 5 -0.000316 0.002340 -0.002701 0.000000 0.030789 0.000000
# 6 0.000000 0.000000 0.000000 0.010089 0.000000 0.042281
#
#
# Mechanical properties :
#
#
# Convention : Reuss Voigt Hill
#
# Bulk Modulus (GPa) = 55.87354 56.66873 56.27113
# Shear Modulus (GPa) = 22.60152 26.13076 24.36614
#
# Velocity S-wave (km/s) = 3.38737 3.64225 3.51712
# Velocity P-wave (km/s) = 6.60792 6.81596 6.71275
#
# Compressibility (1/GPa) = 0.01789756
#
# Stress axis : x y z
#
# Youngs Moduli (GPa) = 74.20282 48.62540 35.25756
#
# Poissons Ratio (x) = 0.10965 0.22695
# Poissons Ratio (y) = 0.16733 0.47815
# Poissons Ratio (z) = 0.47765 0.65944
#
# Static dielectric constant tensor:
#      x y z
#    x 3.665390 0.000000 0.064080 
#    y 0.000000 3.799680 0.000000 
#    z 0.064080 0.000000 3.369980 
# 
# 
# High freq. dielectric constant tensor:
#      x y z
#    x 1.762600 0.000000 -0.004500 
#    y 0.000000 1.778300 0.000000 
#    z -0.004500 0.000000 1.751670 
# 
# From -- ./inp_files/112882.got.cif
#   From: 2010.06.25/outbox.cif.g09.slc.cpg/sg12_57_cif.got.tgz:112882.got - 2010.06.28 00:19:55.
