data_PCOD8092356
_publ_section_title
;
Structure prediction by ZEFSAII (Michael W. Deem and Ramdas Pophale) SiO2 
 PCOD8092356
Probable space group: C 2/M
;
_chemical_formula_sum "Si O2"
_cell_formula_units_Z 64
_cell_length_a 9.080677
_cell_length_b 26.283684
_cell_length_c 14.269925
_cell_angle_alpha 90.000000
_cell_angle_beta 82.864381
_cell_angle_gamma 90.000000
_cell_volume 3379.476346
_symmetry_space_group_name_H-M "C 2/M"
_symmetry_group_IT_number 12
_symmetry_cell_setting 'monoclinic'
loop_
_space_group_symop_operation_xyz
x,y,z
-x,y,-z
-x,-y,-z
x,-y,z
1/2+x,1/2+y,z
1/2-x,1/2+y,-z
1/2-x,1/2-y,-z
1/2+x,1/2-y,z
loop_
_atom_site_type_symbol
_atom_site_label
_atom_site_fract_x
_atom_site_fract_y
_atom_site_fract_z
Si Si1 0.955396 0.151599 0.289523
Si Si2 0.534069 0.299013 0.101137
Si Si3 0.931079 0.942617 0.404367
Si Si4 0.916147 0.557320 0.600918
Si Si5 0.921590 0.648615 0.329695
Si Si6 0.190348 0.284769 0.341960
Si Si7 0.674082 0.214411 0.824114
Si Si8 0.858685 0.187971 0.573421
O O1 0.996427 0.094157 0.318502
O O2 0.798785 0.167166 0.351891
O O3 0.957971 0.159636 0.177810
O O4 0.082083 0.188137 0.322841
O O5 0.470431 0.241725 0.120072
O O6 0.711444 0.299352 0.102069
O O7 0.500000 0.319018 0.000000
O O8 0.754969 0.936384 0.411578
O O9 0.000000 0.927055 0.500000
O O10 0.980981 0.000000 0.376893
O O11 0.948783 0.500000 0.634395
O O12 0.000000 0.570220 0.500000
O O13 0.984254 0.596123 0.673349
O O14 0.867865 0.662016 0.228178
O O15 0.783326 0.649645 0.416134
O O16 0.023399 0.696433 0.347217
O O17 0.251493 0.257285 0.245845
O O18 0.193719 0.246819 0.432395
O O19 0.000000 0.170250 0.500000
#
# Coordination Sequence:
#
# PCOD8092356 Si02
#       8
#     8   8   8   8   8   8   8   8
#     4  11  21  36  55  80 113 145 190 231 282 330
#     4  11  21  35  57  82 118 154 187 231 278 336
#     4  10  22  40  62  84 109 145 191 240 285 330
#     4  10  23  39  54  80 110 144 194 240 281 330
#     4  11  20  36  57  74 110 151 188 229 284 328
#     4  10  19  35  52  76 110 148 186 227 274 326
#     4  10  19  36  54  82 113 148 190 229 273 335
#     4  11  23  33  50  78 111 151 189 226 266 335
#
# _framework density 18.937846
#
# number of rings (size 3 to 8) (size 9 to 14) (size 15 to 20)
#    0.000    1.500    5.000    2.250    3.500    2.500 
#    0.000    0.000    0.000    0.750    0.000    0.000 
#    0.000    2.500    0.000    0.000    0.000    0.000 
#
# Total GULP energy -396421.056294 kJ/mol
# GULP energy per Si atom -12388.158009 kJ/mol
# Density = 1.889474 g / cm^3
# Si number density = 18.937846 Si / 1000 Ang^3
#
#
#
# Elastic Constant Matrix: (Units=GPa)
#
#
# Indices 1 2 3 4 5 6 
#
# 1 102.9091 26.7900 38.1864 0.0000 15.4926 0.0000
# 2 26.7900 99.5304 49.5363 0.0000 12.3631 0.0000
# 3 38.1864 49.5363 79.9477 0.0000 18.1154 0.0000
# 4 0.0000 0.0000 0.0000 16.3551 0.0000 4.6712
# 5 15.4926 12.3631 18.1154 0.0000 29.1614 0.0000
# 6 0.0000 0.0000 0.0000 4.6712 0.0000 22.3720
#
#
#
# Elastic Compliance Matrix: (Units=1/GPa)
#
#
# Indices 1 2 3 4 5 6 
#
# 1 0.012094 -0.000496 -0.004727 0.000000 -0.003279 0.000000
# 2 -0.000496 0.014558 -0.008664 0.000000 -0.000526 0.000000
# 3 -0.004727 -0.008664 0.021802 0.000000 -0.007359 0.000000
# 4 0.000000 0.000000 0.000000 0.065021 0.000000 -0.013576
# 5 -0.003279 -0.000526 -0.007359 0.000000 0.040829 0.000000
# 6 0.000000 0.000000 0.000000 -0.013576 0.000000 0.047533
#
#
# Mechanical properties :
#
#
# Convention : Reuss Voigt Hill
#
# Bulk Modulus (GPa) = 48.35393 56.82362 52.58877
# Shear Modulus (GPa) = 21.14137 24.76934 22.95535
#
# Velocity S-wave (km/s) = 3.34482 3.62045 3.48536
# Velocity P-wave (km/s) = 6.36439 6.89546 6.63524
#
# Compressibility (1/GPa) = 0.02068084
#
# Stress axis : x y z
#
# Youngs Moduli (GPa) = 82.68710 68.68952 45.86759
#
# Poissons Ratio (x) = 0.03404 0.21679
# Poissons Ratio (y) = 0.04098 0.39742
# Poissons Ratio (z) = 0.39082 0.59516
#
# Static dielectric constant tensor:
#      x y z
#    x 3.929980 0.000000 0.084450 
#    y 0.000000 3.435750 0.000000 
#    z 0.084450 0.000000 3.116410 
# 
# 
# High freq. dielectric constant tensor:
#      x y z
#    x 1.766160 0.000000 0.005400 
#    y 0.000000 1.714950 0.000000 
#    z 0.005400 0.000000 1.688720 
# 
# From -- ./inp_files/199805.got.cif
#   From: 2010.06.25/outbox.cif.g09.slc.cpg/sg12_100_cif.got.tgz:199805.got - 2010.06.28 00:19:55.
