data_PCOD8092757
_publ_section_title
;
Structure prediction by ZEFSAII (Michael W. Deem and Ramdas Pophale) SiO2 
 PCOD8092757
Probable space group: C 2/M
;
_chemical_formula_sum "Si O2"
_cell_formula_units_Z 56
_cell_length_a 20.340135
_cell_length_b 9.071530
_cell_length_c 17.567745
_cell_angle_alpha 90.000000
_cell_angle_beta 64.122997
_cell_angle_gamma 90.000000
_cell_volume 2916.513922
_symmetry_space_group_name_H-M "C 2/M"
_symmetry_group_IT_number 12
_symmetry_cell_setting 'monoclinic'
loop_
_space_group_symop_operation_xyz
x,y,z
-x,y,-z
-x,-y,-z
x,-y,z
1/2+x,1/2+y,z
1/2-x,1/2+y,-z
1/2-x,1/2-y,-z
1/2+x,1/2-y,z
loop_
_atom_site_type_symbol
_atom_site_label
_atom_site_fract_x
_atom_site_fract_y
_atom_site_fract_z
Si Si1 0.805960 0.831777 0.671634
Si Si2 0.177807 0.172152 0.508287
Si Si3 0.565735 0.674858 0.688323
Si Si4 0.401822 0.329187 0.765719
Si Si5 0.158499 0.174573 0.784544
Si Si6 0.824003 0.328426 0.939556
Si Si7 0.083276 0.670860 0.960491
O O1 0.836584 0.792100 0.572738
O O2 0.873234 0.808471 0.694589
O O3 0.740302 0.725327 0.726918
O O4 0.777198 0.000000 0.689200
O O5 0.250000 0.250000 0.500000
O O6 0.109398 0.232143 0.592020
O O7 0.188632 0.000000 0.517787
O O8 0.562644 0.500000 0.689031
O O9 0.483541 0.737168 0.727877
O O10 0.605683 0.732758 0.744140
O O11 0.399572 0.500000 0.791938
O O12 0.350271 0.237143 0.846907
O O13 0.132083 0.237997 0.877682
O O14 0.157675 0.000000 0.789864
O O15 0.807481 0.500000 0.937488
O O16 0.750000 0.250000 0.000000
O O17 0.886342 0.300098 0.970705
O O18 0.088199 0.500000 0.935041
O O19 0.000000 0.727478 0.000000
#
# Coordination Sequence:
#
# PCOD8092757 Si02
#       7
#     8   8   8   8   8   8   8
#     4  10  21  35  56  83 110 145 185 225 270 325
#     4  10  19  35  57  83 113 145 184 226 272 325
#     4   9  19  35  56  82 113 146 182 228 276 323
#     4  10  21  38  57  81 113 146 184 229 277 327
#     4  11  21  34  56  83 110 143 183 228 276 326
#     4  11  23  39  59  82 110 147 187 227 276 331
#     4  10  22  39  57  79 109 143 183 230 276 327
#
# _framework density 19.201004999999999
#
# number of rings (size 3 to 8) (size 9 to 14) (size 15 to 20)
#    0.000    1.857    1.429    2.571    0.000    6.000 
#    0.000    4.286    0.000    0.000    0.000    3.000 
#    0.000    0.000    0.000    0.000    0.000    0.000 
#
# Total GULP energy -347308.495203 kJ/mol
# GULP energy per Si atom -12403.874829 kJ/mol
# Density = 1.915730 g / cm^3
# Si number density = 19.201005 Si / 1000 Ang^3
#
#
#
# Elastic Constant Matrix: (Units=GPa)
#
#
# Indices 1 2 3 4 5 6 
#
# 1 99.7315 26.8124 26.4587 0.0000 -3.0863 0.0001
# 2 26.8124 56.6149 35.6097 0.0000 2.0507 0.0002
# 3 26.4587 35.6097 118.4570 0.0000 0.8226 0.0000
# 4 0.0000 0.0000 0.0000 17.3309 0.0000 2.3702
# 5 -3.0863 2.0507 0.8226 0.0000 37.2214 0.0000
# 6 0.0001 0.0002 0.0000 2.3702 0.0000 27.0250
#
#
#
# Elastic Compliance Matrix: (Units=1/GPa)
#
#
# Indices 1 2 3 4 5 6 
#
# 1 0.011677 -0.004846 -0.001160 0.000000 0.001261 0.000000
# 2 -0.004846 0.023834 -0.006072 0.000000 -0.001581 0.000000
# 3 -0.001160 -0.006072 0.010526 0.000000 0.000006 0.000000
# 4 0.000000 0.000000 0.000000 0.058401 0.000000 -0.005122
# 5 0.001261 -0.001581 0.000006 0.000000 0.027058 0.000000
# 6 0.000000 0.000000 0.000000 -0.005122 0.000000 0.037452
#
#
# Mechanical properties :
#
#
# Convention : Reuss Voigt Hill
#
# Bulk Modulus (GPa) = 45.69988 50.28501 47.99244
# Shear Modulus (GPa) = 24.95050 28.71028 26.83039
#
# Velocity S-wave (km/s) = 3.60868 3.87104 3.74216
# Velocity P-wave (km/s) = 6.41996 6.79894 6.61216
#
# Compressibility (1/GPa) = 0.02188190
#
# Stress axis : x y z
#
# Youngs Moduli (GPa) = 85.64196 41.95629 95.00151
#
# Poissons Ratio (x) = 0.20332 0.11021
# Poissons Ratio (y) = 0.41501 0.57681
# Poissons Ratio (z) = 0.09935 0.25474
#
# Static dielectric constant tensor:
#      x y z
#    x 2.171370 0.000000 -1.209430 
#    y 0.000000 3.380440 0.000000 
#    z -1.209430 0.000000 2.849410 
# 
# 
# High freq. dielectric constant tensor:
#      x y z
#    x 1.755600 0.000000 0.003410 
#    y 0.000000 1.729780 0.000000 
#    z 0.003410 0.000000 1.760080 
# 
# From -- ./inp_files/275256.got.cif
#   From: 2010.06.25/outbox.cif.g09.slc.cpg/sg12_138_cif.got.tgz:275256.got - 2010.06.28 00:19:55.
