data_PCOD8092834
_publ_section_title
;
Structure prediction by ZEFSAII (Michael W. Deem and Ramdas Pophale) SiO2 
 PCOD8092834
Probable space group: C 2/M
;
_chemical_formula_sum "Si O2"
_cell_formula_units_Z 32
_cell_length_a 10.536751
_cell_length_b 36.728158
_cell_length_c 8.656842
_cell_angle_alpha 90.000000
_cell_angle_beta 151.146048
_cell_angle_gamma 90.000000
_cell_volume 1616.714892
_symmetry_space_group_name_H-M "C 2/M"
_symmetry_group_IT_number 12
_symmetry_cell_setting 'monoclinic'
loop_
_space_group_symop_operation_xyz
x,y,z
-x,y,-z
-x,-y,-z
x,-y,z
1/2+x,1/2+y,z
1/2-x,1/2+y,-z
1/2-x,1/2-y,-z
1/2+x,1/2-y,z
loop_
_atom_site_type_symbol
_atom_site_label
_atom_site_fract_x
_atom_site_fract_y
_atom_site_fract_z
Si Si1 0.736296 0.959554 0.134969
Si Si2 0.531060 0.352225 0.215466
Si Si3 0.004743 0.769947 0.820830
Si Si4 0.460741 0.895767 0.276631
O O1 0.000000 0.944002 0.500000
O O2 0.800801 0.000000 0.137357
O O3 0.500000 0.962146 0.000000
O O4 0.625533 0.934839 0.879176
O O5 0.534552 0.311128 0.282140
O O6 0.782987 0.377193 0.528691
O O7 0.500000 0.351584 0.000000
O O8 0.274503 0.369055 0.018903
O O9 0.750000 0.750000 0.500000
O O10 0.250000 0.750000 0.000000
O O11 0.000000 0.768762 0.000000
O O12 0.500000 0.900784 0.500000
#
# Coordination Sequence:
#
# PCOD8092834 Si02
#       4
#     8   8   8   8
#     4  10  21  37  55  78 112 148 176 214 277 335
#     4   9  19  35  56  80 109 144 179 225 283 330
#     4  11  22  39  60  83 114 151 190 233 285 341
#     4  10  19  35  58  81 104 139 188 229 265 321
#
# _framework density 19.793223999999999
#
# number of rings (size 3 to 8) (size 9 to 14) (size 15 to 20)
#    0.000    2.000    0.000    3.750    0.000    4.500 
#    0.000   12.500    0.000    9.000    0.000    0.000 
#    0.000    0.000    0.000    0.000    0.000    0.000 
#
# Total GULP energy -198258.445259 kJ/mol
# GULP energy per Si atom -12391.152829 kJ/mol
# Density = 1.974817 g / cm^3
# Si number density = 19.793224 Si / 1000 Ang^3
#
#
#
# Elastic Constant Matrix: (Units=GPa)
#
#
# Indices 1 2 3 4 5 6 
#
# 1 69.0835 35.7257 45.0857 0.0000 17.0657 0.0000
# 2 35.7257 156.8632 80.9539 0.0000 1.9277 0.0000
# 3 45.0857 80.9539 140.7241 0.0000 33.1430 0.0000
# 4 0.0000 0.0000 0.0000 43.5035 0.0000 4.3234
# 5 17.0657 1.9277 33.1430 0.0000 34.8176 0.0000
# 6 0.0000 0.0000 0.0000 4.3234 0.0000 31.1892
#
#
#
# Elastic Compliance Matrix: (Units=1/GPa)
#
#
# Indices 1 2 3 4 5 6 
#
# 1 0.019546 -0.002729 -0.003186 0.000000 -0.006397 0.000000
# 2 -0.002729 0.010439 -0.006845 0.000000 0.007275 0.000000
# 3 -0.003186 -0.006845 0.014961 0.000000 -0.012301 0.000000
# 4 0.000000 0.000000 0.000000 0.023308 0.000000 -0.003231
# 5 -0.006397 0.007275 -0.012301 0.000000 0.043163 0.000000
# 6 0.000000 0.000000 0.000000 -0.003231 0.000000 0.032510
#
#
# Mechanical properties :
#
#
# Convention : Reuss Voigt Hill
#
# Bulk Modulus (GPa) = 51.47165 76.68904 64.08035
# Shear Modulus (GPa) = 28.42168 35.56244 31.99206
#
# Velocity S-wave (km/s) = 3.79348 4.24335 4.02470
# Velocity P-wave (km/s) = 6.72670 7.92699 7.35138
#
# Compressibility (1/GPa) = 0.01942817
#
# Stress axis : x y z
#
# Youngs Moduli (GPa) = 51.16218 95.79108 66.83862
#
# Poissons Ratio (x) = 0.26139 0.21294
# Poissons Ratio (y) = 0.13961 0.45748
# Poissons Ratio (z) = 0.16299 0.65564
#
# Static dielectric constant tensor:
#      x y z
#    x 3.468060 0.000000 0.356390 
#    y 0.000000 4.142790 0.000000 
#    z 0.356390 0.000000 3.636590 
# 
# 
# High freq. dielectric constant tensor:
#      x y z
#    x 1.757990 0.000000 0.026150 
#    y 0.000000 1.786610 0.000000 
#    z 0.026150 0.000000 1.779550 
# 
# From -- ./inp_files/3751.got.cif
#   From: 2010.06.25/outbox.cif.g09.slc.cpg/sg12_2_cif.got.tgz:3751.got - 2010.06.28 00:19:55.
