data_PCOD8092563
_publ_section_title
;
Structure prediction by ZEFSAII (Michael W. Deem and Ramdas Pophale) SiO2 
 PCOD8092563
Probable space group: C 2/M
;
_chemical_formula_sum "Si O2"
_cell_formula_units_Z 56
_cell_length_a 15.164135
_cell_length_b 8.853144
_cell_length_c 29.636791
_cell_angle_alpha 90.000000
_cell_angle_beta 130.523905
_cell_angle_gamma 90.000000
_cell_volume 3024.384762
_symmetry_space_group_name_H-M "C 2/M"
_symmetry_group_IT_number 12
_symmetry_cell_setting 'monoclinic'
loop_
_space_group_symop_operation_xyz
x,y,z
-x,y,-z
-x,-y,-z
x,-y,z
1/2+x,1/2+y,z
1/2-x,1/2+y,-z
1/2-x,1/2-y,-z
1/2+x,1/2-y,z
loop_
_atom_site_type_symbol
_atom_site_label
_atom_site_fract_x
_atom_site_fract_y
_atom_site_fract_z
Si Si1 0.773314 0.170963 0.122134
Si Si2 0.688726 0.320937 0.354056
Si Si3 0.430668 0.178037 0.109708
Si Si4 0.047731 0.322437 0.564897
Si Si5 0.357940 0.320807 0.561423
Si Si6 0.024590 0.828303 0.221667
Si Si7 0.957002 0.825023 0.935534
O O1 0.808680 0.248604 0.085944
O O2 0.888819 0.173511 0.192290
O O3 0.673413 0.264288 0.113669
O O4 0.730990 0.000000 0.099130
O O5 0.681753 0.500000 0.351665
O O6 0.819591 0.267916 0.387812
O O7 0.645777 0.261841 0.388288
O O8 0.604514 0.255123 0.287152
O O9 0.534014 0.230744 0.178511
O O10 0.457260 0.235394 0.068647
O O11 0.418448 0.000000 0.105777
O O12 0.033442 0.500000 0.568902
O O13 0.000000 0.278568 0.500000
O O14 0.978167 0.232640 0.579828
O O15 0.346759 0.500000 0.555026
O O16 0.250000 0.250000 0.500000
O O17 0.063833 0.000000 0.224024
O O18 0.959808 0.000000 0.923650
O O19 0.000000 0.792879 0.000000
#
# Coordination Sequence:
#
# PCOD8092563 Si02
#       7
#     8   8   8   8   8   8   8
#     4   9  19  37  60  82 111 148 186 230 279 327
#     4   9  18  36  58  76 107 148 184 225 277 335
#     4  10  20  37  59  83 114 149 184 227 280 330
#     4  10  19  35  56  78 107 145 183 223 278 334
#     4  11  21  35  55  80 109 144 182 227 280 331
#     4   8  17  37  60  79 106 147 188 227 276 329
#     4  11  23  38  59  87 116 148 188 230 274 329
#
# _framework density 18.516161
#
# number of rings (size 3 to 8) (size 9 to 14) (size 15 to 20)
#    0.857    1.429    1.429    2.143    0.000    2.000 
#    2.571    2.143    0.000    0.000    0.000    0.000 
#    0.000    0.000    0.000    0.000    0.000    0.000 
#
# Total GULP energy -347073.939761 kJ/mol
# GULP energy per Si atom -12395.497849 kJ/mol
# Density = 1.847402 g / cm^3
# Si number density = 18.516161 Si / 1000 Ang^3
#
#
#
# Elastic Constant Matrix: (Units=GPa)
#
#
# Indices 1 2 3 4 5 6 
#
# 1 87.6823 20.8182 7.8940 0.0000 -5.7031 0.0000
# 2 20.8182 74.9678 22.3996 0.0000 -4.8400 0.0000
# 3 7.8940 22.3996 58.2507 0.0000 -0.9710 0.0000
# 4 0.0000 0.0000 0.0000 19.9169 0.0000 -3.4302
# 5 -5.7031 -4.8400 -0.9710 0.0000 28.8540 0.0000
# 6 0.0000 0.0000 0.0000 -3.4302 0.0000 35.8652
#
#
#
# Elastic Compliance Matrix: (Units=1/GPa)
#
#
# Indices 1 2 3 4 5 6 
#
# 1 0.012319 -0.003174 -0.000417 0.000000 0.001888 0.000000
# 2 -0.003174 0.016047 -0.005709 0.000000 0.001872 0.000000
# 3 -0.000417 -0.005709 0.019413 0.000000 -0.000387 0.000000
# 4 0.000000 0.000000 0.000000 0.051049 0.000000 0.004882
# 5 0.001888 0.001872 -0.000387 0.000000 0.035332 0.000000
# 6 0.000000 0.000000 0.000000 0.004882 0.000000 0.028349
#
#
# Mechanical properties :
#
#
# Convention : Reuss Voigt Hill
#
# Bulk Modulus (GPa) = 34.27367 35.90272 35.08820
# Shear Modulus (GPa) = 26.20040 28.24649 27.22345
#
# Velocity S-wave (km/s) = 3.76573 3.91001 3.83855
# Velocity P-wave (km/s) = 6.12029 6.31001 6.21588
#
# Compressibility (1/GPa) = 0.02917692
#
# Stress axis : x y z
#
# Youngs Moduli (GPa) = 81.17629 62.31561 51.51247
#
# Poissons Ratio (x) = 0.19781 0.02150
# Poissons Ratio (y) = 0.25768 0.29411
# Poissons Ratio (z) = 0.03388 0.35579
#
# Static dielectric constant tensor:
#      x y z
#    x 3.459340 0.000000 0.006410 
#    y 0.000000 3.261330 0.000000 
#    z 0.006410 0.000000 3.426440 
# 
# 
# High freq. dielectric constant tensor:
#      x y z
#    x 1.715900 0.000000 0.001400 
#    y 0.000000 1.710520 0.000000 
#    z 0.001400 0.000000 1.706840 
# 
# From -- ./inp_files/339079.got.cif
#   From: 2010.06.25/outbox.cif.g09.slc.cpg/sg12_170_cif.got.tgz:339079.got - 2010.06.28 00:19:55.
