data_PCOD8092788
_publ_section_title
;
Structure prediction by ZEFSAII (Michael W. Deem and Ramdas Pophale) SiO2 
 PCOD8092788
Probable space group: C 2/M
;
_chemical_formula_sum "Si O2"
_cell_formula_units_Z 56
_cell_length_a 23.318899
_cell_length_b 16.685855
_cell_length_c 23.524525
_cell_angle_alpha 90.000000
_cell_angle_beta 161.480762
_cell_angle_gamma 90.000000
_cell_volume 2907.296909
_symmetry_space_group_name_H-M "C 2/M"
_symmetry_group_IT_number 12
_symmetry_cell_setting 'monoclinic'
loop_
_space_group_symop_operation_xyz
x,y,z
-x,y,-z
-x,-y,-z
x,-y,z
1/2+x,1/2+y,z
1/2-x,1/2+y,-z
1/2-x,1/2-y,-z
1/2+x,1/2-y,z
loop_
_atom_site_type_symbol
_atom_site_label
_atom_site_fract_x
_atom_site_fract_y
_atom_site_fract_z
Si Si1 0.487068 0.164287 0.830399
Si Si2 0.359744 0.088573 0.918798
Si Si3 0.208677 0.811288 0.043729
Si Si4 0.362099 0.592019 0.704040
Si Si5 0.949517 0.406900 0.676262
Si Si6 0.225009 0.280196 0.650681
Si Si7 0.305457 0.750889 0.252233
O O1 0.414376 0.114617 0.708638
O O2 0.327914 0.219073 0.706047
O O3 0.541462 0.098824 0.928057
O O4 0.656959 0.222043 0.971565
O O5 0.205890 0.155335 0.768265
O O6 0.271474 0.000000 0.833809
O O7 0.500000 0.099640 0.000000
O O8 0.403296 0.844622 0.209527
O O9 0.200534 0.801192 0.105030
O O10 0.061254 0.872963 0.881242
O O11 0.383228 0.500000 0.737791
O O12 0.238836 0.608047 0.532884
O O13 0.270536 0.630355 0.673486
O O14 0.011142 0.500000 0.727456
O O15 0.286060 0.271676 0.773440
O O16 0.013950 0.269637 0.446287
#
# Coordination Sequence:
#
# PCOD8092788 Si02
#       7
#     8   8   8   8   8   8   8
#     4  10  21  36  61  87 115 157 198 239 293 356
#     4  10  19  35  57  84 118 153 195 241 295 348
#     4  10  21  38  63  86 115 155 201 240 297 355
#     4  10  22  39  59  86 117 156 198 248 299 347
#     4  11  22  40  58  84 123 157 195 248 296 345
#     4  10  20  38  61  86 117 153 202 243 293 359
#     4  10  20  38  60  87 116 157 196 247 294 349
#
# _framework density 19.261879
#
# number of rings (size 3 to 8) (size 9 to 14) (size 15 to 20)
#    0.000    1.857    2.857    1.286    0.000    2.286 
#    5.143    6.429    0.000    0.000    0.000    0.000 
#    0.000    0.000    0.000    0.000    0.000    0.000 
#
# Total GULP energy -347112.052794 kJ/mol
# GULP energy per Si atom -12396.859028 kJ/mol
# Density = 1.921804 g / cm^3
# Si number density = 19.261879 Si / 1000 Ang^3
#
#
#
# Elastic Constant Matrix: (Units=GPa)
#
#
# Indices 1 2 3 4 5 6 
#
# 1 74.7994 25.5177 18.3624 0.0279 -20.7546 -0.0320
# 2 25.5177 84.5367 28.3743 0.0476 -14.1884 -0.0400
# 3 18.3624 28.3743 72.8968 0.0633 -16.3353 -0.0083
# 4 0.0279 0.0476 0.0633 19.6658 0.0199 -8.9339
# 5 -20.7546 -14.1884 -16.3353 0.0199 33.7327 -0.0044
# 6 -0.0320 -0.0400 -0.0083 -8.9339 -0.0044 20.6670
#
#
#
# Elastic Compliance Matrix: (Units=1/GPa)
#
#
# Indices 1 2 3 4 5 6 
#
# 1 0.017180 -0.003375 -0.001080 -0.000015 0.008627 0.000015
# 2 -0.003375 0.014658 -0.004419 -0.000011 0.001949 0.000017
# 3 -0.001080 -0.004419 0.016988 -0.000061 0.005703 -0.000029
# 4 -0.000015 -0.000011 -0.000061 0.063276 -0.000077 0.027353
# 5 0.008627 0.001949 0.005703 -0.000077 0.038535 -0.000006
# 6 0.000015 0.000017 -0.000029 0.027353 -0.000006 0.060210
#
#
# Mechanical properties :
#
#
# Convention : Reuss Voigt Hill
#
# Bulk Modulus (GPa) = 32.17749 41.86017 37.01883
# Shear Modulus (GPa) = 20.92452 25.47836 23.20144
#
# Velocity S-wave (km/s) = 3.29951 3.64089 3.47439
# Velocity P-wave (km/s) = 5.59082 6.28125 5.94606
#
# Compressibility (1/GPa) = 0.03107763
#
# Stress axis : x y z
#
# Youngs Moduli (GPa) = 58.20883 68.22130 58.86446
#
# Poissons Ratio (x) = 0.23025 0.06360
# Poissons Ratio (y) = 0.19646 0.26010
# Poissons Ratio (z) = 0.06289 0.30144
#
# Static dielectric constant tensor:
#      x y z
#    x 3.594070 -0.000050 -0.240220 
#    y -0.000050 3.631240 -0.000180 
#    z -0.240220 -0.000180 3.517340 
# 
# 
# High freq. dielectric constant tensor:
#      x y z
#    x 1.749510 -0.000010 -0.014230 
#    y -0.000010 1.750280 -0.000020 
#    z -0.014230 -0.000020 1.751460 
# 
# From -- ./inp_files/322718.got.cif
#   From: 2010.06.25/outbox.cif.g09.slc.cpg/sg12_162_cif.got.tgz:322718.got - 2010.06.28 00:19:55.
