data_PCOD8092684
_publ_section_title
;
Structure prediction by ZEFSAII (Michael W. Deem and Ramdas Pophale) SiO2 
 PCOD8092684
Probable space group: C 2/M
;
_chemical_formula_sum "Si O2"
_cell_formula_units_Z 56
_cell_length_a 15.103929
_cell_length_b 15.869758
_cell_length_c 23.473359
_cell_angle_alpha 90.000000
_cell_angle_beta 28.895239
_cell_angle_gamma 90.000000
_cell_volume 2718.761214
_symmetry_space_group_name_H-M "C 2/M"
_symmetry_group_IT_number 12
_symmetry_cell_setting 'monoclinic'
loop_
_space_group_symop_operation_xyz
x,y,z
-x,y,-z
-x,-y,-z
x,-y,z
1/2+x,1/2+y,z
1/2-x,1/2+y,-z
1/2-x,1/2-y,-z
1/2+x,1/2-y,z
loop_
_atom_site_type_symbol
_atom_site_label
_atom_site_fract_x
_atom_site_fract_y
_atom_site_fract_z
Si Si1 0.296472 0.766761 0.390494
Si Si2 0.489080 0.270602 0.071848
Si Si3 0.503138 0.592926 0.565265
Si Si4 0.616755 0.146855 0.271959
Si Si5 0.394751 0.093958 0.501112
Si Si6 0.383739 0.156333 0.224868
Si Si7 0.282708 0.089293 0.902777
O O1 0.480927 0.783345 0.321571
O O2 0.249237 0.669040 0.428358
O O3 0.321233 0.776764 0.308570
O O4 0.144325 0.832221 0.501914
O O5 0.291085 0.306257 0.199882
O O6 0.510250 0.193419 0.103115
O O7 0.500000 0.241294 0.000000
O O8 0.649491 0.336020 0.996332
O O9 0.500000 0.584591 0.500000
O O10 0.561109 0.500000 0.557882
O O11 0.295978 0.613834 0.701941
O O12 0.531653 0.092370 0.370503
O O13 0.686334 0.086705 0.182511
O O14 0.500000 0.114465 0.500000
O O15 0.303920 0.000000 0.555851
O O16 0.517932 0.090999 0.180243
O O17 0.190334 0.000000 0.971196
#
# Coordination Sequence:
#
# PCOD8092684 Si02
#       7
#     8   8   8   8   8   8   8
#     4  10  20  35  56  83 114 146 184 227 270 324
#     4  10  21  36  55  78 106 143 182 224 273 328
#     4   9  17  30  53  84 112 139 176 223 274 323
#     4  10  21  36  56  79 108 143 183 231 273 313
#     4  11  22  35  53  80 117 156 185 213 263 336
#     4  10  19  35  57  79 108 142 181 226 278 326
#     4  10  21  36  57  83 104 131 180 238 283 317
#
# _framework density 20.597617
#
# number of rings (size 3 to 8) (size 9 to 14) (size 15 to 20)
#    0.000    2.000    0.000    4.714    0.000    7.143 
#    0.000    0.714    0.000    2.571    0.000    0.000 
#    0.000    0.000    0.000    0.000    0.000    0.000 
#
# Total GULP energy -347024.029576 kJ/mol
# GULP energy per Si atom -12393.715342 kJ/mol
# Density = 2.055074 g / cm^3
# Si number density = 20.597617 Si / 1000 Ang^3
#
#
#
# Elastic Constant Matrix: (Units=GPa)
#
#
# Indices 1 2 3 4 5 6 
#
# 1 38.1300 10.4255 21.9635 -0.0002 0.0352 0.0011
# 2 10.4255 120.1905 36.5188 -0.0042 4.0812 0.0022
# 3 21.9635 36.5188 83.4653 -0.0041 -2.9098 0.0059
# 4 -0.0002 -0.0042 -0.0041 17.8246 -0.0034 1.8628
# 5 0.0352 4.0812 -2.9098 -0.0034 37.9229 -0.0003
# 6 0.0011 0.0022 0.0059 1.8628 -0.0003 -6.7823
#
#
#
# Elastic Compliance Matrix: (Units=1/GPa)
#
#
# Indices 1 2 3 4 5 6 
#
# 1 0.030932 -0.000210 -0.008070 -0.000001 -0.000625 -0.000002
# 2 -0.000210 0.009668 -0.004222 0.000001 -0.001364 0.000000
# 3 -0.008070 -0.004222 0.016011 0.000002 0.001690 0.000012
# 4 -0.000001 0.000001 0.000002 0.054537 0.000005 0.014979
# 5 -0.000625 -0.001364 0.001690 0.000005 0.026646 0.000001
# 6 -0.000002 0.000000 0.000012 0.014979 0.000001 -0.143328
#
#
# Mechanical properties :
#
#
# Convention : Reuss Voigt Hill
#
# Bulk Modulus (GPa) = 31.63852 42.17794 36.90823
# Shear Modulus (GPa) = 166.63992 21.31825 93.97908
#
# Velocity S-wave (km/s) = 9.00434 3.22061 6.76204
# Velocity P-wave (km/s) = 11.11296 5.86100 8.88395
#
# Compressibility (1/GPa) = 0.03160704
#
# Stress axis : x y z
#
# Youngs Moduli (GPa) = 32.32871 103.43903 62.45798
#
# Poissons Ratio (x) = 0.02172 0.50401
# Poissons Ratio (y) = 0.00679 0.26371
# Poissons Ratio (z) = 0.26088 0.43674
#
# Static dielectric constant tensor:
#      x y z
#    x 3.678870 0.000010 -0.034430 
#    y 0.000010 3.723240 0.000010 
#    z -0.034430 0.000010 3.758820 
# 
# 
# High freq. dielectric constant tensor:
#      x y z
#    x 1.803030 0.000000 -0.005310 
#    y 0.000000 1.795170 0.000000 
#    z -0.005310 0.000000 1.794860 
# 
# From -- ./inp_files/340309.got.cif
#   From: 2010.06.25/outbox.cif.g09.slc.cpg/sg12_171_cif.got.tgz:340309.got - 2010.06.28 00:19:55.
