data_PCOD8092219
_publ_section_title
;
Structure prediction by ZEFSAII (Michael W. Deem and Ramdas Pophale) SiO2 
 PCOD8092219
Probable space group: C 2/M
;
_chemical_formula_sum "Si O2"
_cell_formula_units_Z 64
_cell_length_a 22.909277
_cell_length_b 17.392728
_cell_length_c 12.579869
_cell_angle_alpha 90.000000
_cell_angle_beta 135.955760
_cell_angle_gamma 90.000000
_cell_volume 3484.764711
_symmetry_space_group_name_H-M "C 2/M"
_symmetry_group_IT_number 12
_symmetry_cell_setting 'monoclinic'
loop_
_space_group_symop_operation_xyz
x,y,z
-x,y,-z
-x,-y,-z
x,-y,z
1/2+x,1/2+y,z
1/2-x,1/2+y,-z
1/2-x,1/2-y,-z
1/2+x,1/2-y,z
loop_
_atom_site_type_symbol
_atom_site_label
_atom_site_fract_x
_atom_site_fract_y
_atom_site_fract_z
Si Si1 0.669382 0.588756 0.092712
Si Si2 0.494224 0.653993 0.807408
Si Si3 0.673216 0.411733 0.333998
Si Si4 0.274462 0.661556 0.040830
Si Si5 0.449098 0.409679 0.328399
Si Si6 0.822508 0.590195 0.677686
Si Si7 0.652262 0.089303 0.049597
Si Si8 0.512158 0.179934 0.137523
O O1 0.658176 0.500000 0.047026
O O2 0.709562 0.599429 0.262135
O O3 0.577957 0.627319 0.976878
O O4 0.729552 0.627615 0.083936
O O5 0.412673 0.634415 0.768895
O O6 0.488770 0.611795 0.686511
O O7 0.495077 0.746153 0.795895
O O8 0.652256 0.500000 0.329387
O O9 0.741012 0.381213 0.507057
O O10 0.366450 0.643724 0.210268
O O11 0.206797 0.623662 0.027507
O O12 0.250000 0.750000 0.000000
O O13 0.500000 0.388440 0.500000
O O14 0.424132 0.500000 0.293431
O O15 0.840214 0.500000 0.682744
O O16 0.807537 0.608326 0.782542
O O17 0.899694 0.637590 0.731317
O O18 0.646781 0.000000 0.023036
O O19 0.558577 0.120552 0.919841
O O20 0.500000 0.206491 0.000000
#
# Coordination Sequence:
#
# PCOD8092219 Si02
#       8
#     8   8   8   8   8   8   8   8
#     4  10  20  36  55  78 110 147 183 220 270 326
#     4  11  20  33  54  82 109 143 181 220 274 333
#     4  10  20  34  55  80 108 143 180 221 268 330
#     4  11  22  37  57  82 115 147 186 233 279 331
#     4  10  22  39  58  82 116 150 184 233 287 333
#     4   9  20  36  54  81 111 141 183 232 277 321
#     4  10  19  34  60  82 103 143 192 230 267 327
#     4  10  20  35  54  79 112 144 177 227 283 326
#
# _framework density 18.365659000000001
#
# number of rings (size 3 to 8) (size 9 to 14) (size 15 to 20)
#    0.000    1.875    0.000    6.000    1.750    4.000 
#    2.250    0.000    0.000    0.000    0.000    3.500 
#    0.000    0.000    0.000    0.000    0.000    0.000 
#
# Total GULP energy -396801.038879 kJ/mol
# GULP energy per Si atom -12400.032465 kJ/mol
# Density = 1.832386 g / cm^3
# Si number density = 18.365659 Si / 1000 Ang^3
#
#
#
# Elastic Constant Matrix: (Units=GPa)
#
#
# Indices 1 2 3 4 5 6 
#
# 1 122.8249 59.7152 48.6922 0.0000 -2.3345 0.0000
# 2 59.7152 117.1482 45.4397 0.0000 2.9986 0.0000
# 3 48.6922 45.4397 87.0645 0.0000 -7.0934 0.0000
# 4 0.0000 0.0000 0.0000 14.2219 0.0000 -1.0607
# 5 -2.3345 2.9986 -7.0934 0.0000 19.8795 0.0000
# 6 0.0000 0.0000 0.0000 -1.0607 0.0000 25.5603
#
#
#
# Elastic Compliance Matrix: (Units=1/GPa)
#
#
# Indices 1 2 3 4 5 6 
#
# 1 0.012054 -0.004463 -0.004369 0.000000 0.000530 0.000000
# 2 -0.004463 0.012629 -0.004421 0.000000 -0.004007 0.000000
# 3 -0.004369 -0.004421 0.016736 0.000000 0.006126 0.000000
# 4 0.000000 0.000000 0.000000 0.070532 0.000000 0.002927
# 5 0.000530 -0.004007 0.006126 0.000000 0.053155 0.000000
# 6 0.000000 0.000000 0.000000 0.002927 0.000000 0.039245
#
#
# Mechanical properties :
#
#
# Convention : Reuss Voigt Hill
#
# Bulk Modulus (GPa) = 67.06219 70.52575 68.79397
# Shear Modulus (GPa) = 21.20196 23.47837 22.34017
#
# Velocity S-wave (km/s) = 3.40138 3.57933 3.49149
# Velocity P-wave (km/s) = 7.21250 7.45429 7.33439
#
# Compressibility (1/GPa) = 0.01491153
#
# Stress axis : x y z
#
# Youngs Moduli (GPa) = 82.96307 79.18386 59.75303
#
# Poissons Ratio (x) = 0.35342 0.26103
# Poissons Ratio (y) = 0.37029 0.26419
# Poissons Ratio (z) = 0.36243 0.35010
#
# Static dielectric constant tensor:
#      x y z
#    x 3.472390 0.000000 -0.100450 
#    y 0.000000 3.463000 0.000000 
#    z -0.100450 0.000000 3.332270 
# 
# 
# High freq. dielectric constant tensor:
#      x y z
#    x 1.716060 0.000000 -0.005860 
#    y 0.000000 1.718590 0.000000 
#    z -0.005860 0.000000 1.700910 
# 
# From -- ./inp_files/168796.got.cif
#   From: 2010.06.25/outbox.cif.g09.slc.cpg/sg12_85_cif.got.tgz:168796.got - 2010.06.28 00:19:55.
