data_PCOD8092973
_publ_section_title
;
Structure prediction by ZEFSAII (Michael W. Deem and Ramdas Pophale) SiO2 
 PCOD8092973
Probable space group: C 2/M
;
_chemical_formula_sum "Si O2"
_cell_formula_units_Z 64
_cell_length_a 24.217470
_cell_length_b 30.105339
_cell_length_c 9.384814
_cell_angle_alpha 90.000000
_cell_angle_beta 27.103989
_cell_angle_gamma 90.000000
_cell_volume 3117.369193
_symmetry_space_group_name_H-M "C 2/M"
_symmetry_group_IT_number 12
_symmetry_cell_setting 'monoclinic'
loop_
_space_group_symop_operation_xyz
x,y,z
-x,y,-z
-x,-y,-z
x,-y,z
1/2+x,1/2+y,z
1/2-x,1/2+y,-z
1/2-x,1/2-y,-z
1/2+x,1/2-y,z
loop_
_atom_site_type_symbol
_atom_site_label
_atom_site_fract_x
_atom_site_fract_y
_atom_site_fract_z
Si Si1 0.743808 0.448561 0.923726
Si Si2 0.310651 0.204948 0.805751
Si Si3 0.887326 0.137544 0.846309
Si Si4 0.010824 0.826083 0.817475
Si Si5 0.205631 0.329345 0.864445
Si Si6 0.035344 0.450235 0.768585
Si Si7 0.887759 0.420555 0.856325
Si Si8 0.528611 0.225364 0.094806
O O1 0.704598 0.500000 0.985692
O O2 0.844069 0.430191 0.580901
O O3 0.792239 0.446126 0.975080
O O4 0.635657 0.413541 0.148720
O O5 0.419374 0.212797 0.448671
O O6 0.250000 0.250000 0.000000
O O7 0.222367 0.170909 0.928443
O O8 0.359489 0.182336 0.836868
O O9 0.000000 0.156902 0.500000
O O10 0.931212 0.139572 0.908792
O O11 0.150778 0.822013 0.450110
O O12 0.947764 0.777857 0.952371
O O13 0.000000 0.845488 0.000000
O O14 0.175293 0.380688 0.912445
O O15 0.151501 0.299339 0.861889
O O16 0.068890 0.500000 0.733242
O O17 0.930629 0.451252 0.888995
O O18 0.000000 0.425576 0.000000
O O19 0.000000 0.405189 0.500000
O O20 0.500000 0.209941 0.000000
#
# Coordination Sequence:
#
# PCOD8092973 Si02
#       8
#     8   8   8   8   8   8   8   8
#     4  10  21  38  63  91 121 162 208 261 315 371
#     4  12  22  41  66  91 123 167 208 258 309 371
#     4  12  23  42  65  90 122 163 215 256 311 378
#     4  11  26  43  61  88 127 170 208 260 316 372
#     4  12  23  41  61  89 124 162 213 255 307 375
#     4   9  19  35  56  87 125 163 201 249 317 381
#     4  10  19  35  58  88 123 156 204 261 312 368
#     4  11  26  41  63  94 127 166 212 262 315 369
#
# _framework density 20.530131000000001
#
# number of rings (size 3 to 8) (size 9 to 14) (size 15 to 20)
#    0.000    1.125    3.750    2.250    3.500    4.250 
#    0.000    0.000    0.000    0.375    0.000    0.000 
#    0.000    0.000    0.000    0.000    0.000    0.000 
#
# Total GULP energy -396641.327819 kJ/mol
# GULP energy per Si atom -12395.041494 kJ/mol
# Density = 2.048340 g / cm^3
# Si number density = 20.530131 Si / 1000 Ang^3
#
#
#
# Elastic Constant Matrix: (Units=GPa)
#
#
# Indices 1 2 3 4 5 6 
#
# 1 152.6782 33.2070 31.6874 0.0013 9.3565 -0.0009
# 2 33.2070 81.2457 10.3599 0.0002 -12.5615 0.0002
# 3 31.6874 10.3599 47.8141 0.0016 10.6843 -0.0006
# 4 0.0013 0.0002 0.0016 14.9992 -0.0008 -7.5655
# 5 9.3565 -12.5615 10.6843 -0.0008 35.3698 0.0006
# 6 -0.0009 0.0002 -0.0006 -7.5655 0.0006 32.8345
#
#
#
# Elastic Compliance Matrix: (Units=1/GPa)
#
#
# Indices 1 2 3 4 5 6 
#
# 1 0.008254 -0.003125 -0.004351 0.000000 -0.001979 0.000000
# 2 -0.003125 0.015016 -0.002744 0.000001 0.006988 0.000000
# 3 -0.004351 -0.002744 0.026116 -0.000003 -0.007713 0.000000
# 4 0.000000 0.000001 -0.000003 0.075438 0.000003 0.017382
# 5 -0.001979 0.006988 -0.007713 0.000003 0.033608 0.000000
# 6 0.000000 0.000000 0.000000 0.017382 0.000000 0.034461
#
#
# Mechanical properties :
#
#
# Convention : Reuss Voigt Hill
#
# Bulk Modulus (GPa) = 34.54719 48.02739 41.28729
# Shear Modulus (GPa) = 22.42363 30.40627 26.41495
#
# Velocity S-wave (km/s) = 3.30848 3.85262 3.59087
# Velocity P-wave (km/s) = 5.60881 6.57531 6.11120
#
# Compressibility (1/GPa) = 0.02894591
#
# Stress axis : x y z
#
# Youngs Moduli (GPa) = 121.16049 66.59626 38.29128
#
# Poissons Ratio (x) = 0.20809 0.16659
# Poissons Ratio (y) = 0.37858 0.10508
# Poissons Ratio (z) = 0.52712 0.18276
#
# Static dielectric constant tensor:
#      x y z
#    x 3.911260 0.000010 0.104630 
#    y 0.000010 3.643150 0.000010 
#    z 0.104630 0.000010 3.644170 
# 
# 
# High freq. dielectric constant tensor:
#      x y z
#    x 1.812640 0.000000 0.007490 
#    y 0.000000 1.791480 0.000000 
#    z 0.007490 0.000000 1.791440 
# 
# From -- ./inp_files/100213.got.cif
#   From: 2010.06.25/outbox.cif.g09.slc.cpg/sg12_51_cif.got.tgz:100213.got - 2010.06.28 00:19:55.
