data_PCOD8092265
_publ_section_title
;
Structure prediction by ZEFSAII (Michael W. Deem and Ramdas Pophale) SiO2 
 PCOD8092265
Probable space group: C 2/M
;
_chemical_formula_sum "Si O2"
_cell_formula_units_Z 64
_cell_length_a 27.849242
_cell_length_b 8.940563
_cell_length_c 15.344873
_cell_angle_alpha 90.000000
_cell_angle_beta 122.772578
_cell_angle_gamma 90.000000
_cell_volume 3212.532718
_symmetry_space_group_name_H-M "C 2/M"
_symmetry_group_IT_number 12
_symmetry_cell_setting 'monoclinic'
loop_
_space_group_symop_operation_xyz
x,y,z
-x,y,-z
-x,-y,-z
x,-y,z
1/2+x,1/2+y,z
1/2-x,1/2+y,-z
1/2-x,1/2-y,-z
1/2+x,1/2-y,z
loop_
_atom_site_type_symbol
_atom_site_label
_atom_site_fract_x
_atom_site_fract_y
_atom_site_fract_z
Si Si1 0.377317 0.676192 0.281392
Si Si2 0.430445 0.173196 0.690842
Si Si3 0.248706 0.173512 0.591856
Si Si4 0.120233 0.172249 0.520420
Si Si5 0.864862 0.675140 0.948713
Si Si6 0.937595 0.672984 0.184256
Si Si7 0.756281 0.174743 0.098246
Si Si8 0.857340 0.822872 0.767016
O O1 0.378253 0.500000 0.271041
O O2 0.396028 0.720478 0.397395
O O3 0.422099 0.743894 0.257906
O O4 0.313204 0.736452 0.200809
O O5 0.415293 0.221401 0.577986
O O6 0.496754 0.201979 0.773788
O O7 0.395074 0.274004 0.722322
O O8 0.414269 0.000000 0.688008
O O9 0.250000 0.250000 0.500000
O O10 0.187636 0.195424 0.575660
O O11 0.294699 0.250982 0.699335
O O12 0.264474 0.000000 0.596693
O O13 0.103795 0.000000 0.485797
O O14 0.876318 0.500000 0.944778
O O15 0.798228 0.712351 0.896032
O O16 0.886228 0.764807 0.884697
O O17 0.900233 0.734151 0.066824
O O18 0.924063 0.500000 0.186156
O O19 0.760327 0.000000 0.085224
O O20 0.750000 0.250000 0.000000
O O21 0.852386 0.000000 0.762071
#
# Coordination Sequence:
#
# PCOD8092265 Si02
#       8
#     8   8   8   8   8   8   8   8
#     4  10  21  37  60  90 122 157 195 242 299 355
#     4  11  24  42  63  86 116 156 204 254 303 355
#     4  11  21  37  63  92 125 159 197 242 296 358
#     4  10  22  40  62  89 122 159 198 241 295 359
#     4  10  21  40  63  87 121 160 198 245 299 358
#     4  10  23  42  63  87 116 157 204 251 302 355
#     4  10  19  34  60  90 121 156 192 238 297 356
#     4  12  25  40  61  91 123 157 199 246 302 361
#
# _framework density 19.921976000000001
#
# number of rings (size 3 to 8) (size 9 to 14) (size 15 to 20)
#    0.000    1.500    2.500    2.625    0.000    6.000 
#    0.000    6.250    0.000    0.000    0.000    0.000 
#    0.000    0.000    0.000    0.000    0.000    0.000 
#
# Total GULP energy -396938.515647 kJ/mol
# GULP energy per Si atom -12404.328614 kJ/mol
# Density = 1.987663 g / cm^3
# Si number density = 19.921976 Si / 1000 Ang^3
#
#
#
# Elastic Constant Matrix: (Units=GPa)
#
#
# Indices 1 2 3 4 5 6 
#
# 1 42.0189 28.0854 37.5791 0.0000 -2.0928 0.0000
# 2 28.0854 82.1743 44.0979 0.0000 -5.6808 0.0000
# 3 37.5791 44.0979 102.4408 0.0000 -21.9946 0.0000
# 4 0.0000 0.0000 0.0000 36.2089 0.0000 -4.7800
# 5 -2.0928 -5.6808 -21.9946 0.0000 32.5983 0.0000
# 6 0.0000 0.0000 0.0000 -4.7800 0.0000 29.5961
#
#
#
# Elastic Compliance Matrix: (Units=1/GPa)
#
#
# Indices 1 2 3 4 5 6 
#
# 1 0.040019 -0.007085 -0.013266 0.000000 -0.007616 0.000000
# 2 -0.007085 0.017209 -0.004985 0.000000 -0.000819 0.000000
# 3 -0.013266 -0.004985 0.019184 0.000000 0.011223 0.000000
# 4 0.000000 0.000000 0.000000 0.028219 0.000000 0.004558
# 5 -0.007616 -0.000819 0.011223 0.000000 0.037617 0.000000
# 6 0.000000 0.000000 0.000000 0.004558 0.000000 0.034524
#
#
# Mechanical properties :
#
#
# Convention : Reuss Voigt Hill
#
# Bulk Modulus (GPa) = 38.84946 49.57321 44.21133
# Shear Modulus (GPa) = 21.18418 27.47210 24.32814
#
# Velocity S-wave (km/s) = 3.26445 3.71750 3.49832
# Velocity P-wave (km/s) = 5.80965 6.58514 6.20951
#
# Compressibility (1/GPa) = 0.02574039
#
# Stress axis : x y z
#
# Youngs Moduli (GPa) = 24.98787 58.10809 52.12778
#
# Poissons Ratio (x) = 0.41172 0.69152
# Poissons Ratio (y) = 0.17705 0.25985
# Poissons Ratio (z) = 0.33148 0.28966
#
# Static dielectric constant tensor:
#      x y z
#    x 3.612890 0.000000 0.082150 
#    y 0.000000 3.778200 0.000000 
#    z 0.082150 0.000000 3.701430 
# 
# 
# High freq. dielectric constant tensor:
#      x y z
#    x 1.776610 0.000000 -0.005100 
#    y 0.000000 1.770210 0.000000 
#    z -0.005100 0.000000 1.789730 
# 
# From -- ./inp_files/249208.got.cif
#   From: 2010.06.25/outbox.cif.g09.slc.cpg/sg12_125_cif.got.tgz:249208.got - 2010.06.28 00:19:55.
