data_PCOD8092218
_publ_section_title
;
Structure prediction by ZEFSAII (Michael W. Deem and Ramdas Pophale) SiO2 
 PCOD8092218
Probable space group: C 2/M
;
_chemical_formula_sum "Si O2"
_cell_formula_units_Z 40
_cell_length_a 7.540318
_cell_length_b 20.382849
_cell_length_c 13.386035
_cell_angle_alpha 90.000000
_cell_angle_beta 64.287974
_cell_angle_gamma 90.000000
_cell_volume 1853.636353
_symmetry_space_group_name_H-M "C 2/M"
_symmetry_group_IT_number 12
_symmetry_cell_setting 'monoclinic'
loop_
_space_group_symop_operation_xyz
x,y,z
-x,y,-z
-x,-y,-z
x,-y,z
1/2+x,1/2+y,z
1/2-x,1/2+y,-z
1/2-x,1/2-y,-z
1/2+x,1/2-y,z
loop_
_atom_site_type_symbol
_atom_site_label
_atom_site_fract_x
_atom_site_fract_y
_atom_site_fract_z
Si Si1 0.245970 0.425481 0.626589
Si Si2 0.772931 0.423973 0.030964
Si Si3 0.161508 0.427616 0.199334
Si Si4 0.272765 0.822641 0.533901
Si Si5 0.486887 0.608779 0.261508
O O1 0.220285 0.500000 0.591149
O O2 0.312119 0.377110 0.521854
O O3 0.406627 0.429278 0.674999
O O4 0.041725 0.393496 0.717136
O O5 0.701795 0.500000 0.062042
O O6 0.741388 0.397139 0.924974
O O7 0.647787 0.376769 0.135610
O O8 0.000000 0.416418 0.000000
O O9 0.093644 0.500000 0.182282
O O10 0.314460 0.433431 0.252414
O O11 0.500000 0.838736 0.500000
O O12 0.250000 0.750000 0.500000
O O13 0.129236 0.827417 0.666428
#
# Coordination Sequence:
#
# PCOD8092218 Si02
#       5
#     8   8   8   8   8
#     4  11  23  40  65 100 135 170 218 278 331 392
#     4  10  19  34  59  95 141 179 214 263 331 400
#     4  10  20  35  59  95 135 173 212 261 327 395
#     4  12  27  49  69  95 128 178 231 278 340 405
#     4  12  22  38  65  95 131 177 219 268 326 394
#
# _framework density 21.579205000000002
#
# number of rings (size 3 to 8) (size 9 to 14) (size 15 to 20)
#    0.000    1.000    4.000    4.200    0.000    5.200 
#    0.000    0.000    0.000    1.200    5.200    0.000 
#    0.000    0.000    0.000    0.000    0.000    0.000 
#
# Total GULP energy -247798.880630 kJ/mol
# GULP energy per Si atom -12389.944031 kJ/mol
# Density = 2.153009 g / cm^3
# Si number density = 21.579205 Si / 1000 Ang^3
#
#
#
# Elastic Constant Matrix: (Units=GPa)
#
#
# Indices 1 2 3 4 5 6 
#
# 1 142.4484 21.3558 59.6651 0.0000 4.5257 0.0000
# 2 21.3558 85.8721 56.3119 0.0000 3.8717 0.0000
# 3 59.6651 56.3119 172.0317 0.0000 -17.3332 0.0000
# 4 0.0000 0.0000 0.0000 22.2088 0.0000 0.7876
# 5 4.5257 3.8717 -17.3332 0.0000 46.6870 0.0000
# 6 0.0000 0.0000 0.0000 0.7876 0.0000 17.5195
#
#
#
# Elastic Compliance Matrix: (Units=1/GPa)
#
#
# Indices 1 2 3 4 5 6 
#
# 1 0.008384 0.000053 -0.003124 0.000000 -0.001977 0.000000
# 2 0.000053 0.015288 -0.005351 0.000000 -0.003260 0.000000
# 3 -0.003124 -0.005351 0.009062 0.000000 0.004111 0.000000
# 4 0.000000 0.000000 0.000000 0.045099 0.000000 -0.002027
# 5 -0.001977 -0.003260 0.004111 0.000000 0.023407 0.000000
# 6 0.000000 0.000000 0.000000 -0.002027 0.000000 0.057170
#
#
# Mechanical properties :
#
#
# Convention : Reuss Voigt Hill
#
# Bulk Modulus (GPa) = 62.93582 75.00197 68.96890
# Shear Modulus (GPa) = 27.69289 34.81770 31.25529
#
# Velocity S-wave (km/s) = 3.58622 4.02118 3.80991
# Velocity P-wave (km/s) = 6.81002 7.50945 7.16827
#
# Compressibility (1/GPa) = 0.01588920
#
# Stress axis : x y z
#
# Youngs Moduli (GPa) = 119.28171 65.41037 110.34816
#
# Poissons Ratio (x) = -0.00346 0.34474
# Poissons Ratio (y) = -0.00631 0.59048
# Poissons Ratio (z) = 0.37265 0.35002
#
# Static dielectric constant tensor:
#      x y z
#    x 4.080640 0.000000 -0.072410 
#    y 0.000000 3.218150 0.000000 
#    z -0.072410 0.000000 4.479920 
# 
# 
# High freq. dielectric constant tensor:
#      x y z
#    x 1.875920 0.000000 -0.007670 
#    y 0.000000 1.764270 0.000000 
#    z -0.007670 0.000000 1.871610 
# 
# From -- ./inp_files/195311.got.cif
#   From: 2010.06.25/outbox.cif.g09.slc.cpg/sg12_98_cif.got.tgz:195311.got - 2010.06.28 00:19:55.
