data_PCOD8092051
_publ_section_title
;
Structure prediction by ZEFSAII (Michael W. Deem and Ramdas Pophale) SiO2 
 PCOD8092051
Probable space group: C 2/M
;
_chemical_formula_sum "Si O2"
_cell_formula_units_Z 56
_cell_length_a 20.246370
_cell_length_b 8.550936
_cell_length_c 29.720483
_cell_angle_alpha 90.000000
_cell_angle_beta 146.433471
_cell_angle_gamma 90.000000
_cell_volume 2844.900693
_symmetry_space_group_name_H-M "C 2/M"
_symmetry_group_IT_number 12
_symmetry_cell_setting 'monoclinic'
loop_
_space_group_symop_operation_xyz
x,y,z
-x,y,-z
-x,-y,-z
x,-y,z
1/2+x,1/2+y,z
1/2-x,1/2+y,-z
1/2-x,1/2-y,-z
1/2+x,1/2-y,z
loop_
_atom_site_type_symbol
_atom_site_label
_atom_site_fract_x
_atom_site_fract_y
_atom_site_fract_z
Si Si1 0.575473 0.181910 0.499557
Si Si2 0.794090 0.818051 0.094933
Si Si3 0.919252 0.180309 0.334115
Si Si4 0.810992 0.681379 0.662712
Si Si5 0.417722 0.317267 0.073091
Si Si6 0.453574 0.181572 0.258070
Si Si7 0.187037 0.818254 0.238880
O O1 0.500000 0.235805 0.500000
O O2 0.500520 0.214577 0.412392
O O3 0.697363 0.280944 0.566962
O O4 0.607497 0.000000 0.520218
O O5 0.874510 0.765979 0.098115
O O6 0.837205 0.720609 0.162415
O O7 0.807744 0.000000 0.113426
O O8 0.656007 0.776812 0.006491
O O9 0.953544 0.215297 0.302587
O O10 0.780245 0.218566 0.263025
O O11 0.943213 0.000000 0.358586
O O12 0.813173 0.500000 0.677382
O O13 0.801487 0.784683 0.701885
O O14 0.928968 0.729599 0.702796
O O15 0.394166 0.500000 0.052701
O O16 0.556081 0.272623 0.146487
O O17 0.452557 0.000000 0.270636
O O18 0.214032 0.000000 0.246582
#
# Coordination Sequence:
#
# PCOD8092051 Si02
#       7
#     8   8   8   8   8   8   8
#     4  11  23  40  64  91 121 159 200 246 300 357
#     4  10  19  34  58  89 123 158 200 248 298 352
#     4  12  26  42  63  89 122 160 202 250 302 359
#     4  11  23  38  63  93 120 156 202 251 297 352
#     4   9  19  34  57  89 122 158 199 245 298 354
#     4  11  24  42  62  88 125 163 201 245 304 364
#     4  11  21  38  62  90 123 159 201 247 299 359
#
# _framework density 19.684342999999998
#
# number of rings (size 3 to 8) (size 9 to 14) (size 15 to 20)
#    0.000    1.286    2.857    3.429    0.000    4.571 
#    0.000    0.714    0.000    4.286    0.000    0.000 
#    0.000    0.000    0.000    0.000    0.000    0.000 
#
# Total GULP energy -347407.252279 kJ/mol
# GULP energy per Si atom -12407.401867 kJ/mol
# Density = 1.963954 g / cm^3
# Si number density = 19.684343 Si / 1000 Ang^3
#
#
#
# Elastic Constant Matrix: (Units=GPa)
#
#
# Indices 1 2 3 4 5 6 
#
# 1 66.9672 22.8560 32.7915 0.0000 -2.1090 0.0002
# 2 22.8560 52.5088 19.6342 -0.0001 5.1029 0.0012
# 3 32.7915 19.6342 115.5277 0.0000 2.9977 0.0000
# 4 0.0000 -0.0001 0.0000 36.4958 0.0000 -0.1788
# 5 -2.1090 5.1029 2.9977 0.0000 28.5504 -0.0001
# 6 0.0002 0.0012 0.0000 -0.1788 -0.0001 29.0947
#
#
#
# Elastic Compliance Matrix: (Units=1/GPa)
#
#
# Indices 1 2 3 4 5 6 
#
# 1 0.019670 -0.007213 -0.004440 0.000000 0.003208 0.000000
# 2 -0.007213 0.023293 -0.001794 0.000000 -0.004508 -0.000001
# 3 -0.004440 -0.001794 0.010249 0.000000 -0.001083 0.000000
# 4 0.000000 0.000000 0.000000 0.027401 0.000000 0.000168
# 5 0.003208 -0.004508 -0.001083 0.000000 0.036182 0.000000
# 6 0.000000 -0.000001 0.000000 0.000168 0.000000 0.034372
#
#
# Mechanical properties :
#
#
# Convention : Reuss Voigt Hill
#
# Bulk Modulus (GPa) = 37.99925 42.84079 40.42002
# Shear Modulus (GPa) = 26.76144 29.47632 28.11888
#
# Velocity S-wave (km/s) = 3.69118 3.87389 3.78364
# Velocity P-wave (km/s) = 6.12475 6.46688 6.29814
#
# Compressibility (1/GPa) = 0.02631631
#
# Stress axis : x y z
#
# Youngs Moduli (GPa) = 50.83887 42.93092 97.56686
#
# Poissons Ratio (x) = 0.30968 0.43324
# Poissons Ratio (y) = 0.36672 0.17507
# Poissons Ratio (z) = 0.22575 0.07703
#
# Static dielectric constant tensor:
#      x y z
#    x 3.448200 0.000000 0.152480 
#    y 0.000000 3.517510 0.000000 
#    z 0.152480 0.000000 3.745280 
# 
# 
# High freq. dielectric constant tensor:
#      x y z
#    x 1.746750 0.000000 0.007070 
#    y 0.000000 1.774430 0.000000 
#    z 0.007070 0.000000 1.780030 
# 
# From -- ./inp_files/380773.got.cif
#   From: 2010.06.25/outbox.cif.g09.slc.cpg/sg12_191_cif.got.tgz:380773.got - 2010.06.28 00:19:55.
