data_PCOD8092002
_publ_section_title
;
Structure prediction by ZEFSAII (Michael W. Deem and Ramdas Pophale) SiO2 
 PCOD8092002
Probable space group: C 2/M
;
_chemical_formula_sum "Si O2"
_cell_formula_units_Z 56
_cell_length_a 29.247535
_cell_length_b 9.200841
_cell_length_c 13.751838
_cell_angle_alpha 90.000000
_cell_angle_beta 52.715696
_cell_angle_gamma 90.000000
_cell_volume 2944.379982
_symmetry_space_group_name_H-M "C 2/M"
_symmetry_group_IT_number 12
_symmetry_cell_setting 'monoclinic'
loop_
_space_group_symop_operation_xyz
x,y,z
-x,y,-z
-x,-y,-z
x,-y,z
1/2+x,1/2+y,z
1/2-x,1/2+y,-z
1/2-x,1/2-y,-z
1/2+x,1/2-y,z
loop_
_atom_site_type_symbol
_atom_site_label
_atom_site_fract_x
_atom_site_fract_y
_atom_site_fract_z
Si Si1 0.404337 0.671271 0.709210
Si Si2 0.696913 0.328184 0.021189
Si Si3 0.169026 0.334035 0.867173
Si Si4 0.994481 0.828733 0.288504
Si Si5 0.122630 0.172552 0.468287
Si Si6 0.036398 0.331762 0.043872
Si Si7 0.260098 0.668995 0.586796
O O1 0.401325 0.500000 0.701092
O O2 0.358831 0.724014 0.847882
O O3 0.467168 0.717908 0.667270
O O4 0.389500 0.740904 0.623163
O O5 0.705621 0.500000 0.013325
O O6 0.750000 0.250000 0.000000
O O7 0.691626 0.277155 0.917789
O O8 0.179231 0.500000 0.889265
O O9 0.204348 0.302593 0.724154
O O10 0.102494 0.304037 0.931697
O O11 0.929132 0.780186 0.393536
O O12 0.018122 0.753811 0.162473
O O13 0.999673 0.000000 0.264896
O O14 0.182839 0.231600 0.433157
O O15 0.125096 0.000000 0.456076
O O16 0.023335 0.500000 0.080199
O O17 0.000000 0.272583 0.000000
O O18 0.268763 0.500000 0.552841
O O19 0.250000 0.750000 0.500000
#
# Coordination Sequence:
#
# PCOD8092002 Si02
#       7
#     8   8   8   8   8   8   8
#     4   9  17  32  54  82 112 141 179 224 276 333
#     4  11  21  34  56  85 116 150 187 230 279 334
#     4  10  21  39  59  80 112 151 190 234 282 334
#     4  10  19  34  58  87 111 139 181 233 281 327
#     4   9  18  33  55  82 112 144 179 225 281 335
#     4  10  22  38  57  81 112 153 190 226 281 340
#     4  10  22  39  58  81 110 147 190 233 282 334
#
# _framework density 19.019283999999999
#
# number of rings (size 3 to 8) (size 9 to 14) (size 15 to 20)
#    0.000    2.143    1.429    1.714    2.000    4.857 
#    0.000    0.000    0.000    4.286    0.000    0.000 
#    0.000    0.000    0.000    0.000    0.000    0.000 
#
# Total GULP energy -347209.111551 kJ/mol
# GULP energy per Si atom -12400.325413 kJ/mol
# Density = 1.897600 g / cm^3
# Si number density = 19.019284 Si / 1000 Ang^3
#
#
#
# Elastic Constant Matrix: (Units=GPa)
#
#
# Indices 1 2 3 4 5 6 
#
# 1 148.3176 40.2939 78.5557 0.0000 6.8617 0.0000
# 2 40.2939 45.9863 43.2710 0.0000 0.1728 0.0000
# 3 78.5557 43.2710 143.4383 0.0000 2.5636 0.0000
# 4 0.0000 0.0000 0.0000 28.6976 0.0000 5.1247
# 5 6.8617 0.1728 2.5636 0.0000 32.4223 0.0000
# 6 0.0000 0.0000 0.0000 5.1247 0.0000 26.4764
#
#
#
# Elastic Compliance Matrix: (Units=1/GPa)
#
#
# Indices 1 2 3 4 5 6 
#
# 1 0.010427 -0.005288 -0.004082 0.000000 -0.001856 0.000000
# 2 -0.005288 0.033057 -0.007103 0.000000 0.001505 0.000000
# 3 -0.004082 -0.007103 0.011350 0.000000 0.000004 0.000000
# 4 0.000000 0.000000 0.000000 0.036094 0.000000 -0.006986
# 5 -0.001856 0.001505 0.000004 0.000000 0.031227 0.000000
# 6 0.000000 0.000000 0.000000 -0.006986 0.000000 0.039122
#
#
# Mechanical properties :
#
#
# Convention : Reuss Voigt Hill
#
# Bulk Modulus (GPa) = 45.68826 73.55369 59.62098
# Shear Modulus (GPa) = 24.81157 29.22737 27.01947
#
# Velocity S-wave (km/s) = 3.61577 3.92436 3.77322
# Velocity P-wave (km/s) = 6.44251 7.70008 7.09920
#
# Compressibility (1/GPa) = 0.02188746
#
# Stress axis : x y z
#
# Youngs Moduli (GPa) = 95.90700 30.25046 88.10705
#
# Poissons Ratio (x) = 0.15997 0.35964
# Poissons Ratio (y) = 0.50718 0.62583
# Poissons Ratio (z) = 0.39148 0.21487
#
# Static dielectric constant tensor:
#      x y z
#    x 4.067220 0.000000 -0.231020 
#    y 0.000000 3.067060 0.000000 
#    z -0.231020 0.000000 3.542110 
# 
# 
# High freq. dielectric constant tensor:
#      x y z
#    x 1.756700 0.000000 -0.005090 
#    y 0.000000 1.701500 0.000000 
#    z -0.005090 0.000000 1.749520 
# 
# From -- ./inp_files/180692.got.cif
#   From: 2010.06.25/outbox.cif.g09.slc.cpg/sg12_91_cif.got.tgz:180692.got - 2010.06.28 00:19:55.
