data_PCOD8092946
_publ_section_title
;
Structure prediction by ZEFSAII (Michael W. Deem and Ramdas Pophale) SiO2 
 PCOD8092946
Probable space group: C 2/M
;
_chemical_formula_sum "Si O2"
_cell_formula_units_Z 64
_cell_length_a 19.504097
_cell_length_b 14.919707
_cell_length_c 14.587264
_cell_angle_alpha 90.000000
_cell_angle_beta 132.725721
_cell_angle_gamma 90.000000
_cell_volume 3118.292651
_symmetry_space_group_name_H-M "C 2/M"
_symmetry_group_IT_number 12
_symmetry_cell_setting 'monoclinic'
loop_
_space_group_symop_operation_xyz
x,y,z
-x,y,-z
-x,-y,-z
x,-y,z
1/2+x,1/2+y,z
1/2-x,1/2+y,-z
1/2-x,1/2-y,-z
1/2+x,1/2-y,z
loop_
_atom_site_type_symbol
_atom_site_label
_atom_site_fract_x
_atom_site_fract_y
_atom_site_fract_z
Si Si1 0.732758 0.605202 0.550846
Si Si2 0.324463 0.402915 0.129973
Si Si3 0.128887 0.713706 0.440749
Si Si4 0.268721 0.147107 0.133519
Si Si5 0.891754 0.599539 0.411707
Si Si6 0.933243 0.747047 0.196224
Si Si7 0.203343 0.601235 0.188782
Si Si8 0.411859 0.746493 0.971389
O O1 0.713543 0.500000 0.501658
O O2 0.827362 0.645527 0.593754
O O3 0.655751 0.680934 0.451785
O O4 0.737952 0.606602 0.664777
O O5 0.354977 0.500000 0.191917
O O6 0.423391 0.354199 0.199230
O O7 0.265240 0.360868 0.160616
O O8 0.263951 0.413102 0.981625
O O9 0.155237 0.674105 0.564580
O O10 0.017651 0.705427 0.329307
O O11 0.336011 0.096082 0.265426
O O12 0.331141 0.223147 0.142702
O O13 0.177066 0.180886 0.104541
O O14 0.884202 0.500000 0.448508
O O15 0.000000 0.625368 0.500000
O O16 0.944351 0.720603 0.100832
O O17 0.168958 0.500000 0.139458
O O18 0.113600 0.665788 0.111890
O O19 0.500000 0.699616 0.000000
#
# Coordination Sequence:
#
# PCOD8092946 Si02
#       8
#     8   8   8   8   8   8   8   8
#     4  10  23  42  62  89 123 163 208 254 308 374
#     4  10  20  36  60  87 119 155 196 250 312 367
#     4  11  23  40  63  86 123 166 205 256 311 364
#     4  11  20  40  60  86 122 160 201 258 307 361
#     4  11  23  38  62  92 121 159 209 260 307 362
#     4  11  21  37  59  88 118 161 204 253 308 370
#     4  10  19  35  58  85 118 154 194 248 309 364
#     4  11  21  36  59  87 119 158 204 246 308 378
#
# _framework density 20.524052000000001
#
# number of rings (size 3 to 8) (size 9 to 14) (size 15 to 20)
#    0.000    1.375    3.750    3.000    0.000    1.750 
#    0.000    1.250    0.000   13.500    0.000    0.000 
#    0.000    0.000    0.000    0.000    0.000    0.000 
#
# Total GULP energy -396457.455657 kJ/mol
# GULP energy per Si atom -12389.295489 kJ/mol
# Density = 2.047734 g / cm^3
# Si number density = 20.524052 Si / 1000 Ang^3
#
#
#
# Elastic Constant Matrix: (Units=GPa)
#
#
# Indices 1 2 3 4 5 6 
#
# 1 107.1168 41.4805 33.8725 0.0000 10.5607 0.0000
# 2 41.4805 96.3316 15.3259 0.0000 0.5128 0.0000
# 3 33.8725 15.3259 75.1316 0.0000 -6.2070 0.0000
# 4 0.0000 0.0000 0.0000 18.2099 0.0000 -5.6688
# 5 10.5607 0.5128 -6.2070 0.0000 28.2844 0.0000
# 6 0.0000 0.0000 0.0000 -5.6688 0.0000 27.0520
#
#
#
# Elastic Compliance Matrix: (Units=1/GPa)
#
#
# Indices 1 2 3 4 5 6 
#
# 1 0.013660 -0.004947 -0.005666 0.000000 -0.006254 0.000000
# 2 -0.004947 0.012534 -0.000196 0.000000 0.001577 0.000000
# 3 -0.005666 -0.000196 0.016376 0.000000 0.005713 0.000000
# 4 0.000000 0.000000 0.000000 0.058748 0.000000 0.012311
# 5 -0.006254 0.001577 0.005713 0.000000 0.038915 0.000000
# 6 0.000000 0.000000 0.000000 0.012311 0.000000 0.039546
#
#
# Mechanical properties :
#
#
# Convention : Reuss Voigt Hill
#
# Bulk Modulus (GPa) = 47.72889 51.10418 49.41654
# Shear Modulus (GPa) = 23.99459 27.23600 25.61529
#
# Velocity S-wave (km/s) = 3.42291 3.64679 3.53663
# Velocity P-wave (km/s) = 6.23918 6.53344 6.38800
#
# Compressibility (1/GPa) = 0.02095167
#
# Stress axis : x y z
#
# Youngs Moduli (GPa) = 73.20863 79.78388 61.06370
#
# Poissons Ratio (x) = 0.39470 0.34598
# Poissons Ratio (y) = 0.36217 0.01197
# Poissons Ratio (z) = 0.41479 0.01564
#
# Static dielectric constant tensor:
#      x y z
#    x 3.684890 0.000000 -0.110510 
#    y 0.000000 3.708070 0.000000 
#    z -0.110510 0.000000 3.493810 
# 
# 
# High freq. dielectric constant tensor:
#      x y z
#    x 1.801730 0.000000 -0.012190 
#    y 0.000000 1.801410 0.000000 
#    z -0.012190 0.000000 1.790130 
# 
# From -- ./inp_files/225729.got.cif
#   From: 2010.06.25/outbox.cif.g09.slc.cpg/sg12_113_cif.got.tgz:225729.got - 2010.06.28 00:19:55.
