data_PCOD8092629
_publ_section_title
;
Structure prediction by ZEFSAII (Michael W. Deem and Ramdas Pophale) SiO2 
 PCOD8092629
Probable space group: C 2/M
;
_chemical_formula_sum "Si O2"
_cell_formula_units_Z 56
_cell_length_a 13.437789
_cell_length_b 19.149037
_cell_length_c 11.441220
_cell_angle_alpha 90.000000
_cell_angle_beta 73.697672
_cell_angle_gamma 90.000000
_cell_volume 2825.693627
_symmetry_space_group_name_H-M "C 2/M"
_symmetry_group_IT_number 12
_symmetry_cell_setting 'monoclinic'
loop_
_space_group_symop_operation_xyz
x,y,z
-x,y,-z
-x,-y,-z
x,-y,z
1/2+x,1/2+y,z
1/2-x,1/2+y,-z
1/2-x,1/2-y,-z
1/2+x,1/2-y,z
loop_
_atom_site_type_symbol
_atom_site_label
_atom_site_fract_x
_atom_site_fract_y
_atom_site_fract_z
Si Si1 0.443827 0.079826 0.773205
Si Si2 0.290049 0.324110 0.570230
Si Si3 0.818159 0.421093 0.243506
Si Si4 0.380446 0.725289 0.322658
Si Si5 0.118565 0.203755 0.946801
Si Si6 0.687695 0.148633 0.996986
Si Si7 0.066275 0.713003 0.364710
O O1 0.566690 0.091037 0.744904
O O2 0.397496 0.137690 0.698487
O O3 0.420334 0.000000 0.739802
O O4 0.388234 0.093327 0.915470
O O5 0.272200 0.399704 0.634388
O O6 0.347999 0.336185 0.426353
O O7 0.174096 0.292997 0.599632
O O8 0.340788 0.265220 0.637193
O O9 0.799575 0.500000 0.213562
O O10 0.796890 0.373208 0.140264
O O11 0.350616 0.708200 0.200142
O O12 0.501833 0.743487 0.288431
O O13 0.131879 0.276089 0.012792
O O14 0.200271 0.149654 0.976123
O O15 0.000000 0.177145 0.000000
O O16 0.000000 0.696890 0.500000
#
# Coordination Sequence:
#
# PCOD8092629 Si02
#       7
#     8   8   8   8   8   8   8
#     4  11  22  37  57  85 125 158 191 239 298 360
#     4  10  20  35  59  87 118 155 193 241 293 341
#     4  11  22  38  61  88 119 156 198 241 292 358
#     4  10  19  35  56  85 120 145 190 245 293 343
#     4  11  22  34  60  91 117 150 197 257 291 341
#     4  11  22  36  55  88 121 152 197 240 299 353
#     4  10  20  34  58  86 116 153 196 241 292 347
#
# _framework density 19.818145000000001
#
# number of rings (size 3 to 8) (size 9 to 14) (size 15 to 20)
#    0.000    1.429    2.857    3.429    4.000    1.429 
#    0.000    0.000    0.000    6.429    0.000    0.000 
#    0.000    0.000    0.000    0.000    0.000    0.000 
#
# Total GULP energy -346996.299585 kJ/mol
# GULP energy per Si atom -12392.724985 kJ/mol
# Density = 1.977304 g / cm^3
# Si number density = 19.818145 Si / 1000 Ang^3
#
#
#
# Elastic Constant Matrix: (Units=GPa)
#
#
# Indices 1 2 3 4 5 6 
#
# 1 77.2061 34.6747 18.8960 0.0000 1.2050 0.0000
# 2 34.6747 72.7888 15.6163 0.0000 -8.6307 0.0000
# 3 18.8960 15.6163 53.2596 0.0000 -13.4302 0.0000
# 4 0.0000 0.0000 0.0000 24.9226 0.0000 -3.0352
# 5 1.2050 -8.6307 -13.4302 0.0000 27.8626 0.0000
# 6 0.0000 0.0000 0.0000 -3.0352 0.0000 23.7622
#
#
#
# Elastic Compliance Matrix: (Units=1/GPa)
#
#
# Indices 1 2 3 4 5 6 
#
# 1 0.018042 -0.008116 -0.005524 0.000000 -0.005957 0.000000
# 2 -0.008116 0.018508 -0.001153 0.000000 0.005528 0.000000
# 3 -0.005524 -0.001153 0.023956 0.000000 0.011429 0.000000
# 4 0.000000 0.000000 0.000000 0.040758 0.000000 0.005206
# 5 -0.005957 0.005528 0.011429 0.000000 0.043369 0.000000
# 6 0.000000 0.000000 0.000000 0.005206 0.000000 0.042749
#
#
# Mechanical properties :
#
#
# Convention : Reuss Voigt Hill
#
# Bulk Modulus (GPa) = 32.34166 37.95872 35.15019
# Shear Modulus (GPa) = 21.99988 24.24731 23.12359
#
# Velocity S-wave (km/s) = 3.33541 3.50164 3.41954
# Velocity P-wave (km/s) = 5.58462 5.96186 5.77632
#
# Compressibility (1/GPa) = 0.03091988
#
# Stress axis : x y z
#
# Youngs Moduli (GPa) = 55.42528 54.03196 41.74372
#
# Poissons Ratio (x) = 0.43853 0.23057
# Poissons Ratio (y) = 0.44984 0.04814
# Poissons Ratio (z) = 0.30615 0.06231
#
# Static dielectric constant tensor:
#      x y z
#    x 3.714970 0.000000 0.038490 
#    y 0.000000 3.388560 0.000000 
#    z 0.038490 0.000000 3.737860 
# 
# 
# High freq. dielectric constant tensor:
#      x y z
#    x 1.773790 0.000000 0.001480 
#    y 0.000000 1.730570 0.000000 
#    z 0.001480 0.000000 1.785940 
# 
# From -- ./inp_files/147078.got.cif
#   From: 2010.06.25/outbox.cif.g09.slc.cpg/sg12_74_cif.got.tgz:147078.got - 2010.06.28 00:19:55.
