data_PCOD8092210
_publ_section_title
;
Structure prediction by ZEFSAII (Michael W. Deem and Ramdas Pophale) SiO2 
 PCOD8092210
Probable space group: C 2/M
;
_chemical_formula_sum "Si O2"
_cell_formula_units_Z 64
_cell_length_a 8.841418
_cell_length_b 30.366159
_cell_length_c 18.793399
_cell_angle_alpha 90.000000
_cell_angle_beta 141.327189
_cell_angle_gamma 90.000000
_cell_volume 3152.886614
_symmetry_space_group_name_H-M "C 2/M"
_symmetry_group_IT_number 12
_symmetry_cell_setting 'monoclinic'
loop_
_space_group_symop_operation_xyz
x,y,z
-x,y,-z
-x,-y,-z
x,-y,z
1/2+x,1/2+y,z
1/2-x,1/2+y,-z
1/2-x,1/2-y,-z
1/2+x,1/2-y,z
loop_
_atom_site_type_symbol
_atom_site_label
_atom_site_fract_x
_atom_site_fract_y
_atom_site_fract_z
Si Si1 0.417408 0.285878 0.601296
Si Si2 0.895615 0.950020 0.800258
Si Si3 0.917114 0.877218 0.392976
Si Si4 0.640627 0.296160 0.121468
Si Si5 0.858799 0.387825 0.197543
Si Si6 0.890030 0.049718 0.268762
Si Si7 0.839935 0.550162 0.061341
Si Si8 0.907559 0.240550 0.749172
O O1 0.250000 0.250000 0.500000
O O2 0.419644 0.334429 0.567205
O O3 0.689579 0.270276 0.694295
O O4 0.339593 0.290686 0.656362
O O5 0.681467 0.917395 0.746692
O O6 0.923297 0.943390 0.726519
O O7 0.819854 0.000000 0.790482
O O8 0.156356 0.938394 0.930596
O O9 0.628886 0.868633 0.289429
O O10 0.971468 0.916668 0.359208
O O11 0.000000 0.893764 0.500000
O O12 0.670813 0.348134 0.130710
O O13 0.506683 0.285548 0.147964
O O14 0.896402 0.272682 0.211975
O O15 0.500000 0.279501 0.000000
O O16 0.775915 0.418492 0.102843
O O17 0.617564 0.058483 0.139744
O O18 0.907309 0.000000 0.305528
O O19 0.804549 0.500000 0.073887
#
# Coordination Sequence:
#
# PCOD8092210 Si02
#       8
#     8   8   8   8   8   8   8   8
#     4  11  22  42  67  93 116 150 203 265 320 352
#     4  10  19  34  59  91 126 163 203 250 294 345
#     4  11  24  42  62  85 116 156 199 258 310 372
#     4  11  22  39  59  86 125 165 197 235 296 375
#     4  11  22  36  57  88 124 154 205 250 296 356
#     4   9  20  37  59  89 127 163 203 248 297 362
#     4   9  17  33  58  89 125 168 205 243 295 345
#     4  10  23  39  62  88 119 157 195 251 301 371
#
# _framework density 20.298857999999999
#
# number of rings (size 3 to 8) (size 9 to 14) (size 15 to 20)
#    0.000    1.750    1.250    3.375    3.500    3.250 
#    0.000    0.625    0.000    1.500    0.000    0.000 
#    0.000    0.000    0.000    0.000    0.000    0.000 
#
# Total GULP energy -396645.173998 kJ/mol
# GULP energy per Si atom -12395.161687 kJ/mol
# Density = 2.025266 g / cm^3
# Si number density = 20.298858 Si / 1000 Ang^3
#
#
#
# Elastic Constant Matrix: (Units=GPa)
#
#
# Indices 1 2 3 4 5 6 
#
# 1 102.3852 49.8045 23.6013 0.0000 -26.8684 0.0000
# 2 49.8045 115.8535 34.0740 0.0000 -11.5945 0.0000
# 3 23.6013 34.0740 77.6198 0.0000 -27.7383 0.0000
# 4 0.0000 0.0000 0.0000 9.7348 0.0000 -1.0789
# 5 -26.8684 -11.5945 -27.7383 0.0000 31.9328 0.0000
# 6 0.0000 0.0000 0.0000 -1.0789 0.0000 33.2101
#
#
#
# Elastic Compliance Matrix: (Units=1/GPa)
#
#
# Indices 1 2 3 4 5 6 
#
# 1 0.015632 -0.006188 0.002698 0.000000 0.013250 0.000000
# 2 -0.006188 0.012362 -0.005513 0.000000 -0.005507 0.000000
# 3 0.002698 -0.005513 0.021142 0.000000 0.018633 0.000000
# 4 0.000000 0.000000 0.000000 0.103095 0.000000 0.003349
# 5 0.013250 -0.005507 0.018633 0.000000 0.056651 0.000000
# 6 0.000000 0.000000 0.000000 0.003349 0.000000 0.030220
#
#
# Mechanical properties :
#
#
# Convention : Reuss Voigt Hill
#
# Bulk Modulus (GPa) = 32.12263 56.75757 44.44010
# Shear Modulus (GPa) = 18.69267 27.53411 23.11339
#
# Velocity S-wave (km/s) = 3.03788 3.68698 3.37806
# Velocity P-wave (km/s) = 5.30699 6.79314 6.09553
#
# Compressibility (1/GPa) = 0.03113070
#
# Stress axis : x y z
#
# Youngs Moduli (GPa) = 63.97074 80.89298 47.29926
#
# Poissons Ratio (x) = 0.50054 -0.12762
# Poissons Ratio (y) = 0.39583 0.26077
# Poissons Ratio (z) = -0.17261 0.44598
#
# Static dielectric constant tensor:
#      x y z
#    x 4.036890 0.000000 -0.176880 
#    y 0.000000 3.688580 0.000000 
#    z -0.176880 0.000000 3.515520 
# 
# 
# High freq. dielectric constant tensor:
#      x y z
#    x 1.801770 0.000000 -0.010070 
#    y 0.000000 1.790920 0.000000 
#    z -0.010070 0.000000 1.773750 
# 
# From -- ./inp_files/260348.got.cif
#   From: 2010.06.25/outbox.cif.g09.slc.cpg/sg12_131_cif.got.tgz:260348.got - 2010.06.28 00:19:55.
