data_PCOD8092344
_publ_section_title
;
Structure prediction by ZEFSAII (Michael W. Deem and Ramdas Pophale) SiO2 
 PCOD8092344
Probable space group: C 2/M
;
_chemical_formula_sum "Si O2"
_cell_formula_units_Z 56
_cell_length_a 23.578589
_cell_length_b 8.657787
_cell_length_c 19.611248
_cell_angle_alpha 90.000000
_cell_angle_beta 126.716673
_cell_angle_gamma 90.000000
_cell_volume 3209.139320
_symmetry_space_group_name_H-M "C 2/M"
_symmetry_group_IT_number 12
_symmetry_cell_setting 'monoclinic'
loop_
_space_group_symop_operation_xyz
x,y,z
-x,y,-z
-x,-y,-z
x,-y,z
1/2+x,1/2+y,z
1/2-x,1/2+y,-z
1/2-x,1/2-y,-z
1/2+x,1/2-y,z
loop_
_atom_site_type_symbol
_atom_site_label
_atom_site_fract_x
_atom_site_fract_y
_atom_site_fract_z
Si Si1 0.687841 0.317904 0.499529
Si Si2 0.027531 0.315984 0.182193
Si Si3 0.432937 0.168856 0.000281
Si Si4 0.455122 0.681680 0.401052
Si Si5 0.155225 0.314799 0.182426
Si Si6 0.956947 0.318469 0.653468
Si Si7 0.696533 0.316753 0.658398
O O1 0.694936 0.500000 0.505605
O O2 0.750000 0.250000 0.500000
O O3 0.613243 0.272810 0.414944
O O4 0.693845 0.249600 0.580048
O O5 0.024574 0.500000 0.173583
O O6 0.102635 0.258426 0.205105
O O7 0.019458 0.262730 0.254311
O O8 0.961114 0.246394 0.089755
O O9 0.403859 0.000000 0.000016
O O10 0.500000 0.149403 0.000000
O O11 0.371569 0.252282 0.910765
O O12 0.500000 0.727681 0.500000
O O13 0.462988 0.500000 0.392472
O O14 0.481596 0.776082 0.355011
O O15 0.374042 0.733971 0.352651
O O16 0.154813 0.500000 0.179257
O O17 0.233927 0.250493 0.253635
O O18 0.941270 0.500000 0.640876
O O19 0.700021 0.500000 0.656988
#
# Coordination Sequence:
#
# PCOD8092344 Si02
#       7
#     8   8   8   8   8   8   8
#     4  11  21  34  49  70  99 128 154 188 236 284
#     4   8  14  24  39  64  97 122 143 182 238 284
#     4   7  10  18  35  60  90 119 144 178 226 279
#     4  10  19  35  51  63  85 124 166 204 240 275
#     4   8  12  21  40  65  89 116 150 185 227 283
#     4  11  21  32  48  70  95 125 159 196 235 280
#     4   9  17  29  46  64  88 121 156 195 238 277
#
# _framework density 17.450161000000001
#
# number of rings (size 3 to 8) (size 9 to 14) (size 15 to 20)
#    0.000    2.857    1.429    3.429    0.000    2.571 
#    0.000    0.000    0.000    0.857    0.000    0.000 
#    0.000   41.143    0.000    0.000    0.000    0.143 
#
# Total GULP energy -346918.256361 kJ/mol
# GULP energy per Si atom -12389.937727 kJ/mol
# Density = 1.741044 g / cm^3
# Si number density = 17.450161 Si / 1000 Ang^3
#
#
#
# Elastic Constant Matrix: (Units=GPa)
#
#
# Indices 1 2 3 4 5 6 
#
# 1 116.5078 13.4823 76.2440 0.0000 -1.2818 0.0000
# 2 13.4823 19.3020 13.6911 0.0000 1.3132 0.0000
# 3 76.2440 13.6911 174.7190 0.0000 6.1062 0.0000
# 4 0.0000 0.0000 0.0000 10.7295 0.0000 -2.4537
# 5 -1.2818 1.3132 6.1062 0.0000 15.4095 0.0000
# 6 0.0000 0.0000 0.0000 -2.4537 0.0000 21.0540
#
#
#
# Elastic Compliance Matrix: (Units=1/GPa)
#
#
# Indices 1 2 3 4 5 6 
#
# 1 0.012669 -0.005382 -0.005232 0.000000 0.003586 0.000000
# 2 -0.005382 0.057282 -0.001981 0.000000 -0.004544 0.000000
# 3 -0.005232 -0.001981 0.008286 0.000000 -0.003550 0.000000
# 4 0.000000 0.000000 0.000000 0.095753 0.000000 0.011159
# 5 0.003586 -0.004544 -0.003550 0.000000 0.066987 0.000000
# 6 0.000000 0.000000 0.000000 0.011159 0.000000 0.048798
#
#
# Mechanical properties :
#
#
# Convention : Reuss Voigt Hill
#
# Bulk Modulus (GPa) = 18.85145 57.48487 38.16816
# Shear Modulus (GPa) = 15.03088 23.24601 19.13845
#
# Velocity S-wave (km/s) = 2.93808 3.65381 3.31531
# Velocity P-wave (km/s) = 4.72612 7.12841 6.04774
#
# Compressibility (1/GPa) = 0.05304631
#
# Stress axis : x y z
#
# Youngs Moduli (GPa) = 78.92997 17.45746 120.68476
#
# Poissons Ratio (x) = 0.09396 0.63146
# Poissons Ratio (y) = 0.42482 0.23910
# Poissons Ratio (z) = 0.41298 0.03459
#
# Static dielectric constant tensor:
#      x y z
#    x 3.175720 0.000000 0.023070 
#    y 0.000000 2.737200 0.000000 
#    z 0.023070 0.000000 3.835880 
# 
# 
# High freq. dielectric constant tensor:
#      x y z
#    x 1.654310 0.000000 0.004300 
#    y 0.000000 1.620370 0.000000 
#    z 0.004300 0.000000 1.691670 
# 
# From -- ./inp_files/281682.got.cif
#   From: 2010.06.25/outbox.cif.g09.slc.cpg/sg12_141_cif.got.tgz:281682.got - 2010.06.28 00:19:55.
