data_PCOD8092513
_publ_section_title
;
Structure prediction by ZEFSAII (Michael W. Deem and Ramdas Pophale) SiO2 
 PCOD8092513
Probable space group: C 2/M
;
_chemical_formula_sum "Si O2"
_cell_formula_units_Z 56
_cell_length_a 24.311268
_cell_length_b 16.325028
_cell_length_c 9.335661
_cell_angle_alpha 90.000000
_cell_angle_beta 55.013059
_cell_angle_gamma 90.000000
_cell_volume 3035.571256
_symmetry_space_group_name_H-M "C 2/M"
_symmetry_group_IT_number 12
_symmetry_cell_setting 'monoclinic'
loop_
_space_group_symop_operation_xyz
x,y,z
-x,y,-z
-x,-y,-z
x,-y,z
1/2+x,1/2+y,z
1/2-x,1/2+y,-z
1/2-x,1/2-y,-z
1/2+x,1/2-y,z
loop_
_atom_site_type_symbol
_atom_site_label
_atom_site_fract_x
_atom_site_fract_y
_atom_site_fract_z
Si Si1 0.317500 0.796173 0.567849
Si Si2 0.984077 0.096142 0.685381
Si Si3 0.750667 0.590815 0.442717
Si Si4 0.214479 0.677416 0.868223
Si Si5 0.133843 0.168414 0.964847
Si Si6 0.891040 0.157259 0.325528
Si Si7 0.229002 0.595010 0.148370
O O1 0.271403 0.834436 0.512812
O O2 0.277087 0.729659 0.719060
O O3 0.381205 0.750722 0.401440
O O4 0.332082 0.869982 0.659620
O O5 0.000000 0.124840 0.500000
O O6 0.043385 0.118936 0.703970
O O7 0.970472 0.000000 0.711619
O O8 0.916949 0.141369 0.835829
O O9 0.766796 0.500000 0.479895
O O10 0.792266 0.601437 0.232073
O O11 0.671052 0.599693 0.536066
O O12 0.149110 0.735427 0.968643
O O13 0.231074 0.643494 0.998256
O O14 0.100684 0.157849 0.858256
O O15 0.200891 0.112400 0.873755
O O16 0.217330 0.500000 0.138286
#
# Coordination Sequence:
#
# PCOD8092513 Si02
#       7
#     8   8   8   8   8   8   8
#     4  10  19  35  55  83 112 146 186 229 277 337
#     4  11  27  41  55  82 112 148 192 231 271 323
#     4  11  19  32  57  87 118 143 179 232 284 329
#     4  10  20  35  53  82 114 152 184 227 278 337
#     4  11  21  39  57  78 113 154 189 226 269 333
#     4  11  21  38  58  80 112 153 189 223 274 334
#     4  11  22  33  55  88 118 148 183 228 285 330
#
# _framework density 18.447928999999998
#
# number of rings (size 3 to 8) (size 9 to 14) (size 15 to 20)
#    0.000    1.286    4.286    4.714    6.000    2.286 
#    0.000    0.000    0.000    0.000    0.000    6.000 
#    0.000    0.000    0.000    0.000    0.000    0.000 
#
# Total GULP energy -347043.677773 kJ/mol
# GULP energy per Si atom -12394.417063 kJ/mol
# Density = 1.840594 g / cm^3
# Si number density = 18.447929 Si / 1000 Ang^3
#
#
#
# Elastic Constant Matrix: (Units=GPa)
#
#
# Indices 1 2 3 4 5 6 
#
# 1 37.1227 16.2948 27.5551 0.0000 20.0428 0.0000
# 2 16.2948 91.4364 34.3075 0.0000 0.9452 0.0000
# 3 27.5551 34.3075 110.5351 0.0000 13.1320 0.0000
# 4 0.0000 0.0000 0.0000 31.8911 0.0000 4.7214
# 5 20.0428 0.9452 13.1320 0.0000 31.9106 0.0000
# 6 0.0000 0.0000 0.0000 4.7214 0.0000 24.3628
#
#
#
# Elastic Compliance Matrix: (Units=1/GPa)
#
#
# Indices 1 2 3 4 5 6 
#
# 1 0.050319 -0.005923 -0.007330 0.000000 -0.028413 0.000000
# 2 -0.005923 0.013125 -0.003147 0.000000 0.004627 0.000000
# 3 -0.007330 -0.003147 0.011873 0.000000 -0.000189 0.000000
# 4 0.000000 0.000000 0.000000 0.032283 0.000000 -0.006256
# 5 -0.028413 0.004627 -0.000189 0.000000 0.049124 0.000000
# 6 0.000000 0.000000 0.000000 -0.006256 0.000000 0.042259
#
#
# Mechanical properties :
#
#
# Convention : Reuss Voigt Hill
#
# Bulk Modulus (GPa) = 23.51988 43.93437 33.72713
# Shear Modulus (GPa) = 20.32888 28.36200 24.34544
#
# Velocity S-wave (km/s) = 3.32318 3.92523 3.63669
# Velocity P-wave (km/s) = 5.24421 6.66411 5.99633
#
# Compressibility (1/GPa) = 0.04251722
#
# Stress axis : x y z
#
# Youngs Moduli (GPa) = 19.87327 76.19039 84.22270
#
# Poissons Ratio (x) = 0.45130 0.61734
# Poissons Ratio (y) = 0.11772 0.26503
# Poissons Ratio (z) = 0.14567 0.23975
#
# Static dielectric constant tensor:
#      x y z
#    x 3.053020 0.000000 0.249030 
#    y 0.000000 3.696210 0.000000 
#    z 0.249030 0.000000 3.756430 
# 
# 
# High freq. dielectric constant tensor:
#      x y z
#    x 1.675960 0.000000 0.035600 
#    y 0.000000 1.719580 0.000000 
#    z 0.035600 0.000000 1.727350 
# 
# From -- ./inp_files/97620.got.cif
#   From: 2010.06.25/outbox.cif.g09.slc.cpg/sg12_49_cif.got.tgz:97620.got - 2010.06.28 00:19:55.
