data_PCOD8092869
_publ_section_title
;
Structure prediction by ZEFSAII (Michael W. Deem and Ramdas Pophale) SiO2 
 PCOD8092869
Probable space group: C 2/M
;
_chemical_formula_sum "Si O2"
_cell_formula_units_Z 40
_cell_length_a 20.979510
_cell_length_b 10.441947
_cell_length_c 9.148677
_cell_angle_alpha 90.000000
_cell_angle_beta 75.199609
_cell_angle_gamma 90.000000
_cell_volume 1937.677449
_symmetry_space_group_name_H-M "C 2/M"
_symmetry_group_IT_number 12
_symmetry_cell_setting 'monoclinic'
loop_
_space_group_symop_operation_xyz
x,y,z
-x,y,-z
-x,-y,-z
x,-y,z
1/2+x,1/2+y,z
1/2-x,1/2+y,-z
1/2-x,1/2-y,-z
1/2+x,1/2-y,z
loop_
_atom_site_type_symbol
_atom_site_label
_atom_site_fract_x
_atom_site_fract_y
_atom_site_fract_z
Si Si1 0.732131 0.731746 0.258961
Si Si2 0.171511 0.641400 0.026594
Si Si3 0.665370 0.353745 0.580462
Si Si4 0.977279 0.146603 0.366724
Si Si5 0.564633 0.646226 0.050687
O O1 0.694100 0.836258 0.181430
O O2 0.680961 0.662205 0.397836
O O3 0.786629 0.785127 0.336391
O O4 0.766010 0.637598 0.120440
O O5 0.138314 0.500000 0.040910
O O6 0.123330 0.753099 0.994704
O O7 0.670635 0.500000 0.621210
O O8 0.591594 0.296329 0.655253
O O9 0.000000 0.219492 0.500000
O O10 0.041469 0.155134 0.229920
O O11 0.958613 0.000000 0.413765
O O12 0.587186 0.500000 0.996207
O O13 0.500000 0.686816 0.000000
#
# Coordination Sequence:
#
# PCOD8092869 Si02
#       5
#     8   8   8   8   8
#     4  10  22  36  55  82 114 152 194 233 282 345
#     4  11  23  38  57  84 119 156 192 233 285 344
#     4  10  19  35  58  82 110 145 188 240 290 336
#     4   9  17  30  52  80 105 133 177 231 282 329
#     4  10  21  37  58  83 110 145 191 238 283 336
#
# _framework density 20.643272
#
# number of rings (size 3 to 8) (size 9 to 14) (size 15 to 20)
#    0.000    2.000    0.000    3.600    0.000    8.400 
#    0.000    0.000    0.000    6.600    0.000    0.000 
#    0.000    0.000    0.000    0.000    0.000    0.000 
#
# Total GULP energy -247765.100563 kJ/mol
# GULP energy per Si atom -12388.255028 kJ/mol
# Density = 2.059629 g / cm^3
# Si number density = 20.643272 Si / 1000 Ang^3
#
#
#
# Elastic Constant Matrix: (Units=GPa)
#
#
# Indices 1 2 3 4 5 6 
#
# 1 65.9183 34.3957 -2.6015 0.0000 5.1857 0.0000
# 2 34.3957 89.0459 6.7132 0.0000 0.3589 0.0000
# 3 -2.6015 6.7132 70.4408 0.0000 7.7569 0.0000
# 4 0.0000 0.0000 0.0000 12.7013 0.0000 -3.3774
# 5 5.1857 0.3589 7.7569 0.0000 39.6552 0.0000
# 6 0.0000 0.0000 0.0000 -3.3774 0.0000 17.1433
#
#
#
# Elastic Compliance Matrix: (Units=1/GPa)
#
#
# Indices 1 2 3 4 5 6 
#
# 1 0.019443 -0.007631 0.001756 0.000000 -0.002817 0.000000
# 2 -0.007631 0.014307 -0.001779 0.000000 0.001217 0.000000
# 3 0.001756 -0.001779 0.014772 0.000000 -0.003103 0.000000
# 4 0.000000 0.000000 0.000000 0.083085 0.000000 0.016369
# 5 -0.002817 0.001217 -0.003103 0.000000 0.026182 0.000000
# 6 0.000000 0.000000 0.000000 0.016369 0.000000 0.061557
#
#
# Mechanical properties :
#
#
# Convention : Reuss Voigt Hill
#
# Bulk Modulus (GPa) = 30.10902 33.60218 31.85560
# Shear Modulus (GPa) = 20.34782 26.35981 23.35381
#
# Velocity S-wave (km/s) = 3.14297 3.57728 3.36713
# Velocity P-wave (km/s) = 5.27144 5.77715 5.53008
#
# Compressibility (1/GPa) = 0.03321264
#
# Stress axis : x y z
#
# Youngs Moduli (GPa) = 51.43204 69.89522 67.69365
#
# Poissons Ratio (x) = 0.53339 -0.11884
# Poissons Ratio (y) = 0.39249 0.12045
# Poissons Ratio (z) = -0.09029 0.12436
#
# Static dielectric constant tensor:
#      x y z
#    x 3.892530 0.000000 -0.063120 
#    y 0.000000 3.344390 0.000000 
#    z -0.063120 0.000000 4.099930 
# 
# 
# High freq. dielectric constant tensor:
#      x y z
#    x 1.816390 0.000000 0.007510 
#    y 0.000000 1.758700 0.000000 
#    z 0.007510 0.000000 1.829370 
# 
# From -- ./inp_files/83364.got.cif
#   From: 2010.06.25/outbox.cif.g09.slc.cpg/sg12_42_cif.got.tgz:83364.got - 2010.06.28 00:19:55.
