data_PCOD8092273
_publ_section_title
;
Structure prediction by ZEFSAII (Michael W. Deem and Ramdas Pophale) SiO2 
 PCOD8092273
Probable space group: C 2/M
;
_chemical_formula_sum "Si O2"
_cell_formula_units_Z 60
_cell_length_a 12.343550
_cell_length_b 18.058215
_cell_length_c 13.428119
_cell_angle_alpha 90.000000
_cell_angle_beta 74.549985
_cell_angle_gamma 90.000000
_cell_volume 2884.997840
_symmetry_space_group_name_H-M "C 2/M"
_symmetry_group_IT_number 12
_symmetry_cell_setting 'monoclinic'
loop_
_space_group_symop_operation_xyz
x,y,z
-x,y,-z
-x,-y,-z
x,-y,z
1/2+x,1/2+y,z
1/2-x,1/2+y,-z
1/2-x,1/2-y,-z
1/2+x,1/2-y,z
loop_
_atom_site_type_symbol
_atom_site_label
_atom_site_fract_x
_atom_site_fract_y
_atom_site_fract_z
Si Si1 0.162263 0.580271 0.869855
Si Si2 0.622057 0.646356 0.255237
Si Si3 0.435204 0.917328 0.323829
Si Si4 0.500000 0.811969 0.000000
Si Si5 0.678876 0.087886 0.230921
Si Si6 0.614581 0.414159 0.676545
Si Si7 0.700058 0.588760 0.439463
Si Si8 0.664656 0.223614 0.105516
O O1 0.142500 0.500000 0.922658
O O2 0.295255 0.588915 0.820028
O O3 0.093121 0.587779 0.785254
O O4 0.112964 0.640414 0.956479
O O5 0.492713 0.631341 0.257802
O O6 0.634829 0.635188 0.370863
O O7 0.661810 0.727055 0.206778
O O8 0.560187 0.884018 0.309475
O O9 0.330409 0.882042 0.410415
O O10 0.443575 0.000000 0.361602
O O11 0.538622 0.766610 0.088037
O O12 0.778220 0.104633 0.282925
O O13 0.696825 0.139260 0.129206
O O14 0.674014 0.000000 0.202821
O O15 0.583463 0.500000 0.689901
O O16 0.641994 0.391418 0.556985
O O17 0.695208 0.500000 0.417107
O O18 0.750000 0.250000 0.000000
#
# Coordination Sequence:
#
# PCOD8092273 Si02
#       8
#     8   8   8   4   8   8   8   8
#     4  10  19  34  60  92 117 150 207 264 304 350
#     4  11  22  38  60  90 132 167 208 251 313 377
#     4   8  15  31  57  88 118 150 195 254 304 347
#     4  12  23  40  62  84 113 160 214 264 313 362
#     4  10  22  42  65  91 125 164 210 260 315 378
#     4  10  21  38  65  97 131 171 205 248 313 384
#     4   9  18  36  66  99 127 162 211 261 308 367
#     4  12  27  44  62  89 124 169 208 262 328 376
#
# _framework density 20.797243000000002
#
# number of rings (size 3 to 8) (size 9 to 14) (size 15 to 20)
#    0.000    1.867    2.667    2.600    1.867    2.133 
#    0.000    3.333    2.933    1.600    0.000    0.000 
#    0.000    0.000    0.000    0.000    0.000    0.000 
#
# Total GULP energy -371685.628026 kJ/mol
# GULP energy per Si atom -12389.520934 kJ/mol
# Density = 2.074991 g / cm^3
# Si number density = 20.797243 Si / 1000 Ang^3
#
#
#
# Elastic Constant Matrix: (Units=GPa)
#
#
# Indices 1 2 3 4 5 6 
#
# 1 155.3311 40.9229 48.8407 0.0000 -12.2877 0.0000
# 2 40.9229 73.8325 41.6909 0.0000 5.5740 0.0000
# 3 48.8407 41.6909 89.1389 0.0000 -2.4788 0.0000
# 4 0.0000 0.0000 0.0000 30.3054 0.0000 0.0096
# 5 -12.2877 5.5740 -2.4788 0.0000 36.0270 0.0000
# 6 0.0000 0.0000 0.0000 0.0096 0.0000 23.3850
#
#
#
# Elastic Compliance Matrix: (Units=1/GPa)
#
#
# Indices 1 2 3 4 5 6 
#
# 1 0.008502 -0.003224 -0.003062 0.000000 0.003188 0.000000
# 2 -0.003224 0.020065 -0.007750 0.000000 -0.004737 0.000000
# 3 -0.003062 -0.007750 0.016557 0.000000 0.001294 0.000000
# 4 0.000000 0.000000 0.000000 0.032997 0.000000 -0.000014
# 5 0.003188 -0.004737 0.001294 0.000000 0.029666 0.000000
# 6 0.000000 0.000000 0.000000 -0.000014 0.000000 0.042762
#
#
# Mechanical properties :
#
#
# Convention : Reuss Voigt Hill
#
# Bulk Modulus (GPa) = 58.64311 64.57906 61.61108
# Shear Modulus (GPa) = 27.12889 30.40002 28.76445
#
# Velocity S-wave (km/s) = 3.61563 3.82741 3.72303
# Velocity P-wave (km/s) = 6.75937 7.11697 6.94047
#
# Compressibility (1/GPa) = 0.01705230
#
# Stress axis : x y z
#
# Youngs Moduli (GPa) = 117.61594 49.83841 60.39888
#
# Poissons Ratio (x) = 0.16069 0.18493
# Poissons Ratio (y) = 0.37922 0.46807
# Poissons Ratio (z) = 0.36012 0.38623
#
# Static dielectric constant tensor:
#      x y z
#    x 3.979280 0.000000 -0.124200 
#    y 0.000000 3.617340 0.000000 
#    z -0.124200 0.000000 3.650700 
# 
# 
# High freq. dielectric constant tensor:
#      x y z
#    x 1.827970 0.000000 -0.011720 
#    y 0.000000 1.783860 0.000000 
#    z -0.011720 0.000000 1.803020 
# 
# From -- ./inp_files/206649.got.cif
#   From: 2010.06.25/outbox.cif.g09.slc.cpg/sg12_104_cif.got.tgz:206649.got - 2010.06.28 00:19:55.
