data_PCOD8092174
_publ_section_title
;
Structure prediction by ZEFSAII (Michael W. Deem and Ramdas Pophale) SiO2 
 PCOD8092174
Probable space group: C 2/M
;
_chemical_formula_sum "Si O2"
_cell_formula_units_Z 56
_cell_length_a 31.205037
_cell_length_b 8.904661
_cell_length_c 11.712397
_cell_angle_alpha 90.000000
_cell_angle_beta 123.669449
_cell_angle_gamma 90.000000
_cell_volume 2708.579614
_symmetry_space_group_name_H-M "C 2/M"
_symmetry_group_IT_number 12
_symmetry_cell_setting 'monoclinic'
loop_
_space_group_symop_operation_xyz
x,y,z
-x,y,-z
-x,-y,-z
x,-y,z
1/2+x,1/2+y,z
1/2-x,1/2+y,-z
1/2-x,1/2-y,-z
1/2+x,1/2-y,z
loop_
_atom_site_type_symbol
_atom_site_label
_atom_site_fract_x
_atom_site_fract_y
_atom_site_fract_z
Si Si1 0.744104 0.822660 0.868105
Si Si2 0.443216 0.673046 0.391577
Si Si3 0.863752 0.175216 0.671779
Si Si4 0.429182 0.176137 0.142599
Si Si5 0.520075 0.670867 0.156630
Si Si6 0.832647 0.677505 0.850733
Si Si7 0.346050 0.671399 0.389135
O O1 0.786368 0.758640 0.845303
O O2 0.688249 0.784075 0.735087
O O3 0.750096 0.000000 0.888595
O O4 0.750000 0.750000 0.000000
O O5 0.500000 0.741178 0.500000
O O6 0.448963 0.500000 0.365918
O O7 0.415895 0.756052 0.245940
O O8 0.406251 0.695305 0.446426
O O9 0.922271 0.234114 0.753790
O O10 0.832624 0.269842 0.719400
O O11 0.837931 0.204714 0.511000
O O12 0.862547 0.000000 0.703690
O O13 0.485305 0.230442 0.188083
O O14 0.429432 0.000000 0.154292
O O15 0.385971 0.228457 0.988596
O O16 0.518083 0.500000 0.198321
O O17 0.500000 0.685447 0.000000
O O18 0.824049 0.500000 0.844131
O O19 0.329797 0.500000 0.337346
#
# Coordination Sequence:
#
# PCOD8092174 Si02
#       7
#     8   8   8   8   8   8   8
#     4  12  26  45  69  93 120 156 203 255 311 368
#     4  10  21  39  63  89 120 160 206 250 297 360
#     4  10  21  39  63  93 126 164 209 252 302 362
#     4  11  23  36  56  88 125 161 201 253 309 363
#     4  10  19  34  59  88 122 164 209 249 292 354
#     4  11  24  41  62  91 125 160 204 253 306 366
#     4  10  22  41  65  92 125 163 204 253 306 362
#
# _framework density 20.675042999999999
#
# number of rings (size 3 to 8) (size 9 to 14) (size 15 to 20)
#    0.000    1.429    1.429    3.857    0.000    9.143 
#    0.000    1.429    0.000    0.000    0.000    0.000 
#    0.000    0.000    0.000    0.000    0.000    0.000 
#
# Total GULP energy -347354.727645 kJ/mol
# GULP energy per Si atom -12405.525987 kJ/mol
# Density = 2.062799 g / cm^3
# Si number density = 20.675043 Si / 1000 Ang^3
#
#
#
# Elastic Constant Matrix: (Units=GPa)
#
#
# Indices 1 2 3 4 5 6 
#
# 1 124.5044 46.4971 48.8423 0.0000 -9.2848 0.0000
# 2 46.4971 83.2970 46.4868 0.0000 -3.6941 0.0000
# 3 48.8423 46.4868 108.6129 0.0000 -9.1392 0.0000
# 4 0.0000 0.0000 0.0000 31.9596 0.0000 -4.8198
# 5 -9.2848 -3.6941 -9.1392 0.0000 35.3393 0.0000
# 6 0.0000 0.0000 0.0000 -4.8198 0.0000 30.5580
#
#
#
# Elastic Compliance Matrix: (Units=1/GPa)
#
#
# Indices 1 2 3 4 5 6 
#
# 1 0.010940 -0.004422 -0.002887 0.000000 0.001665 0.000000
# 2 -0.004422 0.017560 -0.005592 0.000000 -0.000772 0.000000
# 3 -0.002887 -0.005592 0.013070 0.000000 0.002037 0.000000
# 4 0.000000 0.000000 0.000000 0.032052 0.000000 0.005055
# 5 0.001665 -0.000772 0.002037 0.000000 0.029181 0.000000
# 6 0.000000 0.000000 0.000000 0.005055 0.000000 0.033522
#
#
# Mechanical properties :
#
#
# Convention : Reuss Voigt Hill
#
# Bulk Modulus (GPa) = 63.41876 66.67407 65.04642
# Shear Modulus (GPa) = 29.87153 31.21058 30.54105
#
# Velocity S-wave (km/s) = 3.80519 3.88954 3.84760
# Velocity P-wave (km/s) = 7.07436 7.24500 7.16019
#
# Compressibility (1/GPa) = 0.01576820
#
# Stress axis : x y z
#
# Youngs Moduli (GPa) = 91.40859 56.94665 76.50968
#
# Poissons Ratio (x) = 0.25180 0.22088
# Poissons Ratio (y) = 0.40418 0.42788
# Poissons Ratio (z) = 0.26389 0.31847
#
# Static dielectric constant tensor:
#      x y z
#    x 3.882460 0.000000 -0.017170 
#    y 0.000000 3.628120 0.000000 
#    z -0.017170 0.000000 3.835950 
# 
# 
# High freq. dielectric constant tensor:
#      x y z
#    x 1.818170 0.000000 -0.006230 
#    y 0.000000 1.797460 0.000000 
#    z -0.006230 0.000000 1.815700 
# 
# From -- ./inp_files/187699.got.cif
#   From: 2010.06.25/outbox.cif.g09.slc.cpg/sg12_94_cif.got.tgz:187699.got - 2010.06.28 00:19:55.
