data_PCOD8092462
_publ_section_title
;
Structure prediction by ZEFSAII (Michael W. Deem and Ramdas Pophale) SiO2 
 PCOD8092462
Probable space group: C 2/M
;
_chemical_formula_sum "Si O2"
_cell_formula_units_Z 56
_cell_length_a 19.099304
_cell_length_b 8.677066
_cell_length_c 19.023123
_cell_angle_alpha 90.000000
_cell_angle_beta 110.203456
_cell_angle_gamma 90.000000
_cell_volume 2958.650510
_symmetry_space_group_name_H-M "C 2/M"
_symmetry_group_IT_number 12
_symmetry_cell_setting 'monoclinic'
loop_
_space_group_symop_operation_xyz
x,y,z
-x,y,-z
-x,-y,-z
x,-y,z
1/2+x,1/2+y,z
1/2-x,1/2+y,-z
1/2-x,1/2-y,-z
1/2+x,1/2-y,z
loop_
_atom_site_type_symbol
_atom_site_label
_atom_site_fract_x
_atom_site_fract_y
_atom_site_fract_z
Si Si1 0.581702 0.320470 0.596166
Si Si2 0.676150 0.677903 0.203388
Si Si3 0.598051 0.679839 0.317841
Si Si4 0.578949 0.819795 0.452605
Si Si5 0.457723 0.820540 0.197775
Si Si6 0.169788 0.822037 0.764472
Si Si7 0.518855 0.679655 0.084875
O O1 0.560555 0.500000 0.587202
O O2 0.507705 0.223231 0.586510
O O3 0.614396 0.268029 0.531966
O O4 0.642637 0.282408 0.676299
O O5 0.699451 0.500000 0.206431
O O6 0.656313 0.722192 0.276853
O O7 0.743305 0.782294 0.199595
O O8 0.605576 0.714086 0.129595
O O9 0.597170 0.500000 0.333987
O O10 0.622127 0.769486 0.396765
O O11 0.514924 0.725224 0.265497
O O12 0.588064 0.000000 0.467862
O O13 0.374579 0.778633 0.193825
O O14 0.466549 0.775821 0.119231
O O15 0.473510 0.000000 0.213613
O O16 0.157635 0.000000 0.778509
O O17 0.501299 0.500000 0.090489
O O18 0.500000 0.734115 0.000000
#
# Coordination Sequence:
#
# PCOD8092462 Si02
#       7
#     8   8   8   8   8   8   8
#     4  10  20  33  50  72 105 146 183 228 279 329
#     4   9  20  36  57  82 110 142 178 224 273 323
#     4  10  19  35  55  77 107 145 187 228 275 329
#     4  11  20  30  50  79 106 137 183 237 280 322
#     4  11  21  33  56  85 112 142 182 228 268 317
#     4  11  22  36  55  79 111 148 185 224 272 330
#     4   9  19  39  64  87 113 145 179 217 267 326
#
# _framework density 18.927548000000002
#
# number of rings (size 3 to 8) (size 9 to 14) (size 15 to 20)
#    0.000    1.857    1.429    5.571    0.000    4.857 
#    0.000    1.429    0.000    0.000    0.000    0.000 
#    0.000    0.000    0.000    0.000    0.000    0.000 
#
# Total GULP energy -347294.364776 kJ/mol
# GULP energy per Si atom -12403.370171 kJ/mol
# Density = 1.888447 g / cm^3
# Si number density = 18.927548 Si / 1000 Ang^3
#
#
#
# Elastic Constant Matrix: (Units=GPa)
#
#
# Indices 1 2 3 4 5 6 
#
# 1 89.5815 26.5366 35.4069 0.0000 -6.8968 0.0000
# 2 26.5366 71.0557 24.3493 0.0000 -4.7654 0.0000
# 3 35.4069 24.3493 105.3300 0.0000 -13.1699 0.0000
# 4 0.0000 0.0000 0.0000 21.6431 0.0000 -4.6875
# 5 -6.8968 -4.7654 -13.1699 0.0000 20.6913 0.0000
# 6 0.0000 0.0000 0.0000 -4.6875 0.0000 30.6113
#
#
#
# Elastic Compliance Matrix: (Units=1/GPa)
#
#
# Indices 1 2 3 4 5 6 
#
# 1 0.013827 -0.003840 -0.003579 0.000000 0.001446 0.000000
# 2 -0.003840 0.016387 -0.002374 0.000000 0.000983 0.000000
# 3 -0.003579 -0.002374 0.011982 0.000000 0.005887 0.000000
# 4 0.000000 0.000000 0.000000 0.047789 0.000000 0.007318
# 5 0.001446 0.000983 0.005887 0.000000 0.052785 0.000000
# 6 0.000000 0.000000 0.000000 0.007318 0.000000 0.033788
#
#
# Mechanical properties :
#
#
# Convention : Reuss Voigt Hill
#
# Bulk Modulus (GPa) = 44.23214 48.72809 46.48012
# Shear Modulus (GPa) = 24.54809 26.56743 25.55776
#
# Velocity S-wave (km/s) = 3.60523 3.75058 3.67862
# Velocity P-wave (km/s) = 6.38358 6.67505 6.53094
#
# Compressibility (1/GPa) = 0.02260799
#
# Stress axis : x y z
#
# Youngs Moduli (GPa) = 72.32418 61.02314 83.45774
#
# Poissons Ratio (x) = 0.23434 0.29872
# Poissons Ratio (y) = 0.27774 0.19817
# Poissons Ratio (z) = 0.25887 0.14490
#
# Static dielectric constant tensor:
#      x y z
#    x 3.251660 0.000000 -0.240660 
#    y 0.000000 3.433470 0.000000 
#    z -0.240660 0.000000 3.605310 
# 
# 
# High freq. dielectric constant tensor:
#      x y z
#    x 1.714380 0.000000 -0.018790 
#    y 0.000000 1.741510 0.000000 
#    z -0.018790 0.000000 1.728960 
# 
# From -- ./inp_files/275585.got.cif
#   From: 2010.06.25/outbox.cif.g09.slc.cpg/sg12_138_cif.got.tgz:275585.got - 2010.06.28 00:19:55.
