data_PCOD8092801
_publ_section_title
;
Structure prediction by ZEFSAII (Michael W. Deem and Ramdas Pophale) SiO2 
 PCOD8092801
Probable space group: C 2/M
;
_chemical_formula_sum "Si O2"
_cell_formula_units_Z 64
_cell_length_a 17.837027
_cell_length_b 20.258324
_cell_length_c 18.541468
_cell_angle_alpha 90.000000
_cell_angle_beta 151.100316
_cell_angle_gamma 90.000000
_cell_volume 3237.924544
_symmetry_space_group_name_H-M "C 2/M"
_symmetry_group_IT_number 12
_symmetry_cell_setting 'monoclinic'
loop_
_space_group_symop_operation_xyz
x,y,z
-x,y,-z
-x,-y,-z
x,-y,z
1/2+x,1/2+y,z
1/2-x,1/2+y,-z
1/2-x,1/2-y,-z
1/2+x,1/2-y,z
loop_
_atom_site_type_symbol
_atom_site_label
_atom_site_fract_x
_atom_site_fract_y
_atom_site_fract_z
Si Si1 0.761932 0.680936 0.471491
Si Si2 0.152296 0.811941 0.674088
Si Si3 0.271639 0.426854 0.364242
Si Si4 0.176473 0.074904 0.956293
Si Si5 0.821354 0.679472 0.359625
Si Si6 0.568100 0.573855 0.136172
Si Si7 0.515196 0.380468 0.685270
Si Si8 0.976817 0.576912 0.726994
O O1 0.750000 0.750000 0.500000
O O2 0.786850 0.701926 0.411273
O O3 0.597647 0.647899 0.349033
O O4 0.897614 0.629049 0.606302
O O5 0.235088 0.874816 0.706862
O O6 0.239882 0.741385 0.741668
O O7 0.000000 0.796409 0.500000
O O8 0.116559 0.825808 0.727984
O O9 0.285060 0.500000 0.341572
O O10 0.418471 0.419335 0.542356
O O11 0.111438 0.418391 0.271304
O O12 0.051475 0.107045 0.906579
O O13 0.131922 0.077720 0.833624
O O14 0.188170 0.000000 0.990233
O O15 0.348868 0.103917 0.113866
O O16 0.725362 0.614456 0.261711
O O17 0.000000 0.660127 0.500000
O O18 0.611967 0.500000 0.199376
O O19 0.500000 0.571827 0.000000
O O20 0.967849 0.500000 0.691580
#
# Coordination Sequence:
#
# PCOD8092801 Si02
#       8
#     8   8   8   8   8   8   8   8
#     4  11  21  37  60  84 115 151 195 244 292 340
#     4   9  19  35  56  84 120 153 192 237 290 341
#     4   9  17  32  56  85 117 154 194 235 287 345
#     4  10  20  38  60  87 120 152 190 243 296 351
#     4  11  22  38  59  84 115 153 196 244 291 348
#     4  10  23  42  61  83 116 153 193 242 300 352
#     4  10  19  35  57  87 113 150 194 240 283 348
#     4   9  20  36  57  84 118 153 190 239 298 351
#
# _framework density 19.765747999999999
#
# number of rings (size 3 to 8) (size 9 to 14) (size 15 to 20)
#    0.000    2.125    1.250    3.375    1.750    4.000 
#    0.000    3.750    0.000    2.250    0.000    0.000 
#    0.000    0.000    0.000    0.000    0.000    0.000 
#
# Total GULP energy -396477.773739 kJ/mol
# GULP energy per Si atom -12389.930429 kJ/mol
# Density = 1.972076 g / cm^3
# Si number density = 19.765748 Si / 1000 Ang^3
#
#
#
# Elastic Constant Matrix: (Units=GPa)
#
#
# Indices 1 2 3 4 5 6 
#
# 1 115.5780 38.5985 42.8553 -0.0087 8.3714 -0.0006
# 2 38.5985 104.7929 52.2044 -0.0002 19.4058 -0.0066
# 3 42.8553 52.2044 60.0378 -0.0271 6.9049 -0.0042
# 4 -0.0087 -0.0002 -0.0271 26.0938 -0.0173 -1.9876
# 5 8.3714 19.4058 6.9049 -0.0173 25.3772 -0.0033
# 6 -0.0006 -0.0066 -0.0042 -1.9876 -0.0033 33.2347
#
#
#
# Elastic Compliance Matrix: (Units=1/GPa)
#
#
# Indices 1 2 3 4 5 6 
#
# 1 0.011834 0.000123 -0.008356 -0.000006 -0.001724 -0.000001
# 2 0.000123 0.019198 -0.015575 -0.000023 -0.010483 -0.000001
# 3 -0.008356 -0.015575 0.035591 0.000038 0.004983 0.000004
# 4 -0.000006 -0.000023 0.000038 0.038499 0.000036 0.002302
# 5 -0.001724 -0.010483 0.004983 0.000036 0.046635 0.000005
# 6 -0.000001 -0.000001 0.000004 0.002302 0.000005 0.030227
#
#
# Mechanical properties :
#
#
# Convention : Reuss Voigt Hill
#
# Bulk Modulus (GPa) = 52.61364 60.85833 56.73599
# Shear Modulus (GPa) = 21.19233 26.72450 23.95841
#
# Velocity S-wave (km/s) = 3.27796 3.68103 3.48533
# Velocity P-wave (km/s) = 6.40336 6.99452 6.70546
#
# Compressibility (1/GPa) = 0.01900648
#
# Stress axis : x y z
#
# Youngs Moduli (GPa) = 84.49990 52.09006 28.09722
#
# Poissons Ratio (x) = -0.00642 0.23479
# Poissons Ratio (y) = -0.01041 0.43762
# Poissons Ratio (z) = 0.70610 0.81130
#
# Static dielectric constant tensor:
#      x y z
#    x 3.713500 0.000010 0.272690 
#    y 0.000010 3.769650 -0.000070 
#    z 0.272690 -0.000070 3.388330 
# 
# 
# High freq. dielectric constant tensor:
#      x y z
#    x 1.786600 0.000000 0.008870 
#    y 0.000000 1.770700 0.000000 
#    z 0.008870 0.000000 1.735270 
# 
# From -- ./inp_files/279152.got.cif
#   From: 2010.06.25/outbox.cif.g09.slc.cpg/sg12_140_cif.got.tgz:279152.got - 2010.06.28 00:19:55.
