data_PCOD8092428
_publ_section_title
;
Structure prediction by ZEFSAII (Michael W. Deem and Ramdas Pophale) SiO2 
 PCOD8092428
Probable space group: C 2/M
;
_chemical_formula_sum "Si O2"
_cell_formula_units_Z 56
_cell_length_a 14.533757
_cell_length_b 8.913211
_cell_length_c 30.181058
_cell_angle_alpha 90.000000
_cell_angle_beta 127.271292
_cell_angle_gamma 90.000000
_cell_volume 3111.271644
_symmetry_space_group_name_H-M "C 2/M"
_symmetry_group_IT_number 12
_symmetry_cell_setting 'monoclinic'
loop_
_space_group_symop_operation_xyz
x,y,z
-x,y,-z
-x,-y,-z
x,-y,z
1/2+x,1/2+y,z
1/2-x,1/2+y,-z
1/2-x,1/2-y,-z
1/2+x,1/2-y,z
loop_
_atom_site_type_symbol
_atom_site_label
_atom_site_fract_x
_atom_site_fract_y
_atom_site_fract_z
Si Si1 0.306269 0.173392 0.558909
Si Si2 0.096798 0.827639 0.559532
Si Si3 0.922004 0.678180 0.937946
Si Si4 0.453505 0.678876 0.359216
Si Si5 0.205416 0.178048 0.765639
Si Si6 0.163229 0.177426 0.851683
Si Si7 0.536323 0.177508 0.148371
O O1 0.250000 0.250000 0.500000
O O2 0.222305 0.191650 0.575986
O O3 0.419019 0.256932 0.608636
O O4 0.330451 0.000000 0.554728
O O5 0.096814 0.759226 0.608850
O O6 0.000000 0.748369 0.500000
O O7 0.059498 0.000000 0.553644
O O8 0.924456 0.500000 0.940152
O O9 0.789326 0.731055 0.905739
O O10 0.974194 0.730433 0.905919
O O11 0.000000 0.747981 0.000000
O O12 0.458193 0.500000 0.357970
O O13 0.373056 0.744685 0.296691
O O14 0.152774 0.230810 0.797428
O O15 0.337796 0.232331 0.797626
O O16 0.205517 0.000000 0.764662
O O17 0.063695 0.250339 0.851760
O O18 0.150617 0.000000 0.851754
O O19 0.524495 0.000000 0.148806
#
# Coordination Sequence:
#
# PCOD8092428 Si02
#       7
#     8   8   8   8   8   8   8
#     4  11  21  34  52  75 100 126 158 195 240 291
#     4   9  17  31  50  70  92 121 153 184 229 286
#     4   8  15  29  48  70 100 137 171 201 241 298
#     4  10  19  35  55  71  93 127 163 199 241 291
#     4   8  17  33  51  69  93 129 165 195 239 302
#     4   9  17  31  50  72  98 129 165 205 248 290
#     4   9  17  31  51  73  96 128 171 207 240 290
#
# _framework density 17.999072000000002
#
# number of rings (size 3 to 8) (size 9 to 14) (size 15 to 20)
#    0.000    2.857    1.429    2.143    0.000    1.714 
#    0.000    7.857    0.000    0.857    0.000    0.000 
#    0.000    0.000    0.000    0.000    0.000    0.000 
#
# Total GULP energy -347036.548728 kJ/mol
# GULP energy per Si atom -12394.162455 kJ/mol
# Density = 1.795811 g / cm^3
# Si number density = 17.999072 Si / 1000 Ang^3
#
#
#
# Elastic Constant Matrix: (Units=GPa)
#
#
# Indices 1 2 3 4 5 6 
#
# 1 154.9460 27.1365 89.8032 0.0000 -2.2044 0.0000
# 2 27.1365 26.3419 25.9321 0.0000 0.2468 0.0000
# 3 89.8032 25.9321 194.6019 0.0000 -1.3216 0.0000
# 4 0.0000 0.0000 0.0000 14.9050 0.0000 3.8435
# 5 -2.2044 0.2468 -1.3216 0.0000 22.3244 0.0000
# 6 0.0000 0.0000 0.0000 3.8435 0.0000 31.9385
#
#
#
# Elastic Compliance Matrix: (Units=1/GPa)
#
#
# Indices 1 2 3 4 5 6 
#
# 1 0.009681 -0.006432 -0.003605 0.000000 0.000814 0.000000
# 2 -0.006432 0.047983 -0.003435 0.000000 -0.001369 0.000000
# 3 -0.003605 -0.003435 0.007261 0.000000 0.000112 0.000000
# 4 0.000000 0.000000 0.000000 0.069240 0.000000 -0.008332
# 5 0.000814 -0.001369 0.000112 0.000000 0.044896 0.000000
# 6 0.000000 0.000000 0.000000 -0.008332 0.000000 0.032313
#
#
# Mechanical properties :
#
#
# Convention : Reuss Voigt Hill
#
# Bulk Modulus (GPa) = 26.32924 73.51482 49.92203
# Shear Modulus (GPa) = 19.92202 29.36811 24.64507
#
# Velocity S-wave (km/s) = 3.33052 4.04375 3.70434
# Velocity P-wave (km/s) = 5.42676 7.92053 6.78913
#
# Compressibility (1/GPa) = 0.03798059
#
# Stress axis : x y z
#
# Youngs Moduli (GPa) = 103.29209 20.84079 137.72540
#
# Poissons Ratio (x) = 0.13405 0.49650
# Poissons Ratio (y) = 0.66437 0.47311
# Poissons Ratio (z) = 0.37237 0.07159
#
# Static dielectric constant tensor:
#      x y z
#    x 3.084970 0.000000 -0.239110 
#    y 0.000000 2.901610 0.000000 
#    z -0.239110 0.000000 3.729350 
# 
# 
# High freq. dielectric constant tensor:
#      x y z
#    x 1.705780 0.000000 -0.001760 
#    y 0.000000 1.650990 0.000000 
#    z -0.001760 0.000000 1.705230 
# 
# From -- ./inp_files/338186.got.cif
#   From: 2010.06.25/outbox.cif.g09.slc.cpg/sg12_170_cif.got.tgz:338186.got - 2010.06.28 00:19:55.
