data_PCOD8092746
_publ_section_title
;
Structure prediction by ZEFSAII (Michael W. Deem and Ramdas Pophale) SiO2 
 PCOD8092746
Probable space group: C 2/M
;
_chemical_formula_sum "Si O2"
_cell_formula_units_Z 56
_cell_length_a 18.890284
_cell_length_b 14.120420
_cell_length_c 12.208926
_cell_angle_alpha 90.000000
_cell_angle_beta 58.217813
_cell_angle_gamma 90.000000
_cell_volume 2768.288482
_symmetry_space_group_name_H-M "C 2/M"
_symmetry_group_IT_number 12
_symmetry_cell_setting 'monoclinic'
loop_
_space_group_symop_operation_xyz
x,y,z
-x,y,-z
-x,-y,-z
x,-y,z
1/2+x,1/2+y,z
1/2-x,1/2+y,-z
1/2-x,1/2-y,-z
1/2+x,1/2-y,z
loop_
_atom_site_type_symbol
_atom_site_label
_atom_site_fract_x
_atom_site_fract_y
_atom_site_fract_z
Si Si1 0.516178 0.388940 0.276560
Si Si2 0.278679 0.891323 0.558477
Si Si3 0.283235 0.397791 0.152868
Si Si4 0.853389 0.801938 0.483925
Si Si5 0.935238 0.772638 0.962013
Si Si6 0.816424 0.105798 0.733450
Si Si7 0.199089 0.657373 0.014704
O O1 0.495482 0.500000 0.288910
O O2 0.449134 0.334267 0.405953
O O3 0.516101 0.346629 0.154495
O O4 0.605904 0.367433 0.253668
O O5 0.269259 0.879894 0.695574
O O6 0.191766 0.864452 0.571922
O O7 0.346185 0.811440 0.465803
O O8 0.305101 0.000000 0.505925
O O9 0.328293 0.500000 0.122287
O O10 0.215727 0.405545 0.108541
O O11 0.354536 0.319790 0.083412
O O12 0.811230 0.823048 0.635809
O O13 0.899026 0.681937 0.924017
O O14 0.000000 0.736417 0.000000
O O15 0.826542 0.000000 0.678074
O O16 0.733790 0.110787 0.874712
O O17 0.250000 0.750000 0.000000
#
# Coordination Sequence:
#
# PCOD8092746 Si02
#       7
#     8   8   8   8   8   8   8
#     4  11  22  35  54  86 120 154 195 245 305 361
#     4  10  22  38  60  87 114 155 203 242 291 354
#     4  10  19  36  61  85 113 149 197 248 292 347
#     4  11  22  37  57  85 123 157 190 243 300 357
#     4  11  22  34  54  88 124 154 189 244 308 362
#     4  11  21  36  59  86 115 154 202 249 298 357
#     4  10  19  35  57  82 115 156 198 238 290 359
#
# _framework density 20.229105000000001
#
# number of rings (size 3 to 8) (size 9 to 14) (size 15 to 20)
#    0.000    1.429    2.857    5.143    0.000    4.571 
#    0.000    0.000    0.000    5.143    0.000    0.000 
#    0.000    0.000    0.000    0.000    0.000    0.000 
#
# Total GULP energy -347091.681022 kJ/mol
# GULP energy per Si atom -12396.131465 kJ/mol
# Density = 2.018306 g / cm^3
# Si number density = 20.229105 Si / 1000 Ang^3
#
#
#
# Elastic Constant Matrix: (Units=GPa)
#
#
# Indices 1 2 3 4 5 6 
#
# 1 101.7088 33.5156 30.8325 0.0000 7.9961 0.0000
# 2 33.5156 103.8500 30.5718 0.0000 -3.0101 0.0000
# 3 30.8325 30.5718 74.7785 0.0000 11.9451 0.0000
# 4 0.0000 0.0000 0.0000 29.2556 0.0000 -0.4245
# 5 7.9961 -3.0101 11.9451 0.0000 27.4424 0.0000
# 6 0.0000 0.0000 0.0000 -0.4245 0.0000 24.3231
#
#
#
# Elastic Compliance Matrix: (Units=1/GPa)
#
#
# Indices 1 2 3 4 5 6 
#
# 1 0.012012 -0.002953 -0.003369 0.000000 -0.002358 0.000000
# 2 -0.002953 0.011973 -0.004325 0.000000 0.004057 0.000000
# 3 -0.003369 -0.004325 0.017678 0.000000 -0.007188 0.000000
# 4 0.000000 0.000000 0.000000 0.034190 0.000000 0.000597
# 5 -0.002358 0.004057 -0.007188 0.000000 0.040701 0.000000
# 6 0.000000 0.000000 0.000000 0.000597 0.000000 0.041124
#
#
# Mechanical properties :
#
#
# Convention : Reuss Voigt Hill
#
# Bulk Modulus (GPa) = 49.09472 52.24188 50.66830
# Shear Modulus (GPa) = 26.91621 28.56539 27.74080
#
# Velocity S-wave (km/s) = 3.65165 3.76186 3.70717
# Velocity P-wave (km/s) = 6.48856 6.68954 6.58982
#
# Compressibility (1/GPa) = 0.02036879
#
# Stress axis : x y z
#
# Youngs Moduli (GPa) = 83.25228 83.51942 56.56633
#
# Poissons Ratio (x) = 0.24665 0.19055
# Poissons Ratio (y) = 0.24586 0.24467
# Poissons Ratio (z) = 0.28045 0.36125
#
# Static dielectric constant tensor:
#      x y z
#    x 3.926960 0.000000 0.349320 
#    y 0.000000 3.875100 0.000000 
#    z 0.349320 0.000000 3.751430 
# 
# 
# High freq. dielectric constant tensor:
#      x y z
#    x 1.776010 0.000000 0.024770 
#    y 0.000000 1.788830 0.000000 
#    z 0.024770 0.000000 1.780330 
# 
# From -- ./inp_files/156521.got.cif
#   From: 2010.06.25/outbox.cif.g09.slc.cpg/sg12_79_cif.got.tgz:156521.got - 2010.06.28 00:19:55.
