data_PCOD8092189
_publ_section_title
;
Structure prediction by ZEFSAII (Michael W. Deem and Ramdas Pophale) SiO2 
 PCOD8092189
Probable space group: C 2/M
;
_chemical_formula_sum "Si O2"
_cell_formula_units_Z 64
_cell_length_a 32.665160
_cell_length_b 9.092635
_cell_length_c 16.501469
_cell_angle_alpha 90.000000
_cell_angle_beta 137.557411
_cell_angle_gamma 90.000000
_cell_volume 3307.540122
_symmetry_space_group_name_H-M "C 2/M"
_symmetry_group_IT_number 12
_symmetry_cell_setting 'monoclinic'
loop_
_space_group_symop_operation_xyz
x,y,z
-x,y,-z
-x,-y,-z
x,-y,z
1/2+x,1/2+y,z
1/2-x,1/2+y,-z
1/2-x,1/2-y,-z
1/2+x,1/2-y,z
loop_
_atom_site_type_symbol
_atom_site_label
_atom_site_fract_x
_atom_site_fract_y
_atom_site_fract_z
Si Si1 0.721154 0.172097 0.034188
Si Si2 0.413899 0.829527 0.154775
Si Si3 0.238796 0.172817 0.729100
Si Si4 0.991844 0.671665 0.576542
Si Si5 0.099745 0.167908 0.287236
Si Si6 0.350339 0.670977 0.809120
Si Si7 0.621422 0.824699 0.485412
Si Si8 0.963397 0.832042 0.079054
O O1 0.757675 0.206112 0.169725
O O2 0.718857 0.000000 0.011941
O O3 0.750000 0.250000 0.000000
O O4 0.653438 0.237425 0.944616
O O5 0.444817 0.798160 0.286154
O O6 0.456193 0.758619 0.149931
O O7 0.411029 0.000000 0.129898
O O8 0.299279 0.227053 0.773084
O O9 0.182179 0.259670 0.611592
O O10 0.231704 0.000000 0.702131
O O11 0.978802 0.500000 0.547383
O O12 0.000000 0.745946 0.500000
O O13 0.934941 0.736959 0.543627
O O14 0.146736 0.200015 0.283053
O O15 0.114314 0.275161 0.382364
O O16 0.032499 0.193116 0.151469
O O17 0.106404 0.000000 0.327475
O O18 0.335760 0.500000 0.805528
O O19 0.415359 0.718449 0.941167
O O20 0.625020 0.000000 0.491692
O O21 0.951264 0.000000 0.083575
#
# Coordination Sequence:
#
# PCOD8092189 Si02
#       8
#     8   8   8   8   8   8   8   8
#     4  10  23  39  60  87 118 155 194 238 290 343
#     4  10  19  36  60  86 117 150 189 238 289 341
#     4  11  24  42  60  83 118 155 194 246 297 341
#     4   9  19  35  58  86 114 147 189 235 282 337
#     4  10  21  38  60  87 121 154 189 238 295 345
#     4  10  21  38  61  88 116 154 198 237 284 351
#     4  11  23  39  62  87 114 153 199 241 289 352
#     4  10  19  34  59  89 121 152 187 235 291 345
#
# _framework density 19.349727000000001
#
# number of rings (size 3 to 8) (size 9 to 14) (size 15 to 20)
#    0.000    1.875    2.500    1.125    1.750    4.000 
#    0.000    0.000    0.000    4.125    0.000    0.000 
#    0.000    0.000    0.000    0.000    0.000    0.000 
#
# Total GULP energy -396797.747820 kJ/mol
# GULP energy per Si atom -12399.929619 kJ/mol
# Density = 1.930569 g / cm^3
# Si number density = 19.349727 Si / 1000 Ang^3
#
#
#
# Elastic Constant Matrix: (Units=GPa)
#
#
# Indices 1 2 3 4 5 6 
#
# 1 100.6148 40.0300 41.0639 0.0000 -12.3899 0.0000
# 2 40.0300 60.0104 42.7916 0.0000 -2.5718 0.0000
# 3 41.0639 42.7916 102.0702 0.0000 1.9351 0.0000
# 4 0.0000 0.0000 0.0000 20.1715 0.0000 -4.0570
# 5 -12.3899 -2.5718 1.9351 0.0000 33.9180 0.0000
# 6 0.0000 0.0000 0.0000 -4.0570 0.0000 30.9499
#
#
#
# Elastic Compliance Matrix: (Units=1/GPa)
#
#
# Indices 1 2 3 4 5 6 
#
# 1 0.014727 -0.007587 -0.002838 0.000000 0.004966 0.000000
# 2 -0.007587 0.027871 -0.008629 0.000000 -0.000166 0.000000
# 3 -0.002838 -0.008629 0.014604 0.000000 -0.002524 0.000000
# 4 0.000000 0.000000 0.000000 0.050917 0.000000 0.006674
# 5 0.004966 -0.000166 -0.002524 0.000000 0.031428 0.000000
# 6 0.000000 0.000000 0.000000 0.006674 0.000000 0.033185
#
#
# Mechanical properties :
#
#
# Convention : Reuss Voigt Hill
#
# Bulk Modulus (GPa) = 52.37293 56.71846 54.54569
# Shear Modulus (GPa) = 23.01953 26.26189 24.64071
#
# Velocity S-wave (km/s) = 3.45288 3.68805 3.57240
# Velocity P-wave (km/s) = 6.55910 6.89286 6.72805
#
# Compressibility (1/GPa) = 0.01909383
#
# Stress axis : x y z
#
# Youngs Moduli (GPa) = 67.90036 35.88000 68.47226
#
# Poissons Ratio (x) = 0.27223 0.19435
# Poissons Ratio (y) = 0.51517 0.59084
# Poissons Ratio (z) = 0.19272 0.30960
#
# Static dielectric constant tensor:
#      x y z
#    x 3.896150 0.000000 -0.058780 
#    y 0.000000 3.362480 0.000000 
#    z -0.058780 0.000000 3.674510 
# 
# 
# High freq. dielectric constant tensor:
#      x y z
#    x 1.759530 0.000000 -0.000750 
#    y 0.000000 1.734180 0.000000 
#    z -0.000750 0.000000 1.763700 
# 
# From -- ./inp_files/249952.got.cif
#   From: 2010.06.25/outbox.cif.g09.slc.cpg/sg12_125_cif.got.tgz:249952.got - 2010.06.28 00:19:55.
