data_PCOD8092565
_publ_section_title
;
Structure prediction by ZEFSAII (Michael W. Deem and Ramdas Pophale) SiO2 
 PCOD8092565
Probable space group: C 2/M
;
_chemical_formula_sum "Si O2"
_cell_formula_units_Z 48
_cell_length_a 22.910871
_cell_length_b 9.276759
_cell_length_c 12.265676
_cell_angle_alpha 90.000000
_cell_angle_beta 69.854152
_cell_angle_gamma 90.000000
_cell_volume 2447.435260
_symmetry_space_group_name_H-M "C 2/M"
_symmetry_group_IT_number 12
_symmetry_cell_setting 'monoclinic'
loop_
_space_group_symop_operation_xyz
x,y,z
-x,y,-z
-x,-y,-z
x,-y,z
1/2+x,1/2+y,z
1/2-x,1/2+y,-z
1/2-x,1/2-y,-z
1/2+x,1/2-y,z
loop_
_atom_site_type_symbol
_atom_site_label
_atom_site_fract_x
_atom_site_fract_y
_atom_site_fract_z
Si Si1 0.690501 0.833689 0.785334
Si Si2 0.495468 0.163747 0.877673
Si Si3 0.172933 0.833635 0.239452
Si Si4 0.852644 0.664603 0.951473
Si Si5 0.430436 0.670896 0.530494
Si Si6 0.100453 0.170381 0.691287
O O1 0.764526 0.813824 0.730335
O O2 0.660449 0.741956 0.707796
O O3 0.670800 0.000000 0.783216
O O4 0.664707 0.775631 0.917853
O O5 0.425516 0.180441 0.881747
O O6 0.536709 0.274377 0.784202
O O7 0.519682 0.000000 0.845879
O O8 0.500000 0.207844 0.000000
O O9 0.182556 0.753395 0.118843
O O10 0.115279 0.768844 0.345843
O O11 0.161348 0.000000 0.219442
O O12 0.830083 0.500000 0.957918
O O13 0.500000 0.736171 0.500000
O O14 0.433782 0.500000 0.537495
O O15 0.401044 0.716049 0.434100
O O16 0.104329 0.000000 0.704279
#
# Coordination Sequence:
#
# PCOD8092565 Si02
#       6
#     8   8   8   8   8   8
#     4  10  21  38  56  79 114 152 185 225 284 339
#     4  10  19  35  56  78 112 150 178 217 281 336
#     4  10  21  37  59  81 107 151 195 226 272 336
#     4  10  20  35  56  81 113 147 180 230 286 327
#     4   9  19  37  57  80 113 145 178 231 287 326
#     4  11  22  35  57  86 113 144 188 235 273 322
#
# _framework density 19.612368
#
# number of rings (size 3 to 8) (size 9 to 14) (size 15 to 20)
#    0.000    2.000    1.667    2.000    0.000    4.333 
#    0.000    1.667    0.000    4.500    0.000    0.000 
#    0.000    0.000    0.000    0.000    0.000    0.000 
#
# Total GULP energy -297654.814594 kJ/mol
# GULP energy per Si atom -12402.283941 kJ/mol
# Density = 1.956773 g / cm^3
# Si number density = 19.612368 Si / 1000 Ang^3
#
#
#
# Elastic Constant Matrix: (Units=GPa)
#
#
# Indices 1 2 3 4 5 6 
#
# 1 99.2895 32.1346 46.7207 0.0000 3.7633 0.0000
# 2 32.1346 56.5137 37.4752 0.0000 12.3507 0.0000
# 3 46.7207 37.4752 104.6793 0.0000 12.3560 0.0000
# 4 0.0000 0.0000 0.0000 17.4406 0.0000 3.5405
# 5 3.7633 12.3507 12.3560 0.0000 34.8989 0.0000
# 6 0.0000 0.0000 0.0000 3.5405 0.0000 27.7204
#
#
#
# Elastic Compliance Matrix: (Units=1/GPa)
#
#
# Indices 1 2 3 4 5 6 
#
# 1 0.013837 -0.005312 -0.004508 0.000000 0.001984 0.000000
# 2 -0.005312 0.026300 -0.006276 0.000000 -0.006513 0.000000
# 3 -0.004508 -0.006276 0.014081 0.000000 -0.002278 0.000000
# 4 0.000000 0.000000 0.000000 0.058864 0.000000 -0.007518
# 5 0.001984 -0.006513 -0.002278 0.000000 0.031552 0.000000
# 6 0.000000 0.000000 0.000000 -0.007518 0.000000 0.037035
#
#
# Mechanical properties :
#
#
# Convention : Reuss Voigt Hill
#
# Bulk Modulus (GPa) = 45.40131 54.79375 50.09753
# Shear Modulus (GPa) = 22.60374 25.62211 24.11293
#
# Velocity S-wave (km/s) = 3.39857 3.61837 3.51019
# Velocity P-wave (km/s) = 6.21289 6.74210 6.48289
#
# Compressibility (1/GPa) = 0.02202579
#
# Stress axis : x y z
#
# Youngs Moduli (GPa) = 72.27047 38.02235 71.01883
#
# Poissons Ratio (x) = 0.20197 0.32017
# Poissons Ratio (y) = 0.38390 0.44571
# Poissons Ratio (z) = 0.32581 0.23862
#
# Static dielectric constant tensor:
#      x y z
#    x 3.664820 0.000000 -0.035570 
#    y 0.000000 3.311840 0.000000 
#    z -0.035570 0.000000 3.658670 
# 
# 
# High freq. dielectric constant tensor:
#      x y z
#    x 1.778370 0.000000 -0.000500 
#    y 0.000000 1.737060 0.000000 
#    z -0.000500 0.000000 1.763650 
# 
# From -- ./inp_files/172860.got.cif
#   From: 2010.06.25/outbox.cif.g09.slc.cpg/sg12_87_cif.got.tgz:172860.got - 2010.06.28 00:19:55.
