data_PCOD8092587
_publ_section_title
;
Structure prediction by ZEFSAII (Michael W. Deem and Ramdas Pophale) SiO2 
 PCOD8092587
Probable space group: C 2/M
;
_chemical_formula_sum "Si O2"
_cell_formula_units_Z 64
_cell_length_a 23.466808
_cell_length_b 13.476012
_cell_length_c 21.807984
_cell_angle_alpha 90.000000
_cell_angle_beta 30.048949
_cell_angle_gamma 90.000000
_cell_volume 3453.368614
_symmetry_space_group_name_H-M "C 2/M"
_symmetry_group_IT_number 12
_symmetry_cell_setting 'monoclinic'
loop_
_space_group_symop_operation_xyz
x,y,z
-x,y,-z
-x,-y,-z
x,-y,z
1/2+x,1/2+y,z
1/2-x,1/2+y,-z
1/2-x,1/2-y,-z
1/2+x,1/2-y,z
loop_
_atom_site_type_symbol
_atom_site_label
_atom_site_fract_x
_atom_site_fract_y
_atom_site_fract_z
Si Si1 0.199711 0.111340 0.174029
Si Si2 0.523896 0.750057 0.881430
Si Si3 0.973672 0.751415 0.728610
Si Si4 0.150197 0.389698 0.502234
Si Si5 0.869997 0.613428 0.618991
Si Si6 0.814052 0.257151 0.159853
Si Si7 0.902958 0.886886 0.290889
Si Si8 0.088310 0.388052 0.107909
O O1 0.260209 0.142814 0.181362
O O2 0.104592 0.192011 0.247030
O O3 0.150369 0.000000 0.228866
O O4 0.286516 0.112055 0.036664
O O5 0.625302 0.783739 0.832421
O O6 0.561916 0.654633 0.807974
O O7 0.501925 0.841706 0.855876
O O8 0.410082 0.717043 0.023561
O O9 0.062890 0.691738 0.605372
O O10 0.035428 0.833148 0.711295
O O11 0.905120 0.675053 0.835621
O O12 0.100649 0.500000 0.560881
O O13 0.176521 0.376739 0.406169
O O14 0.268520 0.375324 0.427511
O O15 0.866858 0.500000 0.645722
O O16 0.786067 0.676227 0.740469
O O17 0.000000 0.653472 0.500000
O O18 0.942481 0.000000 0.255138
O O19 0.047725 0.500000 0.160214
#
# Coordination Sequence:
#
# PCOD8092587 Si02
#       8
#     8   8   8   8   8   8   8   8
#     4  10  21  36  54  78 108 141 174 216 269 321
#     4   9  19  33  56  84 106 137 181 221 269 314
#     4  11  20  34  55  78 105 142 180 216 260 318
#     4  10  20  34  53  77 104 137 179 221 264 311
#     4  10  20  34  53  78 108 144 181 218 265 320
#     4  10  19  35  56  80 108 141 179 222 265 318
#     4  10  20  35  53  78 110 141 175 217 266 316
#     4   9  19  35  55  80 109 137 173 222 268 314
#
# _framework density 18.532629
#
# number of rings (size 3 to 8) (size 9 to 14) (size 15 to 20)
#    0.000    2.125    1.250    2.250    0.000    1.000 
#    0.000    4.375    0.000    5.625    0.000    0.000 
#    0.000    0.000    0.000    0.000    0.000    0.000 
#
# Total GULP energy -396796.386536 kJ/mol
# GULP energy per Si atom -12399.887079 kJ/mol
# Density = 1.849045 g / cm^3
# Si number density = 18.532629 Si / 1000 Ang^3
#
#
#
# Elastic Constant Matrix: (Units=GPa)
#
#
# Indices 1 2 3 4 5 6 
#
# 1 78.0436 44.9545 30.4557 0.0000 -9.8934 0.0000
# 2 44.9545 139.7144 57.9813 0.0001 -0.0845 0.0000
# 3 30.4557 57.9813 76.8524 0.0002 -2.2601 -0.0001
# 4 0.0000 0.0001 0.0002 30.4770 -0.0001 -2.8193
# 5 -9.8934 -0.0845 -2.2601 -0.0001 20.5523 0.0000
# 6 0.0000 0.0000 -0.0001 -2.8193 0.0000 22.5482
#
#
#
# Elastic Compliance Matrix: (Units=1/GPa)
#
#
# Indices 1 2 3 4 5 6 
#
# 1 0.017652 -0.004179 -0.003605 0.000000 0.008084 0.000000
# 2 -0.004179 0.011423 -0.007043 0.000000 -0.002739 0.000000
# 3 -0.003605 -0.007043 0.019766 0.000000 0.000409 0.000000
# 4 0.000000 0.000000 0.000000 0.033196 0.000000 0.004151
# 5 0.008084 -0.002739 0.000409 0.000000 0.052581 0.000000
# 6 0.000000 0.000000 0.000000 0.004151 0.000000 0.044868
#
#
# Mechanical properties :
#
#
# Convention : Reuss Voigt Hill
#
# Bulk Modulus (GPa) = 52.11518 62.37705 57.24611
# Shear Modulus (GPa) = 23.19808 25.46342 24.33075
#
# Velocity S-wave (km/s) = 3.54184 3.71074 3.62727
# Velocity P-wave (km/s) = 6.70134 7.21737 6.96414
#
# Compressibility (1/GPa) = 0.01918827
#
# Stress axis : x y z
#
# Youngs Moduli (GPa) = 56.65109 87.54212 50.59216
#
# Poissons Ratio (x) = 0.36582 0.18238
# Poissons Ratio (y) = 0.23673 0.35630
# Poissons Ratio (z) = 0.20422 0.61653
#
# Static dielectric constant tensor:
#      x y z
#    x 3.448230 0.000000 -0.054410 
#    y 0.000000 3.413720 0.000000 
#    z -0.054410 0.000000 3.308560 
# 
# 
# High freq. dielectric constant tensor:
#      x y z
#    x 1.724870 0.000000 -0.005860 
#    y 0.000000 1.715860 0.000000 
#    z -0.005860 0.000000 1.713110 
# 
# From -- ./inp_files/349358.got.cif
#   From: 2010.06.25/outbox.cif.g09.slc.cpg/sg12_175_cif.got.tgz:349358.got - 2010.06.28 00:19:55.
