data_PCOD8092768
_publ_section_title
;
Structure prediction by ZEFSAII (Michael W. Deem and Ramdas Pophale) SiO2 
 PCOD8092768
Probable space group: C 2/M
;
_chemical_formula_sum "Si O2"
_cell_formula_units_Z 64
_cell_length_a 30.480355
_cell_length_b 8.976575
_cell_length_c 14.300994
_cell_angle_alpha 90.000000
_cell_angle_beta 126.143735
_cell_angle_gamma 90.000000
_cell_volume 3159.809501
_symmetry_space_group_name_H-M "C 2/M"
_symmetry_group_IT_number 12
_symmetry_cell_setting 'monoclinic'
loop_
_space_group_symop_operation_xyz
x,y,z
-x,y,-z
-x,-y,-z
x,-y,z
1/2+x,1/2+y,z
1/2-x,1/2+y,-z
1/2-x,1/2-y,-z
1/2+x,1/2-y,z
loop_
_atom_site_type_symbol
_atom_site_label
_atom_site_fract_x
_atom_site_fract_y
_atom_site_fract_z
Si Si1 0.989534 0.822976 0.594255
Si Si2 0.053335 0.673388 0.119673
Si Si3 0.797764 0.830102 0.111995
Si Si4 0.744046 0.831717 0.233555
Si Si5 0.406958 0.323515 0.164162
Si Si6 0.795148 0.824733 0.493492
Si Si7 0.868227 0.824738 0.915901
Si Si8 0.910316 0.325215 0.632076
O O1 0.935970 0.747590 0.571014
O O2 0.000000 0.774171 0.500000
O O3 0.039024 0.760497 0.719447
O O4 0.982086 0.000000 0.590966
O O5 0.059385 0.500000 0.105789
O O6 0.106258 0.752266 0.143904
O O7 0.051435 0.704333 0.228691
O O8 0.000000 0.737872 0.000000
O O9 0.789704 0.813490 0.211988
O O10 0.855461 0.758505 0.156345
O O11 0.796676 0.000000 0.076818
O O12 0.750000 0.750000 0.000000
O O13 0.776727 0.789500 0.366126
O O14 0.694110 0.722490 0.151973
O O15 0.720960 0.000000 0.208108
O O16 0.408285 0.500000 0.174686
O O17 0.402213 0.273110 0.050203
O O18 0.750000 0.750000 0.500000
O O19 0.852861 0.748708 0.583299
O O20 0.799528 0.000000 0.520631
O O21 0.870065 0.000000 0.906475
O O22 0.902208 0.500000 0.604521
#
# Coordination Sequence:
#
# PCOD8092768 Si02
#       8
#     8   8   8   8   8   8   8   8
#     4  10  22  40  65  89 116 160 208 250 296 355
#     4  10  22  40  61  84 114 152 192 236 290 351
#     4  10  19  35  57  83 118 153 191 241 291 348
#     4  10  22  37  58  84 114 153 196 235 285 353
#     4   9  19  35  56  85 120 152 193 245 295 347
#     4  11  24  42  64  90 121 160 203 247 299 357
#     4  11  21  34  57  87 119 150 185 239 294 347
#     4  11  24  42  63  89 123 158 199 251 301 354
#
# _framework density 20.254386
#
# number of rings (size 3 to 8) (size 9 to 14) (size 15 to 20)
#    0.000    1.750    1.250    2.625    1.750    5.500 
#    0.000    1.250    0.000    0.000    0.000    0.000 
#    0.000    0.000    0.000    0.000    0.000    0.000 
#
# Total GULP energy -396842.032022 kJ/mol
# GULP energy per Si atom -12401.313501 kJ/mol
# Density = 2.020829 g / cm^3
# Si number density = 20.254386 Si / 1000 Ang^3
#
#
#
# Elastic Constant Matrix: (Units=GPa)
#
#
# Indices 1 2 3 4 5 6 
#
# 1 126.4998 42.1308 37.1094 0.0000 -4.3096 0.0000
# 2 42.1308 66.8054 40.3021 0.0000 -4.7753 0.0000
# 3 37.1094 40.3021 105.4779 0.0000 -6.7157 0.0000
# 4 0.0000 0.0000 0.0000 27.7243 0.0000 2.4812
# 5 -4.3096 -4.7753 -6.7157 0.0000 38.2731 0.0000
# 6 0.0000 0.0000 0.0000 2.4812 0.0000 32.3530
#
#
#
# Elastic Compliance Matrix: (Units=1/GPa)
#
#
# Indices 1 2 3 4 5 6 
#
# 1 0.010180 -0.005527 -0.001457 0.000000 0.000201 0.000000
# 2 -0.005527 0.022502 -0.006588 0.000000 0.001029 0.000000
# 3 -0.001457 -0.006588 0.012588 0.000000 0.001223 0.000000
# 4 0.000000 0.000000 0.000000 0.036319 0.000000 -0.002785
# 5 0.000201 0.001029 0.001223 0.000000 0.026494 0.000000
# 6 0.000000 0.000000 0.000000 -0.002785 0.000000 0.031123
#
#
# Mechanical properties :
#
#
# Convention : Reuss Voigt Hill
#
# Bulk Modulus (GPa) = 55.16566 59.76308 57.46437
# Shear Modulus (GPa) = 29.00379 31.61948 30.31164
#
# Velocity S-wave (km/s) = 3.78825 3.95538 3.87272
# Velocity P-wave (km/s) = 6.81396 7.10144 6.95918
#
# Compressibility (1/GPa) = 0.01812722
#
# Stress axis : x y z
#
# Youngs Moduli (GPa) = 98.23081 44.44022 79.43867
#
# Poissons Ratio (x) = 0.24561 0.11575
# Poissons Ratio (y) = 0.54289 0.52333
# Poissons Ratio (z) = 0.14313 0.29277
#
# Static dielectric constant tensor:
#      x y z
#    x 4.333940 0.000000 -0.283750 
#    y 0.000000 3.515300 0.000000 
#    z -0.283750 0.000000 3.963620 
# 
# 
# High freq. dielectric constant tensor:
#      x y z
#    x 1.804630 0.000000 -0.005050 
#    y 0.000000 1.774020 0.000000 
#    z -0.005050 0.000000 1.798210 
# 
# From -- ./inp_files/249978.got.cif
#   From: 2010.06.25/outbox.cif.g09.slc.cpg/sg12_125_cif.got.tgz:249978.got - 2010.06.28 00:19:55.
