data_PCOD8092799
_publ_section_title
;
Structure prediction by ZEFSAII (Michael W. Deem and Ramdas Pophale) SiO2 
 PCOD8092799
Probable space group: C 2/M
;
_chemical_formula_sum "Si O2"
_cell_formula_units_Z 64
_cell_length_a 30.403428
_cell_length_b 8.719529
_cell_length_c 15.063159
_cell_angle_alpha 90.000000
_cell_angle_beta 128.592073
_cell_angle_gamma 90.000000
_cell_volume 3121.188212
_symmetry_space_group_name_H-M "C 2/M"
_symmetry_group_IT_number 12
_symmetry_cell_setting 'monoclinic'
loop_
_space_group_symop_operation_xyz
x,y,z
-x,y,-z
-x,-y,-z
x,-y,z
1/2+x,1/2+y,z
1/2-x,1/2+y,-z
1/2-x,1/2-y,-z
1/2+x,1/2-y,z
loop_
_atom_site_type_symbol
_atom_site_label
_atom_site_fract_x
_atom_site_fract_y
_atom_site_fract_z
Si Si1 0.532802 0.678229 0.623379
Si Si2 0.824567 0.182678 0.774668
Si Si3 0.192921 0.334792 0.927660
Si Si4 0.880338 0.317290 0.675079
Si Si5 0.112862 0.317853 0.978157
Si Si6 0.499394 0.683263 0.223813
Si Si7 0.864377 0.668372 0.320482
Si Si8 0.697281 0.818336 0.584955
O O1 0.500000 0.756788 0.500000
O O2 0.520127 0.500000 0.611521
O O3 0.513931 0.747173 0.693886
O O4 0.596790 0.710374 0.680803
O O5 0.864801 0.235076 0.746399
O O6 0.761254 0.243236 0.672594
O O7 0.826105 0.000000 0.787084
O O8 0.847630 0.260376 0.892589
O O9 0.202212 0.500000 0.984495
O O10 0.142598 0.261329 0.923480
O O11 0.183666 0.354722 0.811796
O O12 0.250000 0.250000 0.000000
O O13 0.879787 0.500000 0.685144
O O14 0.834270 0.262960 0.543857
O O15 0.942515 0.261904 0.729592
O O16 0.103775 0.500000 0.972625
O O17 0.051316 0.238076 0.904253
O O18 0.504824 0.500000 0.225457
O O19 0.892244 0.500000 0.374962
O O20 0.839252 0.743599 0.377998
O O21 0.698729 0.000000 0.592390
#
# Coordination Sequence:
#
# PCOD8092799 Si02
#       8
#     8   8   8   8   8   8   8   8
#     4  10  21  36  55  84 121 157 196 243 293 348
#     4  11  23  42  66  91 121 161 206 257 316 374
#     4  10  21  35  56  85 120 158 199 242 291 350
#     4  11  23  41  64  92 123 159 205 259 314 369
#     4  11  23  41  62  90 125 163 208 259 308 362
#     4  11  23  40  62  89 124 166 209 254 308 369
#     4  10  19  35  57  85 117 155 197 234 283 350
#     4   9  20  38  63  93 126 161 202 252 307 370
#
# _framework density 20.505012000000001
#
# number of rings (size 3 to 8) (size 9 to 14) (size 15 to 20)
#    0.000    1.625    1.250    3.375    0.000    3.750 
#    0.000    6.250    0.000    0.000    0.000    0.000 
#    0.000    0.000    0.000    0.000    0.000    0.000 
#
# Total GULP energy -396614.868617 kJ/mol
# GULP energy per Si atom -12394.214644 kJ/mol
# Density = 2.045834 g / cm^3
# Si number density = 20.505012 Si / 1000 Ang^3
#
#
#
# Elastic Constant Matrix: (Units=GPa)
#
#
# Indices 1 2 3 4 5 6 
#
# 1 105.2813 13.4999 23.8325 0.0000 0.2820 0.0000
# 2 13.4999 40.3771 24.0289 0.0000 0.8279 0.0000
# 3 23.8325 24.0289 98.0923 0.0000 5.3779 0.0000
# 4 0.0000 0.0000 0.0000 26.0243 0.0000 3.9401
# 5 0.2820 0.8279 5.3779 0.0000 42.2367 0.0000
# 6 0.0000 0.0000 0.0000 3.9401 0.0000 29.3181
#
#
#
# Elastic Compliance Matrix: (Units=1/GPa)
#
#
# Indices 1 2 3 4 5 6 
#
# 1 0.010228 -0.002269 -0.001941 0.000000 0.000223 0.000000
# 2 -0.002269 0.029501 -0.006691 0.000000 0.000289 0.000000
# 3 -0.001941 -0.006691 0.012384 0.000000 -0.001433 0.000000
# 4 0.000000 0.000000 0.000000 0.039224 0.000000 -0.005271
# 5 0.000223 0.000289 -0.001433 0.000000 0.023851 0.000000
# 6 0.000000 0.000000 0.000000 -0.005271 0.000000 0.034817
#
#
# Mechanical properties :
#
#
# Convention : Reuss Voigt Hill
#
# Bulk Modulus (GPa) = 32.99250 40.71926 36.85588
# Shear Modulus (GPa) = 27.48579 31.67511 29.58045
#
# Velocity S-wave (km/s) = 3.66518 3.93459 3.80227
# Velocity P-wave (km/s) = 5.83406 6.36731 6.10651
#
# Compressibility (1/GPa) = 0.03030992
#
# Stress axis : x y z
#
# Youngs Moduli (GPa) = 97.76895 33.89683 80.75035
#
# Poissons Ratio (x) = 0.07691 0.15678
# Poissons Ratio (y) = 0.22183 0.54032
# Poissons Ratio (z) = 0.18982 0.22681
#
# Static dielectric constant tensor:
#      x y z
#    x 3.640050 0.000000 0.083590 
#    y 0.000000 3.874830 0.000000 
#    z 0.083590 0.000000 3.707900 
# 
# 
# High freq. dielectric constant tensor:
#      x y z
#    x 1.809350 0.000000 -0.001750 
#    y 0.000000 1.787640 0.000000 
#    z -0.001750 0.000000 1.812110 
# 
# From -- ./inp_files/249859.got.cif
#   From: 2010.06.25/outbox.cif.g09.slc.cpg/sg12_125_cif.got.tgz:249859.got - 2010.06.28 00:19:55.
