data_PCOD8092474
_publ_section_title
;
Structure prediction by ZEFSAII (Michael W. Deem and Ramdas Pophale) SiO2 
 PCOD8092474
Probable space group: C 2/M
;
_chemical_formula_sum "Si O2"
_cell_formula_units_Z 48
_cell_length_a 30.361680
_cell_length_b 14.761060
_cell_length_c 9.609833
_cell_angle_alpha 90.000000
_cell_angle_beta 144.518168
_cell_angle_gamma 90.000000
_cell_volume 2499.885357
_symmetry_space_group_name_H-M "C 2/M"
_symmetry_group_IT_number 12
_symmetry_cell_setting 'monoclinic'
loop_
_space_group_symop_operation_xyz
x,y,z
-x,y,-z
-x,-y,-z
x,-y,z
1/2+x,1/2+y,z
1/2-x,1/2+y,-z
1/2-x,1/2-y,-z
1/2+x,1/2-y,z
loop_
_atom_site_type_symbol
_atom_site_label
_atom_site_fract_x
_atom_site_fract_y
_atom_site_fract_z
Si Si1 0.899261 0.602614 0.495740
Si Si2 0.355375 0.100086 0.076547
Si Si3 0.948783 0.711434 0.101128
Si Si4 0.559749 0.599963 0.036477
Si Si5 0.277179 0.364622 0.448882
Si Si6 0.825119 0.335374 0.572805
O O1 0.931599 0.500000 0.582090
O O2 0.855922 0.623643 0.240873
O O3 0.837755 0.613371 0.460339
O O4 0.966039 0.675240 0.684768
O O5 0.405825 0.174391 0.126497
O O6 0.391152 0.000000 0.144110
O O7 0.267938 0.097941 0.800996
O O8 0.945021 0.821976 0.094305
O O9 0.907193 0.679252 0.854161
O O10 0.542096 0.500000 0.926970
O O11 0.640495 0.592807 0.322092
O O12 0.500000 0.627074 0.000000
O O13 0.228315 0.392164 0.460374
O O14 0.281258 0.257733 0.434269
#
# Coordination Sequence:
#
# PCOD8092474 Si02
#       6
#     8   8   8   8   8   8
#     4  11  22  34  52  83 117 146 179 217 262 319
#     4  10  21  35  54  81 113 150 181 210 263 325
#     4  10  19  35  55  78 111 146 180 220 265 315
#     4  10  20  35  58  83 104 133 179 233 279 317
#     4   9  18  36  56  77 107 139 175 221 268 317
#     4   9  19  33  53  79 106 141 181 218 263 313
#
# _framework density 19.200882
#
# number of rings (size 3 to 8) (size 9 to 14) (size 15 to 20)
#    0.000    2.167    0.000    5.000    0.000    6.667 
#    0.000    0.000    0.000    2.000    0.000    2.333 
#    0.000    0.000    0.000    0.000    0.000    0.000 
#
# Total GULP energy -297513.700796 kJ/mol
# GULP energy per Si atom -12396.404200 kJ/mol
# Density = 1.915718 g / cm^3
# Si number density = 19.200882 Si / 1000 Ang^3
#
#
#
# Elastic Constant Matrix: (Units=GPa)
#
#
# Indices 1 2 3 4 5 6 
#
# 1 106.6424 40.4543 71.9495 0.0000 -7.8109 0.0000
# 2 40.4543 113.9294 44.2586 0.0000 -10.6996 0.0000
# 3 71.9495 44.2586 101.3302 0.0000 -4.2911 0.0000
# 4 0.0000 0.0000 0.0000 6.0742 0.0000 -13.6932
# 5 -7.8109 -10.6996 -4.2911 0.0000 35.6448 0.0000
# 6 0.0000 0.0000 0.0000 -13.6932 0.0000 20.3067
#
#
#
# Elastic Compliance Matrix: (Units=1/GPa)
#
#
# Indices 1 2 3 4 5 6 
#
# 1 0.018434 -0.001565 -0.012317 0.000000 0.002087 0.000000
# 2 -0.001565 0.010955 -0.003567 0.000000 0.002516 0.000000
# 3 -0.012317 -0.003567 0.020115 0.000000 -0.001348 0.000000
# 4 0.000000 0.000000 0.000000 -0.316512 0.000000 -0.213431
# 5 0.002087 0.002516 -0.001348 0.000000 0.029105 0.000000
# 6 0.000000 0.000000 0.000000 -0.213431 0.000000 -0.094676
#
#
# Mechanical properties :
#
#
# Convention : Reuss Voigt Hill
#
# Bulk Modulus (GPa) = 68.46461 70.58074 69.52267
# Shear Modulus (GPa) = -17.07579 23.42110 3.17266
#
# Velocity S-wave (km/s) = -2.98539 3.49634 1.28683
# Velocity P-wave (km/s) = 4.88375 7.28959 6.20440
#
# Compressibility (1/GPa) = 0.01460609
#
# Stress axis : x y z
#
# Youngs Moduli (GPa) = 54.24900 91.28191 49.71303
#
# Poissons Ratio (x) = 0.14282 0.61231
# Poissons Ratio (y) = 0.08488 0.17735
# Poissons Ratio (z) = 0.66818 0.32564
#
# Static dielectric constant tensor:
#      x y z
#    x 3.417880 0.000000 0.056920 
#    y 0.000000 3.602890 0.000000 
#    z 0.056920 0.000000 3.462990 
# 
# 
# High freq. dielectric constant tensor:
#      x y z
#    x 1.736390 0.000000 0.011550 
#    y 0.000000 1.751500 0.000000 
#    z 0.011550 0.000000 1.733450 
# 
# From -- ./inp_files/111753.got.cif
#   From: 2010.06.25/outbox.cif.g09.slc.cpg/sg12_56_cif.got.tgz:111753.got - 2010.06.28 00:19:55.
