data_PCOD8092887
_publ_section_title
;
Structure prediction by ZEFSAII (Michael W. Deem and Ramdas Pophale) SiO2 
 PCOD8092887
Probable space group: C 2/M
;
_chemical_formula_sum "Si O2"
_cell_formula_units_Z 48
_cell_length_a 20.526318
_cell_length_b 9.084835
_cell_length_c 14.767548
_cell_angle_alpha 90.000000
_cell_angle_beta 108.203103
_cell_angle_gamma 90.000000
_cell_volume 2616.011101
_symmetry_space_group_name_H-M "C 2/M"
_symmetry_group_IT_number 12
_symmetry_cell_setting 'monoclinic'
loop_
_space_group_symop_operation_xyz
x,y,z
-x,y,-z
-x,-y,-z
x,-y,z
1/2+x,1/2+y,z
1/2-x,1/2+y,-z
1/2-x,1/2-y,-z
1/2+x,1/2-y,z
loop_
_atom_site_type_symbol
_atom_site_label
_atom_site_fract_x
_atom_site_fract_y
_atom_site_fract_z
Si Si1 0.822071 0.828646 0.287690
Si Si2 0.829027 0.674879 0.814795
Si Si3 0.181351 0.827734 0.502863
Si Si4 0.089063 0.673313 0.325069
Si Si5 0.929285 0.324566 0.010819
Si Si6 0.433301 0.827173 0.215693
O O1 0.748739 0.766405 0.221361
O O2 0.829836 0.796545 0.396723
O O3 0.881869 0.746184 0.262488
O O4 0.828155 0.000000 0.268482
O O5 0.830069 0.500000 0.812593
O O6 0.869943 0.731671 0.744781
O O7 0.866118 0.732813 0.921954
O O8 0.250000 0.750000 0.500000
O O9 0.115864 0.760364 0.423856
O O10 0.187935 0.000000 0.485312
O O11 0.100710 0.500000 0.344743
O O12 0.009866 0.713170 0.278647
O O13 0.932729 0.500000 0.012575
O O14 0.919678 0.265525 0.108570
O O15 0.000000 0.262341 0.000000
O O16 0.421077 0.000000 0.212985
#
# Coordination Sequence:
#
# PCOD8092887 Si02
#       6
#     8   8   8   8   8   8
#     4  10  22  38  54  76 113 152 178 219 284 341
#     4   9  16  31  55  80 107 144 185 221 269 331
#     4  11  22  37  59  84 109 144 188 229 273 328
#     4  10  19  35  58  83 111 143 185 230 273 322
#     4   9  15  28  55  85 108 138 184 231 272 320
#     4  10  21  35  56  86 114 142 183 235 275 315
#
# _framework density 18.348545000000001
#
# number of rings (size 3 to 8) (size 9 to 14) (size 15 to 20)
#    0.000    2.167    3.333    0.500    0.000    3.333 
#    0.000    3.333    0.000    1.500    0.000    0.000 
#    0.000    0.000    0.000    0.000    0.000    0.000 
#
# Total GULP energy -297610.879305 kJ/mol
# GULP energy per Si atom -12400.453304 kJ/mol
# Density = 1.830678 g / cm^3
# Si number density = 18.348545 Si / 1000 Ang^3
#
#
#
# Elastic Constant Matrix: (Units=GPa)
#
#
# Indices 1 2 3 4 5 6 
#
# 1 156.2160 49.6998 83.9557 0.0000 0.3396 0.0000
# 2 49.6998 38.5149 51.7511 0.0000 3.0439 0.0000
# 3 83.9557 51.7511 160.8845 0.0000 20.9414 0.0000
# 4 0.0000 0.0000 0.0000 22.2400 0.0000 0.0821
# 5 0.3396 3.0439 20.9414 0.0000 28.0052 0.0000
# 6 0.0000 0.0000 0.0000 0.0821 0.0000 30.6223
#
#
#
# Elastic Compliance Matrix: (Units=1/GPa)
#
#
# Indices 1 2 3 4 5 6 
#
# 1 0.011494 -0.011396 -0.002742 0.000000 0.003150 0.000000
# 2 -0.011396 0.058184 -0.013254 0.000000 0.003725 0.000000
# 3 -0.002742 -0.013254 0.012982 0.000000 -0.008233 0.000000
# 4 0.000000 0.000000 0.000000 0.044964 0.000000 -0.000121
# 5 0.003150 0.003725 -0.008233 0.000000 0.041421 0.000000
# 6 0.000000 0.000000 0.000000 -0.000121 0.000000 0.032656
#
#
# Mechanical properties :
#
#
# Convention : Reuss Voigt Hill
#
# Bulk Modulus (GPa) = 35.87421 80.71431 58.29426
# Shear Modulus (GPa) = 18.81277 27.52075 23.16676
#
# Velocity S-wave (km/s) = 3.20550 3.87704 3.55715
# Velocity P-wave (km/s) = 5.77012 8.00793 6.97930
#
# Compressibility (1/GPa) = 0.02787518
#
# Stress axis : x y z
#
# Youngs Moduli (GPa) = 87.00203 17.18696 77.03224
#
# Poissons Ratio (x) = 0.19587 0.21124
# Poissons Ratio (y) = 0.99149 1.02095
# Poissons Ratio (z) = 0.23858 0.22779
#
# Static dielectric constant tensor:
#      x y z
#    x 3.413640 0.000000 0.152520 
#    y 0.000000 3.027500 0.000000 
#    z 0.152520 0.000000 3.861340 
# 
# 
# High freq. dielectric constant tensor:
#      x y z
#    x 1.715780 0.000000 0.007760 
#    y 0.000000 1.670910 0.000000 
#    z 0.007760 0.000000 1.729570 
# 
# From -- ./inp_files/230339.got.cif
#   From: 2010.06.25/outbox.cif.g09.slc.cpg/sg12_116_cif.got.tgz:230339.got - 2010.06.28 00:19:55.
