data_PCOD8092804
_publ_section_title
;
Structure prediction by ZEFSAII (Michael W. Deem and Ramdas Pophale) SiO2 
 PCOD8092804
Probable space group: C 2/M
;
_chemical_formula_sum "Si O2"
_cell_formula_units_Z 48
_cell_length_a 13.037809
_cell_length_b 13.850230
_cell_length_c 22.521035
_cell_angle_alpha 90.000000
_cell_angle_beta 146.587225
_cell_angle_gamma 90.000000
_cell_volume 2239.437226
_symmetry_space_group_name_H-M "C 2/M"
_symmetry_group_IT_number 12
_symmetry_cell_setting 'monoclinic'
loop_
_space_group_symop_operation_xyz
x,y,z
-x,y,-z
-x,-y,-z
x,-y,z
1/2+x,1/2+y,z
1/2-x,1/2+y,-z
1/2-x,1/2-y,-z
1/2+x,1/2-y,z
loop_
_atom_site_type_symbol
_atom_site_label
_atom_site_fract_x
_atom_site_fract_y
_atom_site_fract_z
Si Si1 0.844799 0.803852 0.971163
Si Si2 0.389158 0.389810 0.344956
Si Si3 0.791090 0.222005 0.453100
Si Si4 0.539478 0.110311 0.248299
Si Si5 0.804005 0.891296 0.074225
Si Si6 0.420720 0.607625 0.685438
O O1 0.640343 0.823693 0.846341
O O2 0.855400 0.688322 0.989049
O O3 0.886215 0.867436 0.049208
O O4 0.000000 0.835145 0.000000
O O5 0.447126 0.500000 0.386932
O O6 0.498867 0.320528 0.444936
O O7 0.170984 0.374752 0.253637
O O8 0.435986 0.364979 0.299037
O O9 0.750000 0.250000 0.500000
O O10 0.648221 0.140586 0.360563
O O11 0.756351 0.319836 0.398110
O O12 0.476033 0.000000 0.223895
O O13 0.972808 0.883859 0.201483
O O14 0.717662 0.000000 0.033289
O O15 0.341948 0.500000 0.638085
#
# Coordination Sequence:
#
# PCOD8092804 Si02
#       6
#     8   8   8   8   8   8
#     4  11  25  44  67  95 129 168 212 263 320 379
#     4   9  19  35  62  93 122 158 204 261 311 364
#     4  10  19  35  57  87 124 162 202 256 311 369
#     4  11  22  39  62  91 123 161 210 260 319 378
#     4  10  22  43  67  95 128 165 213 262 313 378
#     4   9  18  36  62  91 125 162 204 253 309 373
#
# _framework density 21.433955999999998
#
# number of rings (size 3 to 8) (size 9 to 14) (size 15 to 20)
#    0.000    2.000    1.667    1.500    0.000    6.333 
#    0.000    1.667    0.000    3.000    0.000    0.000 
#    0.000    0.000    0.000    0.000    0.000    0.000 
#
# Total GULP energy -297493.987333 kJ/mol
# GULP energy per Si atom -12395.582806 kJ/mol
# Density = 2.138517 g / cm^3
# Si number density = 21.433956 Si / 1000 Ang^3
#
#
#
# Elastic Constant Matrix: (Units=GPa)
#
#
# Indices 1 2 3 4 5 6 
#
# 1 89.6226 23.9431 44.8456 0.0000 1.8279 0.0000
# 2 23.9431 120.7347 33.1017 0.0000 6.4535 0.0000
# 3 44.8456 33.1017 95.4560 -0.0003 -3.3048 0.0000
# 4 0.0000 0.0000 -0.0003 35.6275 -0.0001 -6.2570
# 5 1.8279 6.4535 -3.3048 -0.0001 35.1722 0.0000
# 6 0.0000 0.0000 0.0000 -6.2570 0.0000 24.6501
#
#
#
# Elastic Compliance Matrix: (Units=1/GPa)
#
#
# Indices 1 2 3 4 5 6 
#
# 1 0.014775 -0.001052 -0.006618 0.000000 -0.001197 0.000000
# 2 -0.001052 0.009368 -0.002821 0.000000 -0.001929 0.000000
# 3 -0.006618 -0.002821 0.014641 0.000000 0.002237 0.000000
# 4 0.000000 0.000000 0.000000 0.029378 0.000000 0.007457
# 5 -0.001197 -0.001929 0.002237 0.000000 0.029058 0.000000
# 6 0.000000 0.000000 0.000000 0.007457 0.000000 0.042461
#
#
# Mechanical properties :
#
#
# Convention : Reuss Voigt Hill
#
# Bulk Modulus (GPa) = 56.17400 56.62158 56.39779
# Shear Modulus (GPa) = 30.01279 32.68482 31.34881
#
# Velocity S-wave (km/s) = 3.74604 3.90924 3.82851
# Velocity P-wave (km/s) = 6.70636 6.84473 6.77590
#
# Compressibility (1/GPa) = 0.01780183
#
# Stress axis : x y z
#
# Youngs Moduli (GPa) = 67.68294 106.74874 68.30138
#
# Poissons Ratio (x) = 0.11226 0.45202
# Poissons Ratio (y) = 0.07117 0.19270
# Poissons Ratio (z) = 0.44793 0.30117
#
# Static dielectric constant tensor:
#      x y z
#    x 3.752480 0.000000 -0.207000 
#    y 0.000000 4.448410 0.000000 
#    z -0.207000 0.000000 3.867180 
# 
# 
# High freq. dielectric constant tensor:
#      x y z
#    x 1.822590 0.000000 -0.026590 
#    y 0.000000 1.858220 0.000000 
#    z -0.026590 0.000000 1.835340 
# 
# From -- ./inp_files/340213.got.cif
#   From: 2010.06.25/outbox.cif.g09.slc.cpg/sg12_171_cif.got.tgz:340213.got - 2010.06.28 00:19:55.
