data_PCOD8092547
_publ_section_title
;
Structure prediction by ZEFSAII (Michael W. Deem and Ramdas Pophale) SiO2 
 PCOD8092547
Probable space group: C 2/M
;
_chemical_formula_sum "Si O2"
_cell_formula_units_Z 40
_cell_length_a 27.967700
_cell_length_b 9.304914
_cell_length_c 10.160202
_cell_angle_alpha 90.000000
_cell_angle_beta 119.901081
_cell_angle_gamma 90.000000
_cell_volume 2292.102954
_symmetry_space_group_name_H-M "C 2/M"
_symmetry_group_IT_number 12
_symmetry_cell_setting 'monoclinic'
loop_
_space_group_symop_operation_xyz
x,y,z
-x,y,-z
-x,-y,-z
x,-y,z
1/2+x,1/2+y,z
1/2-x,1/2+y,-z
1/2-x,1/2-y,-z
1/2+x,1/2-y,z
loop_
_atom_site_type_symbol
_atom_site_label
_atom_site_fract_x
_atom_site_fract_y
_atom_site_fract_z
Si Si1 0.251242 0.166043 0.637198
Si Si2 0.967802 0.833290 0.085526
Si Si3 0.526081 0.833102 0.394723
Si Si4 0.351559 0.664857 0.812184
Si Si5 0.129565 0.163730 0.464441
O O1 0.250000 0.250000 0.500000
O O2 0.299897 0.237855 0.791161
O O3 0.189993 0.181637 0.615435
O O4 0.265511 0.000000 0.631881
O O5 0.987183 0.741350 0.234909
O O6 0.981031 0.000000 0.130726
O O7 0.902688 0.806485 0.978540
O O8 0.000000 0.781583 0.000000
O O9 0.500000 0.804985 0.500000
O O10 0.587323 0.767263 0.480233
O O11 0.530385 0.000000 0.366305
O O12 0.332354 0.500000 0.790258
O O13 0.368892 0.705904 0.687449
O O14 0.108880 0.000000 0.450224
#
# Coordination Sequence:
#
# PCOD8092547 Si02
#       5
#     8   8   8   8   8
#     4   9  17  28  45  72 104 134 166 207 254 303
#     4  10  19  35  56  77 104 136 172 215 258 308
#     4  11  24  37  50  75 108 139 174 216 260 306
#     4   9  17  30  50  77 105 130 164 211 258 304
#     4   9  17  32  51  72 101 137 173 210 251 304
#
# _framework density 17.451222000000001
#
# number of rings (size 3 to 8) (size 9 to 14) (size 15 to 20)
#    0.000    2.400    2.000    2.400    0.000    6.800 
#    0.000    0.000    0.000    1.200    0.000    0.000 
#    0.000    0.000    0.000    0.000    0.000    0.000 
#
# Total GULP energy -247940.496017 kJ/mol
# GULP energy per Si atom -12397.024801 kJ/mol
# Density = 1.741150 g / cm^3
# Si number density = 17.451222 Si / 1000 Ang^3
#
#
#
# Elastic Constant Matrix: (Units=GPa)
#
#
# Indices 1 2 3 4 5 6 
#
# 1 104.1498 74.1263 54.1899 0.0000 24.8900 0.0000
# 2 74.1263 115.3371 58.1033 0.0000 11.4421 0.0000
# 3 54.1899 58.1033 75.1029 0.0000 12.2079 0.0000
# 4 0.0000 0.0000 0.0000 27.8041 0.0000 6.8191
# 5 24.8900 11.4421 12.2079 0.0000 25.0167 0.0000
# 6 0.0000 0.0000 0.0000 6.8191 0.0000 32.4729
#
#
#
# Elastic Compliance Matrix: (Units=1/GPa)
#
#
# Indices 1 2 3 4 5 6 
#
# 1 0.024812 -0.010887 -0.006818 0.000000 -0.016380 0.000000
# 2 -0.010887 0.019019 -0.007827 0.000000 0.005952 0.000000
# 3 -0.006818 -0.007827 0.024552 0.000000 -0.001619 0.000000
# 4 0.000000 0.000000 0.000000 0.037919 0.000000 -0.007963
# 5 -0.016380 0.005952 -0.001619 0.000000 0.054338 0.000000
# 6 0.000000 0.000000 0.000000 -0.007963 0.000000 0.032467
#
#
# Mechanical properties :
#
#
# Convention : Reuss Voigt Hill
#
# Bulk Modulus (GPa) = 57.73160 74.15876 65.94518
# Shear Modulus (GPa) = 20.00458 24.27010 22.13734
#
# Velocity S-wave (km/s) = 3.38940 3.73331 3.56550
# Velocity P-wave (km/s) = 6.96210 7.82116 7.40410
#
# Compressibility (1/GPa) = 0.01732154
#
# Stress axis : x y z
#
# Youngs Moduli (GPa) = 40.30346 52.57775 40.72933
#
# Poissons Ratio (x) = 0.57241 0.27768
# Poissons Ratio (y) = 0.43878 0.31877
# Poissons Ratio (z) = 0.27477 0.41150
#
# Static dielectric constant tensor:
#      x y z
#    x 3.515660 0.000000 0.509030 
#    y 0.000000 3.412030 0.000000 
#    z 0.509030 0.000000 3.142950 
# 
# 
# High freq. dielectric constant tensor:
#      x y z
#    x 1.669470 0.000000 0.039330 
#    y 0.000000 1.679650 0.000000 
#    z 0.039330 0.000000 1.643510 
# 
# From -- ./inp_files/101028.got.cif
#   From: 2010.06.25/outbox.cif.g09.slc.cpg/sg12_51_cif.got.tgz:101028.got - 2010.06.28 00:19:55.
