data_PCOD8092466
_publ_section_title
;
Structure prediction by ZEFSAII (Michael W. Deem and Ramdas Pophale) SiO2 
 PCOD8092466
Probable space group: C 2/M
;
_chemical_formula_sum "Si O2"
_cell_formula_units_Z 56
_cell_length_a 19.512238
_cell_length_b 17.657710
_cell_length_c 11.522469
_cell_angle_alpha 90.000000
_cell_angle_beta 48.903184
_cell_angle_gamma 90.000000
_cell_volume 2991.767623
_symmetry_space_group_name_H-M "C 2/M"
_symmetry_group_IT_number 12
_symmetry_cell_setting 'monoclinic'
loop_
_space_group_symop_operation_xyz
x,y,z
-x,y,-z
-x,-y,-z
x,-y,z
1/2+x,1/2+y,z
1/2-x,1/2+y,-z
1/2-x,1/2-y,-z
1/2+x,1/2-y,z
loop_
_atom_site_type_symbol
_atom_site_label
_atom_site_fract_x
_atom_site_fract_y
_atom_site_fract_z
Si Si1 0.676333 0.676349 0.718088
Si Si2 0.510216 0.416177 0.851163
Si Si3 0.341554 0.836402 0.949538
Si Si4 0.826504 0.583645 0.433507
Si Si5 0.607392 0.160768 0.857519
Si Si6 0.491225 0.084785 0.637387
Si Si7 0.670955 0.660139 0.990830
O O1 0.594247 0.639118 0.736515
O O2 0.762013 0.653010 0.544034
O O3 0.655610 0.764954 0.750865
O O4 0.694008 0.646548 0.829476
O O5 0.530745 0.500000 0.780006
O O6 0.421459 0.385810 0.881852
O O7 0.500000 0.418059 0.000000
O O8 0.431392 0.860302 0.782039
O O9 0.345060 0.746317 0.956143
O O10 0.344821 0.867582 0.077100
O O11 0.253549 0.869329 0.979690
O O12 0.778409 0.500000 0.487780
O O13 0.871935 0.595270 0.256833
O O14 0.906828 0.582068 0.434235
O O15 0.500000 0.175470 0.000000
O O16 0.500000 0.119864 0.500000
O O17 0.448380 0.000000 0.683520
#
# Coordination Sequence:
#
# PCOD8092466 Si02
#       7
#     8   8   8   8   8   8   8
#     4  10  19  35  57  83 110 144 187 238 284 328
#     4   9  17  30  52  81 109 140 181 232 287 332
#     4  10  19  35  55  77 113 148 187 234 276 335
#     4  11  23  36  54  82 116 150 186 228 280 341
#     4  11  21  37  58  82 113 151 194 231 275 339
#     4  10  21  35  53  79 111 147 183 231 288 332
#     4   9  19  33  56  82 110 146 187 236 282 333
#
# _framework density 18.718031
#
# number of rings (size 3 to 8) (size 9 to 14) (size 15 to 20)
#    0.000    2.000    1.429    3.857    0.000    2.000 
#    0.000    0.000    0.000    0.000    0.000    2.000 
#    0.000    0.000    0.000    0.000    0.000    0.000 
#
# Total GULP energy -347009.044354 kJ/mol
# GULP energy per Si atom -12393.180156 kJ/mol
# Density = 1.867543 g / cm^3
# Si number density = 18.718031 Si / 1000 Ang^3
#
#
#
# Elastic Constant Matrix: (Units=GPa)
#
#
# Indices 1 2 3 4 5 6 
#
# 1 94.7147 32.6596 22.8780 0.0000 -8.0625 0.0000
# 2 32.6596 49.4557 39.3657 0.0000 -0.2268 0.0000
# 3 22.8780 39.3657 97.1141 0.0000 -1.5785 0.0000
# 4 0.0000 0.0000 0.0000 22.0091 0.0000 -1.5240
# 5 -8.0625 -0.2268 -1.5785 0.0000 24.7201 0.0000
# 6 0.0000 0.0000 0.0000 -1.5240 0.0000 13.8470
#
#
#
# Elastic Compliance Matrix: (Units=1/GPa)
#
#
# Indices 1 2 3 4 5 6 
#
# 1 0.014200 -0.009970 0.000771 0.000000 0.004589 0.000000
# 2 -0.009970 0.036858 -0.012652 0.000000 -0.003722 0.000000
# 3 0.000771 -0.012652 0.015262 0.000000 0.001110 0.000000
# 4 0.000000 0.000000 0.000000 0.045785 0.000000 0.005039
# 5 0.004589 -0.003722 0.001110 0.000000 0.041986 0.000000
# 6 0.000000 0.000000 0.000000 0.005039 0.000000 0.072772
#
#
# Mechanical properties :
#
#
# Convention : Reuss Voigt Hill
#
# Bulk Modulus (GPa) = 44.21384 47.89900 46.05642
# Shear Modulus (GPa) = 17.97870 21.87400 19.92635
#
# Velocity S-wave (km/s) = 3.10256 3.42220 3.26629
# Velocity P-wave (km/s) = 6.04208 6.42344 6.23568
#
# Compressibility (1/GPa) = 0.02261735
#
# Stress axis : x y z
#
# Youngs Moduli (GPa) = 70.42053 27.13109 65.52073
#
# Poissons Ratio (x) = 0.27050 -0.05050
# Poissons Ratio (y) = 0.70210 0.82899
# Poissons Ratio (z) = -0.05427 0.34327
#
# Static dielectric constant tensor:
#      x y z
#    x 3.727090 0.000000 -0.013910 
#    y 0.000000 3.420820 0.000000 
#    z -0.013910 0.000000 3.236780 
# 
# 
# High freq. dielectric constant tensor:
#      x y z
#    x 1.733070 0.000000 -0.005640 
#    y 0.000000 1.720080 0.000000 
#    z -0.005640 0.000000 1.709500 
# 
# From -- ./inp_files/158194.got.cif
#   From: 2010.06.25/outbox.cif.g09.slc.cpg/sg12_80_cif.got.tgz:158194.got - 2010.06.28 00:19:55.
