data_PCOD8092193
_publ_section_title
;
Structure prediction by ZEFSAII (Michael W. Deem and Ramdas Pophale) SiO2 
 PCOD8092193
Probable space group: C 2/M
;
_chemical_formula_sum "Si O2"
_cell_formula_units_Z 64
_cell_length_a 24.413605
_cell_length_b 12.642918
_cell_length_c 11.321478
_cell_angle_alpha 90.000000
_cell_angle_beta 63.798842
_cell_angle_gamma 90.000000
_cell_volume 3135.418820
_symmetry_space_group_name_H-M "C 2/M"
_symmetry_group_IT_number 12
_symmetry_cell_setting 'monoclinic'
loop_
_space_group_symop_operation_xyz
x,y,z
-x,y,-z
-x,-y,-z
x,-y,z
1/2+x,1/2+y,z
1/2-x,1/2+y,-z
1/2-x,1/2-y,-z
1/2+x,1/2-y,z
loop_
_atom_site_type_symbol
_atom_site_label
_atom_site_fract_x
_atom_site_fract_y
_atom_site_fract_z
Si Si1 0.654717 0.769600 0.543789
Si Si2 0.926067 0.119751 0.241561
Si Si3 0.758267 0.616335 0.379275
Si Si4 0.431397 0.192393 0.590276
Si Si5 0.680317 0.876124 0.154878
Si Si6 0.385077 0.380554 0.035636
Si Si7 0.715138 0.781004 0.874281
Si Si8 0.952521 0.877530 0.737926
O O1 0.627707 0.697770 0.672730
O O2 0.705207 0.701671 0.430313
O O3 0.688341 0.867660 0.574580
O O4 0.604046 0.809608 0.500024
O O5 0.937079 0.129316 0.088809
O O6 0.983749 0.153114 0.263641
O O7 0.907353 0.000000 0.290853
O O8 0.731333 0.500000 0.424598
O O9 0.783553 0.626439 0.223012
O O10 0.500000 0.143770 0.500000
O O11 0.389723 0.131474 0.727733
O O12 0.440886 0.311675 0.630289
O O13 0.721570 0.785548 0.177642
O O14 0.700792 0.000000 0.152518
O O15 0.688359 0.843960 0.011360
O O16 0.360990 0.500000 0.053068
O O17 0.330497 0.307815 0.127561
O O18 0.404973 0.347338 0.885495
O O19 0.948467 0.000000 0.705828
#
# Coordination Sequence:
#
# PCOD8092193 Si02
#       8
#     8   8   8   8   8   8   8   8
#     4  11  23  41  59  92 124 165 209 256 311 373
#     4  10  19  34  59  89 123 162 203 253 313 372
#     4  11  24  42  65  91 123 161 207 262 319 376
#     4  12  24  42  64  90 129 175 215 256 312 378
#     4  11  25  43  64  93 126 163 211 261 315 380
#     4  10  19  34  61  92 121 156 201 255 319 376
#     4  11  21  42  67  92 121 158 204 266 324 369
#     4  10  21  36  58  90 127 162 204 259 316 374
#
# _framework density 20.411946
#
# number of rings (size 3 to 8) (size 9 to 14) (size 15 to 20)
#    0.000    1.250    5.000    1.500    0.000    3.500 
#    0.000    0.000    0.000    0.000    0.000    3.500 
#    0.000    0.000    0.000    0.000    0.000    0.000 
#
# Total GULP energy -396425.648126 kJ/mol
# GULP energy per Si atom -12388.301504 kJ/mol
# Density = 2.036549 g / cm^3
# Si number density = 20.411946 Si / 1000 Ang^3
#
#
#
# Elastic Constant Matrix: (Units=GPa)
#
#
# Indices 1 2 3 4 5 6 
#
# 1 100.8312 17.1128 28.3112 0.0000 6.7650 0.0000
# 2 17.1128 69.0662 29.3566 0.0000 2.2021 0.0000
# 3 28.3112 29.3566 102.9604 0.0000 -3.7122 0.0000
# 4 0.0000 0.0000 0.0000 1244.0305 0.0000-1656.3214
# 5 6.7650 2.2021 -3.7122 0.0000 39.4377 0.0000
# 6 0.0000 0.0000 0.0000-1656.3214 0.0000 2267.2072
#
#
#
# Elastic Compliance Matrix: (Units=1/GPa)
#
#
# Indices 1 2 3 4 5 6 
#
# 1 0.011070 -0.001538 -0.002680 0.000000 -0.002065 0.000000
# 2 -0.001538 0.016763 -0.004396 0.000000 -0.001086 0.000000
# 3 -0.002680 -0.004396 0.011768 0.000000 0.001813 0.000000
# 4 0.000000 0.000000 0.000000 0.029416 0.000000 0.021490
# 5 -0.002065 -0.001086 0.001813 0.000000 0.025942 0.000000
# 6 0.000000 0.000000 0.000000 0.021490 0.000000 0.016141
#
#
# Mechanical properties :
#
#
# Convention : Reuss Voigt Hill
#
# Bulk Modulus (GPa) = 44.69547 46.93545 45.81546
# Shear Modulus (GPa) = 36.82324 723.34024 380.08174
#
# Velocity S-wave (km/s) = 4.25197 18.84517 13.66052
# Velocity P-wave (km/s) = 6.78601 22.28373 16.47140
#
# Compressibility (1/GPa) = 0.02237363
#
# Stress axis : x y z
#
# Youngs Moduli (GPa) = 90.33784 59.65530 84.97581
#
# Poissons Ratio (x) = 0.09174 0.22772
# Poissons Ratio (y) = 0.13893 0.37354
# Poissons Ratio (z) = 0.24209 0.26223
#
# Static dielectric constant tensor:
#      x y z
#    x 3.691990 0.000000 -0.069970 
#    y 0.000000 3.292470 0.000000 
#    z -0.069970 0.000000 3.873070 
# 
# 
# High freq. dielectric constant tensor:
#      x y z
#    x 1.794120 0.000000 0.004760 
#    y 0.000000 1.778700 0.000000 
#    z 0.004760 0.000000 1.813320 
# 
# From -- ./inp_files/175248.got.cif
#   From: 2010.06.25/outbox.cif.g09.slc.cpg/sg12_88_cif.got.tgz:175248.got - 2010.06.28 00:19:55.
