data_PCOD8092034
_publ_section_title
;
Structure prediction by ZEFSAII (Michael W. Deem and Ramdas Pophale) SiO2 
 PCOD8092034
Probable space group: C 2/M
;
_chemical_formula_sum "Si O2"
_cell_formula_units_Z 52
_cell_length_a 21.876745
_cell_length_b 13.751856
_cell_length_c 12.575263
_cell_angle_alpha 90.000000
_cell_angle_beta 136.307705
_cell_angle_gamma 90.000000
_cell_volume 2613.389310
_symmetry_space_group_name_H-M "C 2/M"
_symmetry_group_IT_number 12
_symmetry_cell_setting 'monoclinic'
loop_
_space_group_symop_operation_xyz
x,y,z
-x,y,-z
-x,-y,-z
x,-y,z
1/2+x,1/2+y,z
1/2-x,1/2+y,-z
1/2-x,1/2-y,-z
1/2+x,1/2-y,z
loop_
_atom_site_type_symbol
_atom_site_label
_atom_site_fract_x
_atom_site_fract_y
_atom_site_fract_z
Si Si1 0.209488 0.612993 0.927963
Si Si2 0.179358 0.111463 0.587763
Si Si3 0.000000 0.255421 0.000000
Si Si4 0.358446 0.888990 0.923748
Si Si5 0.426637 0.608578 0.754087
Si Si6 0.591620 0.608516 0.817575
Si Si7 0.590587 0.247091 0.641448
O O1 0.194613 0.500000 0.888860
O O2 0.155571 0.668686 0.771234
O O3 0.183556 0.642041 0.015759
O O4 0.309926 0.645988 0.031490
O O5 0.285049 0.121450 0.737866
O O6 0.149648 0.131638 0.428684
O O7 0.134620 0.194329 0.601255
O O8 0.150279 0.000000 0.581767
O O9 0.056293 0.322431 0.990813
O O10 0.072903 0.189003 0.152790
O O11 0.391923 0.000000 0.971564
O O12 0.409824 0.500000 0.779486
O O13 0.526385 0.613212 0.834681
O O14 0.599358 0.500000 0.781560
O O15 0.552768 0.674859 0.677155
O O16 0.500000 0.189905 0.500000
#
# Coordination Sequence:
#
# PCOD8092034 Si02
#       7
#     8   8   4   8   8   8   8
#     4  10  22  38  57  83 118 153 187 228 278 335
#     4  10  21  37  58  85 116 146 183 234 285 335
#     4  12  24  38  62  82 110 152 196 240 278 326
#     4  10  22  40  61  82 109 151 197 239 275 321
#     4  10  22  38  58  87 119 147 183 230 290 342
#     4  10  19  34  58  88 116 143 179 229 283 342
#     4  12  21  30  56  88 120 147 182 221 282 344
#
# _framework density 19.897532999999999
#
# number of rings (size 3 to 8) (size 9 to 14) (size 15 to 20)
#    0.000    1.538    3.077    2.308    2.154    1.538 
#    0.000    0.000    0.000    0.000    0.000    0.000 
#    0.000    0.000    0.000    0.000    0.000    0.000 
#
# Total GULP energy -322277.968396 kJ/mol
# GULP energy per Si atom -12395.306477 kJ/mol
# Density = 1.985225 g / cm^3
# Si number density = 19.897533 Si / 1000 Ang^3
#
#
#
# Elastic Constant Matrix: (Units=GPa)
#
#
# Indices 1 2 3 4 5 6 
#
# 1 24.6914 15.3873 5.2930 0.0000 8.2061 0.0000
# 2 15.3873 73.0935 42.3053 0.0000 -3.4286 0.0000
# 3 5.2930 42.3053 111.9929 0.0000 7.3982 0.0000
# 4 0.0000 0.0000 0.0000 33.5821 0.0000 -0.5537
# 5 8.2061 -3.4286 7.3982 0.0000 25.8268 0.0000
# 6 0.0000 0.0000 0.0000 -0.5537 0.0000 21.1201
#
#
#
# Elastic Compliance Matrix: (Units=1/GPa)
#
#
# Indices 1 2 3 4 5 6 
#
# 1 0.056230 -0.015495 0.004599 0.000000 -0.021241 0.000000
# 2 -0.015495 0.022261 -0.008355 0.000000 0.010272 0.000000
# 3 0.004599 -0.008355 0.012270 0.000000 -0.006085 0.000000
# 4 0.000000 0.000000 0.000000 0.029791 0.000000 0.000781
# 5 -0.021241 0.010272 -0.006085 0.000000 0.048575 0.000000
# 6 0.000000 0.000000 0.000000 0.000781 0.000000 0.047369
#
#
# Mechanical properties :
#
#
# Convention : Reuss Voigt Hill
#
# Bulk Modulus (GPa) = 19.13611 37.30546 28.22079
# Shear Modulus (GPa) = 18.35417 25.89193 22.12305
#
# Velocity S-wave (km/s) = 3.04046 3.61122 3.33806
# Velocity P-wave (km/s) = 4.68658 6.01476 5.39172
#
# Compressibility (1/GPa) = 0.05225723
#
# Stress axis : x y z
#
# Youngs Moduli (GPa) = 17.78418 44.92188 81.49977
#
# Poissons Ratio (x) = 0.69608 -0.37482
# Poissons Ratio (y) = 0.27557 0.68095
# Poissons Ratio (z) = -0.08179 0.37533
#
# Static dielectric constant tensor:
#      x y z
#    x 3.314890 0.000000 0.101860 
#    y 0.000000 3.722770 0.000000 
#    z 0.101860 0.000000 3.671410 
# 
# 
# High freq. dielectric constant tensor:
#      x y z
#    x 1.746770 0.000000 0.010780 
#    y 0.000000 1.782870 0.000000 
#    z 0.010780 0.000000 1.781170 
# 
# From -- ./inp_files/176502.got.cif
#   From: 2010.06.25/outbox.cif.g09.slc.cpg/sg12_89_cif.got.tgz:176502.got - 2010.06.28 00:19:55.
