data_PCOD8092312
_publ_section_title
;
Structure prediction by ZEFSAII (Michael W. Deem and Ramdas Pophale) SiO2 
 PCOD8092312
Probable space group: C 2/M
;
_chemical_formula_sum "Si O2"
_cell_formula_units_Z 28
_cell_length_a 7.836375
_cell_length_b 21.660218
_cell_length_c 8.566629
_cell_angle_alpha 90.000000
_cell_angle_beta 93.094900
_cell_angle_gamma 90.000000
_cell_volume 1451.958165
_symmetry_space_group_name_H-M "C 2/M"
_symmetry_group_IT_number 12
_symmetry_cell_setting 'monoclinic'
loop_
_space_group_symop_operation_xyz
x,y,z
-x,y,-z
-x,-y,-z
x,-y,z
1/2+x,1/2+y,z
1/2-x,1/2+y,-z
1/2-x,1/2-y,-z
1/2+x,1/2-y,z
loop_
_atom_site_type_symbol
_atom_site_label
_atom_site_fract_x
_atom_site_fract_y
_atom_site_fract_z
Si Si1 0.672372 0.244462 0.170266
Si Si2 0.674025 0.429819 0.913631
Si Si3 0.500000 0.855548 0.000000
Si Si4 0.557066 0.333337 0.677400
O O1 0.526361 0.190338 0.150792
O O2 0.599969 0.310369 0.221377
O O3 0.806007 0.222064 0.307552
O O4 0.750000 0.250000 0.000000
O O5 0.726584 0.500000 0.880491
O O6 0.830657 0.397595 0.014336
O O7 0.638960 0.395944 0.747898
O O8 0.500000 0.426184 0.000000
O O9 0.500000 0.346297 0.500000
#
# Coordination Sequence:
#
# PCOD8092312 Si02
#       4
#     8   8   4   8
#     4  11  19  35  57  84 113 150 187 233 288 349
#     4  10  22  38  59  82 109 154 204 241 278 338
#     4  10  19  34  62  84 111 142 192 246 280 332
#     4  11  22  34  54  86 117 147 183 237 301 347
#
# _framework density 19.284303000000001
#
# number of rings (size 3 to 8) (size 9 to 14) (size 15 to 20)
#    0.000    1.429    2.857    4.714    0.000    0.571 
#    0.000    0.000    0.000    0.000    0.000   12.000 
#    0.000    0.000    0.000    0.000    0.000    0.000 
#
# Total GULP energy -173467.514498 kJ/mol
# GULP energy per Si atom -12390.536750 kJ/mol
# Density = 1.924041 g / cm^3
# Si number density = 19.284303 Si / 1000 Ang^3
#
#
#
# Elastic Constant Matrix: (Units=GPa)
#
#
# Indices 1 2 3 4 5 6 
#
# 1 92.0597 36.3541 42.7158 0.0000 14.6530 0.0000
# 2 36.3541 118.5003 36.4936 0.0000 1.2153 0.0000
# 3 42.7158 36.4936 99.9581 0.0000 17.2735 0.0000
# 4 0.0000 0.0000 0.0000 18.0058 0.0000 0.8732
# 5 14.6530 1.2153 17.2735 0.0000 29.3202 0.0000
# 6 0.0000 0.0000 0.0000 0.8732 0.0000 37.3476
#
#
#
# Elastic Compliance Matrix: (Units=1/GPa)
#
#
# Indices 1 2 3 4 5 6 
#
# 1 0.014907 -0.003171 -0.004395 0.000000 -0.004729 0.000000
# 2 -0.003171 0.010272 -0.002890 0.000000 0.002861 0.000000
# 3 -0.004395 -0.002890 0.013958 0.000000 -0.005907 0.000000
# 4 0.000000 0.000000 0.000000 0.055601 0.000000 -0.001300
# 5 -0.004729 0.002861 -0.005907 0.000000 0.039831 0.000000
# 6 0.000000 0.000000 0.000000 -0.001300 0.000000 0.026806
#
#
# Mechanical properties :
#
#
# Convention : Reuss Voigt Hill
#
# Bulk Modulus (GPa) = 54.86907 60.18279 57.52593
# Shear Modulus (GPa) = 26.54466 29.93170 28.23818
#
# Velocity S-wave (km/s) = 3.71413 3.94398 3.83078
# Velocity P-wave (km/s) = 6.84891 7.21220 7.03290
#
# Compressibility (1/GPa) = 0.01822520
#
# Stress axis : x y z
#
# Youngs Moduli (GPa) = 67.08292 97.35023 71.64256
#
# Poissons Ratio (x) = 0.30871 0.31489
# Poissons Ratio (y) = 0.21273 0.20702
# Poissons Ratio (z) = 0.29485 0.28130
#
# Static dielectric constant tensor:
#      x y z
#    x 4.019000 0.000000 0.286970 
#    y 0.000000 3.866120 0.000000 
#    z 0.286970 0.000000 3.037660 
# 
# 
# High freq. dielectric constant tensor:
#      x y z
#    x 1.773340 0.000000 0.024190 
#    y 0.000000 1.752390 0.000000 
#    z 0.024190 0.000000 1.705500 
# 
# From -- ./inp_files/37247.got.cif
#   From: 2010.06.25/outbox.cif.g09.slc.cpg/sg12_19_cif.got.tgz:37247.got - 2010.06.28 00:19:55.
