data_PCOD8092906
_publ_section_title
;
Structure prediction by ZEFSAII (Michael W. Deem and Ramdas Pophale) SiO2 
 PCOD8092906
Probable space group: C 2/M
;
_chemical_formula_sum "Si O2"
_cell_formula_units_Z 44
_cell_length_a 17.243495
_cell_length_b 12.095172
_cell_length_c 11.164353
_cell_angle_alpha 90.000000
_cell_angle_beta 68.526562
_cell_angle_gamma 90.000000
_cell_volume 2166.846069
_symmetry_space_group_name_H-M "C 2/M"
_symmetry_group_IT_number 12
_symmetry_cell_setting 'monoclinic'
loop_
_space_group_symop_operation_xyz
x,y,z
-x,y,-z
-x,-y,-z
x,-y,z
1/2+x,1/2+y,z
1/2-x,1/2+y,-z
1/2-x,1/2-y,-z
1/2+x,1/2-y,z
loop_
_atom_site_type_symbol
_atom_site_label
_atom_site_fract_x
_atom_site_fract_y
_atom_site_fract_z
Si Si1 0.034293 0.627285 0.233268
Si Si2 0.285107 0.771461 0.849125
Si Si3 0.368035 0.624453 0.161999
Si Si4 0.624079 0.756003 0.610609
Si Si5 0.500000 0.215014 0.000000
Si Si6 0.278300 0.371512 0.633409
O O1 0.043854 0.500000 0.263308
O O2 0.120643 0.689039 0.202855
O O3 0.004021 0.636939 0.113095
O O4 0.964674 0.683992 0.356980
O O5 0.229367 0.865321 0.816174
O O6 0.276996 0.659441 0.774894
O O7 0.250000 0.750000 0.000000
O O8 0.398560 0.500000 0.123821
O O9 0.383408 0.655404 0.291315
O O10 0.419000 0.706605 0.047021
O O11 0.651032 0.703789 0.469172
O O12 0.689739 0.846997 0.621174
O O13 0.299476 0.500000 0.607920
#
# Coordination Sequence:
#
# PCOD8092906 Si02
#       6
#     8   8   8   8   4   8
#     4  11  22  39  61  86 120 158 196 253 306 348
#     4  11  23  40  55  89 126 156 205 243 288 368
#     4  10  19  35  58  83 120 159 191 243 301 345
#     4   9  21  39  62  94 118 147 212 252 290 366
#     4  10  20  36  56  88 116 148 208 246 282 366
#     4  10  21  41  66  88 121 162 197 250 306 353
#
# _framework density 20.306011999999999
#
# number of rings (size 3 to 8) (size 9 to 14) (size 15 to 20)
#    0.000    1.818    1.818    2.182    0.000    2.182 
#    0.000    6.364    0.000    0.000    0.000    0.000 
#    0.000    0.000    0.000    0.000    0.000    0.000 
#
# Total GULP energy -272858.141422 kJ/mol
# GULP energy per Si atom -12402.642792 kJ/mol
# Density = 2.025979 g / cm^3
# Si number density = 20.306012 Si / 1000 Ang^3
#
#
#
# Elastic Constant Matrix: (Units=GPa)
#
#
# Indices 1 2 3 4 5 6 
#
# 1 114.4876 41.4346 30.4783 0.0000 -24.4456 0.0000
# 2 41.4346 116.0521 37.8700 0.0000 -4.1443 0.0000
# 3 30.4783 37.8700 108.9887 0.0000 -11.8551 0.0000
# 4 0.0000 0.0000 0.0000 15.1499 0.0000 -1.6368
# 5 -24.4456 -4.1443 -11.8551 0.0000 34.7939 0.0000
# 6 0.0000 0.0000 0.0000 -1.6368 0.0000 14.7988
#
#
#
# Elastic Compliance Matrix: (Units=1/GPa)
#
#
# Indices 1 2 3 4 5 6 
#
# 1 0.011990 -0.003592 -0.001283 0.000000 0.007559 0.000000
# 2 -0.003592 0.010795 -0.002992 0.000000 -0.002258 0.000000
# 3 -0.001283 -0.002992 0.010838 0.000000 0.002435 0.000000
# 4 0.000000 0.000000 0.000000 0.066805 0.000000 0.007389
# 5 0.007559 -0.002258 0.002435 0.000000 0.034613 0.000000
# 6 0.000000 0.000000 0.000000 0.007389 0.000000 0.068390
#
#
# Mechanical properties :
#
#
# Convention : Reuss Voigt Hill
#
# Bulk Modulus (GPa) = 55.89710 62.12159 59.00935
# Shear Modulus (GPa) = 22.20946 28.26487 25.23716
#
# Velocity S-wave (km/s) = 3.31076 3.73493 3.52922
# Velocity P-wave (km/s) = 6.49630 7.01845 6.76242
#
# Compressibility (1/GPa) = 0.01789002
#
# Stress axis : x y z
#
# Youngs Moduli (GPa) = 83.40127 92.63417 92.26433
#
# Poissons Ratio (x) = 0.33279 0.11833
# Poissons Ratio (y) = 0.29962 0.27605
# Poissons Ratio (z) = 0.10696 0.27715
#
# Static dielectric constant tensor:
#      x y z
#    x 3.702400 0.000000 -0.182560 
#    y 0.000000 3.451480 0.000000 
#    z -0.182560 0.000000 3.768800 
# 
# 
# High freq. dielectric constant tensor:
#      x y z
#    x 1.793380 0.000000 -0.013030 
#    y 0.000000 1.781270 0.000000 
#    z -0.013030 0.000000 1.796970 
# 
# From -- ./inp_files/153419.got.cif
#   From: 2010.06.25/outbox.cif.g09.slc.cpg/sg12_77_cif.got.tgz:153419.got - 2010.06.28 00:19:55.
