data_PCOD8092911
_publ_section_title
;
Structure prediction by ZEFSAII (Michael W. Deem and Ramdas Pophale) SiO2 
 PCOD8092911
Probable space group: C 2/M
;
_chemical_formula_sum "Si O2"
_cell_formula_units_Z 56
_cell_length_a 13.656806
_cell_length_b 14.339751
_cell_length_c 16.811394
_cell_angle_alpha 90.000000
_cell_angle_beta 65.261445
_cell_angle_gamma 90.000000
_cell_volume 2990.121132
_symmetry_space_group_name_H-M "C 2/M"
_symmetry_group_IT_number 12
_symmetry_cell_setting 'monoclinic'
loop_
_space_group_symop_operation_xyz
x,y,z
-x,y,-z
-x,-y,-z
x,-y,z
1/2+x,1/2+y,z
1/2-x,1/2+y,-z
1/2-x,1/2-y,-z
1/2+x,1/2-y,z
loop_
_atom_site_type_symbol
_atom_site_label
_atom_site_fract_x
_atom_site_fract_y
_atom_site_fract_z
Si Si1 0.504187 0.389844 0.409669
Si Si2 0.332492 0.607613 0.346512
Si Si3 0.408126 0.891309 0.593722
Si Si4 0.588776 0.742294 0.108953
Si Si5 0.866994 0.762199 0.729932
Si Si6 0.769294 0.890649 0.039946
Si Si7 0.357423 0.309689 0.168435
O O1 0.500000 0.349369 0.500000
O O2 0.510095 0.500000 0.409056
O O3 0.404521 0.346843 0.392221
O O4 0.612804 0.351052 0.332847
O O5 0.355117 0.500000 0.347215
O O6 0.207813 0.631279 0.406233
O O7 0.370522 0.633674 0.245283
O O8 0.500000 0.861919 0.500000
O O9 0.414131 0.831877 0.672710
O O10 0.418472 0.000000 0.613888
O O11 0.571101 0.726491 0.208376
O O12 0.653178 0.838930 0.072595
O O13 0.468992 0.744556 0.110671
O O14 0.652795 0.653763 0.052419
O O15 0.738934 0.763971 0.788481
O O16 0.824111 0.878161 0.107746
O O17 0.752711 0.000000 0.028394
#
# Coordination Sequence:
#
# PCOD8092911 Si02
#       7
#     8   8   8   8   8   8   8
#     4  10  20  35  52  73 107 147 190 228 263 319
#     4   9  17  31  54  79 103 139 182 228 273 315
#     4   9  18  34  55  82 111 139 181 235 282 327
#     4  10  21  37  56  85 119 143 180 234 289 337
#     4  10  20  35  54  79 111 147 182 223 279 331
#     4  10  22  38  61  88 113 146 189 235 286 341
#     4  10  19  35  58  84 112 141 183 233 281 338
#
# _framework density 18.728338999999998
#
# number of rings (size 3 to 8) (size 9 to 14) (size 15 to 20)
#    0.000    2.286    1.429    1.286    0.000    5.714 
#    2.571    2.857    0.000   11.143    0.000    0.000 
#    0.000    0.000    0.000    0.000    0.000    0.000 
#
# Total GULP energy -347057.658240 kJ/mol
# GULP energy per Si atom -12394.916366 kJ/mol
# Density = 1.868571 g / cm^3
# Si number density = 18.728339 Si / 1000 Ang^3
#
#
#
# Elastic Constant Matrix: (Units=GPa)
#
#
# Indices 1 2 3 4 5 6 
#
# 1 75.2298 52.1150 44.8405 0.0000 -15.7395 0.0000
# 2 52.1150 74.4549 43.6348 0.0000 -3.7594 0.0000
# 3 44.8405 43.6348 108.2439 0.0000 0.9680 0.0000
# 4 0.0000 0.0000 0.0000 27.5655 0.0000 2.4041
# 5 -15.7395 -3.7594 0.9680 0.0000 33.3204 0.0000
# 6 0.0000 0.0000 0.0000 2.4041 0.0000 17.3777
#
#
#
# Elastic Compliance Matrix: (Units=1/GPa)
#
#
# Indices 1 2 3 4 5 6 
#
# 1 0.032649 -0.018558 -0.006165 0.000000 0.013508 0.000000
# 2 -0.018558 0.028295 -0.003670 0.000000 -0.005467 0.000000
# 3 -0.006165 -0.003670 0.013305 0.000000 -0.003713 0.000000
# 4 0.000000 0.000000 0.000000 0.036720 0.000000 -0.005080
# 5 0.013508 -0.005467 -0.003713 0.000000 0.035883 0.000000
# 6 0.000000 0.000000 0.000000 -0.005080 0.000000 0.058248
#
#
# Mechanical properties :
#
#
# Convention : Reuss Voigt Hill
#
# Bulk Modulus (GPa) = 57.25996 59.90103 58.58050
# Shear Modulus (GPa) = 18.67716 23.47526 21.07621
#
# Velocity S-wave (km/s) = 3.16138 3.54427 3.35829
# Velocity P-wave (km/s) = 6.63069 6.98589 6.81061
#
# Compressibility (1/GPa) = 0.01746421
#
# Stress axis : x y z
#
# Youngs Moduli (GPa) = 30.62873 35.34171 75.16131
#
# Poissons Ratio (x) = 0.65587 0.46336
# Poissons Ratio (y) = 0.56840 0.27582
# Poissons Ratio (z) = 0.18882 0.12969
#
# Static dielectric constant tensor:
#      x y z
#    x 3.623630 0.000000 0.071720 
#    y 0.000000 3.202770 0.000000 
#    z 0.071720 0.000000 3.629720 
# 
# 
# High freq. dielectric constant tensor:
#      x y z
#    x 1.727170 0.000000 -0.001880 
#    y 0.000000 1.705680 0.000000 
#    z -0.001880 0.000000 1.740730 
# 
# From -- ./inp_files/262860.got.cif
#   From: 2010.06.25/outbox.cif.g09.slc.cpg/sg12_132_cif.got.tgz:262860.got - 2010.06.28 00:19:55.
