data_PCOD8092573
_publ_section_title
;
Structure prediction by ZEFSAII (Michael W. Deem and Ramdas Pophale) SiO2 
 PCOD8092573
Probable space group: C 2/M
;
_chemical_formula_sum "Si O2"
_cell_formula_units_Z 48
_cell_length_a 23.450839
_cell_length_b 8.862125
_cell_length_c 17.311586
_cell_angle_alpha 90.000000
_cell_angle_beta 132.909433
_cell_angle_gamma 90.000000
_cell_volume 2635.115910
_symmetry_space_group_name_H-M "C 2/M"
_symmetry_group_IT_number 12
_symmetry_cell_setting 'monoclinic'
loop_
_space_group_symop_operation_xyz
x,y,z
-x,y,-z
-x,-y,-z
x,-y,z
1/2+x,1/2+y,z
1/2-x,1/2+y,-z
1/2-x,1/2-y,-z
1/2+x,1/2-y,z
loop_
_atom_site_type_symbol
_atom_site_label
_atom_site_fract_x
_atom_site_fract_y
_atom_site_fract_z
Si Si1 0.010112 0.322787 0.793604
Si Si2 0.559958 0.678704 0.120793
Si Si3 0.621045 0.322055 0.624383
Si Si4 0.184213 0.676207 0.990138
Si Si5 0.293129 0.179545 0.815095
Si Si6 0.012797 0.821426 0.387177
O O1 0.997057 0.500000 0.793140
O O2 0.966494 0.235428 0.820659
O O3 0.974877 0.268943 0.680212
O O4 0.100935 0.279429 0.878679
O O5 0.564653 0.500000 0.125133
O O6 0.645030 0.745876 0.184711
O O7 0.500000 0.737352 0.000000
O O8 0.622480 0.500000 0.633293
O O9 0.708021 0.257577 0.712883
O O10 0.585726 0.277282 0.508829
O O11 0.566060 0.263768 0.643353
O O12 0.199463 0.500000 0.002931
O O13 0.250000 0.750000 0.000000
O O14 0.189074 0.735906 0.082036
O O15 0.298942 0.000000 0.812830
O O16 0.010043 0.000000 0.368225
#
# Coordination Sequence:
#
# PCOD8092573 Si02
#       6
#     8   8   8   8   8   8
#     4  11  22  36  54  80 110 143 180 220 270 323
#     4  11  23  38  56  78 104 142 186 226 270 321
#     4   8  16  32  58  85 109 143 182 219 267 320
#     4  10  21  33  51  79 110 139 172 215 267 322
#     4  10  19  35  56  79 108 142 179 221 270 320
#     4   9  17  34  58  83 111 144 182 221 262 317
#
# _framework density 18.215517999999999
#
# number of rings (size 3 to 8) (size 9 to 14) (size 15 to 20)
#    0.000    2.167    1.667    3.000    0.000    4.000 
#    0.000    4.167    0.000    0.000    0.000    0.000 
#    0.000    0.000    0.000    0.000    0.000    0.000 
#
# Total GULP energy -297636.536838 kJ/mol
# GULP energy per Si atom -12401.522368 kJ/mol
# Density = 1.817406 g / cm^3
# Si number density = 18.215518 Si / 1000 Ang^3
#
#
#
# Elastic Constant Matrix: (Units=GPa)
#
#
# Indices 1 2 3 4 5 6 
#
# 1 101.9695 26.7916 36.1734 0.0000 -8.6689 0.0000
# 2 26.7916 34.1169 23.5894 0.0000 1.5595 0.0000
# 3 36.1734 23.5894 100.4766 0.0000 -8.6792 0.0000
# 4 0.0000 0.0000 0.0000 20.9103 0.0000 -0.0076
# 5 -8.6689 1.5595 -8.6792 0.0000 31.3727 0.0000
# 6 0.0000 0.0000 0.0000 -0.0076 0.0000 31.0852
#
#
#
# Elastic Compliance Matrix: (Units=1/GPa)
#
#
# Indices 1 2 3 4 5 6 
#
# 1 0.013300 -0.008951 -0.002388 0.000000 0.003459 0.000000
# 2 -0.008951 0.041541 -0.007092 0.000000 -0.006500 0.000000
# 3 -0.002388 -0.007092 0.012755 0.000000 0.003221 0.000000
# 4 0.000000 0.000000 0.000000 0.047823 0.000000 0.000012
# 5 0.003459 -0.006500 0.003221 0.000000 0.034045 0.000000
# 6 0.000000 0.000000 0.000000 0.000012 0.000000 0.032170
#
#
# Mechanical properties :
#
#
# Convention : Reuss Voigt Hill
#
# Bulk Modulus (GPa) = 32.53664 45.51909 39.02787
# Shear Modulus (GPa) = 21.85882 26.67422 24.26652
#
# Velocity S-wave (km/s) = 3.46788 3.83086 3.65388
# Velocity P-wave (km/s) = 5.82544 6.67913 6.26683
#
# Compressibility (1/GPa) = 0.03073458
#
# Stress axis : x y z
#
# Youngs Moduli (GPa) = 75.18845 24.07273 78.39801
#
# Poissons Ratio (x) = 0.21548 0.18720
# Poissons Ratio (y) = 0.67304 0.55597
# Poissons Ratio (z) = 0.17954 0.17071
#
# Static dielectric constant tensor:
#      x y z
#    x 3.314660 0.000000 0.197040 
#    y 0.000000 3.115490 0.000000 
#    z 0.197040 0.000000 3.634390 
# 
# 
# High freq. dielectric constant tensor:
#      x y z
#    x 1.709090 0.000000 -0.001020 
#    y 0.000000 1.686890 0.000000 
#    z -0.001020 0.000000 1.710490 
# 
# From -- ./inp_files/281818.got.cif
#   From: 2010.06.25/outbox.cif.g09.slc.cpg/sg12_141_cif.got.tgz:281818.got - 2010.06.28 00:19:55.
