data_PCOD8092855
_publ_section_title
;
Structure prediction by ZEFSAII (Michael W. Deem and Ramdas Pophale) SiO2 
 PCOD8092855
Probable space group: C 2/M
;
_chemical_formula_sum "Si O2"
_cell_formula_units_Z 64
_cell_length_a 24.564074
_cell_length_b 9.193910
_cell_length_c 14.469820
_cell_angle_alpha 90.000000
_cell_angle_beta 90.498752
_cell_angle_gamma 90.000000
_cell_volume 3267.738683
_symmetry_space_group_name_H-M "C 2/M"
_symmetry_group_IT_number 12
_symmetry_cell_setting 'monoclinic'
loop_
_space_group_symop_operation_xyz
x,y,z
-x,y,-z
-x,-y,-z
x,-y,z
1/2+x,1/2+y,z
1/2-x,1/2+y,-z
1/2-x,1/2-y,-z
1/2+x,1/2-y,z
loop_
_atom_site_type_symbol
_atom_site_label
_atom_site_fract_x
_atom_site_fract_y
_atom_site_fract_z
Si Si1 0.307478 0.171385 0.984800
Si Si2 0.141706 0.163623 0.856873
Si Si3 0.438566 0.666597 0.674241
Si Si4 0.203812 0.337337 0.549262
Si Si5 0.916197 0.333904 0.491838
Si Si6 0.061015 0.833666 0.695448
Si Si7 0.345930 0.169507 0.780988
Si Si8 0.270196 0.661457 0.286145
O O1 0.353672 0.228008 0.056741
O O2 0.298160 0.000000 0.997291
O O3 0.250000 0.250000 0.000000
O O4 0.333219 0.209446 0.886290
O O5 0.096680 0.221404 0.783111
O O6 0.202063 0.161509 0.813428
O O7 0.126412 0.000000 0.889397
O O8 0.421281 0.500000 0.656207
O O9 0.443831 0.746474 0.575427
O O10 0.497689 0.675668 0.722840
O O11 0.396243 0.738981 0.743624
O O12 0.224438 0.500000 0.562512
O O13 0.250000 0.250000 0.500000
O O14 0.148420 0.330114 0.490529
O O15 0.194788 0.268912 0.649963
O O16 0.937489 0.500000 0.492610
O O17 0.929106 0.264650 0.393561
O O18 0.078019 0.000000 0.672085
O O19 0.292389 0.210950 0.721407
O O20 0.360117 0.000000 0.770253
O O21 0.272532 0.500000 0.329789
#
# Coordination Sequence:
#
# PCOD8092855 Si02
#       8
#     8   8   8   8   8   8   8   8
#     4  11  22  38  62  92 123 155 194 239 291 354
#     4  10  20  38  62  88 117 151 188 240 297 342
#     4  11  24  40  60  87 115 154 203 246 291 346
#     4  11  23  35  50  79 116 153 194 235 286 348
#     4  11  23  38  58  86 118 155 199 244 292 349
#     4  10  22  41  63  86 117 155 200 247 292 344
#     4  10  22  40  59  85 120 155 191 237 293 352
#     4  10  19  35  58  81 112 152 189 230 291 347
#
# _framework density 19.585411000000001
#
# number of rings (size 3 to 8) (size 9 to 14) (size 15 to 20)
#    0.000    1.500    2.500    2.625    0.000    9.500 
#    0.000    0.625    0.000    3.750    0.000    0.000 
#    0.000    0.000    0.000    0.000    0.000    0.000 
#
# Total GULP energy -396818.988298 kJ/mol
# GULP energy per Si atom -12400.593384 kJ/mol
# Density = 1.954083 g / cm^3
# Si number density = 19.585411 Si / 1000 Ang^3
#
#
#
# Elastic Constant Matrix: (Units=GPa)
#
#
# Indices 1 2 3 4 5 6 
#
# 1 99.1078 41.1287 33.6275 0.0000 8.9080 0.0000
# 2 41.1287 113.4453 53.7928 0.0000 8.1902 0.0000
# 3 33.6275 53.7928 93.7657 0.0000 15.1139 0.0000
# 4 0.0000 0.0000 0.0000 38.6318 0.0000 -0.0174
# 5 8.9080 8.1902 15.1139 0.0000 22.5449 0.0000
# 6 0.0000 0.0000 0.0000 -0.0174 0.0000 27.7314
#
#
#
# Elastic Compliance Matrix: (Units=1/GPa)
#
#
# Indices 1 2 3 4 5 6 
#
# 1 0.012403 -0.003293 -0.002200 0.000000 -0.002230 0.000000
# 2 -0.003293 0.012985 -0.006410 0.000000 0.000881 0.000000
# 3 -0.002200 -0.006410 0.016387 0.000000 -0.007788 0.000000
# 4 0.000000 0.000000 0.000000 0.025885 0.000000 0.000016
# 5 -0.002230 0.000881 -0.007788 0.000000 0.050138 0.000000
# 6 0.000000 0.000000 0.000000 0.000016 0.000000 0.036060
#
#
# Mechanical properties :
#
#
# Convention : Reuss Voigt Hill
#
# Bulk Modulus (GPa) = 55.65199 62.60186 59.12693
# Shear Modulus (GPa) = 27.22527 29.63292 28.42909
#
# Velocity S-wave (km/s) = 3.73242 3.89396 3.81405
# Velocity P-wave (km/s) = 6.85940 7.22843 7.04633
#
# Compressibility (1/GPa) = 0.01796881
#
# Stress axis : x y z
#
# Youngs Moduli (GPa) = 80.62393 77.01466 61.02527
#
# Poissons Ratio (x) = 0.25358 0.13425
# Poissons Ratio (y) = 0.26546 0.39119
# Poissons Ratio (z) = 0.17736 0.49369
#
# Static dielectric constant tensor:
#      x y z
#    x 3.593070 0.000000 0.164400 
#    y 0.000000 3.225350 0.000000 
#    z 0.164400 0.000000 3.637010 
# 
# 
# High freq. dielectric constant tensor:
#      x y z
#    x 1.765450 0.000000 0.007720 
#    y 0.000000 1.766400 0.000000 
#    z 0.007720 0.000000 1.755990 
# 
# From -- ./inp_files/238759.got.cif
#   From: 2010.06.25/outbox.cif.g09.slc.cpg/sg12_120_cif.got.tgz:238759.got - 2010.06.28 00:19:55.
