data_PCOD8092405
_publ_section_title
;
Structure prediction by ZEFSAII (Michael W. Deem and Ramdas Pophale) SiO2 
 PCOD8092405
Probable space group: C 2/M
;
_chemical_formula_sum "Si O2"
_cell_formula_units_Z 56
_cell_length_a 8.819899
_cell_length_b 19.672467
_cell_length_c 23.011230
_cell_angle_alpha 90.000000
_cell_angle_beta 49.946523
_cell_angle_gamma 90.000000
_cell_volume 3056.157886
_symmetry_space_group_name_H-M "C 2/M"
_symmetry_group_IT_number 12
_symmetry_cell_setting 'monoclinic'
loop_
_space_group_symop_operation_xyz
x,y,z
-x,y,-z
-x,-y,-z
x,-y,z
1/2+x,1/2+y,z
1/2-x,1/2+y,-z
1/2-x,1/2-y,-z
1/2+x,1/2-y,z
loop_
_atom_site_type_symbol
_atom_site_label
_atom_site_fract_x
_atom_site_fract_y
_atom_site_fract_z
Si Si1 0.114568 0.577825 0.413912
Si Si2 0.850367 0.690827 0.268302
Si Si3 0.378746 0.333261 0.942430
Si Si4 0.477704 0.578072 0.186393
Si Si5 0.926834 0.923359 0.708263
Si Si6 0.222969 0.701688 0.096349
Si Si7 0.372892 0.830751 0.695813
O O1 0.064641 0.500000 0.408051
O O2 0.347747 0.585453 0.367740
O O3 0.046017 0.629512 0.380594
O O4 0.000000 0.599194 0.500000
O O5 0.703956 0.627950 0.296311
O O6 0.735238 0.761361 0.294599
O O7 0.015788 0.685876 0.177565
O O8 0.941345 0.686075 0.309751
O O9 0.387109 0.401985 0.902176
O O10 0.599665 0.306113 0.901747
O O11 0.267767 0.278247 0.930002
O O12 0.257735 0.347855 0.031829
O O13 0.416828 0.500000 0.197509
O O14 0.591059 0.593716 0.218669
O O15 0.277259 0.621219 0.232155
O O16 0.852556 0.000000 0.714398
#
# Coordination Sequence:
#
# PCOD8092405 Si02
#       7
#     8   8   8   8   8   8   8
#     4   9  19  40  65  87 115 149 182 220 274 338
#     4  12  21  36  57  84 116 148 186 238 277 331
#     4  10  20  34  52  79 102 143 193 237 284 333
#     4  10  19  35  54  76 110 146 187 236 282 335
#     4   9  21  37  57  83 112 147 185 228 280 334
#     4  10  20  34  52  78 107 142 189 235 286 322
#     4  11  21  34  58  86 110 147 190 225 278 335
#
# _framework density 18.32366
#
# number of rings (size 3 to 8) (size 9 to 14) (size 15 to 20)
#    0.000    1.857    2.857    3.000    2.000    1.143 
#    0.000    5.714    0.000    4.286    0.000    0.000 
#    0.000    0.000    0.000    0.000    0.000    0.000 
#
# Total GULP energy -347188.458889 kJ/mol
# GULP energy per Si atom -12399.587817 kJ/mol
# Density = 1.828195 g / cm^3
# Si number density = 18.323660 Si / 1000 Ang^3
#
#
#
# Elastic Constant Matrix: (Units=GPa)
#
#
# Indices 1 2 3 4 5 6 
#
# 1 113.1070 68.9306 45.5547 -0.0002 10.5441 0.0001
# 2 68.9306 115.0407 51.6136 0.0000 11.9423 0.0000
# 3 45.5547 51.6136 123.8905 0.0002 20.1472 0.0002
# 4 -0.0002 0.0000 0.0002 28.7175 0.0001 4.5375
# 5 10.5441 11.9423 20.1472 0.0001 17.1350 -0.0003
# 6 0.0001 0.0000 0.0002 4.5375 -0.0003 33.9757
#
#
#
# Elastic Compliance Matrix: (Units=1/GPa)
#
#
# Indices 1 2 3 4 5 6 
#
# 1 0.014374 -0.007627 -0.001897 0.000000 -0.001299 0.000000
# 2 -0.007627 0.014843 -0.003042 0.000000 -0.002075 0.000000
# 3 -0.001897 -0.003042 0.011748 0.000000 -0.010526 0.000000
# 4 0.000000 0.000000 0.000000 0.035573 0.000000 -0.004751
# 5 -0.001299 -0.002075 -0.010526 0.000000 0.072982 0.000001
# 6 0.000000 0.000000 0.000000 -0.004751 0.000001 0.030067
#
#
# Mechanical properties :
#
#
# Convention : Reuss Voigt Hill
#
# Bulk Modulus (GPa) = 63.15399 76.02621 69.59010
# Shear Modulus (GPa) = 23.80997 28.36159 26.08578
#
# Velocity S-wave (km/s) = 3.60865 3.93849 3.77717
# Velocity P-wave (km/s) = 7.20442 7.89070 7.55536
#
# Compressibility (1/GPa) = 0.01583431
#
# Stress axis : x y z
#
# Youngs Moduli (GPa) = 69.56830 67.37352 85.12093
#
# Poissons Ratio (x) = 0.51386 0.16145
# Poissons Ratio (y) = 0.53060 0.25891
# Poissons Ratio (z) = 0.13195 0.20492
#
# Static dielectric constant tensor:
#      x y z
#    x 3.288830 0.000000 0.122510 
#    y 0.000000 3.377400 0.000000 
#    z 0.122510 0.000000 3.485810 
# 
# 
# High freq. dielectric constant tensor:
#      x y z
#    x 1.703430 0.000000 0.009860 
#    y 0.000000 1.705440 0.000000 
#    z 0.009860 0.000000 1.705270 
# 
# From -- ./inp_files/257591.got.cif
#   From: 2010.06.25/outbox.cif.g09.slc.cpg/sg12_129_cif.got.tgz:257591.got - 2010.06.28 00:19:55.
