data_PCOD8092829
_publ_section_title
;
Structure prediction by ZEFSAII (Michael W. Deem and Ramdas Pophale) SiO2 
 PCOD8092829
Probable space group: C 2/M
;
_chemical_formula_sum "Si O2"
_cell_formula_units_Z 64
_cell_length_a 9.611671
_cell_length_b 15.034633
_cell_length_c 32.264901
_cell_angle_alpha 90.000000
_cell_angle_beta 137.383340
_cell_angle_gamma 90.000000
_cell_volume 3156.955428
_symmetry_space_group_name_H-M "C 2/M"
_symmetry_group_IT_number 12
_symmetry_cell_setting 'monoclinic'
loop_
_space_group_symop_operation_xyz
x,y,z
-x,y,-z
-x,-y,-z
x,-y,z
1/2+x,1/2+y,z
1/2-x,1/2+y,-z
1/2-x,1/2-y,-z
1/2+x,1/2-y,z
loop_
_atom_site_type_symbol
_atom_site_label
_atom_site_fract_x
_atom_site_fract_y
_atom_site_fract_z
Si Si1 0.837835 0.835083 0.867859
Si Si2 0.550960 0.099012 0.873820
Si Si3 0.701422 0.598234 0.226510
Si Si4 0.470153 0.767399 0.677104
Si Si5 0.514594 0.264548 0.594216
Si Si6 0.344858 0.401550 0.003886
Si Si7 0.651315 0.894359 0.494222
Si Si8 0.137945 0.167507 0.788595
O O1 0.645536 0.845566 0.856625
O O2 0.836761 0.908324 0.831054
O O3 0.804706 0.742998 0.836841
O O4 0.059061 0.838235 0.939439
O O5 0.302889 0.089710 0.816429
O O6 0.643767 0.000000 0.889641
O O7 0.629949 0.134253 0.936761
O O8 0.710829 0.500000 0.247609
O O9 0.516346 0.650188 0.207984
O O10 0.919743 0.643501 0.283501
O O11 0.559987 0.737726 0.652857
O O12 0.228567 0.785692 0.618495
O O13 0.510844 0.688826 0.719151
O O14 0.436052 0.166658 0.562357
O O15 0.367732 0.348410 0.552660
O O16 0.316744 0.500000 0.017244
O O17 0.500000 0.404258 0.000000
O O18 0.500000 0.886637 0.500000
O O19 0.677206 0.000000 0.487585
#
# Coordination Sequence:
#
# PCOD8092829 Si02
#       8
#     8   8   8   8   8   8   8   8
#     4  10  19  35  58  80 107 147 193 244 299 357
#     4  10  20  36  57  79 107 148 196 241 292 360
#     4  11  23  38  57  84 118 153 197 251 300 352
#     4  11  23  41  62  87 122 167 201 236 299 345
#     4  11  22  43  67  93 131 166 198 252 290 341
#     4   8  15  30  53  79 106 140 187 242 298 354
#     4  10  22  41  69 101 130 165 202 241 297 351
#     4  11  23  38  55  81 119 153 191 241 302 354
#
# _framework density 20.272697999999998
#
# number of rings (size 3 to 8) (size 9 to 14) (size 15 to 20)
#    0.000    1.750    2.500    3.750    1.750    1.500 
#    0.000    3.750    0.000    2.250    0.000    0.000 
#    0.000    0.000    0.000    0.000    0.000    0.000 
#
# Total GULP energy -396572.588323 kJ/mol
# GULP energy per Si atom -12392.893385 kJ/mol
# Density = 2.022656 g / cm^3
# Si number density = 20.272698 Si / 1000 Ang^3
#
#
#
# Elastic Constant Matrix: (Units=GPa)
#
#
# Indices 1 2 3 4 5 6 
#
# 1 65.3432 17.9115 35.2159 0.0000 2.9082 0.0000
# 2 17.9115 88.2096 33.5734 0.0000 -1.1941 0.0000
# 3 35.2159 33.5734 112.1498 0.0001 -0.6444 0.0000
# 4 0.0000 0.0000 0.0001 21.4997 0.0000 5.1676
# 5 2.9082 -1.1941 -0.6444 0.0000 36.7329 0.0000
# 6 0.0000 0.0000 0.0000 5.1676 0.0000 19.6606
#
#
#
# Elastic Compliance Matrix: (Units=1/GPa)
#
#
# Indices 1 2 3 4 5 6 
#
# 1 0.018758 -0.001790 -0.005364 0.000000 -0.001637 0.000000
# 2 -0.001790 0.012970 -0.003318 0.000000 0.000505 0.000000
# 3 -0.005364 -0.003318 0.011597 0.000000 0.000520 0.000000
# 4 0.000000 0.000000 0.000000 0.049649 0.000000 -0.013050
# 5 -0.001637 0.000505 0.000520 0.000000 0.027379 0.000000
# 6 0.000000 0.000000 0.000000 -0.013050 0.000000 0.054293
#
#
# Mechanical properties :
#
#
# Convention : Reuss Voigt Hill
#
# Bulk Modulus (GPa) = 44.67795 48.78935 46.73365
# Shear Modulus (GPa) = 24.62464 27.51210 26.06837
#
# Velocity S-wave (km/s) = 3.48899 3.68788 3.58981
# Velocity P-wave (km/s) = 6.19008 6.50021 6.34704
#
# Compressibility (1/GPa) = 0.02238241
#
# Stress axis : x y z
#
# Youngs Moduli (GPa) = 53.31063 77.10321 86.22824
#
# Poissons Ratio (x) = 0.13798 0.46251
# Poissons Ratio (y) = 0.09540 0.28609
# Poissons Ratio (z) = 0.28595 0.25581
#
# Static dielectric constant tensor:
#      x y z
#    x 3.429430 0.000000 0.008550 
#    y 0.000000 3.564550 0.000000 
#    z 0.008550 0.000000 3.946280 
# 
# 
# High freq. dielectric constant tensor:
#      x y z
#    x 1.783890 0.000000 0.003280 
#    y 0.000000 1.781320 0.000000 
#    z 0.003280 0.000000 1.801270 
# 
# From -- ./inp_files/372588.got.cif
#   From: 2010.06.25/outbox.cif.g09.slc.cpg/sg12_187_cif.got.tgz:372588.got - 2010.06.28 00:19:55.
