data_PCOD8092539
_publ_section_title
;
Structure prediction by ZEFSAII (Michael W. Deem and Ramdas Pophale) SiO2 
 PCOD8092539
Probable space group: C 2/M
;
_chemical_formula_sum "Si O2"
_cell_formula_units_Z 64
_cell_length_a 24.600069
_cell_length_b 8.906356
_cell_length_c 29.584756
_cell_angle_alpha 90.000000
_cell_angle_beta 149.184895
_cell_angle_gamma 90.000000
_cell_volume 3320.493956
_symmetry_space_group_name_H-M "C 2/M"
_symmetry_group_IT_number 12
_symmetry_cell_setting 'monoclinic'
loop_
_space_group_symop_operation_xyz
x,y,z
-x,y,-z
-x,-y,-z
x,-y,z
1/2+x,1/2+y,z
1/2-x,1/2+y,-z
1/2-x,1/2-y,-z
1/2+x,1/2-y,z
loop_
_atom_site_type_symbol
_atom_site_label
_atom_site_fract_x
_atom_site_fract_y
_atom_site_fract_z
Si Si1 0.987167 0.822396 0.132756
Si Si2 0.399842 0.677300 0.630451
Si Si3 0.618988 0.823717 0.570497
Si Si4 0.907734 0.178035 0.172757
Si Si5 0.386685 0.826957 0.906485
Si Si6 0.323958 0.176524 0.489319
Si Si7 0.685276 0.173840 0.048831
Si Si8 0.691138 0.178591 0.244495
O O1 0.101905 0.745054 0.213961
O O2 0.930459 0.769769 0.138201
O O3 0.002808 0.000000 0.141912
O O4 0.915492 0.766891 0.040224
O O5 0.405062 0.500000 0.628723
O O6 0.502147 0.742180 0.729579
O O7 0.399825 0.747709 0.580579
O O8 0.297110 0.724333 0.586565
O O9 0.500000 0.782996 0.500000
O O10 0.642302 0.766365 0.536207
O O11 0.694653 0.738424 0.659348
O O12 0.641587 0.000000 0.590306
O O13 0.792965 0.241993 0.104913
O O14 0.907021 0.000000 0.176251
O O15 0.306715 0.807269 0.891358
O O16 0.333325 0.757894 0.823503
O O17 0.409480 0.000000 0.911530
O O18 0.500000 0.750567 0.000000
O O19 0.339716 0.000000 0.504432
O O20 0.668576 0.000000 0.023498
O O21 0.691147 0.000000 0.247132
#
# Coordination Sequence:
#
# PCOD8092539 Si02
#       8
#     8   8   8   8   8   8   8   8
#     4  11  21  35  54  79 112 144 179 222 273 329
#     4   9  17  32  54  78 103 136 181 226 269 319
#     4  10  22  40  59  81 114 151 180 218 279 336
#     4   9  19  33  52  78 108 143 180 222 275 330
#     4   9  17  33  55  78 107 140 180 229 276 318
#     4   9  18  34  55  77 106 142 176 217 272 326
#     4  10  19  35  56  76 104 144 186 226 272 323
#     4  11  22  37  60  86 108 142 189 231 270 319
#
# _framework density 19.274239999999999
#
# number of rings (size 3 to 8) (size 9 to 14) (size 15 to 20)
#    0.000    2.250    1.250    1.875    0.000    3.750 
#    0.000    8.125    0.000    0.000    0.000    0.000 
#    0.000    0.000    0.000    0.000    0.000    0.000 
#
# Total GULP energy -396832.493198 kJ/mol
# GULP energy per Si atom -12401.015412 kJ/mol
# Density = 1.923037 g / cm^3
# Si number density = 19.274240 Si / 1000 Ang^3
#
#
#
# Elastic Constant Matrix: (Units=GPa)
#
#
# Indices 1 2 3 4 5 6 
#
# 1 128.3552 31.1799 64.5060 0.0001 -3.6739 -0.0003
# 2 31.1799 39.8726 38.4601 -0.0005 0.6301 -0.0006
# 3 64.5060 38.4601 126.4914 -0.0003 -1.4410 -0.0001
# 4 0.0001 -0.0005 -0.0003 29.0614 0.0000 -0.7166
# 5 -3.6739 0.6301 -1.4410 0.0000 33.9178 -0.0001
# 6 -0.0003 -0.0006 -0.0001 -0.7166 -0.0001 21.5869
#
#
#
# Elastic Compliance Matrix: (Units=1/GPa)
#
#
# Indices 1 2 3 4 5 6 
#
# 1 0.011065 -0.004584 -0.004236 0.000000 0.001104 0.000000
# 2 -0.004584 0.037429 -0.009061 0.000001 -0.001577 0.000001
# 3 -0.004236 -0.009061 0.012824 0.000000 0.000254 0.000000
# 4 0.000000 0.000001 0.000000 0.034438 0.000000 0.001143
# 5 0.001104 -0.001577 0.000254 0.000000 0.029643 0.000000
# 6 0.000000 0.000001 0.000000 0.001143 0.000000 0.046362
#
#
# Mechanical properties :
#
#
# Convention : Reuss Voigt Hill
#
# Bulk Modulus (GPa) = 39.12982 62.55678 50.84330
# Shear Modulus (GPa) = 23.14365 27.61811 25.38088
#
# Velocity S-wave (km/s) = 3.46895 3.78948 3.63275
# Velocity P-wave (km/s) = 6.03246 7.18843 6.63566
#
# Compressibility (1/GPa) = 0.02555596
#
# Stress axis : x y z
#
# Youngs Moduli (GPa) = 90.37483 26.71720 77.97889
#
# Poissons Ratio (x) = 0.12247 0.33036
# Poissons Ratio (y) = 0.41426 0.70655
# Poissons Ratio (z) = 0.38287 0.24208
#
# Static dielectric constant tensor:
#      x y z
#    x 3.686500 0.000000 -0.032100 
#    y 0.000000 3.183480 0.000000 
#    z -0.032100 0.000000 3.611320 
# 
# 
# High freq. dielectric constant tensor:
#      x y z
#    x 1.759720 0.000000 -0.004450 
#    y 0.000000 1.717270 0.000000 
#    z -0.004450 0.000000 1.754310 
# 
# From -- ./inp_files/382547.got.cif
#   From: 2010.06.25/outbox.cif.g09.slc.cpg/sg12_192_cif.got.tgz:382547.got - 2010.06.28 00:19:55.
