data_PCOD8092234
_publ_section_title
;
Structure prediction by ZEFSAII (Michael W. Deem and Ramdas Pophale) SiO2 
 PCOD8092234
Probable space group: C 2/M
;
_chemical_formula_sum "Si O2"
_cell_formula_units_Z 60
_cell_length_a 21.290489
_cell_length_b 21.573110
_cell_length_c 8.793769
_cell_angle_alpha 90.000000
_cell_angle_beta 52.152057
_cell_angle_gamma 90.000000
_cell_volume 3189.360565
_symmetry_space_group_name_H-M "C 2/M"
_symmetry_group_IT_number 12
_symmetry_cell_setting 'monoclinic'
loop_
_space_group_symop_operation_xyz
x,y,z
-x,y,-z
-x,-y,-z
x,-y,z
1/2+x,1/2+y,z
1/2-x,1/2+y,-z
1/2-x,1/2-y,-z
1/2+x,1/2-y,z
loop_
_atom_site_type_symbol
_atom_site_label
_atom_site_fract_x
_atom_site_fract_y
_atom_site_fract_z
Si Si1 0.373843 0.828387 0.320221
Si Si2 0.028761 0.662735 0.290109
Si Si3 0.249702 0.349970 0.246658
Si Si4 0.840053 0.428918 0.867406
Si Si5 0.145410 0.927979 0.695836
Si Si6 0.000000 0.148259 0.000000
Si Si7 0.613786 0.738951 0.974755
Si Si8 0.714834 0.069586 0.721431
O O1 0.458635 0.839987 0.271872
O O2 0.307215 0.817140 0.546102
O O3 0.376463 0.769219 0.206704
O O4 0.353293 0.888378 0.250711
O O5 0.070469 0.595229 0.233084
O O6 0.000000 0.682824 0.500000
O O7 0.093818 0.712661 0.136912
O O8 0.196322 0.382900 0.201188
O O9 0.304045 0.403642 0.236894
O O10 0.304733 0.295309 0.097428
O O11 0.844945 0.500000 0.802342
O O12 0.785075 0.423880 0.097627
O O13 0.196146 0.913592 0.467709
O O14 0.128443 0.000000 0.744191
O O15 0.061392 0.893284 0.812048
O O16 0.043301 0.189157 0.063810
O O17 0.693512 0.000000 0.701615
#
# Coordination Sequence:
#
# PCOD8092234 Si02
#       8
#     8   8   8   8   8   4   8   8
#     4  11  20  40  62  83 120 151 193 246 285 343
#     4  12  24  41  57  86 121 155 190 240 299 344
#     4  10  22  38  60  89 112 155 196 236 296 342
#     4  11  23  41  60  86 120 155 196 241 291 350
#     4   9  18  35  59  87 114 145 192 247 293 345
#     4  10  19  34  60  86 111 150 194 238 298 336
#     4  11  22  40  59  83 118 156 195 240 283 349
#     4   9  20  37  60  86 113 153 199 238 289 346
#
# _framework density 18.812549000000001
#
# number of rings (size 3 to 8) (size 9 to 14) (size 15 to 20)
#    0.000    1.600    4.000    1.000    0.000    1.867 
#    2.400    1.333    0.000    0.000    0.000    6.533 
#    0.000    0.000    0.000    0.000    0.000    0.000 
#
# Total GULP energy -372032.631590 kJ/mol
# GULP energy per Si atom -12401.087720 kJ/mol
# Density = 1.876973 g / cm^3
# Si number density = 18.812549 Si / 1000 Ang^3
#
#
#
# Elastic Constant Matrix: (Units=GPa)
#
#
# Indices 1 2 3 4 5 6 
#
# 1 70.8240 45.2320 30.9485 0.0000 -9.1830 0.0000
# 2 45.2320 107.0320 56.0739 0.0000 -9.9967 0.0000
# 3 30.9485 56.0739 102.3234 0.0000 0.2211 0.0000
# 4 0.0000 0.0000 0.0000 27.5692 0.0000 -6.2971
# 5 -9.1830 -9.9967 0.2211 0.0000 28.6165 0.0000
# 6 0.0000 0.0000 0.0000 -6.2971 0.0000 30.1094
#
#
#
# Elastic Compliance Matrix: (Units=1/GPa)
#
#
# Indices 1 2 3 4 5 6 
#
# 1 0.020049 -0.006892 -0.002296 0.000000 0.004044 0.000000
# 2 -0.006892 0.016120 -0.006757 0.000000 0.003472 0.000000
# 3 -0.002296 -0.006757 0.014177 0.000000 -0.003207 0.000000
# 4 0.000000 0.000000 0.000000 0.038092 0.000000 0.007967
# 5 0.004044 0.003472 -0.003207 0.000000 0.037480 0.000000
# 6 0.000000 0.000000 0.000000 0.007967 0.000000 0.034878
#
#
# Mechanical properties :
#
#
# Convention : Reuss Voigt Hill
#
# Bulk Modulus (GPa) = 54.18208 60.52094 57.35151
# Shear Modulus (GPa) = 25.14624 27.12067 26.13346
#
# Velocity S-wave (km/s) = 3.66002 3.80100 3.73117
# Velocity P-wave (km/s) = 6.83554 7.17661 7.00815
#
# Compressibility (1/GPa) = 0.01845629
#
# Stress axis : x y z
#
# Youngs Moduli (GPa) = 49.87849 62.03578 70.53760
#
# Poissons Ratio (x) = 0.42757 0.16193
# Poissons Ratio (y) = 0.34378 0.47659
# Poissons Ratio (z) = 0.11450 0.41915
#
# Static dielectric constant tensor:
#      x y z
#    x 3.294480 0.000000 -0.141030 
#    y 0.000000 3.560920 0.000000 
#    z -0.141030 0.000000 3.646770 
# 
# 
# High freq. dielectric constant tensor:
#      x y z
#    x 1.716110 0.000000 -0.011180 
#    y 0.000000 1.738010 0.000000 
#    z -0.011180 0.000000 1.739900 
# 
# From -- ./inp_files/89835.got.cif
#   From: 2010.06.25/outbox.cif.g09.slc.cpg/sg12_45_cif.got.tgz:89835.got - 2010.06.28 00:19:55.
