data_PCOD8092050
_publ_section_title
;
Structure prediction by ZEFSAII (Michael W. Deem and Ramdas Pophale) SiO2 
 PCOD8092050
Probable space group: C 2/M
;
_chemical_formula_sum "Si O2"
_cell_formula_units_Z 52
_cell_length_a 19.862485
_cell_length_b 10.981011
_cell_length_c 15.599627
_cell_angle_alpha 90.000000
_cell_angle_beta 129.445458
_cell_angle_gamma 90.000000
_cell_volume 2627.463226
_symmetry_space_group_name_H-M "C 2/M"
_symmetry_group_IT_number 12
_symmetry_cell_setting 'monoclinic'
loop_
_space_group_symop_operation_xyz
x,y,z
-x,y,-z
-x,-y,-z
x,-y,z
1/2+x,1/2+y,z
1/2-x,1/2+y,-z
1/2-x,1/2-y,-z
1/2+x,1/2-y,z
loop_
_atom_site_type_symbol
_atom_site_label
_atom_site_fract_x
_atom_site_fract_y
_atom_site_fract_z
Si Si1 0.321628 0.000000 0.243961
Si Si2 0.449959 0.248306 0.730327
Si Si3 0.741235 0.745717 0.132556
Si Si4 0.880060 0.500000 0.472208
Si Si5 0.679643 0.251875 0.515134
Si Si6 0.690846 0.860163 0.263034
Si Si7 0.868917 0.858236 0.106480
Si Si8 0.017159 0.500000 0.724172
O O1 0.263017 0.120229 0.198504
O O2 0.389766 0.000000 0.377844
O O3 0.378800 0.000000 0.203727
O O4 0.410005 0.290305 0.605597
O O5 0.377263 0.233845 0.746624
O O6 0.526138 0.344361 0.812500
O O7 0.492931 0.116486 0.759186
O O8 0.697094 0.833770 0.166972
O O9 0.827781 0.809103 0.162564
O O10 0.670536 0.721318 0.002117
O O11 0.824185 0.616531 0.452112
O O12 0.972246 0.500000 0.594300
O O13 0.750000 0.250000 0.500000
O O14 0.712147 0.342312 0.616664
O O15 0.661827 0.000000 0.253556
O O16 0.845053 0.000000 0.075809
#
# Coordination Sequence:
#
# PCOD8092050 Si02
#       8
#     4   8   8   4   8   8   8   4
#     4  12  19  38  64  89 120 156 201 254 303 354
#     4  10  21  40  62  89 122 158 203 243 297 356
#     4  11  24  41  64  89 118 157 203 250 301 357
#     4  10  19  34  58  89 123 155 204 255 296 357
#     4   9  20  34  58  87 122 162 197 240 297 357
#     4  11  22  41  62  90 122 157 202 249 298 361
#     4  11  24  44  63  87 119 158 202 247 305 363
#     4  10  19  36  62  90 119 161 198 249 297 357
#
# _framework density 19.790952999999998
#
# number of rings (size 3 to 8) (size 9 to 14) (size 15 to 20)
#    0.000    1.538    4.615    0.692    3.231    1.231 
#    6.923    2.308    0.000    1.846    0.000    0.000 
#    0.000    0.000    0.000    0.000    0.000    0.000 
#
# Total GULP energy -322288.578927 kJ/mol
# GULP energy per Si atom -12395.714574 kJ/mol
# Density = 1.974591 g / cm^3
# Si number density = 19.790953 Si / 1000 Ang^3
#
#
#
# Elastic Constant Matrix: (Units=GPa)
#
#
# Indices 1 2 3 4 5 6 
#
# 1 93.0781 26.0678 36.1875 0.0000 -3.9543 0.0000
# 2 26.0678 71.2520 24.1331 0.0000 1.0372 0.0000
# 3 36.1875 24.1331 83.2960 0.0000 -6.4246 0.0000
# 4 0.0000 0.0000 0.0000 29.0283 0.0000 0.2218
# 5 -3.9543 1.0372 -6.4246 0.0000 30.7243 0.0000
# 6 0.0000 0.0000 0.0000 0.2218 0.0000 26.2917
#
#
#
# Elastic Compliance Matrix: (Units=1/GPa)
#
#
# Indices 1 2 3 4 5 6 
#
# 1 0.013612 -0.003339 -0.004881 0.000000 0.000844 0.000000
# 2 -0.003339 0.016448 -0.003446 0.000000 -0.001706 0.000000
# 3 -0.004881 -0.003446 0.015332 0.000000 0.002694 0.000000
# 4 0.000000 0.000000 0.000000 0.034451 0.000000 -0.000291
# 5 0.000844 -0.001706 0.002694 0.000000 0.033277 0.000000
# 6 0.000000 0.000000 0.000000 -0.000291 0.000000 0.038037
#
#
# Mechanical properties :
#
#
# Convention : Reuss Voigt Hill
#
# Bulk Modulus (GPa) = 45.33200 46.71144 46.02172
# Shear Modulus (GPa) = 27.49576 27.95803 27.72690
#
# Velocity S-wave (km/s) = 3.73139 3.76262 3.74704
# Velocity P-wave (km/s) = 6.44356 6.52151 6.48265
#
# Compressibility (1/GPa) = 0.02205947
#
# Stress axis : x y z
#
# Youngs Moduli (GPa) = 73.46192 60.79585 65.22145
#
# Poissons Ratio (x) = 0.20301 0.31837
# Poissons Ratio (y) = 0.24530 0.22478
# Poissons Ratio (z) = 0.35859 0.20953
#
# Static dielectric constant tensor:
#      x y z
#    x 3.443100 0.000000 0.057800 
#    y 0.000000 3.491620 0.000000 
#    z 0.057800 0.000000 4.047950 
# 
# 
# High freq. dielectric constant tensor:
#      x y z
#    x 1.763610 0.000000 -0.002430 
#    y 0.000000 1.764010 0.000000 
#    z -0.002430 0.000000 1.772640 
# 
# From -- ./inp_files/232632.got.cif
#   From: 2010.06.25/outbox.cif.g09.slc.cpg/sg12_117_cif.got.tgz:232632.got - 2010.06.28 00:19:55.
