data_PCOD8092173
_publ_section_title
;
Structure prediction by ZEFSAII (Michael W. Deem and Ramdas Pophale) SiO2 
 PCOD8092173
Probable space group: C 2/M
;
_chemical_formula_sum "Si O2"
_cell_formula_units_Z 64
_cell_length_a 31.064409
_cell_length_b 8.502315
_cell_length_c 14.206805
_cell_angle_alpha 90.000000
_cell_angle_beta 56.822215
_cell_angle_gamma 90.000000
_cell_volume 3140.580998
_symmetry_space_group_name_H-M "C 2/M"
_symmetry_group_IT_number 12
_symmetry_cell_setting 'monoclinic'
loop_
_space_group_symop_operation_xyz
x,y,z
-x,y,-z
-x,-y,-z
x,-y,z
1/2+x,1/2+y,z
1/2-x,1/2+y,-z
1/2-x,1/2-y,-z
1/2+x,1/2-y,z
loop_
_atom_site_type_symbol
_atom_site_label
_atom_site_fract_x
_atom_site_fract_y
_atom_site_fract_z
Si Si1 0.404515 0.815300 0.881784
Si Si2 0.269600 0.813265 0.733769
Si Si3 0.892496 0.315008 0.259182
Si Si4 0.846467 0.184599 0.126461
Si Si5 0.135786 0.684963 0.268543
Si Si6 0.484146 0.317074 0.255405
Si Si7 0.701471 0.185938 0.504248
Si Si8 0.549416 0.683883 0.497273
O O1 0.383505 0.745564 0.807639
O O2 0.465029 0.786116 0.816938
O O3 0.393303 0.000000 0.907182
O O4 0.375468 0.716871 0.995330
O O5 0.211727 0.748382 0.813902
O O6 0.306364 0.754953 0.775354
O O7 0.295381 0.751524 0.606256
O O8 0.267517 0.000000 0.734759
O O9 0.901521 0.500000 0.258522
O O10 0.875288 0.276631 0.174399
O O11 0.945680 0.225755 0.216872
O O12 0.850062 0.251294 0.383884
O O13 0.846743 0.000000 0.149279
O O14 0.135381 0.500000 0.259949
O O15 0.099283 0.729965 0.398557
O O16 0.499160 0.500000 0.233632
O O17 0.456748 0.272710 0.386168
O O18 0.750000 0.250000 0.500000
O O19 0.702875 0.000000 0.507495
O O20 0.500000 0.747167 0.500000
O O21 0.556423 0.500000 0.471725
#
# Coordination Sequence:
#
# PCOD8092173 Si02
#       8
#     8   8   8   8   8   8   8   8
#     4  11  24  41  61  87 119 154 201 254 298 346
#     4   9  19  37  60  88 120 156 195 238 287 349
#     4  11  23  39  62  92 124 155 195 247 299 350
#     4  11  23  41  64  85 116 160 203 245 296 354
#     4  10  21  38  62  89 120 158 198 241 295 354
#     4  11  23  40  63  89 121 159 199 240 295 360
#     4  10  19  34  59  88 122 157 191 235 289 350
#     4  10  20  36  59  89 125 157 191 241 293 350
#
# _framework density 20.378395000000001
#
# number of rings (size 3 to 8) (size 9 to 14) (size 15 to 20)
#    0.000    1.625    2.500    2.250    0.000    4.250 
#    0.000    4.375    0.000    0.000    0.000    0.000 
#    0.000    0.000    0.000    0.000    0.000    0.000 
#
# Total GULP energy -396874.017115 kJ/mol
# GULP energy per Si atom -12402.313035 kJ/mol
# Density = 2.033201 g / cm^3
# Si number density = 20.378395 Si / 1000 Ang^3
#
#
#
# Elastic Constant Matrix: (Units=GPa)
#
#
# Indices 1 2 3 4 5 6 
#
# 1 161.4592 10.8141 53.8592 0.0000 -9.3693 0.0000
# 2 10.8141 27.5322 7.6538 0.0000 1.2813 0.0000
# 3 53.8592 7.6538 107.8319 0.0000 10.0629 0.0000
# 4 0.0000 0.0000 0.0000 27.2346 0.0000 -0.0266
# 5 -9.3693 1.2813 10.0629 0.0000 13.6539 0.0000
# 6 0.0000 0.0000 0.0000 -0.0266 0.0000 23.5950
#
#
#
# Elastic Compliance Matrix: (Units=1/GPa)
#
#
# Indices 1 2 3 4 5 6 
#
# 1 0.008613 -0.002438 -0.005049 0.000000 0.009861 0.000000
# 2 -0.002438 0.037777 -0.001049 0.000000 -0.004446 0.000000
# 3 -0.005049 -0.001049 0.013084 0.000000 -0.013009 0.000000
# 4 0.000000 0.000000 0.000000 0.036718 0.000000 0.000041
# 5 0.009861 -0.004446 -0.013009 0.000000 0.090010 0.000000
# 6 0.000000 0.000000 0.000000 0.000041 0.000000 0.042382
#
#
# Mechanical properties :
#
#
# Convention : Reuss Voigt Hill
#
# Bulk Modulus (GPa) = 23.58368 49.05306 36.31837
# Shear Modulus (GPa) = 19.24619 27.86312 23.55465
#
# Velocity S-wave (km/s) = 3.07651 3.70170 3.40349
# Velocity P-wave (km/s) = 4.92117 6.51102 5.77111
#
# Compressibility (1/GPa) = 0.04240220
#
# Stress axis : x y z
#
# Youngs Moduli (GPa) = 116.09871 26.47095 76.42835
#
# Poissons Ratio (x) = 0.06455 0.38591
# Poissons Ratio (y) = 0.28310 0.08014
# Poissons Ratio (z) = 0.58621 0.02776
#
# Static dielectric constant tensor:
#      x y z
#    x 3.961280 0.000000 0.006570 
#    y 0.000000 3.428350 0.000000 
#    z 0.006570 0.000000 3.727980 
# 
# 
# High freq. dielectric constant tensor:
#      x y z
#    x 1.814010 0.000000 -0.001120 
#    y 0.000000 1.778840 0.000000 
#    z -0.001120 0.000000 1.793700 
# 
# From -- ./inp_files/249699.got.cif
#   From: 2010.06.25/outbox.cif.g09.slc.cpg/sg12_125_cif.got.tgz:249699.got - 2010.06.28 00:19:55.
