data_PCOD8092963
_publ_section_title
;
Structure prediction by ZEFSAII (Michael W. Deem and Ramdas Pophale) SiO2 
 PCOD8092963
Probable space group: C 2/M
;
_chemical_formula_sum "Si O2"
_cell_formula_units_Z 56
_cell_length_a 9.352288
_cell_length_b 26.741622
_cell_length_c 15.140957
_cell_angle_alpha 90.000000
_cell_angle_beta 52.401926
_cell_angle_gamma 90.000000
_cell_volume 3000.227346
_symmetry_space_group_name_H-M "C 2/M"
_symmetry_group_IT_number 12
_symmetry_cell_setting 'monoclinic'
loop_
_space_group_symop_operation_xyz
x,y,z
-x,y,-z
-x,-y,-z
x,-y,z
1/2+x,1/2+y,z
1/2-x,1/2+y,-z
1/2-x,1/2-y,-z
1/2+x,1/2-y,z
loop_
_atom_site_type_symbol
_atom_site_label
_atom_site_fract_x
_atom_site_fract_y
_atom_site_fract_z
Si Si1 0.899934 0.109669 0.212260
Si Si2 0.294462 0.143774 0.361214
Si Si3 0.162564 0.945464 0.007772
Si Si4 0.083947 0.214213 0.873504
Si Si5 0.082828 0.440592 0.238124
Si Si6 0.553242 0.657834 0.620098
Si Si7 0.975708 0.743407 0.739968
O O1 0.881006 0.155777 0.152529
O O2 0.731939 0.072584 0.257029
O O3 0.899485 0.123001 0.315015
O O4 0.098533 0.087130 0.115297
O O5 0.401048 0.091302 0.318464
O O6 0.200792 0.146878 0.491103
O O7 0.429433 0.190018 0.301078
O O8 0.147292 0.145372 0.338791
O O9 0.206884 0.000000 0.029048
O O10 0.337953 0.925707 0.888689
O O11 0.000000 0.948062 0.000000
O O12 0.954656 0.237087 0.848009
O O13 0.272530 0.240904 0.783801
O O14 0.000000 0.225438 0.000000
O O15 0.040839 0.500000 0.260570
O O16 0.574049 0.715866 0.640767
#
# Coordination Sequence:
#
# PCOD8092963 Si02
#       7
#     8   8   8   8   8   8   8
#     4  10  19  35  58  87 116 147 189 230 282 336
#     4  11  22  42  59  78 116 153 194 239 286 334
#     4   8  15  31  57  85 114 144 177 227 284 339
#     4  11  21  34  56  88 123 150 183 230 284 345
#     4  10  20  37  62  90 113 145 190 235 286 339
#     4  10  24  40  57  82 111 155 197 232 284 343
#     4  11  21  39  57  85 115 153 193 231 283 341
#
# _framework density 18.665253
#
# number of rings (size 3 to 8) (size 9 to 14) (size 15 to 20)
#    0.000    1.857    2.857    3.429    0.000    0.571 
#    0.000    5.714    0.000    1.714    0.000    0.000 
#    0.000    0.000    0.000    0.000    0.000    0.000 
#
# Total GULP energy -347095.515920 kJ/mol
# GULP energy per Si atom -12396.268426 kJ/mol
# Density = 1.862277 g / cm^3
# Si number density = 18.665253 Si / 1000 Ang^3
#
#
#
# Elastic Constant Matrix: (Units=GPa)
#
#
# Indices 1 2 3 4 5 6 
#
# 1 55.3903 35.2018 28.7879 0.0000 -0.1541 0.0000
# 2 35.2018 115.1558 49.1479 0.0000 -2.2091 0.0000
# 3 28.7879 49.1479 96.9050 0.0000 -1.0996 0.0000
# 4 0.0000 0.0000 0.0000 28.0171 0.0000 -8.9504
# 5 -0.1541 -2.2091 -1.0996 0.0000 25.4561 0.0000
# 6 0.0000 0.0000 0.0000 -8.9504 0.0000 11.6515
#
#
#
# Elastic Compliance Matrix: (Units=1/GPa)
#
#
# Indices 1 2 3 4 5 6 
#
# 1 0.023740 -0.005430 -0.004305 0.000000 -0.000513 0.000000
# 2 -0.005430 0.012338 -0.004635 0.000000 0.000838 0.000000
# 3 -0.004305 -0.004635 0.013951 0.000000 0.000174 0.000000
# 4 0.000000 0.000000 0.000000 0.047300 0.000000 0.036335
# 5 -0.000513 0.000838 0.000174 0.000000 0.039360 0.000000
# 6 0.000000 0.000000 0.000000 0.036335 0.000000 0.113737
#
#
# Mechanical properties :
#
#
# Convention : Reuss Voigt Hill
#
# Bulk Modulus (GPa) = 46.96944 54.85845 50.91394
# Shear Modulus (GPa) = 17.46652 23.31253 20.38952
#
# Velocity S-wave (km/s) = 3.06237 3.53793 3.30870
# Velocity P-wave (km/s) = 6.14189 6.79292 6.47559
#
# Compressibility (1/GPa) = 0.02129044
#
# Stress axis : x y z
#
# Youngs Moduli (GPa) = 42.12260 81.05065 71.68009
#
# Poissons Ratio (x) = 0.44009 0.30855
# Poissons Ratio (y) = 0.22872 0.33223
# Poissons Ratio (z) = 0.18132 0.37567
#
# Static dielectric constant tensor:
#      x y z
#    x 3.271650 0.000000 -0.049470 
#    y 0.000000 3.499310 0.000000 
#    z -0.049470 0.000000 3.448450 
# 
# 
# High freq. dielectric constant tensor:
#      x y z
#    x 1.707530 0.000000 -0.001830 
#    y 0.000000 1.728690 0.000000 
#    z -0.001830 0.000000 1.726950 
# 
# From -- ./inp_files/199679.got.cif
#   From: 2010.06.25/outbox.cif.g09.slc.cpg/sg12_100_cif.got.tgz:199679.got - 2010.06.28 00:19:55.
