data_PCOD8092787
_publ_section_title
;
Structure prediction by ZEFSAII (Michael W. Deem and Ramdas Pophale) SiO2 
 PCOD8092787
Probable space group: C 2/M
;
_chemical_formula_sum "Si O2"
_cell_formula_units_Z 48
_cell_length_a 29.858792
_cell_length_b 13.731337
_cell_length_c 6.621704
_cell_angle_alpha 90.000000
_cell_angle_beta 112.062861
_cell_angle_gamma 90.000000
_cell_volume 2516.099835
_symmetry_space_group_name_H-M "C 2/M"
_symmetry_group_IT_number 12
_symmetry_cell_setting 'monoclinic'
loop_
_space_group_symop_operation_xyz
x,y,z
-x,y,-z
-x,-y,-z
x,-y,z
1/2+x,1/2+y,z
1/2-x,1/2+y,-z
1/2-x,1/2-y,-z
1/2+x,1/2-y,z
loop_
_atom_site_type_symbol
_atom_site_label
_atom_site_fract_x
_atom_site_fract_y
_atom_site_fract_z
Si Si1 0.888189 0.890182 0.545793
Si Si2 0.780967 0.892515 0.493980
Si Si3 0.444564 0.750028 0.926221
Si Si4 0.611425 0.767809 0.776474
Si Si5 0.383461 0.885963 0.601165
Si Si6 0.807649 0.288006 0.769966
O O1 0.830538 0.891479 0.455881
O O2 0.911535 0.838054 0.781838
O O3 0.899875 0.831369 0.362745
O O4 0.908895 0.000000 0.566164
O O5 0.783828 0.816464 0.681865
O O6 0.736352 0.863612 0.270785
O O7 0.771345 0.000000 0.567597
O O8 0.433812 0.849604 0.785166
O O9 0.500000 0.720151 0.000000
O O10 0.432201 0.772166 0.138036
O O11 0.613454 0.860275 0.630303
O O12 0.662613 0.772499 0.976196
O O13 0.340597 0.826405 0.639328
O O14 0.376187 0.000000 0.620461
#
# Coordination Sequence:
#
# PCOD8092787 Si02
#       6
#     8   8   8   8   8   8
#     4  10  21  38  57  86 117 147 189 234 276 331
#     4  10  19  35  57  84 118 153 190 229 271 329
#     4  10  22  41  60  81 112 149 186 234 290 339
#     4  10  20  38  58  83 109 152 183 233 278 338
#     4  10  21  38  57  85 115 146 188 234 279 335
#     4  10  20  37  58  81 120 157 186 225 281 328
#
# _framework density 19.077143
#
# number of rings (size 3 to 8) (size 9 to 14) (size 15 to 20)
#    0.000    2.000    5.000    0.500    0.000    8.667 
#    0.000    1.667    0.000    0.000    0.000    0.000 
#    0.000    0.000    0.000    0.000    0.000    0.000 
#
# Total GULP energy -297469.017963 kJ/mol
# GULP energy per Si atom -12394.542415 kJ/mol
# Density = 1.903372 g / cm^3
# Si number density = 19.077143 Si / 1000 Ang^3
#
#
#
# Elastic Constant Matrix: (Units=GPa)
#
#
# Indices 1 2 3 4 5 6 
#
# 1 76.4676 20.5149 27.9188 0.0000 13.8795 0.0000
# 2 20.5149 152.8597 36.9603 0.0000 -0.0807 0.0000
# 3 27.9188 36.9603 92.5550 0.0000 -12.1423 0.0000
# 4 0.0000 0.0000 0.0000 15.6652 0.0000 1.3399
# 5 13.8795 -0.0807 -12.1423 0.0000 23.2938 0.0000
# 6 0.0000 0.0000 0.0000 1.3399 0.0000 17.4212
#
#
#
# Elastic Compliance Matrix: (Units=1/GPa)
#
#
# Indices 1 2 3 4 5 6 
#
# 1 0.018641 -0.000750 -0.007279 0.000000 -0.014904 0.000000
# 2 -0.000750 0.007327 -0.002831 0.000000 -0.001004 0.000000
# 3 -0.007279 -0.002831 0.015777 0.000000 0.012552 0.000000
# 4 0.000000 0.000000 0.000000 0.064258 0.000000 -0.004942
# 5 -0.014904 -0.001004 0.012552 0.000000 0.058350 0.000000
# 6 0.000000 0.000000 0.000000 -0.004942 0.000000 0.057781
#
#
# Mechanical properties :
#
#
# Convention : Reuss Voigt Hill
#
# Bulk Modulus (GPa) = 49.93664 54.74113 52.33889
# Shear Modulus (GPa) = 19.95768 27.04195 23.49981
#
# Velocity S-wave (km/s) = 3.23794 3.76906 3.51355
# Velocity P-wave (km/s) = 6.34130 6.90637 6.62986
#
# Compressibility (1/GPa) = 0.02002538
#
# Stress axis : x y z
#
# Youngs Moduli (GPa) = 53.64390 136.48862 63.38193
#
# Poissons Ratio (x) = 0.10232 0.46136
# Poissons Ratio (y) = 0.04022 0.17945
# Poissons Ratio (z) = 0.39048 0.38644
#
# Static dielectric constant tensor:
#      x y z
#    x 3.401860 0.000000 0.170250 
#    y 0.000000 3.682280 0.000000 
#    z 0.170250 0.000000 3.413040 
# 
# 
# High freq. dielectric constant tensor:
#      x y z
#    x 1.731560 0.000000 0.009940 
#    y 0.000000 1.745870 0.000000 
#    z 0.009940 0.000000 1.732660 
# 
# From -- ./inp_files/31313.got.cif
#   From: 2010.06.25/outbox.cif.g09.slc.cpg/sg12_16_cif.got.tgz:31313.got - 2010.06.28 00:19:55.
