data_PCOD8092755
_publ_section_title
;
Structure prediction by ZEFSAII (Michael W. Deem and Ramdas Pophale) SiO2 
 PCOD8092755
Probable space group: C 2/M
;
_chemical_formula_sum "Si O2"
_cell_formula_units_Z 56
_cell_length_a 11.699184
_cell_length_b 28.513669
_cell_length_c 14.080841
_cell_angle_alpha 90.000000
_cell_angle_beta 39.313982
_cell_angle_gamma 90.000000
_cell_volume 2975.991359
_symmetry_space_group_name_H-M "C 2/M"
_symmetry_group_IT_number 12
_symmetry_cell_setting 'monoclinic'
loop_
_space_group_symop_operation_xyz
x,y,z
-x,y,-z
-x,-y,-z
x,-y,z
1/2+x,1/2+y,z
1/2-x,1/2+y,-z
1/2-x,1/2-y,-z
1/2+x,1/2-y,z
loop_
_atom_site_type_symbol
_atom_site_label
_atom_site_fract_x
_atom_site_fract_y
_atom_site_fract_z
Si Si1 0.025848 0.402182 0.192075
Si Si2 0.278241 0.500000 0.826394
Si Si3 0.485748 0.324617 0.161134
Si Si4 0.314748 0.395831 0.847638
Si Si5 0.614109 0.765272 0.667995
Si Si6 0.294488 0.344522 0.663853
Si Si7 0.790720 0.671216 0.815899
Si Si8 0.529724 0.000000 0.821183
O O1 0.147316 0.381538 0.198224
O O2 0.994502 0.456540 0.233442
O O3 0.828295 0.379311 0.318823
O O4 0.125337 0.395718 0.026289
O O5 0.378637 0.449441 0.779517
O O6 0.221904 0.500000 0.751711
O O7 0.113306 0.500000 0.003317
O O8 0.527599 0.372885 0.189980
O O9 0.482603 0.281135 0.233530
O O10 0.290141 0.330150 0.237724
O O11 0.639285 0.312178 0.986824
O O12 0.280341 0.360662 0.781846
O O13 0.750000 0.750000 0.500000
O O14 0.713435 0.792622 0.691756
O O15 0.461690 0.795279 0.713481
O O16 0.500000 0.347867 0.500000
#
# Coordination Sequence:
#
# PCOD8092755 Si02
#       8
#     8   4   8   8   8   8   8   4
#     4   9  18  35  56  79 111 145 179 219 270 331
#     4   9  16  28  55  85 115 134 181 218 273 331
#     4  10  21  37  58  76 110 144 184 231 268 326
#     4  10  19  35  57  83 110 146 179 222 274 330
#     4  11  24  38  56  76 106 146 186 232 272 333
#     4  11  22  34  51  80 111 138 179 227 274 325
#     4   9  21  39  53  80 107 144 185 227 274 320
#     4   9  14  28  55  85 107 142 175 222 271 323
#
# _framework density 18.817259
#
# number of rings (size 3 to 8) (size 9 to 14) (size 15 to 20)
#    0.000    2.143    1.429    1.714    4.000    0.000 
#    5.143    2.143    0.000    4.286    0.000    0.000 
#    0.000    6.857    0.000    0.000    0.000    0.000 
#
# Total GULP energy -346963.862464 kJ/mol
# GULP energy per Si atom -12391.566517 kJ/mol
# Density = 1.877443 g / cm^3
# Si number density = 18.817259 Si / 1000 Ang^3
#
#
#
# Elastic Constant Matrix: (Units=GPa)
#
#
# Indices 1 2 3 4 5 6 
#
# 1 109.5598 60.6192 28.8097 0.0000 -12.8607 0.0000
# 2 60.6192 154.2418 37.0742 0.0000 -4.7578 0.0000
# 3 28.8097 37.0742 42.2258 0.0000 -17.9018 0.0000
# 4 0.0000 0.0000 0.0000 13.2528 0.0000 -0.8494
# 5 -12.8607 -4.7578 -17.9018 0.0000 24.2089 0.0000
# 6 0.0000 0.0000 0.0000 -0.8494 0.0000 27.3091
#
#
#
# Elastic Compliance Matrix: (Units=1/GPa)
#
#
# Indices 1 2 3 4 5 6 
#
# 1 0.012705 -0.003968 -0.003865 0.000000 0.003111 0.000000
# 2 -0.003968 0.009976 -0.008906 0.000000 -0.006733 0.000000
# 3 -0.003865 -0.008906 0.047380 0.000000 0.031232 0.000000
# 4 0.000000 0.000000 0.000000 0.075606 0.000000 0.002352
# 5 0.003111 -0.006733 0.031232 0.000000 0.064732 0.000000
# 6 0.000000 0.000000 0.000000 0.002352 0.000000 0.036691
#
#
# Mechanical properties :
#
#
# Convention : Reuss Voigt Hill
#
# Bulk Modulus (GPa) = 27.33592 62.11484 44.72538
# Shear Modulus (GPa) = 17.07874 24.92244 21.00059
#
# Velocity S-wave (km/s) = 3.01593 3.64324 3.34432
# Velocity P-wave (km/s) = 5.16588 7.12592 6.22355
#
# Compressibility (1/GPa) = 0.03658190
#
# Stress axis : x y z
#
# Youngs Moduli (GPa) = 78.71214 100.24242 21.10610
#
# Poissons Ratio (x) = 0.39777 0.08158
# Poissons Ratio (y) = 0.31234 0.18797
# Poissons Ratio (z) = 0.30422 0.89275
#
# Static dielectric constant tensor:
#      x y z
#    x 3.587900 0.000000 -0.091700 
#    y 0.000000 3.818500 0.000000 
#    z -0.091700 0.000000 3.265590 
# 
# 
# High freq. dielectric constant tensor:
#      x y z
#    x 1.723710 0.000000 -0.009320 
#    y 0.000000 1.738780 0.000000 
#    z -0.009320 0.000000 1.706510 
# 
# From -- ./inp_files/209138.got.cif
#   From: 2010.06.25/outbox.cif.g09.slc.cpg/sg12_105_cif.got.tgz:209138.got - 2010.06.28 00:19:55.
