data_PCOD8092601
_publ_section_title
;
Structure prediction by ZEFSAII (Michael W. Deem and Ramdas Pophale) SiO2 
 PCOD8092601
Probable space group: C 2/M
;
_chemical_formula_sum "Si O2"
_cell_formula_units_Z 64
_cell_length_a 9.039936
_cell_length_b 21.196541
_cell_length_c 20.465280
_cell_angle_alpha 90.000000
_cell_angle_beta 59.721159
_cell_angle_gamma 90.000000
_cell_volume 3386.503499
_symmetry_space_group_name_H-M "C 2/M"
_symmetry_group_IT_number 12
_symmetry_cell_setting 'monoclinic'
loop_
_space_group_symop_operation_xyz
x,y,z
-x,y,-z
-x,-y,-z
x,-y,z
1/2+x,1/2+y,z
1/2-x,1/2+y,-z
1/2-x,1/2-y,-z
1/2+x,1/2-y,z
loop_
_atom_site_type_symbol
_atom_site_label
_atom_site_fract_x
_atom_site_fract_y
_atom_site_fract_z
Si Si1 0.166215 0.426467 0.922926
Si Si2 0.696826 0.312052 0.472524
Si Si3 0.200003 0.427607 0.462453
Si Si4 0.904986 0.319683 0.293829
Si Si5 0.754262 0.755279 0.207764
Si Si6 0.556713 0.663502 0.158567
Si Si7 0.819522 0.430489 0.231046
Si Si8 0.562756 0.429290 0.709922
O O1 0.209588 0.500000 0.924211
O O2 0.329540 0.384697 0.910729
O O3 0.137187 0.410708 0.853124
O O4 0.000000 0.405626 0.000000
O O5 0.500000 0.304762 0.500000
O O6 0.750000 0.250000 0.500000
O O7 0.721929 0.377600 0.505039
O O8 0.807017 0.315832 0.383021
O O9 0.237119 0.500000 0.477166
O O10 0.283049 0.414963 0.373378
O O11 0.000000 0.415057 0.500000
O O12 0.805229 0.278472 0.263129
O O13 0.917627 0.389985 0.262772
O O14 0.098894 0.299908 0.261892
O O15 0.695285 0.707179 0.165092
O O16 0.922372 0.795074 0.145975
O O17 0.436246 0.623487 0.234426
O O18 0.889193 0.500000 0.227882
O O19 0.616498 0.424788 0.289065
O O20 0.579323 0.500000 0.736488
#
# Coordination Sequence:
#
# PCOD8092601 Si02
#       8
#     8   8   8   8   8   8   8   8
#     4   9  17  33  61  91 115 142 180 225 269 324
#     4  12  26  37  56  81 110 146 196 245 298 349
#     4  10  23  40  55  76 111 147 185 238 298 349
#     4  11  21  37  53  78 105 147 184 236 276 334
#     4  10  22  33  56  76 111 143 186 222 276 319
#     4  10  19  35  56  81 111 143 185 225 267 335
#     4   9  17  33  56  82 107 139 183 225 273 332
#     4   9  17  32  57  75  97 140 184 227 274 328
#
# _framework density 18.898548000000002
#
# number of rings (size 3 to 8) (size 9 to 14) (size 15 to 20)
#    0.000    2.000    2.500    3.000    5.250    0.750 
#    0.000    1.875    0.000    0.000    0.000    2.625 
#    0.000    0.000    0.000    0.000    0.000    0.000 
#
# Total GULP energy -396666.682516 kJ/mol
# GULP energy per Si atom -12395.833829 kJ/mol
# Density = 1.885553 g / cm^3
# Si number density = 18.898548 Si / 1000 Ang^3
#
#
#
# Elastic Constant Matrix: (Units=GPa)
#
#
# Indices 1 2 3 4 5 6 
#
# 1 99.2208 56.6456 39.6777 0.0000 -18.5960 0.0000
# 2 56.6456 104.0615 37.1988 0.0000 -15.3864 0.0000
# 3 39.6777 37.1988 100.1461 0.0000 -33.3582 0.0000
# 4 0.0000 0.0000 0.0000 35.8992 0.0000 9.7909
# 5 -18.5960 -15.3864 -33.3582 0.0000 25.5248 0.0000
# 6 0.0000 0.0000 0.0000 9.7909 0.0000 58.9771
#
#
#
# Elastic Compliance Matrix: (Units=1/GPa)
#
#
# Indices 1 2 3 4 5 6 
#
# 1 0.015891 -0.007233 -0.002135 0.000000 0.004428 0.000000
# 2 -0.007233 0.014450 -0.002401 0.000000 0.000304 0.000000
# 3 -0.002135 -0.002401 0.018989 0.000000 0.021815 0.000000
# 4 0.000000 0.000000 0.000000 0.029177 0.000000 -0.004844
# 5 0.004428 0.000304 0.021815 0.000000 0.071096 0.000000
# 6 0.000000 0.000000 0.000000 -0.004844 0.000000 0.017760
#
#
# Mechanical properties :
#
#
# Convention : Reuss Voigt Hill
#
# Bulk Modulus (GPa) = 38.76783 63.38585 51.07684
# Shear Modulus (GPa) = 25.06312 35.40732 30.23522
#
# Velocity S-wave (km/s) = 3.64564 4.33314 4.00418
# Velocity P-wave (km/s) = 6.18701 7.65818 6.96157
#
# Compressibility (1/GPa) = 0.02579458
#
# Stress axis : x y z
#
# Youngs Moduli (GPa) = 62.92831 69.20533 52.66158
#
# Poissons Ratio (x) = 0.50053 0.11241
# Poissons Ratio (y) = 0.45513 0.12642
# Poissons Ratio (z) = 0.13433 0.16614
#
# Static dielectric constant tensor:
#      x y z
#    x 3.470980 0.000000 -0.284170 
#    y 0.000000 3.909410 0.000000 
#    z -0.284170 0.000000 3.354230 
# 
# 
# High freq. dielectric constant tensor:
#      x y z
#    x 1.715490 0.000000 -0.024960 
#    y 0.000000 1.758620 0.000000 
#    z -0.024960 0.000000 1.715850 
# 
# From -- ./inp_files/301703.got.cif
#   From: 2010.06.25/outbox.cif.g09.slc.cpg/sg12_151_cif.got.tgz:301703.got - 2010.06.28 00:19:55.
