data_PCOD8092486
_publ_section_title
;
Structure prediction by ZEFSAII (Michael W. Deem and Ramdas Pophale) SiO2 
 PCOD8092486
Probable space group: C 2/M
;
_chemical_formula_sum "Si O2"
_cell_formula_units_Z 56
_cell_length_a 31.064092
_cell_length_b 9.030561
_cell_length_c 11.675784
_cell_angle_alpha 90.000000
_cell_angle_beta 116.408181
_cell_angle_gamma 90.000000
_cell_volume 2933.573235
_symmetry_space_group_name_H-M "C 2/M"
_symmetry_group_IT_number 12
_symmetry_cell_setting 'monoclinic'
loop_
_space_group_symop_operation_xyz
x,y,z
-x,y,-z
-x,-y,-z
x,-y,z
1/2+x,1/2+y,z
1/2-x,1/2+y,-z
1/2-x,1/2-y,-z
1/2+x,1/2-y,z
loop_
_atom_site_type_symbol
_atom_site_label
_atom_site_fract_x
_atom_site_fract_y
_atom_site_fract_z
Si Si1 0.809813 0.674155 0.467166
Si Si2 0.949594 0.169663 0.885967
Si Si3 0.588795 0.325181 0.789995
Si Si4 0.626262 0.827614 0.055418
Si Si5 0.099031 0.324869 0.568083
Si Si6 0.978127 0.169533 0.664260
Si Si7 0.284388 0.171701 0.688923
O O1 0.805626 0.500000 0.450370
O O2 0.859408 0.729049 0.469455
O O3 0.765010 0.742879 0.345181
O O4 0.808498 0.726552 0.598004
O O5 0.909685 0.278879 0.886957
O O6 0.951360 0.191806 0.752489
O O7 0.937450 0.000000 0.905234
O O8 0.000000 0.216067 0.000000
O O9 0.595485 0.500000 0.788601
O O10 0.610094 0.248094 0.703101
O O11 0.533231 0.280313 0.741660
O O12 0.618965 0.267069 0.933059
O O13 0.679956 0.796595 0.163904
O O14 0.617861 0.000000 0.019435
O O15 0.097333 0.500000 0.579924
O O16 0.047626 0.269342 0.461205
O O17 0.975301 0.000000 0.619565
O O18 0.271945 0.000000 0.663567
#
# Coordination Sequence:
#
# PCOD8092486 Si02
#       7
#     8   8   8   8   8   8   8
#     4   9  19  37  59  84 114 142 176 226 279 331
#     4  10  19  35  55  79 113 150 186 225 269 325
#     4  11  23  40  57  77 111 153 195 232 270 330
#     4  11  22  36  56  85 117 148 184 231 286 332
#     4  11  23  38  57  83 113 144 186 236 284 331
#     4  10  21  37  57  80 110 150 192 231 273 326
#     4   9  19  36  59  86 114 142 177 224 278 336
#
# _framework density 19.089348000000001
#
# number of rings (size 3 to 8) (size 9 to 14) (size 15 to 20)
#    0.000    1.857    1.429    2.571    0.000    7.143 
#    0.000    3.571    0.000    0.000    0.000    0.000 
#    0.000    0.000    0.000    0.000    0.000    0.000 
#
# Total GULP energy -347327.161084 kJ/mol
# GULP energy per Si atom -12404.541467 kJ/mol
# Density = 1.904590 g / cm^3
# Si number density = 19.089348 Si / 1000 Ang^3
#
#
#
# Elastic Constant Matrix: (Units=GPa)
#
#
# Indices 1 2 3 4 5 6 
#
# 1 64.5543 38.0792 42.1442 0.0000 4.2006 0.0000
# 2 38.0792 65.2509 43.3628 0.0000 2.6583 0.0000
# 3 42.1442 43.3628 107.1777 0.0000 3.0546 0.0000
# 4 0.0000 0.0000 0.0000 36.6381 0.0000 -0.0655
# 5 4.2006 2.6583 3.0546 0.0000 25.7462 0.0000
# 6 0.0000 0.0000 0.0000 -0.0655 0.0000 31.2752
#
#
#
# Elastic Compliance Matrix: (Units=1/GPa)
#
#
# Indices 1 2 3 4 5 6 
#
# 1 0.025978 -0.011379 -0.005543 0.000000 -0.002406 0.000000
# 2 -0.011379 0.025980 -0.006034 0.000000 -0.000110 0.000000
# 3 -0.005543 -0.006034 0.013955 0.000000 -0.000128 0.000000
# 4 0.000000 0.000000 0.000000 0.027294 0.000000 0.000057
# 5 -0.002406 -0.000110 -0.000128 0.000000 0.039260 0.000000
# 6 0.000000 0.000000 0.000000 0.000057 0.000000 0.031974
#
#
# Mechanical properties :
#
#
# Convention : Reuss Voigt Hill
#
# Bulk Modulus (GPa) = 49.99444 53.79503 51.89473
# Shear Modulus (GPa) = 23.03941 26.29167 24.66554
#
# Velocity S-wave (km/s) = 3.47785 3.71522 3.59849
# Velocity P-wave (km/s) = 6.50952 6.82976 6.67156
#
# Compressibility (1/GPa) = 0.02000222
#
# Stress axis : x y z
#
# Youngs Moduli (GPa) = 38.49395 38.49081 71.66073
#
# Poissons Ratio (x) = 0.43798 0.39720
# Poissons Ratio (y) = 0.43802 0.43238
# Poissons Ratio (z) = 0.21336 0.23224
#
# Static dielectric constant tensor:
#      x y z
#    x 3.496880 0.000000 -0.043480 
#    y 0.000000 3.423760 0.000000 
#    z -0.043480 0.000000 3.530720 
# 
# 
# High freq. dielectric constant tensor:
#      x y z
#    x 1.732910 0.000000 -0.000280 
#    y 0.000000 1.741660 0.000000 
#    z -0.000280 0.000000 1.747660 
# 
# From -- ./inp_files/180625.got.cif
#   From: 2010.06.25/outbox.cif.g09.slc.cpg/sg12_91_cif.got.tgz:180625.got - 2010.06.28 00:19:55.
