data_PCOD8092089
_publ_section_title
;
Structure prediction by ZEFSAII (Michael W. Deem and Ramdas Pophale) SiO2 
 PCOD8092089
Probable space group: C 2/M
;
_chemical_formula_sum "Si O2"
_cell_formula_units_Z 56
_cell_length_a 11.481698
_cell_length_b 15.445871
_cell_length_c 14.113384
_cell_angle_alpha 90.000000
_cell_angle_beta 76.559702
_cell_angle_gamma 90.000000
_cell_volume 2434.386837
_symmetry_space_group_name_H-M "C 2/M"
_symmetry_group_IT_number 12
_symmetry_cell_setting 'monoclinic'
loop_
_space_group_symop_operation_xyz
x,y,z
-x,y,-z
-x,-y,-z
x,-y,z
1/2+x,1/2+y,z
1/2-x,1/2+y,-z
1/2-x,1/2-y,-z
1/2+x,1/2-y,z
loop_
_atom_site_type_symbol
_atom_site_label
_atom_site_fract_x
_atom_site_fract_y
_atom_site_fract_z
Si Si1 0.376417 0.304072 0.976464
Si Si2 0.191740 0.398477 0.710823
Si Si3 0.373100 0.896479 0.482574
Si Si4 0.736718 0.898734 0.144497
Si Si5 0.503799 0.102379 0.892611
Si Si6 0.573631 0.398166 0.229824
Si Si7 0.187512 0.102374 0.669966
O O1 0.403736 0.340969 0.867281
O O2 0.500000 0.261894 0.000000
O O3 0.250000 0.250000 0.000000
O O4 0.347544 0.383374 0.053230
O O5 0.167256 0.500000 0.709882
O O6 0.149614 0.357960 0.618534
O O7 0.115327 0.359317 0.812989
O O8 0.328707 0.377810 0.707902
O O9 0.500000 0.863413 0.500000
O O10 0.264010 0.860338 0.567845
O O11 0.371759 0.000000 0.480514
O O12 0.614702 0.854234 0.129540
O O13 0.759814 0.857880 0.243016
O O14 0.714233 0.000000 0.157087
O O15 0.502905 0.000000 0.887483
O O16 0.500000 0.134693 0.000000
O O17 0.575007 0.500000 0.200613
O O18 0.451714 0.371980 0.306865
O O19 0.202108 0.000000 0.668994
#
# Coordination Sequence:
#
# PCOD8092089 Si02
#       7
#     8   8   8   8   8   8   8
#     4  12  26  42  59  84 121 158 197 244 302 362
#     4   9  17  28  46  77 120 158 189 234 289 346
#     4   9  16  27  44  75 123 162 185 224 291 358
#     4  10  19  34  59  84 109 148 197 244 289 344
#     4   9  16  26  43  72 108 145 184 228 279 337
#     4  10  20  36  59  85 113 152 201 247 294 348
#     4   9  17  29  51  81 111 147 191 236 285 342
#
# _framework density 23.003740000000001
#
# number of rings (size 3 to 8) (size 9 to 14) (size 15 to 20)
#    0.000    2.286    1.429    2.143    0.000    8.571 
#    0.000    2.857    0.000    0.429    0.000    1.000 
#    4.286    0.000    0.000    0.000    0.000    0.000 
#
# Total GULP energy -346898.190152 kJ/mol
# GULP energy per Si atom -12389.221077 kJ/mol
# Density = 2.295138 g / cm^3
# Si number density = 23.003740 Si / 1000 Ang^3
#
#
#
# Elastic Constant Matrix: (Units=GPa)
#
#
# Indices 1 2 3 4 5 6 
#
# 1 223.5933 23.0321 114.7068 0.0000 1.2008 0.0000
# 2 23.0321 25.9091 13.0176 0.0000 -5.5459 0.0000
# 3 114.7068 13.0176 219.5418 0.0000 -5.7865 0.0000
# 4 0.0000 0.0000 0.0000 -2.5402 0.0000 -19.8033
# 5 1.2008 -5.5459 -5.7865 0.0000 49.6383 0.0000
# 6 0.0000 0.0000 0.0000 -19.8033 0.0000 -12.5611
#
#
#
# Elastic Compliance Matrix: (Units=1/GPa)
#
#
# Indices 1 2 3 4 5 6 
#
# 1 0.006579 -0.004461 -0.003200 0.000000 -0.001031 0.000000
# 2 -0.004461 0.043692 -0.000129 0.000000 0.004974 0.000000
# 3 -0.003200 -0.000129 0.006255 0.000000 0.000792 0.000000
# 4 0.000000 0.000000 0.000000 0.034866 0.000000 -0.054969
# 5 -0.001031 0.004974 0.000792 0.000000 0.020819 0.000000
# 6 0.000000 0.000000 0.000000 -0.054969 0.000000 0.007051
#
#
# Mechanical properties :
#
#
# Convention : Reuss Voigt Hill
#
# Bulk Modulus (GPa) = 24.42220 85.61745 55.01983
# Shear Modulus (GPa) = 33.67189 28.12660 30.89924
#
# Velocity S-wave (km/s) = 3.83006 3.50050 3.66898
# Velocity P-wave (km/s) = 5.49534 7.32378 6.47443
#
# Compressibility (1/GPa) = 0.04094635
#
# Stress axis : x y z
#
# Youngs Moduli (GPa) = 151.99317 22.88753 159.85988
#
# Poissons Ratio (x) = 0.10211 0.51158
# Poissons Ratio (y) = 0.67810 0.02055
# Poissons Ratio (z) = 0.48640 0.00294
#
# Static dielectric constant tensor:
#      x y z
#    x 4.575290 0.000000 -0.001570 
#    y 0.000000 3.618930 0.000000 
#    z -0.001570 0.000000 4.474130 
# 
# 
# High freq. dielectric constant tensor:
#      x y z
#    x 1.925250 0.000000 -0.002850 
#    y 0.000000 1.869370 0.000000 
#    z -0.002850 0.000000 1.911150 
# 
# From -- ./inp_files/206110.got.cif
#   From: 2010.06.25/outbox.cif.g09.slc.cpg/sg12_104_cif.got.tgz:206110.got - 2010.06.28 00:19:55.
