data_PCOD8092929
_publ_section_title
;
Structure prediction by ZEFSAII (Michael W. Deem and Ramdas Pophale) SiO2 
 PCOD8092929
Probable space group: C 2/M
;
_chemical_formula_sum "Si O2"
_cell_formula_units_Z 64
_cell_length_a 14.619983
_cell_length_b 16.925689
_cell_length_c 17.229895
_cell_angle_alpha 90.000000
_cell_angle_beta 47.489188
_cell_angle_gamma 90.000000
_cell_volume 3142.907712
_symmetry_space_group_name_H-M "C 2/M"
_symmetry_group_IT_number 12
_symmetry_cell_setting 'monoclinic'
loop_
_space_group_symop_operation_xyz
x,y,z
-x,y,-z
-x,-y,-z
x,-y,z
1/2+x,1/2+y,z
1/2-x,1/2+y,-z
1/2-x,1/2-y,-z
1/2+x,1/2-y,z
loop_
_atom_site_type_symbol
_atom_site_label
_atom_site_fract_x
_atom_site_fract_y
_atom_site_fract_z
Si Si1 0.390039 0.406557 0.003563
Si Si2 0.882294 0.651255 0.797269
Si Si3 0.502313 0.591570 0.584945
Si Si4 0.753516 0.590597 0.182693
Si Si5 0.830339 0.805329 0.900056
Si Si6 0.480664 0.092210 0.424461
Si Si7 0.114834 0.408959 0.741783
Si Si8 0.748399 0.159570 0.522897
O O1 0.387764 0.500000 0.989899
O O2 0.258978 0.377459 0.113299
O O3 0.500000 0.383687 0.000000
O O4 0.414167 0.362457 0.906844
O O5 0.906407 0.744205 0.802413
O O6 0.923891 0.639320 0.684895
O O7 0.969813 0.600841 0.805043
O O8 0.500000 0.629016 0.500000
O O9 0.531435 0.500000 0.561252
O O10 0.376532 0.608696 0.701882
O O11 0.612607 0.630245 0.570431
O O12 0.765831 0.500000 0.150001
O O13 0.762110 0.642587 0.100159
O O14 0.861987 0.613877 0.181403
O O15 0.750000 0.750000 0.000000
O O16 0.500000 0.122965 0.500000
O O17 0.339261 0.109598 0.483636
O O18 0.509863 0.000000 0.399102
O O19 0.155653 0.500000 0.705212
O O20 0.200920 0.354230 0.638201
O O21 0.750000 0.250000 0.500000
#
# Coordination Sequence:
#
# PCOD8092929 Si02
#       8
#     8   8   8   8   8   8   8   8
#     4  10  21  41  66  89 117 157 202 243 293 357
#     4  10  21  38  64  89 119 159 195 245 305 353
#     4  10  19  35  58  84 118 158 197 236 287 347
#     4  10  21  37  61  88 117 154 196 245 294 353
#     4  10  23  40  60  87 120 150 187 248 303 354
#     4  10  22  41  61  83 118 160 208 249 281 341
#     4  10  20  38  62  86 116 156 200 243 291 350
#     4  11  22  33  54  85 122 162 194 239 286 346
#
# _framework density 20.363309999999998
#
# number of rings (size 3 to 8) (size 9 to 14) (size 15 to 20)
#    0.000    1.875    1.250    3.375    3.500    3.500 
#    2.250    1.875    0.000    6.750    0.000    0.000 
#    0.000    0.000    0.000    0.000    0.000    0.000 
#
# Total GULP energy -396742.057125 kJ/mol
# GULP energy per Si atom -12398.189285 kJ/mol
# Density = 2.031696 g / cm^3
# Si number density = 20.363310 Si / 1000 Ang^3
#
#
#
# Elastic Constant Matrix: (Units=GPa)
#
#
# Indices 1 2 3 4 5 6 
#
# 1 153.4245 52.6902 61.5143 0.0000 15.5561 0.0000
# 2 52.6902 102.9090 51.8403 0.0000 19.6942 0.0000
# 3 61.5143 51.8403 76.2511 0.0000 14.2588 0.0000
# 4 0.0000 0.0000 0.0000 35.5251 0.0000 12.4453
# 5 15.5561 19.6942 14.2588 0.0000 44.0327 0.0000
# 6 0.0000 0.0000 0.0000 12.4453 0.0000 16.4001
#
#
#
# Elastic Compliance Matrix: (Units=1/GPa)
#
#
# Indices 1 2 3 4 5 6 
#
# 1 0.009813 -0.001487 -0.006793 0.000000 -0.000602 0.000000
# 2 -0.001487 0.015552 -0.008697 0.000000 -0.003614 0.000000
# 3 -0.006793 -0.008697 0.024835 0.000000 -0.001752 0.000000
# 4 0.000000 0.000000 0.000000 0.038342 0.000000 -0.029096
# 5 -0.000602 -0.003614 -0.001752 0.000000 0.025107 0.000000
# 6 0.000000 0.000000 0.000000 -0.029096 0.000000 0.083055
#
#
# Mechanical properties :
#
#
# Convention : Reuss Voigt Hill
#
# Bulk Modulus (GPa) = 61.55716 73.85268 67.70492
# Shear Modulus (GPa) = 21.17973 30.29423 25.73698
#
# Velocity S-wave (km/s) = 3.22855 3.86124 3.55898
# Velocity P-wave (km/s) = 6.64779 7.49834 7.08584
#
# Compressibility (1/GPa) = 0.01624506
#
# Stress axis : x y z
#
# Youngs Moduli (GPa) = 101.90290 64.30142 40.26513
#
# Poissons Ratio (x) = 0.09564 0.27352
# Poissons Ratio (y) = 0.15156 0.35020
# Poissons Ratio (z) = 0.69222 0.55926
#
# Static dielectric constant tensor:
#      x y z
#    x 4.063340 0.000000 0.080460 
#    y 0.000000 3.893980 0.000000 
#    z 0.080460 0.000000 3.680030 
# 
# 
# High freq. dielectric constant tensor:
#      x y z
#    x 1.804300 0.000000 0.007640 
#    y 0.000000 1.801040 0.000000 
#    z 0.007640 0.000000 1.778890 
# 
# From -- ./inp_files/270638.got.cif
#   From: 2010.06.25/outbox.cif.g09.slc.cpg/sg12_136_cif.got.tgz:270638.got - 2010.06.28 00:19:55.
