data_PCOD8092048
_publ_section_title
;
Structure prediction by ZEFSAII (Michael W. Deem and Ramdas Pophale) SiO2 
 PCOD8092048
Probable space group: C 2/M
;
_chemical_formula_sum "Si O2"
_cell_formula_units_Z 64
_cell_length_a 14.934476
_cell_length_b 8.976306
_cell_length_c 33.106341
_cell_angle_alpha 90.000000
_cell_angle_beta 46.086843
_cell_angle_gamma 90.000000
_cell_volume 3197.183936
_symmetry_space_group_name_H-M "C 2/M"
_symmetry_group_IT_number 12
_symmetry_cell_setting 'monoclinic'
loop_
_space_group_symop_operation_xyz
x,y,z
-x,y,-z
-x,-y,-z
x,-y,z
1/2+x,1/2+y,z
1/2-x,1/2+y,-z
1/2-x,1/2-y,-z
1/2+x,1/2-y,z
loop_
_atom_site_type_symbol
_atom_site_label
_atom_site_fract_x
_atom_site_fract_y
_atom_site_fract_z
Si Si1 0.161994 0.825760 0.645819
Si Si2 0.314987 0.323888 0.941881
Si Si3 0.226793 0.329748 0.746819
Si Si4 0.597786 0.670437 0.856799
Si Si5 0.857467 0.177176 0.440496
Si Si6 0.238719 0.328865 0.121496
Si Si7 0.384655 0.823517 0.633847
Si Si8 0.999386 0.669044 0.242658
O O1 0.166314 0.773698 0.598259
O O2 0.288211 0.774517 0.628900
O O3 0.039908 0.757515 0.705018
O O4 0.146462 0.000000 0.654421
O O5 0.304970 0.500000 0.949281
O O6 0.457983 0.270048 0.895510
O O7 0.245732 0.270264 0.923155
O O8 0.250000 0.250000 0.000000
O O9 0.272119 0.500000 0.736014
O O10 0.195239 0.267065 0.800736
O O11 0.336378 0.233620 0.692362
O O12 0.103680 0.313782 0.759155
O O13 0.607804 0.500000 0.838832
O O14 0.634792 0.684427 0.892331
O O15 0.750000 0.250000 0.500000
O O16 0.986562 0.242852 0.416525
O O17 0.856911 0.000000 0.445783
O O18 0.212004 0.500000 0.117266
O O19 0.126129 0.266309 0.184287
O O20 0.404085 0.000000 0.629140
O O21 0.019419 0.500000 0.250034
#
# Coordination Sequence:
#
# PCOD8092048 Si02
#       8
#     8   8   8   8   8   8   8   8
#     4   9  21  39  59  84 118 156 196 241 292 351
#     4  11  24  42  63  86 117 159 202 248 296 352
#     4  10  19  34  58  89 122 154 191 241 293 349
#     4  10  22  38  59  88 119 155 197 241 296 354
#     4  11  24  42  61  87 119 157 202 248 297 353
#     4  10  21  39  60  87 119 154 195 242 294 352
#     4  10  21  39  61  86 117 157 197 242 294 350
#     4   9  18  33  57  87 119 152 189 236 293 350
#
# _framework density 20.017616
#
# number of rings (size 3 to 8) (size 9 to 14) (size 15 to 20)
#    0.000    2.000    1.250    1.500    1.750    4.500 
#    0.000    5.000    0.000    0.000    0.000    0.000 
#    0.000    0.000    0.000    0.000    0.000    0.000 
#
# Total GULP energy -396918.849586 kJ/mol
# GULP energy per Si atom -12403.714050 kJ/mol
# Density = 1.997205 g / cm^3
# Si number density = 20.017616 Si / 1000 Ang^3
#
#
#
# Elastic Constant Matrix: (Units=GPa)
#
#
# Indices 1 2 3 4 5 6 
#
# 1 54.6576 23.2831 21.4035 0.0005 12.2477 0.0005
# 2 23.2831 64.5207 35.6466 0.0008 7.7913 0.0008
# 3 21.4035 35.6466 104.7341 0.0006 16.5221 0.0008
# 4 0.0005 0.0008 0.0006 40.1493 0.0001 1.5533
# 5 12.2477 7.7913 16.5221 0.0001 29.5571 0.0001
# 6 0.0005 0.0008 0.0008 1.5533 0.0001 28.1224
#
#
#
# Elastic Compliance Matrix: (Units=1/GPa)
#
#
# Indices 1 2 3 4 5 6 
#
# 1 0.023316 -0.006825 -0.001318 0.000000 -0.007126 0.000000
# 2 -0.006825 0.021150 -0.005890 0.000000 0.000545 0.000000
# 3 -0.001318 -0.005890 0.012602 0.000000 -0.004946 0.000000
# 4 0.000000 0.000000 0.000000 0.024960 0.000000 -0.001379
# 5 -0.007126 0.000545 -0.004946 0.000000 0.039407 0.000000
# 6 0.000000 0.000000 0.000000 -0.001379 0.000000 0.035635
#
#
# Mechanical properties :
#
#
# Convention : Reuss Voigt Hill
#
# Bulk Modulus (GPa) = 34.47973 42.73096 38.60534
# Shear Modulus (GPa) = 25.66697 29.13770 27.40234
#
# Velocity S-wave (km/s) = 3.58469 3.81938 3.70389
# Velocity P-wave (km/s) = 5.86476 6.39087 6.13346
#
# Compressibility (1/GPa) = 0.02900255
#
# Stress axis : x y z
#
# Youngs Moduli (GPa) = 42.88915 47.28128 79.35207
#
# Poissons Ratio (x) = 0.32271 0.10456
# Poissons Ratio (y) = 0.29273 0.46736
# Poissons Ratio (z) = 0.05652 0.27847
#
# Static dielectric constant tensor:
#      x y z
#    x 3.837680 0.000000 -0.003150 
#    y 0.000000 3.600460 0.000000 
#    z -0.003150 0.000000 3.600690 
# 
# 
# High freq. dielectric constant tensor:
#      x y z
#    x 1.786380 0.000000 -0.000060 
#    y 0.000000 1.778790 0.000000 
#    z -0.000060 0.000000 1.777130 
# 
# From -- ./inp_files/375486.got.cif
#   From: 2010.06.25/outbox.cif.g09.slc.cpg/sg12_188_cif.got.tgz:375486.got - 2010.06.28 00:19:55.
