data_PCOD8092406
_publ_section_title
;
Structure prediction by ZEFSAII (Michael W. Deem and Ramdas Pophale) SiO2 
 PCOD8092406
Probable space group: C 2/M
;
_chemical_formula_sum "Si O2"
_cell_formula_units_Z 64
_cell_length_a 14.671621
_cell_length_b 8.882601
_cell_length_c 26.125564
_cell_angle_alpha 90.000000
_cell_angle_beta 89.612195
_cell_angle_gamma 90.000000
_cell_volume 3404.661822
_symmetry_space_group_name_H-M "C 2/M"
_symmetry_group_IT_number 12
_symmetry_cell_setting 'monoclinic'
loop_
_space_group_symop_operation_xyz
x,y,z
-x,y,-z
-x,-y,-z
x,-y,z
1/2+x,1/2+y,z
1/2-x,1/2+y,-z
1/2-x,1/2-y,-z
1/2+x,1/2-y,z
loop_
_atom_site_type_symbol
_atom_site_label
_atom_site_fract_x
_atom_site_fract_y
_atom_site_fract_z
Si Si1 0.999437 0.821272 0.078365
Si Si2 0.976497 0.178292 0.808152
Si Si3 0.766748 0.821088 0.445324
Si Si4 0.669568 0.827378 0.254481
Si Si5 0.880865 0.677219 0.634338
Si Si6 0.587588 0.177022 0.622254
Si Si7 0.650484 0.678154 0.999286
Si Si8 0.874227 0.173114 0.272534
O O1 0.001318 0.754938 0.135830
O O2 0.090739 0.767654 0.048351
O O3 0.999683 0.000000 0.078702
O O4 0.906461 0.767815 0.050644
O O5 0.878042 0.235637 0.790679
O O6 0.051756 0.236372 0.767567
O O7 0.976245 0.000000 0.810443
O O8 0.750000 0.750000 0.500000
O O9 0.688639 0.758444 0.407495
O O10 0.863383 0.765448 0.423566
O O11 0.765868 0.000000 0.449836
O O12 0.641365 0.755891 0.309528
O O13 0.777102 0.812149 0.245436
O O14 0.637334 0.000000 0.251417
O O15 0.866438 0.500000 0.637757
O O16 0.982124 0.722187 0.617588
O O17 0.625936 0.226586 0.676874
O O18 0.602988 0.000000 0.615533
O O19 0.663151 0.500000 0.999258
O O20 0.750000 0.750000 0.000000
O O21 0.893445 0.000000 0.288068
#
# Coordination Sequence:
#
# PCOD8092406 Si02
#       8
#     8   8   8   8   8   8   8   8
#     4   8  17  34  52  74 110 148 178 217 280 335
#     4  10  20  34  53  80 110 142 183 228 266 317
#     4  11  23  42  61  83 112 143 178 223 273 322
#     4  10  19  35  54  77 108 146 178 212 270 325
#     4   9  19  36  58  78 108 145 174 210 268 326
#     4  11  21  36  59  83 105 140 182 219 262 320
#     4   9  17  33  57  78 102 143 187 227 272 328
#     4  10  20  34  53  77 107 143 178 217 266 319
#
# _framework density 18.797754000000001
#
# number of rings (size 3 to 8) (size 9 to 14) (size 15 to 20)
#    0.000    2.250    2.500    1.500    0.000    2.000 
#    0.000    8.750    0.000    0.000    0.000    0.000 
#    0.000    0.000    0.000    0.000    0.000    0.000 
#
# Total GULP energy -396797.231004 kJ/mol
# GULP energy per Si atom -12399.913469 kJ/mol
# Density = 1.875497 g / cm^3
# Si number density = 18.797754 Si / 1000 Ang^3
#
#
#
# Elastic Constant Matrix: (Units=GPa)
#
#
# Indices 1 2 3 4 5 6 
#
# 1 108.2209 21.8771 31.0112 0.0000 4.4334 0.0000
# 2 21.8771 34.4802 18.2307 0.0000 -0.6264 0.0000
# 3 31.0112 18.2307 107.5812 0.0000 5.8223 0.0000
# 4 0.0000 0.0000 0.0000 22.2474 0.0000 3.4060
# 5 4.4334 -0.6264 5.8223 0.0000 28.0034 0.0000
# 6 0.0000 0.0000 0.0000 3.4060 0.0000 30.7483
#
#
#
# Elastic Compliance Matrix: (Units=1/GPa)
#
#
# Indices 1 2 3 4 5 6 
#
# 1 0.011110 -0.005958 -0.002114 0.000000 -0.001453 0.000000
# 2 -0.005958 0.035147 -0.004382 0.000000 0.002640 0.000000
# 3 -0.002114 -0.004382 0.010756 0.000000 -0.001999 0.000000
# 4 0.000000 0.000000 0.000000 0.045725 0.000000 -0.005065
# 5 -0.001453 0.002640 -0.001999 0.000000 0.036415 0.000000
# 6 0.000000 0.000000 0.000000 -0.005065 0.000000 0.033083
#
#
# Mechanical properties :
#
#
# Convention : Reuss Voigt Hill
#
# Bulk Modulus (GPa) = 31.14750 43.61337 37.38043
# Shear Modulus (GPa) = 24.05654 28.14404 26.10029
#
# Velocity S-wave (km/s) = 3.58125 3.87357 3.73027
# Velocity P-wave (km/s) = 5.80571 6.57706 6.20339
#
# Compressibility (1/GPa) = 0.03210530
#
# Stress axis : x y z
#
# Youngs Moduli (GPa) = 90.00820 28.45210 92.97566
#
# Poissons Ratio (x) = 0.16951 0.19659
# Poissons Ratio (y) = 0.53623 0.40738
# Poissons Ratio (z) = 0.19031 0.12466
#
# Static dielectric constant tensor:
#      x y z
#    x 3.663620 0.000000 -0.030850 
#    y 0.000000 3.161140 0.000000 
#    z -0.030850 0.000000 3.674120 
# 
# 
# High freq. dielectric constant tensor:
#      x y z
#    x 1.741030 0.000000 -0.000150 
#    y 0.000000 1.701230 0.000000 
#    z -0.000150 0.000000 1.730930 
# 
# From -- ./inp_files/338660.got.cif
#   From: 2010.06.25/outbox.cif.g09.slc.cpg/sg12_170_cif.got.tgz:338660.got - 2010.06.28 00:19:55.
