data_PCOD8092515
_publ_section_title
;
Structure prediction by ZEFSAII (Michael W. Deem and Ramdas Pophale) SiO2 
 PCOD8092515
Probable space group: C 2/M
;
_chemical_formula_sum "Si O2"
_cell_formula_units_Z 56
_cell_length_a 10.896772
_cell_length_b 28.051877
_cell_length_c 14.404186
_cell_angle_alpha 90.000000
_cell_angle_beta 138.693479
_cell_angle_gamma 90.000000
_cell_volume 2906.362628
_symmetry_space_group_name_H-M "C 2/M"
_symmetry_group_IT_number 12
_symmetry_cell_setting 'monoclinic'
loop_
_space_group_symop_operation_xyz
x,y,z
-x,y,-z
-x,-y,-z
x,-y,z
1/2+x,1/2+y,z
1/2-x,1/2+y,-z
1/2-x,1/2-y,-z
1/2+x,1/2-y,z
loop_
_atom_site_type_symbol
_atom_site_label
_atom_site_fract_x
_atom_site_fract_y
_atom_site_fract_z
Si Si1 0.020964 0.053703 0.303232
Si Si2 0.096738 0.945758 0.962845
Si Si3 0.938639 0.444574 0.569062
Si Si4 0.428650 0.114673 0.187504
Si Si5 0.607658 0.225117 0.847810
Si Si6 0.330844 0.776597 0.840453
Si Si7 0.328547 0.113976 0.839831
O O1 0.862354 0.086590 0.254699
O O2 0.220662 0.066698 0.458776
O O3 0.964821 0.000000 0.297623
O O4 0.040295 0.058593 0.202657
O O5 0.275465 0.914121 0.042047
O O6 0.160058 0.000000 0.016239
O O7 0.000000 0.925081 0.000000
O O8 0.982739 0.500000 0.618201
O O9 0.000000 0.432868 0.500000
O O10 0.050506 0.408804 0.699362
O O11 0.358780 0.169056 0.148750
O O12 0.619844 0.109040 0.239349
O O13 0.397210 0.232028 0.770600
O O14 0.642971 0.248471 0.765609
O O15 0.750000 0.250000 0.000000
O O16 0.290284 0.831213 0.841796
O O17 0.500000 0.757966 0.000000
O O18 0.500000 0.094701 0.000000
#
# Coordination Sequence:
#
# PCOD8092515 Si02
#       7
#     8   8   8   8   8   8   8
#     4  10  21  35  55  82 113 155 197 236 297 361
#     4  10  20  33  51  82 115 145 192 249 298 349
#     4  10  22  42  60  81 121 165 203 251 300 353
#     4  11  21  35  60  86 113 155 201 243 303 364
#     4   9  18  32  52  85 114 144 190 241 295 359
#     4   8  16  31  50  75 114 148 178 230 294 351
#     4  10  19  35  55  84 121 151 187 249 310 353
#
# _framework density 19.268070999999999
#
# number of rings (size 3 to 8) (size 9 to 14) (size 15 to 20)
#    0.000    2.286    1.429    2.143    0.000    6.000 
#    2.571    1.429    0.000    0.857    0.000    0.000 
#    0.000    0.000    0.000    0.000    0.000    0.000 
#
# Total GULP energy -346978.358060 kJ/mol
# GULP energy per Si atom -12392.084216 kJ/mol
# Density = 1.922422 g / cm^3
# Si number density = 19.268071 Si / 1000 Ang^3
#
#
#
# Elastic Constant Matrix: (Units=GPa)
#
#
# Indices 1 2 3 4 5 6 
#
# 1 106.1722 54.5846 7.8788 0.0000 0.5137 0.0000
# 2 54.5846 98.6835 33.8024 0.0000 0.2482 0.0000
# 3 7.8788 33.8024 51.8279 0.0000 -2.3452 0.0000
# 4 0.0000 0.0000 0.0000 20.5678 0.0000 1.8614
# 5 0.5137 0.2482 -2.3452 0.0000 23.1909 0.0000
# 6 0.0000 0.0000 0.0000 1.8614 0.0000 35.1680
#
#
#
# Elastic Compliance Matrix: (Units=1/GPa)
#
#
# Indices 1 2 3 4 5 6 
#
# 1 0.013686 -0.008834 0.003688 0.000000 0.000164 0.000000
# 2 -0.008834 0.018774 -0.010952 0.000000 -0.001113 0.000000
# 3 0.003688 -0.010952 0.025997 0.000000 0.002664 0.000000
# 4 0.000000 0.000000 0.000000 0.048854 0.000000 -0.002586
# 5 0.000164 -0.001113 0.002664 0.000000 0.043398 0.000000
# 6 0.000000 0.000000 0.000000 -0.002586 0.000000 0.028572
#
#
# Mechanical properties :
#
#
# Convention : Reuss Voigt Hill
#
# Bulk Modulus (GPa) = 38.07722 49.91280 43.99501
# Shear Modulus (GPa) = 22.70368 26.47989 24.59178
#
# Velocity S-wave (km/s) = 3.43637 3.71116 3.57641
# Velocity P-wave (km/s) = 5.96235 6.65765 6.31957
#
# Compressibility (1/GPa) = 0.02626242
#
# Stress axis : x y z
#
# Youngs Moduli (GPa) = 73.06898 53.26589 38.46555
#
# Poissons Ratio (x) = 0.47054 -0.14188
# Poissons Ratio (y) = 0.64547 0.42127
# Poissons Ratio (z) = -0.26951 0.58336
#
# Static dielectric constant tensor:
#      x y z
#    x 3.998540 0.000000 -0.051160 
#    y 0.000000 3.444560 0.000000 
#    z -0.051160 0.000000 3.139970 
# 
# 
# High freq. dielectric constant tensor:
#      x y z
#    x 1.769960 0.000000 -0.003560 
#    y 0.000000 1.743960 0.000000 
#    z -0.003560 0.000000 1.702880 
# 
# From -- ./inp_files/209166.got.cif
#   From: 2010.06.25/outbox.cif.g09.slc.cpg/sg12_105_cif.got.tgz:209166.got - 2010.06.28 00:19:55.
