data_PCOD8092602
_publ_section_title
;
Structure prediction by ZEFSAII (Michael W. Deem and Ramdas Pophale) SiO2 
 PCOD8092602
Probable space group: C 2/M
;
_chemical_formula_sum "Si O2"
_cell_formula_units_Z 60
_cell_length_a 32.200842
_cell_length_b 12.371536
_cell_length_c 8.139834
_cell_angle_alpha 90.000000
_cell_angle_beta 70.365176
_cell_angle_gamma 90.000000
_cell_volume 3054.145382
_symmetry_space_group_name_H-M "C 2/M"
_symmetry_group_IT_number 12
_symmetry_cell_setting 'monoclinic'
loop_
_space_group_symop_operation_xyz
x,y,z
-x,y,-z
-x,-y,-z
x,-y,z
1/2+x,1/2+y,z
1/2-x,1/2+y,-z
1/2-x,1/2-y,-z
1/2+x,1/2-y,z
loop_
_atom_site_type_symbol
_atom_site_label
_atom_site_fract_x
_atom_site_fract_y
_atom_site_fract_z
Si Si1 0.296336 0.122927 0.262993
Si Si2 0.864557 0.754421 0.378513
Si Si3 0.489104 0.622867 0.831558
Si Si4 0.607865 0.378768 0.956737
Si Si5 0.591411 0.128209 0.397484
Si Si6 0.166240 0.263497 0.089496
Si Si7 0.500000 0.240632 0.500000
Si Si8 0.301123 0.377148 0.676005
O O1 0.323318 0.189647 0.360026
O O2 0.244193 0.136983 0.365201
O O3 0.311289 0.000000 0.263028
O O4 0.305753 0.158782 0.063967
O O5 0.896508 0.803297 0.197784
O O6 0.894973 0.676158 0.444790
O O7 0.843610 0.853954 0.506758
O O8 0.507427 0.500000 0.796776
O O9 0.509651 0.688476 0.651360
O O10 0.500000 0.669821 0.000000
O O11 0.436588 0.626388 0.878364
O O12 0.618375 0.500000 0.885543
O O13 0.647580 0.338734 0.015953
O O14 0.626185 0.166617 0.215452
O O15 0.542591 0.166597 0.412176
O O16 0.591719 0.000000 0.408193
O O17 0.198732 0.212576 0.180823
O O18 0.304927 0.500000 0.738219
#
# Coordination Sequence:
#
# PCOD8092602 Si02
#       8
#     8   8   8   8   8   8   4   8
#     4  10  20  35  56  79 112 148 189 232 277 336
#     4  10  21  36  57  81 112 149 187 233 286 344
#     4  10  21  37  59  88 120 151 190 237 293 358
#     4  10  19  35  56  81 111 145 180 229 287 346
#     4  11  23  39  58  80 110 150 197 241 286 336
#     4  10  20  36  55  80 110 149 186 231 280 342
#     4  12  22  40  62  86 118 154 198 248 300 340
#     4  10  20  34  54  85 113 144 184 231 283 341
#
# _framework density 19.645430000000001
#
# number of rings (size 3 to 8) (size 9 to 14) (size 15 to 20)
#    0.000    1.733    1.333    3.600    0.000    0.000 
#    0.000    1.333    0.000   14.400    0.000    0.000 
#    0.000    0.000    0.000    0.000    0.000    0.000 
#
# Total GULP energy -372017.378229 kJ/mol
# GULP energy per Si atom -12400.579274 kJ/mol
# Density = 1.960072 g / cm^3
# Si number density = 19.645430 Si / 1000 Ang^3
#
#
#
# Elastic Constant Matrix: (Units=GPa)
#
#
# Indices 1 2 3 4 5 6 
#
# 1 63.6220 27.8616 8.7473 0.0000 2.8043 0.0000
# 2 27.8616 107.8927 25.0082 0.0000 -0.0758 0.0000
# 3 8.7473 25.0082 67.0186 0.0000 7.2102 0.0000
# 4 0.0000 0.0000 0.0000 19.6361 0.0000 -1.9621
# 5 2.8043 -0.0758 7.2102 0.0000 29.5453 0.0000
# 6 0.0000 0.0000 0.0000 -1.9621 0.0000 24.7208
#
#
#
# Elastic Compliance Matrix: (Units=1/GPa)
#
#
# Indices 1 2 3 4 5 6 
#
# 1 0.017821 -0.004492 -0.000479 0.000000 -0.001586 0.000000
# 2 -0.004492 0.011306 -0.003781 0.000000 0.001378 0.000000
# 3 -0.000479 -0.003781 0.016833 0.000000 -0.004072 0.000000
# 4 0.000000 0.000000 0.000000 0.051334 0.000000 0.004074
# 5 -0.001586 0.001378 -0.004072 0.000000 0.034994 0.000000
# 6 0.000000 0.000000 0.000000 0.004074 0.000000 0.040775
#
#
# Mechanical properties :
#
#
# Convention : Reuss Voigt Hill
#
# Bulk Modulus (GPa) = 35.14268 40.19642 37.66955
# Shear Modulus (GPa) = 24.99363 26.57486 25.78424
#
# Velocity S-wave (km/s) = 3.57071 3.68193 3.62675
# Velocity P-wave (km/s) = 5.90993 6.21135 6.06251
#
# Compressibility (1/GPa) = 0.02845543
#
# Stress axis : x y z
#
# Youngs Moduli (GPa) = 56.11432 88.45059 59.40828
#
# Poissons Ratio (x) = 0.39732 0.02847
# Poissons Ratio (y) = 0.25206 0.22461
# Poissons Ratio (z) = 0.02689 0.33441
#
# Static dielectric constant tensor:
#      x y z
#    x 3.476450 0.000000 0.049600 
#    y 0.000000 3.512010 0.000000 
#    z 0.049600 0.000000 3.625520 
# 
# 
# High freq. dielectric constant tensor:
#      x y z
#    x 1.769350 0.000000 0.000010 
#    y 0.000000 1.765420 0.000000 
#    z 0.000010 0.000000 1.763770 
# 
# From -- ./inp_files/110414.got.cif
#   From: 2010.06.25/outbox.cif.g09.slc.cpg/sg12_56_cif.got.tgz:110414.got - 2010.06.28 00:19:55.
