data_PCOD8092785
_publ_section_title
;
Structure prediction by ZEFSAII (Michael W. Deem and Ramdas Pophale) SiO2 
 PCOD8092785
Probable space group: C 2/M
;
_chemical_formula_sum "Si O2"
_cell_formula_units_Z 64
_cell_length_a 14.040330
_cell_length_b 10.544343
_cell_length_c 25.132507
_cell_angle_alpha 90.000000
_cell_angle_beta 115.039625
_cell_angle_gamma 90.000000
_cell_volume 3371.073184
_symmetry_space_group_name_H-M "C 2/M"
_symmetry_group_IT_number 12
_symmetry_cell_setting 'monoclinic'
loop_
_space_group_symop_operation_xyz
x,y,z
-x,y,-z
-x,-y,-z
x,-y,z
1/2+x,1/2+y,z
1/2-x,1/2+y,-z
1/2-x,1/2-y,-z
1/2+x,1/2-y,z
loop_
_atom_site_type_symbol
_atom_site_label
_atom_site_fract_x
_atom_site_fract_y
_atom_site_fract_z
Si Si1 0.885027 0.854526 0.219556
Si Si2 0.938635 0.854879 0.436436
Si Si3 0.041279 0.852130 0.352889
Si Si4 0.769928 0.359464 0.047309
Si Si5 0.570459 0.354270 0.063825
Si Si6 0.297672 0.148592 0.639934
Si Si7 0.305861 0.858321 0.761016
Si Si8 0.518978 0.783417 0.857168
O O1 0.775543 0.792683 0.216455
O O2 0.919509 0.795498 0.172314
O O3 0.975460 0.833203 0.283903
O O4 0.865676 0.000000 0.201490
O O5 0.814936 0.837468 0.414145
O O6 0.000000 0.785674 0.500000
O O7 0.971858 0.805990 0.386292
O O8 0.972336 0.000000 0.445684
O O9 0.133703 0.749244 0.376083
O O10 0.079569 0.000000 0.365990
O O11 0.742436 0.500000 0.017229
O O12 0.693495 0.331618 0.079441
O O13 0.891384 0.367086 0.093672
O O14 0.750000 0.250000 0.000000
O O15 0.540899 0.500000 0.060820
O O16 0.541470 0.299983 0.113987
O O17 0.500000 0.291761 0.000000
O O18 0.297418 0.201688 0.700483
O O19 0.336379 0.000000 0.646078
O O20 0.426529 0.864712 0.808675
O O21 0.261862 0.000000 0.743797
#
# Coordination Sequence:
#
# PCOD8092785 Si02
#       8
#     8   8   8   8   8   8   8   8
#     4  10  20  34  56  84 112 148 189 230 278 340
#     4   9  18  34  59  85 112 155 203 235 274 343
#     4  10  19  35  57  84 116 149 192 240 280 329
#     4  11  24  42  62  85 114 149 189 233 285 338
#     4  10  21  39  59  79 110 150 184 222 280 343
#     4  10  19  35  58  82 115 156 190 229 290 340
#     4  10  20  35  54  80 113 146 181 230 283 335
#     4  12  21  36  60  85 108 142 188 238 278 337
#
# _framework density 18.985052
#
# number of rings (size 3 to 8) (size 9 to 14) (size 15 to 20)
#    0.000    1.750    3.750    1.500    0.000    1.000 
#    0.000    2.500    0.000    2.250    0.000    0.000 
#    0.000    0.000    0.000    0.000    0.000    0.000 
#
# Total GULP energy -396510.803441 kJ/mol
# GULP energy per Si atom -12390.962608 kJ/mol
# Density = 1.894184 g / cm^3
# Si number density = 18.985052 Si / 1000 Ang^3
#
#
#
# Elastic Constant Matrix: (Units=GPa)
#
#
# Indices 1 2 3 4 5 6 
#
# 1 103.8165 36.6466 16.0155 0.0000 7.6280 0.0000
# 2 36.6466 67.5528 15.9693 0.0000 -1.5698 0.0000
# 3 16.0155 15.9693 69.9491 0.0000 11.5267 0.0000
# 4 0.0000 0.0000 0.0000 6.4329 0.0000 23.4396
# 5 7.6280 -1.5698 11.5267 0.0000 30.1075 0.0000
# 6 0.0000 0.0000 0.0000 23.4396 0.0000 -19.4016
#
#
#
# Elastic Compliance Matrix: (Units=1/GPa)
#
#
# Indices 1 2 3 4 5 6 
#
# 1 0.012302 -0.006558 -0.000800 0.000000 -0.003153 0.000000
# 2 -0.006558 0.019298 -0.003569 0.000000 0.004034 0.000000
# 3 -0.000800 -0.003569 0.016321 0.000000 -0.006232 0.000000
# 4 0.000000 0.000000 0.000000 0.028776 0.000000 0.034765
# 5 -0.003153 0.004034 -0.006232 0.000000 0.036609 0.000000
# 6 0.000000 0.000000 0.000000 0.034765 0.000000 -0.009541
#
#
# Mechanical properties :
#
#
# Convention : Reuss Voigt Hill
#
# Bulk Modulus (GPa) = 38.36195 42.06460 40.21327
# Shear Modulus (GPa) = 37.22745 14.94023 26.08384
#
# Velocity S-wave (km/s) = 4.43299 2.80830 3.71066
# Velocity P-wave (km/s) = 6.81558 5.72016 6.29175
#
# Compressibility (1/GPa) = 0.02606750
#
# Stress axis : x y z
#
# Youngs Moduli (GPa) = 81.28506 51.81793 61.27061
#
# Poissons Ratio (x) = 0.33982 0.04902
# Poissons Ratio (y) = 0.53307 0.21868
# Poissons Ratio (z) = 0.06503 0.18494
#
# Static dielectric constant tensor:
#      x y z
#    x 3.681660 0.000000 -0.032240 
#    y 0.000000 3.177110 0.000000 
#    z -0.032240 0.000000 3.566600 
# 
# 
# High freq. dielectric constant tensor:
#      x y z
#    x 1.752290 0.000000 -0.000280 
#    y 0.000000 1.703650 0.000000 
#    z -0.000280 0.000000 1.740200 
# 
# From -- ./inp_files/335181.got.cif
#   From: 2010.06.25/outbox.cif.g09.slc.cpg/sg12_168_cif.got.tgz:335181.got - 2010.06.28 00:19:55.
