data_PCOD8092013
_publ_section_title
;
Structure prediction by ZEFSAII (Michael W. Deem and Ramdas Pophale) SiO2 
 PCOD8092013
Probable space group: C 2/M
;
_chemical_formula_sum "Si O2"
_cell_formula_units_Z 56
_cell_length_a 19.590909
_cell_length_b 8.437730
_cell_length_c 21.042847
_cell_angle_alpha 90.000000
_cell_angle_beta 54.425628
_cell_angle_gamma 90.000000
_cell_volume 2829.228897
_symmetry_space_group_name_H-M "C 2/M"
_symmetry_group_IT_number 12
_symmetry_cell_setting 'monoclinic'
loop_
_space_group_symop_operation_xyz
x,y,z
-x,y,-z
-x,-y,-z
x,-y,z
1/2+x,1/2+y,z
1/2-x,1/2+y,-z
1/2-x,1/2-y,-z
1/2+x,1/2-y,z
loop_
_atom_site_type_symbol
_atom_site_label
_atom_site_fract_x
_atom_site_fract_y
_atom_site_fract_z
Si Si1 0.511402 0.183770 0.203078
Si Si2 0.657932 0.316871 0.050388
Si Si3 0.423104 0.813742 0.500258
Si Si4 0.258959 0.313133 0.368667
Si Si5 0.901468 0.679729 0.044657
Si Si6 0.129088 0.187353 0.807235
Si Si7 0.912449 0.815184 0.368802
O O1 0.606443 0.222872 0.132254
O O2 0.453914 0.228528 0.174244
O O3 0.486170 0.285717 0.278213
O O4 0.502024 0.000000 0.224756
O O5 0.656797 0.500000 0.069184
O O6 0.750000 0.250000 0.000000
O O7 0.619830 0.293711 0.001547
O O8 0.500000 0.740420 0.500000
O O9 0.333650 0.738702 0.571097
O O10 0.436104 0.778580 0.419309
O O11 0.420981 0.000000 0.512876
O O12 0.255019 0.500000 0.378823
O O13 0.291934 0.268525 0.280546
O O14 0.324646 0.249831 0.386471
O O15 0.871777 0.500000 0.046962
O O16 0.852679 0.744925 0.132945
O O17 0.000000 0.687836 0.000000
O O18 0.113207 0.000000 0.817232
O O19 0.906790 0.000000 0.387620
#
# Coordination Sequence:
#
# PCOD8092013 Si02
#       7
#     8   8   8   8   8   8   8
#     4  11  21  37  60  87 117 150 193 242 293 350
#     4  12  25  42  62  86 119 158 199 243 294 350
#     4  10  20  36  57  82 115 151 186 231 289 351
#     4   8  17  34  56  83 112 145 188 237 286 342
#     4  11  22  37  60  88 120 155 198 245 292 349
#     4  10  19  34  58  87 116 150 195 247 298 346
#     4  10  20  36  59  84 111 146 191 239 285 342
#
# _framework density 19.793379000000002
#
# number of rings (size 3 to 8) (size 9 to 14) (size 15 to 20)
#    0.000    1.714    1.429    5.143    0.000    0.857 
#    2.571    3.571    0.000    0.000    0.000    0.000 
#    0.000    0.000    0.000    0.000    0.000    0.000 
#
# Total GULP energy -347245.113333 kJ/mol
# GULP energy per Si atom -12401.611190 kJ/mol
# Density = 1.974833 g / cm^3
# Si number density = 19.793379 Si / 1000 Ang^3
#
#
#
# Elastic Constant Matrix: (Units=GPa)
#
#
# Indices 1 2 3 4 5 6 
#
# 1 104.3149 14.9800 61.6520 0.0001 -12.3982 -0.0001
# 2 14.9800 56.9192 1.5167 0.0002 -3.8028 0.0007
# 3 61.6520 1.5167 124.4887 0.0001 -6.2131 -0.0005
# 4 0.0001 0.0002 0.0001 30.3637 0.0001 4.6144
# 5 -12.3982 -3.8028 -6.2131 0.0001 30.6929 0.0000
# 6 -0.0001 0.0007 -0.0005 4.6144 0.0000 22.5012
#
#
#
# Elastic Compliance Matrix: (Units=1/GPa)
#
#
# Indices 1 2 3 4 5 6 
#
# 1 0.014730 -0.003415 -0.007049 0.000000 0.004100 0.000000
# 2 -0.003415 0.018508 0.001527 0.000000 0.001223 -0.000001
# 3 -0.007049 0.001527 0.011488 0.000000 -0.000333 0.000000
# 4 0.000000 0.000000 0.000000 0.033993 0.000000 -0.006971
# 5 0.004100 0.001223 -0.000333 0.000000 0.034321 0.000000
# 6 0.000000 -0.000001 0.000000 -0.006971 0.000000 0.045872
#
#
# Mechanical properties :
#
#
# Convention : Reuss Voigt Hill
#
# Bulk Modulus (GPa) = 37.23941 49.11337 43.17639
# Shear Modulus (GPa) = 26.91964 30.54983 28.73474
#
# Velocity S-wave (km/s) = 3.69186 3.93292 3.81430
# Velocity P-wave (km/s) = 6.08507 6.74468 6.42335
#
# Compressibility (1/GPa) = 0.02685327
#
# Stress axis : x y z
#
# Youngs Moduli (GPa) = 67.88899 54.02928 87.04396
#
# Poissons Ratio (x) = 0.18450 0.61354
# Poissons Ratio (y) = 0.23183 -0.13289
# Poissons Ratio (z) = 0.47853 -0.08249
#
# Static dielectric constant tensor:
#      x y z
#    x 2.804850 0.000000 -0.632320 
#    y 0.000000 3.535450 0.000000 
#    z -0.632320 0.000000 3.506730 
# 
# 
# High freq. dielectric constant tensor:
#      x y z
#    x 1.752210 0.000000 -0.004780 
#    y 0.000000 1.763820 0.000000 
#    z -0.004780 0.000000 1.785780 
# 
# From -- ./inp_files/280972.got.cif
#   From: 2010.06.25/outbox.cif.g09.slc.cpg/sg12_141_cif.got.tgz:280972.got - 2010.06.28 00:19:55.
