data_PCOD8092025
_publ_section_title
;
Structure prediction by ZEFSAII (Michael W. Deem and Ramdas Pophale) SiO2 
 PCOD8092025
Probable space group: C 2/M
;
_chemical_formula_sum "Si O2"
_cell_formula_units_Z 64
_cell_length_a 28.821380
_cell_length_b 9.110228
_cell_length_c 14.444695
_cell_angle_alpha 90.000000
_cell_angle_beta 121.749355
_cell_angle_gamma 90.000000
_cell_volume 3225.182328
_symmetry_space_group_name_H-M "C 2/M"
_symmetry_group_IT_number 12
_symmetry_cell_setting 'monoclinic'
loop_
_space_group_symop_operation_xyz
x,y,z
-x,y,-z
-x,-y,-z
x,-y,z
1/2+x,1/2+y,z
1/2-x,1/2+y,-z
1/2-x,1/2-y,-z
1/2+x,1/2-y,z
loop_
_atom_site_type_symbol
_atom_site_label
_atom_site_fract_x
_atom_site_fract_y
_atom_site_fract_z
Si Si1 0.608940 0.335792 0.275932
Si Si2 0.802821 0.675370 0.513127
Si Si3 0.671949 0.830572 0.665906
Si Si4 0.946869 0.665440 0.503381
Si Si5 0.589930 0.827320 0.880149
Si Si6 0.298803 0.174231 0.104165
Si Si7 0.990055 0.836240 0.707071
Si Si8 0.560165 0.328365 0.036042
O O1 0.632956 0.500000 0.317363
O O2 0.645215 0.220230 0.370276
O O3 0.544850 0.333090 0.235735
O O4 0.605403 0.298300 0.163417
O O5 0.798024 0.500000 0.510952
O O6 0.750000 0.750000 0.500000
O O7 0.808968 0.735042 0.413427
O O8 0.607264 0.806005 0.613170
O O9 0.700253 0.764826 0.788138
O O10 0.686779 0.000000 0.678048
O O11 0.945721 0.500000 0.542494
O O12 0.947021 0.781645 0.585777
O O13 0.000000 0.694629 0.500000
O O14 0.646111 0.781044 0.890823
O O15 0.541265 0.771862 0.763417
O O16 0.584777 0.000000 0.885776
O O17 0.584914 0.753935 0.974454
O O18 0.290981 0.000000 0.095153
O O19 0.250000 0.250000 0.000000
O O20 0.010762 0.000000 0.706276
O O21 0.555884 0.500000 0.007111
O O22 0.500000 0.267943 0.000000
#
# Coordination Sequence:
#
# PCOD8092025 Si02
#       8
#     8   8   8   8   8   8   8   8
#     4  10  21  38  59  84 119 160 198 243 298 354
#     4  11  23  40  63  89 119 156 203 249 297 358
#     4   9  19  38  62  86 115 155 197 237 291 358
#     4  10  19  34  58  87 119 156 198 243 296 358
#     4  11  23  38  60  91 124 158 204 257 307 360
#     4  10  23  44  65  87 117 155 203 253 299 353
#     4  11  21  35  57  86 123 159 197 244 299 361
#     4  10  20  38  60  85 122 166 206 245 299 364
#
# _framework density 19.84384
#
# number of rings (size 3 to 8) (size 9 to 14) (size 15 to 20)
#    0.000    1.750    2.500    1.875    0.000    5.500 
#    0.000    5.625    0.000    0.000    0.000    0.000 
#    0.000    0.000    0.000    0.000    0.000    0.000 
#
# Total GULP energy -396698.343040 kJ/mol
# GULP energy per Si atom -12396.823220 kJ/mol
# Density = 1.979867 g / cm^3
# Si number density = 19.843840 Si / 1000 Ang^3
#
#
#
# Elastic Constant Matrix: (Units=GPa)
#
#
# Indices 1 2 3 4 5 6 
#
# 1 109.6814 34.9723 50.3287 0.0000 -1.3879 0.0000
# 2 34.9723 59.2705 36.5963 0.0000 -5.0997 0.0000
# 3 50.3287 36.5963 130.4700 0.0000 -7.0057 0.0000
# 4 0.0000 0.0000 0.0000 31.1443 0.0000 4.1126
# 5 -1.3879 -5.0997 -7.0057 0.0000 29.3595 0.0000
# 6 0.0000 0.0000 0.0000 4.1126 0.0000 29.0257
#
#
#
# Elastic Compliance Matrix: (Units=1/GPa)
#
#
# Indices 1 2 3 4 5 6 
#
# 1 0.012323 -0.005317 -0.003323 0.000000 -0.001134 0.000000
# 2 -0.005317 0.022842 -0.004211 0.000000 0.002712 0.000000
# 3 -0.003323 -0.004211 0.010211 0.000000 0.001548 0.000000
# 4 0.000000 0.000000 0.000000 0.032721 0.000000 -0.004636
# 5 -0.001134 0.002712 0.001548 0.000000 0.034847 0.000000
# 6 0.000000 0.000000 0.000000 -0.004636 0.000000 0.035109
#
#
# Mechanical properties :
#
#
# Convention : Reuss Voigt Hill
#
# Bulk Modulus (GPa) = 50.82665 60.35738 55.59202
# Shear Modulus (GPa) = 27.72964 29.74090 28.73527
#
# Velocity S-wave (km/s) = 3.74223 3.87557 3.80948
# Velocity P-wave (km/s) = 6.65892 7.10696 6.88659
#
# Compressibility (1/GPa) = 0.01967472
#
# Stress axis : x y z
#
# Youngs Moduli (GPa) = 81.14802 43.77885 97.93687
#
# Poissons Ratio (x) = 0.23277 0.32546
# Poissons Ratio (y) = 0.43146 0.41236
# Poissons Ratio (z) = 0.26967 0.18433
#
# Static dielectric constant tensor:
#      x y z
#    x 3.693360 0.000000 -0.179810 
#    y 0.000000 3.438660 0.000000 
#    z -0.179810 0.000000 3.793980 
# 
# 
# High freq. dielectric constant tensor:
#      x y z
#    x 1.771960 0.000000 -0.006700 
#    y 0.000000 1.755990 0.000000 
#    z -0.006700 0.000000 1.786370 
# 
# From -- ./inp_files/249219.got.cif
#   From: 2010.06.25/outbox.cif.g09.slc.cpg/sg12_125_cif.got.tgz:249219.got - 2010.06.28 00:19:55.
