data_PCOD8092354
_publ_section_title
;
Structure prediction by ZEFSAII (Michael W. Deem and Ramdas Pophale) SiO2 
 PCOD8092354
Probable space group: C 2/M
;
_chemical_formula_sum "Si O2"
_cell_formula_units_Z 64
_cell_length_a 11.344080
_cell_length_b 28.532769
_cell_length_c 18.529440
_cell_angle_alpha 90.000000
_cell_angle_beta 142.329182
_cell_angle_gamma 90.000000
_cell_volume 3665.260240
_symmetry_space_group_name_H-M "C 2/M"
_symmetry_group_IT_number 12
_symmetry_cell_setting 'monoclinic'
loop_
_space_group_symop_operation_xyz
x,y,z
-x,y,-z
-x,-y,-z
x,-y,z
1/2+x,1/2+y,z
1/2-x,1/2+y,-z
1/2-x,1/2-y,-z
1/2+x,1/2-y,z
loop_
_atom_site_type_symbol
_atom_site_label
_atom_site_fract_x
_atom_site_fract_y
_atom_site_fract_z
Si Si1 0.499822 0.285302 0.373773
Si Si2 0.362495 0.862067 0.001747
Si Si3 0.294682 0.446804 0.815411
Si Si4 0.603508 0.124503 0.625261
Si Si5 0.563888 0.210299 0.201212
Si Si6 0.382186 0.187947 0.614008
Si Si7 0.244885 0.945535 0.041787
Si Si8 0.969578 0.186128 0.774291
O O1 0.285252 0.298948 0.289792
O O2 0.530389 0.229635 0.392688
O O3 0.648855 0.308806 0.502675
O O4 0.552146 0.303525 0.320118
O O5 0.146775 0.848959 0.873301
O O6 0.500000 0.870053 0.000000
O O7 0.434740 0.817818 0.082535
O O8 0.365443 0.910411 0.048908
O O9 0.234036 0.500000 0.780858
O O10 0.188783 0.423112 0.697430
O O11 0.226133 0.428925 0.861243
O O12 0.521471 0.440080 0.914678
O O13 0.500000 0.114157 0.500000
O O14 0.443576 0.140318 0.605387
O O15 0.772182 0.162653 0.703482
O O16 0.526515 0.189884 0.262438
O O17 0.506495 0.265204 0.169732
O O18 0.309987 0.000000 0.061678
#
# Coordination Sequence:
#
# PCOD8092354 Si02
#       8
#     8   8   8   8   8   8   8   8
#     4  10  19  35  52  73 107 145 187 226 262 306
#     4  12  23  37  56  78 112 146 183 229 280 330
#     4   9  19  37  60  83 111 139 175 227 280 337
#     4  12  21  34  57  83 113 145 184 224 278 327
#     4  11  22  36  53  76 110 151 190 224 270 315
#     4  10  21  32  54  79 103 143 188 225 262 310
#     4   9  19  38  61  83 105 139 182 228 280 333
#     4  11  22  37  50  77 116 147 183 229 270 326
#
# _framework density 17.461244000000001
#
# number of rings (size 3 to 8) (size 9 to 14) (size 15 to 20)
#    0.000    1.500    5.000    2.250    0.000    0.500 
#    0.000    0.000    0.000    0.000    0.000    0.000 
#    0.000    6.000    0.000    0.000    0.000    0.000 
#
# Total GULP energy -396777.136594 kJ/mol
# GULP energy per Si atom -12399.285519 kJ/mol
# Density = 1.742150 g / cm^3
# Si number density = 17.461244 Si / 1000 Ang^3
#
#
#
# Elastic Constant Matrix: (Units=GPa)
#
#
# Indices 1 2 3 4 5 6 
#
# 1 81.0276 37.8290 24.0118 0.0000 -4.6060 0.0000
# 2 37.8290 77.0622 31.9111 0.0000 -9.5654 0.0000
# 3 24.0118 31.9111 78.2815 -0.0002 -6.2494 0.0001
# 4 0.0000 0.0000 -0.0002 21.1379 0.0000 -4.7811
# 5 -4.6060 -9.5654 -6.2494 0.0000 24.7272 0.0000
# 6 0.0000 0.0000 0.0001 -4.7811 0.0000 28.2965
#
#
#
# Elastic Compliance Matrix: (Units=1/GPa)
#
#
# Indices 1 2 3 4 5 6 
#
# 1 0.016292 -0.007161 -0.002099 0.000000 -0.000266 0.000000
# 2 -0.007161 0.019271 -0.005277 0.000000 0.004787 0.000000
# 3 -0.002099 -0.005277 0.015692 0.000000 0.001533 0.000000
# 4 0.000000 0.000000 0.000000 0.049188 0.000000 0.008311
# 5 -0.000266 0.004787 0.001533 0.000000 0.042631 0.000000
# 6 0.000000 0.000000 0.000000 0.008311 0.000000 0.036744
#
#
# Mechanical properties :
#
#
# Convention : Reuss Voigt Hill
#
# Bulk Modulus (GPa) = 45.08588 47.09723 46.09156
# Shear Modulus (GPa) = 23.11744 24.34030 23.72887
#
# Velocity S-wave (km/s) = 3.64253 3.73763 3.69039
# Velocity P-wave (km/s) = 6.60055 6.75703 6.67925
#
# Compressibility (1/GPa) = 0.02217989
#
# Stress axis : x y z
#
# Youngs Moduli (GPa) = 61.38073 51.89059 63.72695
#
# Poissons Ratio (x) = 0.37160 0.13378
# Poissons Ratio (y) = 0.43956 0.33629
# Poissons Ratio (z) = 0.12886 0.27383
#
# Static dielectric constant tensor:
#      x y z
#    x 3.238690 0.000000 -0.093150 
#    y 0.000000 3.129050 0.000000 
#    z -0.093150 0.000000 3.235040 
# 
# 
# High freq. dielectric constant tensor:
#      x y z
#    x 1.676450 0.000000 -0.005520 
#    y 0.000000 1.658920 0.000000 
#    z -0.005520 0.000000 1.676290 
# 
# From -- ./inp_files/136653.got.cif
#   From: 2010.06.25/outbox.cif.g09.slc.cpg/sg12_69_cif.got.tgz:136653.got - 2010.06.28 00:19:55.
