data_PCOD8092188
_publ_section_title
;
Structure prediction by ZEFSAII (Michael W. Deem and Ramdas Pophale) SiO2 
 PCOD8092188
Probable space group: C 2/M
;
_chemical_formula_sum "Si O2"
_cell_formula_units_Z 64
_cell_length_a 28.150078
_cell_length_b 8.988374
_cell_length_c 15.314938
_cell_angle_alpha 90.000000
_cell_angle_beta 56.947193
_cell_angle_gamma 90.000000
_cell_volume 3247.933898
_symmetry_space_group_name_H-M "C 2/M"
_symmetry_group_IT_number 12
_symmetry_cell_setting 'monoclinic'
loop_
_space_group_symop_operation_xyz
x,y,z
-x,y,-z
-x,-y,-z
x,-y,z
1/2+x,1/2+y,z
1/2-x,1/2+y,-z
1/2-x,1/2-y,-z
1/2+x,1/2-y,z
loop_
_atom_site_type_symbol
_atom_site_label
_atom_site_fract_x
_atom_site_fract_y
_atom_site_fract_z
Si Si1 0.123939 0.828248 0.474516
Si Si2 0.865708 0.828710 0.041547
Si Si3 0.254672 0.673899 0.587398
Si Si4 0.758098 0.671934 0.899814
Si Si5 0.067651 0.674903 0.179457
Si Si6 0.135508 0.324896 0.780382
Si Si7 0.562373 0.173561 0.690011
Si Si8 0.869608 0.173882 0.729305
O O1 0.188334 0.770710 0.422411
O O2 0.080720 0.744077 0.580288
O O3 0.106367 0.800694 0.392052
O O4 0.120223 0.000000 0.503346
O O5 0.798266 0.811078 0.100996
O O6 0.886278 0.762182 0.112899
O O7 0.884474 0.000000 0.015990
O O8 0.894844 0.736618 0.936085
O O9 0.255085 0.500000 0.569441
O O10 0.250000 0.750000 0.500000
O O11 0.201149 0.716809 0.700563
O O12 0.773564 0.500000 0.900431
O O13 0.808271 0.751245 0.797584
O O14 0.750000 0.750000 0.000000
O O15 0.078137 0.500000 0.177754
O O16 0.085356 0.752745 0.251447
O O17 0.002542 0.713438 0.225633
O O18 0.126035 0.500000 0.804840
O O19 0.099706 0.266304 0.733284
O O20 0.572373 0.000000 0.669620
O O21 0.862856 0.000000 0.758173
#
# Coordination Sequence:
#
# PCOD8092188 Si02
#       8
#     8   8   8   8   8   8   8   8
#     4  10  22  38  60  90 122 157 195 243 301 356
#     4  11  24  40  61  91 122 155 196 244 298 356
#     4  10  19  34  59  89 120 155 192 236 293 352
#     4  11  22  37  61  91 123 158 196 242 298 357
#     4  11  24  42  63  86 116 157 204 252 301 351
#     4  10  21  39  62  88 121 159 197 242 295 353
#     4  10  23  42  63  87 116 157 206 251 296 351
#     4  11  23  40  62  90 123 158 199 243 297 363
#
# _framework density 19.704834999999999
#
# number of rings (size 3 to 8) (size 9 to 14) (size 15 to 20)
#    0.000    1.500    2.500    2.250    0.000    6.500 
#    0.000    5.000    0.000    0.000    0.000    0.000 
#    0.000    0.000    0.000    0.000    0.000    0.000 
#
# Total GULP energy -396937.577767 kJ/mol
# GULP energy per Si atom -12404.299305 kJ/mol
# Density = 1.965999 g / cm^3
# Si number density = 19.704835 Si / 1000 Ang^3
#
#
#
# Elastic Constant Matrix: (Units=GPa)
#
#
# Indices 1 2 3 4 5 6 
#
# 1 77.0990 47.3063 47.1310 0.0000 8.5826 0.0001
# 2 47.3063 87.0240 41.3106 0.0000 5.2180 0.0004
# 3 47.1310 41.3106 65.1796 0.0000 21.8680 0.0000
# 4 0.0000 0.0000 0.0000 37.0727 0.0000 4.0173
# 5 8.5826 5.2180 21.8680 0.0000 32.0119 0.0001
# 6 0.0001 0.0004 0.0000 4.0173 0.0001 31.3990
#
#
#
# Elastic Compliance Matrix: (Units=1/GPa)
#
#
# Indices 1 2 3 4 5 6 
#
# 1 0.026984 -0.006956 -0.016939 0.000000 0.005471 0.000000
# 2 -0.006956 0.019089 -0.008629 0.000000 0.004648 0.000000
# 3 -0.016939 -0.008629 0.040300 0.000000 -0.021582 0.000000
# 4 0.000000 0.000000 0.000000 0.027353 0.000000 -0.003500
# 5 0.005471 0.004648 -0.021582 0.000000 0.043757 0.000000
# 6 0.000000 0.000000 0.000000 -0.003500 0.000000 0.032296
#
#
# Mechanical properties :
#
#
# Convention : Reuss Voigt Hill
#
# Bulk Modulus (GPa) = 46.88768 55.64427 51.26597
# Shear Modulus (GPa) = 19.08866 26.33370 22.71118
#
# Velocity S-wave (km/s) = 3.11582 3.65966 3.39863
# Velocity P-wave (km/s) = 6.06557 6.79394 6.44006
#
# Compressibility (1/GPa) = 0.02132756
#
# Stress axis : x y z
#
# Youngs Moduli (GPa) = 37.05897 52.38486 24.81371
#
# Poissons Ratio (x) = 0.36437 0.42032
# Poissons Ratio (y) = 0.25777 0.21411
# Poissons Ratio (z) = 0.62774 0.45201
#
# Static dielectric constant tensor:
#      x y z
#    x 3.637630 0.000000 -0.020220 
#    y 0.000000 3.454540 0.000000 
#    z -0.020220 0.000000 3.523180 
# 
# 
# High freq. dielectric constant tensor:
#      x y z
#    x 1.773050 0.000000 0.005740 
#    y 0.000000 1.770010 0.000000 
#    z 0.005740 0.000000 1.772500 
# 
# From -- ./inp_files/249800.got.cif
#   From: 2010.06.25/outbox.cif.g09.slc.cpg/sg12_125_cif.got.tgz:249800.got - 2010.06.28 00:19:55.
