data_PCOD8092237
_publ_section_title
;
Structure prediction by ZEFSAII (Michael W. Deem and Ramdas Pophale) SiO2 
 PCOD8092237
Probable space group: C 2/M
;
_chemical_formula_sum "Si O2"
_cell_formula_units_Z 64
_cell_length_a 9.559839
_cell_length_b 15.373114
_cell_length_c 29.592316
_cell_angle_alpha 90.000000
_cell_angle_beta 130.637695
_cell_angle_gamma 90.000000
_cell_volume 3300.223198
_symmetry_space_group_name_H-M "C 2/M"
_symmetry_group_IT_number 12
_symmetry_cell_setting 'monoclinic'
loop_
_space_group_symop_operation_xyz
x,y,z
-x,y,-z
-x,-y,-z
x,-y,z
1/2+x,1/2+y,z
1/2-x,1/2+y,-z
1/2-x,1/2-y,-z
1/2+x,1/2-y,z
loop_
_atom_site_type_symbol
_atom_site_label
_atom_site_fract_x
_atom_site_fract_y
_atom_site_fract_z
Si Si1 0.975552 0.751857 0.238201
Si Si2 0.457171 0.597128 0.683205
Si Si3 0.531541 0.598887 0.933068
Si Si4 0.219200 0.402481 0.315660
Si Si5 0.199656 0.401160 0.930352
Si Si6 0.046472 0.247936 0.149596
Si Si7 0.805992 0.339599 0.445425
Si Si8 0.471847 0.339490 0.445007
O O1 0.068563 0.834398 0.282169
O O2 0.761025 0.750144 0.193942
O O3 0.051366 0.664639 0.277963
O O4 0.010262 0.759831 0.193722
O O5 0.459836 0.500000 0.704121
O O6 0.648223 0.619137 0.698430
O O7 0.291223 0.601553 0.612495
O O8 0.526174 0.500000 0.913669
O O9 0.349682 0.619330 0.923643
O O10 0.542511 0.664758 0.893806
O O11 0.711525 0.612581 0.001766
O O12 0.139122 0.500000 0.295174
O O13 0.333384 0.396610 0.386133
O O14 0.127238 0.500000 0.910185
O O15 0.029867 0.336223 0.888848
O O16 0.666261 0.325458 0.458835
O O17 0.866905 0.249991 0.434429
O O18 0.000000 0.386031 0.500000
O O19 0.500000 0.386242 0.500000
#
# Coordination Sequence:
#
# PCOD8092237 Si02
#       8
#     8   8   8   8   8   8   8   8
#     4  12  24  40  61  85 122 159 203 248 289 343
#     4  10  22  41  62  84 118 159 198 244 301 357
#     4   9  19  38  63  92 124 154 196 244 291 347
#     4  10  22  41  63  84 116 160 201 243 296 358
#     4   9  19  38  64  91 121 160 196 236 293 358
#     4  12  23  38  63  91 120 158 199 248 290 345
#     4  10  19  34  60  86 115 150 190 242 298 357
#     4  10  19  34  60  87 115 148 190 244 301 353
#
# _framework density 19.392628999999999
#
# number of rings (size 3 to 8) (size 9 to 14) (size 15 to 20)
#    0.000    1.750    3.750    2.625    0.000    2.500 
#    2.250    0.000    0.000    1.500    0.000    0.000 
#    0.000    0.000    0.000    0.000    0.000    0.000 
#
# Total GULP energy -396619.064071 kJ/mol
# GULP energy per Si atom -12394.345752 kJ/mol
# Density = 1.934849 g / cm^3
# Si number density = 19.392629 Si / 1000 Ang^3
#
#
#
# Elastic Constant Matrix: (Units=GPa)
#
#
# Indices 1 2 3 4 5 6 
#
# 1 91.1542 34.4362 50.4694 0.0000 12.2509 0.0000
# 2 34.4362 127.0642 76.1984 0.0000 8.0631 0.0000
# 3 50.4694 76.1984 128.6051 0.0000 4.0894 0.0000
# 4 0.0000 0.0000 0.0000 13.9599 0.0000 0.6861
# 5 12.2509 8.0631 4.0894 0.0000 32.3107 0.0000
# 6 0.0000 0.0000 0.0000 0.6861 0.0000 27.0251
#
#
#
# Elastic Compliance Matrix: (Units=1/GPa)
#
#
# Indices 1 2 3 4 5 6 
#
# 1 0.014763 -0.000487 -0.005353 0.000000 -0.004799 0.000000
# 2 -0.000487 0.012373 -0.007076 0.000000 -0.002008 0.000000
# 3 -0.005353 -0.007076 0.014005 0.000000 0.002023 0.000000
# 4 0.000000 0.000000 0.000000 0.071723 0.000000 -0.001821
# 5 -0.004799 -0.002008 0.002023 0.000000 0.033014 0.000000
# 6 0.000000 0.000000 0.000000 -0.001821 0.000000 0.037049
#
#
# Mechanical properties :
#
#
# Convention : Reuss Voigt Hill
#
# Bulk Modulus (GPa) = 65.31850 74.33684 69.82767
# Shear Modulus (GPa) = 23.37986 27.04044 25.21015
#
# Velocity S-wave (km/s) = 3.47595 3.73817 3.60944
# Velocity P-wave (km/s) = 7.06151 7.55299 7.31138
#
# Compressibility (1/GPa) = 0.01530960
#
# Stress axis : x y z
#
# Youngs Moduli (GPa) = 67.73833 80.82327 71.40562
#
# Poissons Ratio (x) = 0.03932 0.38220
# Poissons Ratio (y) = 0.03296 0.50527
# Poissons Ratio (z) = 0.36257 0.57191
#
# Static dielectric constant tensor:
#      x y z
#    x 3.392300 0.000000 -0.037920 
#    y 0.000000 3.560600 0.000000 
#    z -0.037920 0.000000 3.863420 
# 
# 
# High freq. dielectric constant tensor:
#      x y z
#    x 1.740770 0.000000 -0.000540 
#    y 0.000000 1.752700 0.000000 
#    z -0.000540 0.000000 1.771100 
# 
# From -- ./inp_files/372609.got.cif
#   From: 2010.06.25/outbox.cif.g09.slc.cpg/sg12_187_cif.got.tgz:372609.got - 2010.06.28 00:19:55.
