data_PCOD8092967
_publ_section_title
;
Structure prediction by ZEFSAII (Michael W. Deem and Ramdas Pophale) SiO2 
 PCOD8092967
Probable space group: C 2/M
;
_chemical_formula_sum "Si O2"
_cell_formula_units_Z 56
_cell_length_a 14.807647
_cell_length_b 17.254595
_cell_length_c 11.387929
_cell_angle_alpha 90.000000
_cell_angle_beta 73.343781
_cell_angle_gamma 90.000000
_cell_volume 2787.533073
_symmetry_space_group_name_H-M "C 2/M"
_symmetry_group_IT_number 12
_symmetry_cell_setting 'monoclinic'
loop_
_space_group_symop_operation_xyz
x,y,z
-x,y,-z
-x,-y,-z
x,-y,z
1/2+x,1/2+y,z
1/2-x,1/2+y,-z
1/2-x,1/2-y,-z
1/2+x,1/2-y,z
loop_
_atom_site_type_symbol
_atom_site_label
_atom_site_fract_x
_atom_site_fract_y
_atom_site_fract_z
Si Si1 0.094806 0.584677 0.894392
Si Si2 0.650167 0.238610 0.984480
Si Si3 0.595621 0.412478 0.393907
Si Si4 0.248147 0.410795 0.468495
Si Si5 0.781813 0.796433 0.263945
Si Si6 0.101632 0.672215 0.658697
Si Si7 0.416344 0.261621 0.746418
O O1 0.146469 0.500000 0.872626
O O2 0.073598 0.610736 0.769412
O O3 0.153960 0.649749 0.939465
O O4 0.000000 0.574826 0.000000
O O5 0.572607 0.256756 0.114014
O O6 0.750000 0.250000 0.000000
O O7 0.643809 0.295917 0.873682
O O8 0.500000 0.401811 0.500000
O O9 0.602442 0.500000 0.339726
O O10 0.683367 0.396105 0.446645
O O11 0.595021 0.351082 0.287573
O O12 0.234546 0.500000 0.446692
O O13 0.291812 0.375408 0.333055
O O14 0.144722 0.373881 0.531633
O O15 0.811360 0.726504 0.337121
O O16 0.674343 0.786474 0.261090
O O17 0.010114 0.722820 0.656348
#
# Coordination Sequence:
#
# PCOD8092967 Si02
#       7
#     8   8   8   8   8   8   8
#     4  10  19  35  58  87 120 158 199 244 297 353
#     4   9  20  39  56  86 119 155 204 250 288 361
#     4  10  22  39  61  89 117 152 203 260 303 347
#     4  11  23  41  59  88 125 159 201 252 305 361
#     4  10  22  38  59  85 118 158 207 242 300 357
#     4  11  21  36  61  89 120 158 200 247 304 362
#     4  11  21  37  61  88 121 156 202 247 302 360
#
# _framework density 20.089448000000001
#
# number of rings (size 3 to 8) (size 9 to 14) (size 15 to 20)
#    0.000    1.714    2.857    1.714    2.000    0.000 
#    0.000    5.714    0.000    0.000    0.000    6.000 
#    0.000    0.000    0.000    0.000    0.000    0.000 
#
# Total GULP energy -346997.914690 kJ/mol
# GULP energy per Si atom -12392.782667 kJ/mol
# Density = 2.004372 g / cm^3
# Si number density = 20.089448 Si / 1000 Ang^3
#
#
#
# Elastic Constant Matrix: (Units=GPa)
#
#
# Indices 1 2 3 4 5 6 
#
# 1 68.9106 40.2302 15.2951 0.0000 -10.2267 0.0000
# 2 40.2302 149.3521 77.9272 0.0000 10.3241 0.0000
# 3 15.2951 77.9272 93.9984 0.0000 2.6200 0.0000
# 4 0.0000 0.0000 0.0000 -28.3564 0.0000 33.1305
# 5 -10.2267 10.3241 2.6200 0.0000 24.1451 0.0000
# 6 0.0000 0.0000 0.0000 33.1305 0.0000 15.2190
#
#
#
# Elastic Compliance Matrix: (Units=1/GPa)
#
#
# Indices 1 2 3 4 5 6 
#
# 1 0.020054 -0.007621 0.002736 0.000000 0.011456 0.000000
# 2 -0.007621 0.015093 -0.011036 0.000000 -0.008484 0.000000
# 3 0.002736 -0.011036 0.019237 0.000000 0.003790 0.000000
# 4 0.000000 0.000000 0.000000 -0.009952 0.000000 0.021665
# 5 0.011456 -0.008484 0.003790 0.000000 0.049485 0.000000
# 6 0.000000 0.000000 0.000000 0.021665 0.000000 0.018543
#
#
# Mechanical properties :
#
#
# Convention : Reuss Voigt Hill
#
# Bulk Modulus (GPa) = 44.36402 64.35180 54.35791
# Shear Modulus (GPa) = 32.93463 14.12212 23.52838
#
# Velocity S-wave (km/s) = 4.05334 2.65422 3.42596
# Velocity P-wave (km/s) = 6.63606 6.44169 6.53960
#
# Compressibility (1/GPa) = 0.02254079
#
# Stress axis : x y z
#
# Youngs Moduli (GPa) = 49.86645 66.25515 51.98337
#
# Poissons Ratio (x) = 0.50493 -0.14221
# Poissons Ratio (y) = 0.38003 0.57369
# Poissons Ratio (z) = -0.13642 0.73120
#
# Static dielectric constant tensor:
#      x y z
#    x 3.562920 0.000000 0.039750 
#    y 0.000000 6.061340 0.000000 
#    z 0.039750 0.000000 4.737620 
# 
# 
# High freq. dielectric constant tensor:
#      x y z
#    x 1.774070 0.000000 -0.012140 
#    y 0.000000 1.777870 0.000000 
#    z -0.012140 0.000000 1.789020 
# 
# From -- ./inp_files/145508.got.cif
#   From: 2010.06.25/outbox.cif.g09.slc.cpg/sg12_73_cif.got.tgz:145508.got - 2010.06.28 00:19:55.
