data_PCOD8092882
_publ_section_title
;
Structure prediction by ZEFSAII (Michael W. Deem and Ramdas Pophale) SiO2 
 PCOD8092882
Probable space group: C 2/M
;
_chemical_formula_sum "Si O2"
_cell_formula_units_Z 40
_cell_length_a 9.873760
_cell_length_b 28.058449
_cell_length_c 15.680916
_cell_angle_alpha 90.000000
_cell_angle_beta 152.479865
_cell_angle_gamma 90.000000
_cell_volume 2007.318612
_symmetry_space_group_name_H-M "C 2/M"
_symmetry_group_IT_number 12
_symmetry_cell_setting 'monoclinic'
loop_
_space_group_symop_operation_xyz
x,y,z
-x,y,-z
-x,-y,-z
x,-y,z
1/2+x,1/2+y,z
1/2-x,1/2+y,-z
1/2-x,1/2-y,-z
1/2+x,1/2-y,z
loop_
_atom_site_type_symbol
_atom_site_label
_atom_site_fract_x
_atom_site_fract_y
_atom_site_fract_z
Si Si1 0.930559 0.445621 0.363480
Si Si2 0.964891 0.276856 0.681416
Si Si3 0.813139 0.382914 0.638677
Si Si4 0.689240 0.701817 0.278093
Si Si5 0.911908 0.884485 0.044105
O O1 0.988441 0.500000 0.369131
O O2 0.587880 0.433443 0.158038
O O3 0.000000 0.436045 0.500000
O O4 0.132081 0.411152 0.418701
O O5 0.750000 0.250000 0.500000
O O6 0.818294 0.326613 0.625408
O O7 0.004791 0.243388 0.786723
O O8 0.261828 0.283579 0.793523
O O9 0.500000 0.398750 0.500000
O O10 0.063972 0.395367 0.849117
O O11 0.497774 0.653423 0.166070
O O12 0.000000 0.692466 0.500000
O O13 0.000000 0.863696 0.000000
#
# Coordination Sequence:
#
# PCOD8092882 Si02
#       5
#     8   8   8   8   8
#     4  10  22  42  71  93 113 154 203 250 307 368
#     4  10  20  34  57  86 118 168 202 246 293 353
#     4  11  23  40  58  88 129 156 201 248 304 355
#     4  10  19  35  58  82 119 161 206 248 294 346
#     4  10  20  37  61  88 120 159 203 250 290 361
#
# _framework density 19.927081000000001
#
# number of rings (size 3 to 8) (size 9 to 14) (size 15 to 20)
#    0.000    1.800    4.000    2.400    2.800    4.800 
#    0.000    1.000    0.000    2.400    0.000    0.000 
#    0.000    0.000    0.000    0.000    0.000    0.000 
#
# Total GULP energy -247855.412342 kJ/mol
# GULP energy per Si atom -12392.770617 kJ/mol
# Density = 1.988173 g / cm^3
# Si number density = 19.927081 Si / 1000 Ang^3
#
#
#
# Elastic Constant Matrix: (Units=GPa)
#
#
# Indices 1 2 3 4 5 6 
#
# 1 91.9654 43.2502 53.6765 0.0000 6.4936 0.0000
# 2 43.2502 98.9282 33.7685 0.0000 -13.7518 0.0000
# 3 53.6765 33.7685 113.2039 0.0004 5.4758 0.0000
# 4 0.0000 0.0000 0.0004 20.4475 0.0001 -5.6826
# 5 6.4936 -13.7518 5.4758 0.0001 29.1879 0.0000
# 6 0.0000 0.0000 0.0000 -5.6826 0.0000 29.2135
#
#
#
# Elastic Compliance Matrix: (Units=1/GPa)
#
#
# Indices 1 2 3 4 5 6 
#
# 1 0.018071 -0.006566 -0.006323 0.000000 -0.005928 0.000000
# 2 -0.006566 0.014782 -0.001719 0.000000 0.008748 0.000000
# 3 -0.006323 -0.001719 0.012428 0.000000 -0.001735 0.000000
# 4 0.000000 0.000000 0.000000 0.051701 0.000000 0.010057
# 5 -0.005928 0.008748 -0.001735 0.000000 0.040026 0.000000
# 6 0.000000 0.000000 0.000000 0.010057 0.000000 0.036187
#
#
# Mechanical properties :
#
#
# Convention : Reuss Voigt Hill
#
# Bulk Modulus (GPa) = 62.24888 62.83198 62.54043
# Shear Modulus (GPa) = 24.06558 27.32994 25.69776
#
# Velocity S-wave (km/s) = 3.47894 3.70739 3.59498
# Velocity P-wave (km/s) = 6.88793 7.06581 6.97744
#
# Compressibility (1/GPa) = 0.01606455
#
# Stress axis : x y z
#
# Youngs Moduli (GPa) = 55.33879 67.65121 80.46045
#
# Poissons Ratio (x) = 0.44419 0.50875
# Poissons Ratio (y) = 0.36335 0.13833
# Poissons Ratio (z) = 0.34991 0.11631
#
# Static dielectric constant tensor:
#      x y z
#    x 4.105490 0.000000 -0.045550 
#    y 0.000000 3.774170 0.000000 
#    z -0.045550 0.000000 3.770610 
# 
# 
# High freq. dielectric constant tensor:
#      x y z
#    x 1.760100 0.000000 -0.015060 
#    y 0.000000 1.773720 0.000000 
#    z -0.015060 0.000000 1.775020 
# 
# From -- ./inp_files/201421.got.cif
#   From: 2010.06.25/outbox.cif.g09.slc.cpg/sg12_101_cif.got.tgz:201421.got - 2010.06.28 00:19:55.
