data_PCOD8092705
_publ_section_title
;
Structure prediction by ZEFSAII (Michael W. Deem and Ramdas Pophale) SiO2 
 PCOD8092705
Probable space group: C 2/M
;
_chemical_formula_sum "Si O2"
_cell_formula_units_Z 48
_cell_length_a 18.981858
_cell_length_b 8.908210
_cell_length_c 29.235291
_cell_angle_alpha 90.000000
_cell_angle_beta 148.425845
_cell_angle_gamma 90.000000
_cell_volume 2588.436997
_symmetry_space_group_name_H-M "C 2/M"
_symmetry_group_IT_number 12
_symmetry_cell_setting 'monoclinic'
loop_
_space_group_symop_operation_xyz
x,y,z
-x,y,-z
-x,-y,-z
x,-y,z
1/2+x,1/2+y,z
1/2-x,1/2+y,-z
1/2-x,1/2-y,-z
1/2+x,1/2-y,z
loop_
_atom_site_type_symbol
_atom_site_label
_atom_site_fract_x
_atom_site_fract_y
_atom_site_fract_z
Si Si1 0.668271 0.828618 0.223742
Si Si2 0.877032 0.174284 0.463504
Si Si3 0.590509 0.176794 0.761251
Si Si4 0.033558 0.171661 0.638785
Si Si5 0.890989 0.176308 0.718495
Si Si6 0.870674 0.674679 0.900425
O O1 0.826777 0.792558 0.309449
O O2 0.601714 0.720460 0.224166
O O3 0.600495 0.796407 0.137192
O O4 0.644977 0.000000 0.226163
O O5 0.747072 0.271025 0.380902
O O6 0.000000 0.228894 0.500000
O O7 0.913310 0.200953 0.536752
O O8 0.845492 0.000000 0.436019
O O9 0.514806 0.224490 0.672650
O O10 0.517018 0.247880 0.763796
O O11 0.744131 0.230153 0.847055
O O12 0.584553 0.000000 0.762245
O O13 0.035690 0.000000 0.657230
O O14 0.903438 0.000000 0.720203
O O15 0.838660 0.500000 0.891449
O O16 0.000000 0.729375 0.000000
#
# Coordination Sequence:
#
# PCOD8092705 Si02
#       6
#     8   8   8   8   8   8
#     4   9  17  34  58  83 111 145 182 221 274 332
#     4  10  19  35  57  80 109 148 191 232 277 326
#     4  11  23  38  57  81 114 149 185 229 279 329
#     4   9  18  35  58  80 108 147 189 231 276 329
#     4  12  24  36  53  80 115 151 190 233 276 323
#     4   9  19  39  66  90 112 141 177 220 274 338
#
# _framework density 18.544008999999999
#
# number of rings (size 3 to 8) (size 9 to 14) (size 15 to 20)
#    0.000    2.000    1.667    4.000    0.000    4.667 
#    0.000    0.833    0.000    0.000    0.000    0.000 
#    0.000    0.000    0.000    0.000    0.000    0.000 
#
# Total GULP energy -297673.782909 kJ/mol
# GULP energy per Si atom -12403.074288 kJ/mol
# Density = 1.850180 g / cm^3
# Si number density = 18.544009 Si / 1000 Ang^3
#
#
#
# Elastic Constant Matrix: (Units=GPa)
#
#
# Indices 1 2 3 4 5 6 
#
# 1 116.8981 64.8918 49.8505 0.0000 -2.1408 0.0000
# 2 64.8918 119.6229 38.3481 0.0000 1.2842 -0.0001
# 3 49.8505 38.3481 91.9548 0.0001 -16.7021 0.0000
# 4 0.0000 0.0000 0.0001 25.7143 0.0000 1.0005
# 5 -2.1408 1.2842 -16.7021 0.0000 20.2968 0.0000
# 6 0.0000 -0.0001 0.0000 1.0005 0.0000 34.1238
#
#
#
# Elastic Compliance Matrix: (Units=1/GPa)
#
#
# Indices 1 2 3 4 5 6 
#
# 1 0.014203 -0.005813 -0.005804 0.000000 -0.002910 0.000000
# 2 -0.005813 0.012410 -0.002679 0.000000 -0.003602 0.000000
# 3 -0.005804 -0.002679 0.017704 0.000000 0.014126 0.000000
# 4 0.000000 0.000000 0.000000 0.038933 0.000000 -0.001142
# 5 -0.002910 -0.003602 0.014126 0.000000 0.060814 0.000000
# 6 0.000000 0.000000 0.000000 -0.001142 0.000000 0.029339
#
#
# Mechanical properties :
#
#
# Convention : Reuss Voigt Hill
#
# Bulk Modulus (GPa) = 63.58750 70.51739 67.05245
# Shear Modulus (GPa) = 24.12695 27.71934 25.92315
#
# Velocity S-wave (km/s) = 3.61094 3.87044 3.74294
# Velocity P-wave (km/s) = 7.19372 7.62124 7.41057
#
# Compressibility (1/GPa) = 0.01572636
#
# Stress axis : x y z
#
# Youngs Moduli (GPa) = 70.40692 80.57861 56.48336
#
# Poissons Ratio (x) = 0.46839 0.32785
# Poissons Ratio (y) = 0.40926 0.15129
# Poissons Ratio (z) = 0.40866 0.21583
#
# Static dielectric constant tensor:
#      x y z
#    x 3.441670 0.000000 -0.138130 
#    y 0.000000 3.295970 0.000000 
#    z -0.138130 0.000000 3.397180 
# 
# 
# High freq. dielectric constant tensor:
#      x y z
#    x 1.721550 0.000000 -0.011430 
#    y 0.000000 1.712500 0.000000 
#    z -0.011430 0.000000 1.707740 
# 
# From -- ./inp_files/274051.got.cif
#   From: 2010.06.25/outbox.cif.g09.slc.cpg/sg12_138_cif.got.tgz:274051.got - 2010.06.28 00:19:55.
