data_PCOD8092321
_publ_section_title
;
Structure prediction by ZEFSAII (Michael W. Deem and Ramdas Pophale) SiO2 
 PCOD8092321
Probable space group: C 2/M
;
_chemical_formula_sum "Si O2"
_cell_formula_units_Z 56
_cell_length_a 22.587037
_cell_length_b 14.333925
_cell_length_c 9.374404
_cell_angle_alpha 90.000000
_cell_angle_beta 112.469697
_cell_angle_gamma 90.000000
_cell_volume 2804.648718
_symmetry_space_group_name_H-M "C 2/M"
_symmetry_group_IT_number 12
_symmetry_cell_setting 'monoclinic'
loop_
_space_group_symop_operation_xyz
x,y,z
-x,y,-z
-x,-y,-z
x,-y,z
1/2+x,1/2+y,z
1/2-x,1/2+y,-z
1/2-x,1/2-y,-z
1/2+x,1/2-y,z
loop_
_atom_site_type_symbol
_atom_site_label
_atom_site_fract_x
_atom_site_fract_y
_atom_site_fract_z
Si Si1 0.817129 0.254687 0.802322
Si Si2 0.634358 0.898904 0.932180
Si Si3 0.369169 0.608049 0.655471
Si Si4 0.991794 0.605049 0.827677
Si Si5 0.313740 0.832711 0.300854
Si Si6 0.772192 0.399685 0.550722
Si Si7 0.439948 0.754031 0.551967
O O1 0.857584 0.162521 0.795804
O O2 0.744680 0.237699 0.787528
O O3 0.813549 0.318303 0.657963
O O4 0.854124 0.311482 0.955760
O O5 0.560755 0.895607 0.816739
O O6 0.676840 0.893514 0.830845
O O7 0.649268 0.000000 0.018893
O O8 0.386204 0.500000 0.703197
O O9 0.303822 0.618108 0.503912
O O10 0.426659 0.654590 0.617173
O O11 0.962015 0.500000 0.800729
O O12 0.948327 0.671044 0.688483
O O13 0.000000 0.640092 0.000000
O O14 0.290616 0.902684 0.401888
O O15 0.378655 0.779066 0.400302
O O16 0.789119 0.500000 0.634674
O O17 0.500000 0.745669 0.500000
#
# Coordination Sequence:
#
# PCOD8092321 Si02
#       7
#     8   8   8   8   8   8   8
#     4  11  20  39  63  88 119 156 202 254 310 356
#     4  11  23  38  58  90 129 158 193 247 310 374
#     4  10  21  39  62  88 115 150 208 263 298 346
#     4  10  23  39  57  87 123 162 202 240 296 371
#     4  11  21  38  56  92 123 160 198 243 301 368
#     4  10  19  34  62  91 117 147 195 251 307 366
#     4  12  22  39  63  86 123 167 203 248 301 351
#
# _framework density 19.966850000000001
#
# number of rings (size 3 to 8) (size 9 to 14) (size 15 to 20)
#    0.000    1.286    4.286    3.000    0.000    2.286 
#    0.000    0.000    0.000    4.714    0.000    0.000 
#    0.000    0.000    0.000    0.000    0.000    0.000 
#
# Total GULP energy -347044.615636 kJ/mol
# GULP energy per Si atom -12394.450558 kJ/mol
# Density = 1.992140 g / cm^3
# Si number density = 19.966850 Si / 1000 Ang^3
#
#
#
# Elastic Constant Matrix: (Units=GPa)
#
#
# Indices 1 2 3 4 5 6 
#
# 1 97.1722 47.9798 18.5150 0.0000 -11.4790 0.0000
# 2 47.9798 140.0910 41.5289 0.0000 -1.4725 0.0000
# 3 18.5150 41.5289 61.3211 0.0000 -9.3612 0.0000
# 4 0.0000 0.0000 0.0000 17.6252 0.0000 -2.1794
# 5 -11.4790 -1.4725 -9.3612 0.0000 28.8622 0.0000
# 6 0.0000 0.0000 0.0000 -2.1794 0.0000 26.4254
#
#
#
# Elastic Compliance Matrix: (Units=1/GPa)
#
#
# Indices 1 2 3 4 5 6 
#
# 1 0.013064 -0.004348 -0.000253 0.000000 0.004892 0.000000
# 2 -0.004348 0.010448 -0.006255 0.000000 -0.003225 0.000000
# 3 -0.000253 -0.006255 0.021627 0.000000 0.006595 0.000000
# 4 0.000000 0.000000 0.000000 0.057322 0.000000 0.004728
# 5 0.004892 -0.003225 0.006595 0.000000 0.038567 0.000000
# 6 0.000000 0.000000 0.000000 0.004728 0.000000 0.038232
#
#
# Mechanical properties :
#
#
# Convention : Reuss Voigt Hill
#
# Bulk Modulus (GPa) = 42.68694 57.18131 49.93412
# Shear Modulus (GPa) = 23.94855 27.28658 25.61757
#
# Velocity S-wave (km/s) = 3.46702 3.70076 3.58579
# Velocity P-wave (km/s) = 6.11982 6.85282 6.49667
#
# Compressibility (1/GPa) = 0.02342637
#
# Stress axis : x y z
#
# Youngs Moduli (GPa) = 76.54689 95.71512 46.23850
#
# Poissons Ratio (x) = 0.41615 0.01171
# Poissons Ratio (y) = 0.33281 0.28923
# Poissons Ratio (z) = 0.01938 0.59871
#
# Static dielectric constant tensor:
#      x y z
#    x 3.760850 0.000000 -0.091340 
#    y 0.000000 3.741920 0.000000 
#    z -0.091340 0.000000 3.385180 
# 
# 
# High freq. dielectric constant tensor:
#      x y z
#    x 1.788280 0.000000 -0.009140 
#    y 0.000000 1.776240 0.000000 
#    z -0.009140 0.000000 1.755550 
# 
# From -- ./inp_files/96241.got.cif
#   From: 2010.06.25/outbox.cif.g09.slc.cpg/sg12_49_cif.got.tgz:96241.got - 2010.06.28 00:19:55.
