data_PCOD8092196
_publ_section_title
;
Structure prediction by ZEFSAII (Michael W. Deem and Ramdas Pophale) SiO2 
 PCOD8092196
Probable space group: C 2/M
;
_chemical_formula_sum "Si O2"
_cell_formula_units_Z 48
_cell_length_a 13.722875
_cell_length_b 12.658699
_cell_length_c 20.096662
_cell_angle_alpha 90.000000
_cell_angle_beta 45.952046
_cell_angle_gamma 90.000000
_cell_volume 2509.232428
_symmetry_space_group_name_H-M "C 2/M"
_symmetry_group_IT_number 12
_symmetry_cell_setting 'monoclinic'
loop_
_space_group_symop_operation_xyz
x,y,z
-x,y,-z
-x,-y,-z
x,-y,z
1/2+x,1/2+y,z
1/2-x,1/2+y,-z
1/2-x,1/2-y,-z
1/2+x,1/2-y,z
loop_
_atom_site_type_symbol
_atom_site_label
_atom_site_fract_x
_atom_site_fract_y
_atom_site_fract_z
Si Si1 0.610487 0.879530 0.158131
Si Si2 0.344830 0.880156 0.708373
Si Si3 0.932976 0.254509 0.466241
Si Si4 0.403758 0.378905 0.989018
Si Si5 0.158262 0.122265 0.609037
Si Si6 0.931092 0.807090 0.210173
O O1 0.613683 0.868692 0.235505
O O2 0.484553 0.812785 0.189813
O O3 0.585619 0.000000 0.147292
O O4 0.751680 0.831219 0.062460
O O5 0.474671 0.850034 0.603569
O O6 0.218580 0.804874 0.750533
O O7 0.302128 0.000000 0.710924
O O8 0.924097 0.161169 0.416424
O O9 0.789671 0.304566 0.554110
O O10 0.000000 0.203392 0.500000
O O11 0.384448 0.500000 0.019524
O O12 0.468045 0.371079 0.885699
O O13 0.500000 0.324958 0.000000
O O14 0.067795 0.137253 0.718134
O O15 0.197066 0.000000 0.581243
#
# Coordination Sequence:
#
# PCOD8092196 Si02
#       6
#     8   8   8   8   8   8
#     4  10  22  39  58  85 121 154 190 233 291 350
#     4  11  21  37  61  87 116 150 193 243 288 338
#     4  11  23  40  59  84 119 154 189 242 293 347
#     4  10  19  34  59  90 117 149 192 238 286 337
#     4  11  24  39  59  89 117 150 197 242 288 344
#     4  12  21  36  62  89 116 150 196 243 285 333
#
# _framework density 19.129356000000001
#
# number of rings (size 3 to 8) (size 9 to 14) (size 15 to 20)
#    0.000    1.167    5.000    2.500    0.000    1.000 
#    0.000    0.833    0.000    0.500    0.000    0.000 
#    0.000    0.000    0.000    0.000    0.000    0.000 
#
# Total GULP energy -297628.654875 kJ/mol
# GULP energy per Si atom -12401.193953 kJ/mol
# Density = 1.908582 g / cm^3
# Si number density = 19.129356 Si / 1000 Ang^3
#
#
#
# Elastic Constant Matrix: (Units=GPa)
#
#
# Indices 1 2 3 4 5 6 
#
# 1 92.8329 35.5733 28.4868 0.0000 0.3321 0.0000
# 2 35.5733 67.6452 10.1077 0.0000 -4.7224 0.0000
# 3 28.4868 10.1077 108.9887 0.0000 8.6322 0.0000
# 4 0.0000 0.0000 0.0000 26.9107 0.0000 -3.0801
# 5 0.3321 -4.7224 8.6322 0.0000 33.9071 0.0000
# 6 0.0000 0.0000 0.0000 -3.0801 0.0000 25.2879
#
#
#
# Elastic Compliance Matrix: (Units=1/GPa)
#
#
# Indices 1 2 3 4 5 6 
#
# 1 0.014470 -0.007172 -0.003089 0.000000 -0.000354 0.000000
# 2 -0.007172 0.018755 -0.000079 0.000000 0.002702 0.000000
# 3 -0.003089 -0.000079 0.010194 0.000000 -0.002576 0.000000
# 4 0.000000 0.000000 0.000000 0.037685 0.000000 0.004590
# 5 -0.000354 0.002702 -0.002576 0.000000 0.030528 0.000000
# 6 0.000000 0.000000 0.000000 0.004590 0.000000 0.040104
#
#
# Mechanical properties :
#
#
# Convention : Reuss Voigt Hill
#
# Bulk Modulus (GPa) = 43.97746 46.42249 45.19998
# Shear Modulus (GPa) = 27.77852 30.24109 29.00981
#
# Velocity S-wave (km/s) = 3.81483 3.98033 3.89846
# Velocity P-wave (km/s) = 6.51486 6.74125 6.62902
#
# Compressibility (1/GPa) = 0.02273892
#
# Stress axis : x y z
#
# Youngs Moduli (GPa) = 69.11046 53.31825 98.09797
#
# Poissons Ratio (x) = 0.38242 0.30300
# Poissons Ratio (y) = 0.49569 0.00772
# Poissons Ratio (z) = 0.21346 0.00420
#
# Static dielectric constant tensor:
#      x y z
#    x 3.538070 0.000000 0.022980 
#    y 0.000000 3.281430 0.000000 
#    z 0.022980 0.000000 3.685890 
# 
# 
# High freq. dielectric constant tensor:
#      x y z
#    x 1.742160 0.000000 0.004570 
#    y 0.000000 1.714630 0.000000 
#    z 0.004570 0.000000 1.765950 
# 
# From -- ./inp_files/204356.got.cif
#   From: 2010.06.25/outbox.cif.g09.slc.cpg/sg12_103_cif.got.tgz:204356.got - 2010.06.28 00:19:55.
