data_PCOD8092335
_publ_section_title
;
Structure prediction by ZEFSAII (Michael W. Deem and Ramdas Pophale) SiO2 
 PCOD8092335
Probable space group: C 2/M
;
_chemical_formula_sum "Si O2"
_cell_formula_units_Z 48
_cell_length_a 12.719312
_cell_length_b 27.221130
_cell_length_c 5.679903
_cell_angle_alpha 90.000000
_cell_angle_beta 73.403636
_cell_angle_gamma 90.000000
_cell_volume 1884.649627
_symmetry_space_group_name_H-M "C 2/M"
_symmetry_group_IT_number 12
_symmetry_cell_setting 'monoclinic'
loop_
_space_group_symop_operation_xyz
x,y,z
-x,y,-z
-x,-y,-z
x,-y,z
1/2+x,1/2+y,z
1/2-x,1/2+y,-z
1/2-x,1/2-y,-z
1/2+x,1/2-y,z
loop_
_atom_site_type_symbol
_atom_site_label
_atom_site_fract_x
_atom_site_fract_y
_atom_site_fract_z
Si Si1 0.199137 0.117133 0.390611
Si Si2 0.638575 0.719065 0.568223
Si Si3 0.801437 0.445863 0.700272
Si Si4 0.395762 0.134830 0.929321
Si Si5 0.619021 0.754773 0.085441
Si Si6 0.085429 0.945612 0.133838
O O1 0.164747 0.161204 0.587892
O O2 0.252334 0.070534 0.484337
O O3 0.285204 0.139100 0.151102
O O4 0.090272 0.094064 0.340245
O O5 0.750000 0.750000 0.500000
O O6 0.578843 0.724293 0.345206
O O7 0.572697 0.737398 0.848513
O O8 0.856318 0.500000 0.637470
O O9 0.886895 0.403670 0.720834
O O10 0.706973 0.449308 0.953692
O O11 0.500000 0.114188 0.000000
O O12 0.419066 0.190038 0.828458
O O13 0.750000 0.750000 0.000000
O O14 0.046692 0.000000 0.242666
O O15 0.000000 0.924333 0.000000
#
# Coordination Sequence:
#
# PCOD8092335 Si02
#       6
#     8   8   8   8   8   8
#     4  11  21  37  65  91 126 170 214 266 329 390
#     4  10  19  34  65  89 121 164 210 264 327 380
#     4  10  22  40  64  92 124 167 216 268 327 389
#     4  11  24  40  63  90 127 173 222 266 322 385
#     4  10  19  38  63  89 118 165 212 269 322 382
#     4   9  20  39  63  92 126 163 208 266 332 400
#
# _framework density 25.468926
#
# number of rings (size 3 to 8) (size 9 to 14) (size 15 to 20)
#    0.000    1.833    3.333    2.500    2.333    2.333 
#    0.000    4.167    3.667    0.000    0.000    0.000 
#    0.000    0.000    0.000    0.000    0.000    0.000 
#
# Total GULP energy -297510.738036 kJ/mol
# GULP energy per Si atom -12396.280752 kJ/mol
# Density = 2.541096 g / cm^3
# Si number density = 25.468926 Si / 1000 Ang^3
#
#
#
# Elastic Constant Matrix: (Units=GPa)
#
#
# Indices 1 2 3 4 5 6 
#
# 1 63.3352 43.8221 51.8010 0.0000 30.3910 0.0000
# 2 43.8221 176.5464 44.6504 0.0000 28.7928 0.0000
# 3 51.8010 44.6504 132.5675 0.0000 27.5656 0.0000
# 4 0.0000 0.0000 0.0000 15.4603 0.0000 13.1390
# 5 30.3910 28.7928 27.5656 0.0000 55.5457 0.0000
# 6 0.0000 0.0000 0.0000 13.1390 0.0000 30.1560
#
#
#
# Elastic Compliance Matrix: (Units=1/GPa)
#
#
# Indices 1 2 3 4 5 6 
#
# 1 0.030215 -0.003670 -0.008395 0.000000 -0.010463 0.000000
# 2 -0.003670 0.006945 -0.000640 0.000000 -0.001274 0.000000
# 3 -0.008395 -0.000640 0.011167 0.000000 -0.000617 0.000000
# 4 0.000000 0.000000 0.000000 0.102716 0.000000 -0.044753
# 5 -0.010463 -0.001274 -0.000617 0.000000 0.024695 0.000000
# 6 0.000000 0.000000 0.000000 -0.044753 0.000000 0.052660
#
#
# Mechanical properties :
#
#
# Convention : Reuss Voigt Hill
#
# Bulk Modulus (GPa) = 43.63501 72.55514 58.09507
# Shear Modulus (GPa) = 19.12431 35.71078 27.41754
#
# Velocity S-wave (km/s) = 2.74321 3.74857 3.28458
# Velocity P-wave (km/s) = 5.21569 6.87643 6.10281
#
# Compressibility (1/GPa) = 0.02291738
#
# Stress axis : x y z
#
# Youngs Moduli (GPa) = 33.09593 143.98924 89.54560
#
# Poissons Ratio (x) = 0.52850 0.75171
# Poissons Ratio (y) = 0.12148 0.05731
# Poissons Ratio (z) = 0.27783 0.09215
#
# Static dielectric constant tensor:
#      x y z
#    x 4.594560 0.000000 0.334630 
#    y 0.000000 4.720390 0.000000 
#    z 0.334630 0.000000 5.099390 
# 
# 
# High freq. dielectric constant tensor:
#      x y z
#    x 2.026140 0.000000 0.010260 
#    y 0.000000 2.017100 0.000000 
#    z 0.010260 0.000000 2.017950 
# 
# From -- ./inp_files/12368.got.cif
#   From: 2010.06.25/outbox.cif.g09.slc.cpg/sg12_7_cif.got.tgz:12368.got - 2010.06.28 00:19:55.
