data_PCOD8092483
_publ_section_title
;
Structure prediction by ZEFSAII (Michael W. Deem and Ramdas Pophale) SiO2 
 PCOD8092483
Probable space group: C 2/M
;
_chemical_formula_sum "Si O2"
_cell_formula_units_Z 48
_cell_length_a 10.111820
_cell_length_b 25.099063
_cell_length_c 13.168046
_cell_angle_alpha 90.000000
_cell_angle_beta 56.847609
_cell_angle_gamma 90.000000
_cell_volume 2797.997077
_symmetry_space_group_name_H-M "C 2/M"
_symmetry_group_IT_number 12
_symmetry_cell_setting 'monoclinic'
loop_
_space_group_symop_operation_xyz
x,y,z
-x,y,-z
-x,-y,-z
x,-y,z
1/2+x,1/2+y,z
1/2-x,1/2+y,-z
1/2-x,1/2-y,-z
1/2+x,1/2-y,z
loop_
_atom_site_type_symbol
_atom_site_label
_atom_site_fract_x
_atom_site_fract_y
_atom_site_fract_z
Si Si1 0.551299 0.903338 0.231818
Si Si2 0.921769 0.313304 0.929799
Si Si3 0.849847 0.898852 0.253679
Si Si4 0.349137 0.059431 0.492426
Si Si5 0.399546 0.000000 0.939995
Si Si6 0.035321 0.000000 0.103549
Si Si7 0.947170 0.808775 0.910950
O O1 0.520778 0.847459 0.189591
O O2 0.710650 0.900166 0.229827
O O3 0.398412 0.913550 0.365897
O O4 0.564229 0.948519 0.142067
O O5 0.978963 0.253596 0.880196
O O6 0.736314 0.320230 0.026046
O O7 0.000000 0.334241 0.000000
O O8 0.781934 0.904611 0.396281
O O9 0.964584 0.947722 0.184125
O O10 0.947877 0.843630 0.210584
O O11 0.500000 0.054295 0.500000
O O12 0.282199 0.000000 0.500074
O O13 0.500000 0.000000 0.000000
O O14 0.219258 0.000000 0.049844
O O15 0.000000 0.000000 0.000000
O O16 0.000000 0.827198 0.000000
#
# Coordination Sequence:
#
# PCOD8092483 Si02
#       7
#     8   8   8   8   4   4   8
#     4  11  19  35  55  79 113 144 179 221 271 324
#     4  10  21  34  54  80 109 146 177 217 279 326
#     4  11  19  33  57  83 108 137 186 229 267 312
#     4   9  18  32  53  81 108 142 177 223 269 312
#     4  12  24  33  51  83 117 144 170 219 279 338
#     4  12  20  31  55  83 107 138 176 226 271 314
#     4  10  19  35  55  79 110 140 180 229 270 313
#
# _framework density 17.155128999999999
#
# number of rings (size 3 to 8) (size 9 to 14) (size 15 to 20)
#    0.000    1.500    5.000    2.000    0.000    0.000 
#    0.000    0.833    0.000    5.000    0.000    0.000 
#    0.000    0.000    0.000    0.000    0.000    0.000 
#
# Total GULP energy -297616.999667 kJ/mol
# GULP energy per Si atom -12400.708319 kJ/mol
# Density = 1.711608 g / cm^3
# Si number density = 17.155129 Si / 1000 Ang^3
#
#
#
# Elastic Constant Matrix: (Units=GPa)
#
#
# Indices 1 2 3 4 5 6 
#
# 1 92.4446 29.9961 48.9394 0.0000 0.0897 0.0000
# 2 29.9961 105.5735 74.9053 0.0000 -9.7298 0.0000
# 3 48.9394 74.9053 140.8442 0.0000 -13.4489 0.0000
# 4 0.0000 0.0000 0.0000 8.0967 0.0000 -6.8603
# 5 0.0897 -9.7298 -13.4489 0.0000 22.5656 0.0000
# 6 0.0000 0.0000 0.0000 -6.8603 0.0000 28.1117
#
#
#
# Elastic Compliance Matrix: (Units=1/GPa)
#
#
# Indices 1 2 3 4 5 6 
#
# 1 0.013503 -0.000938 -0.004492 0.000000 -0.003136 0.000000
# 2 -0.000938 0.015350 -0.007640 0.000000 0.002069 0.000000
# 3 -0.004492 -0.007640 0.013160 0.000000 0.004567 0.000000
# 4 0.000000 0.000000 0.000000 0.155703 0.000000 0.037997
# 5 -0.003136 0.002069 0.004567 0.000000 0.047942 0.000000
# 6 0.000000 0.000000 0.000000 0.037997 0.000000 0.044845
#
#
# Mechanical properties :
#
#
# Convention : Reuss Voigt Hill
#
# Bulk Modulus (GPa) = 63.00354 71.83821 67.42087
# Shear Modulus (GPa) = 15.53111 24.08959 19.81035
#
# Velocity S-wave (km/s) = 3.01214 3.75136 3.40189
# Velocity P-wave (km/s) = 6.99306 7.79295 7.40382
#
# Compressibility (1/GPa) = 0.01587212
#
# Stress axis : x y z
#
# Youngs Moduli (GPa) = 74.05784 65.14673 75.98586
#
# Poissons Ratio (x) = 0.06112 0.34136
# Poissons Ratio (y) = 0.06948 0.58054
# Poissons Ratio (z) = 0.33270 0.49772
#
# Static dielectric constant tensor:
#      x y z
#    x 3.143730 0.000000 -0.116180 
#    y 0.000000 3.329550 0.000000 
#    z -0.116180 0.000000 3.355010 
# 
# 
# High freq. dielectric constant tensor:
#      x y z
#    x 1.647100 0.000000 -0.006690 
#    y 0.000000 1.669120 0.000000 
#    z -0.006690 0.000000 1.654780 
# 
# From -- ./inp_files/122486.got.cif
#   From: 2010.06.25/outbox.cif.g09.slc.cpg/sg12_62_cif.got.tgz:122486.got - 2010.06.28 00:19:55.
