data_PCOD8092811
_publ_section_title
;
Structure prediction by ZEFSAII (Michael W. Deem and Ramdas Pophale) SiO2 
 PCOD8092811
Probable space group: C 2/M
;
_chemical_formula_sum "Si O2"
_cell_formula_units_Z 56
_cell_length_a 17.215160
_cell_length_b 26.328099
_cell_length_c 18.970787
_cell_angle_alpha 90.000000
_cell_angle_beta 157.960369
_cell_angle_gamma 90.000000
_cell_volume 3226.518071
_symmetry_space_group_name_H-M "C 2/M"
_symmetry_group_IT_number 12
_symmetry_cell_setting 'monoclinic'
loop_
_space_group_symop_operation_xyz
x,y,z
-x,y,-z
-x,-y,-z
x,-y,z
1/2+x,1/2+y,z
1/2-x,1/2+y,-z
1/2-x,1/2-y,-z
1/2+x,1/2-y,z
loop_
_atom_site_type_symbol
_atom_site_label
_atom_site_fract_x
_atom_site_fract_y
_atom_site_fract_z
Si Si1 0.839337 0.500000 0.725224
Si Si2 0.465959 0.707367 0.747864
Si Si3 0.185333 0.326483 0.064007
Si Si4 0.473492 0.186887 0.682240
Si Si5 0.393153 0.286668 0.980286
Si Si6 0.049937 0.893446 0.624620
Si Si7 0.409484 0.891017 0.737781
Si Si8 0.346294 0.500000 0.295201
O O1 0.940461 0.451650 0.771131
O O2 0.590899 0.500000 0.524318
O O3 0.862763 0.500000 0.829957
O O4 0.641856 0.678830 0.851484
O O5 0.482562 0.768142 0.748713
O O6 0.241117 0.686891 0.539386
O O7 0.497877 0.693939 0.856680
O O8 0.291159 0.348745 0.223757
O O9 0.087389 0.273856 0.004991
O O10 0.003280 0.363854 0.885458
O O11 0.512011 0.133087 0.753907
O O12 0.654634 0.195359 0.777938
O O13 0.500000 0.309315 0.000000
O O14 0.000000 0.900395 0.500000
O O15 0.832504 0.879146 0.476807
O O16 0.153626 0.945438 0.744712
#
# Coordination Sequence:
#
# PCOD8092811 Si02
#       8
#     4   8   8   8   8   8   8   4
#     4   9  18  31  52  74 102 143 172 215 257 293
#     4  10  19  37  54  74 100 139 176 207 263 307
#     4  11  22  33  53  76 103 144 176 211 252 309
#     4  10  19  35  58  71 101 142 173 211 255 309
#     4  11  23  35  50  79 110 130 170 223 260 308
#     4  11  21  33  50  73 104 147 183 214 253 288
#     4  11  19  35  54  74 103 141 181 213 251 304
#     4   9  16  37  46  65 115 141 169 224 258 281
#
# _framework density 17.356171
#
# number of rings (size 3 to 8) (size 9 to 14) (size 15 to 20)
#    0.000    1.571    7.143    0.857    2.000    1.143 
#    0.000    0.714    0.000    0.000    0.000    0.500 
#    0.000    1.143    0.000    0.000    0.000    0.000 
#
# Total GULP energy -346873.142826 kJ/mol
# GULP energy per Si atom -12388.326530 kJ/mol
# Density = 1.731667 g / cm^3
# Si number density = 17.356171 Si / 1000 Ang^3
#
#
#
# Elastic Constant Matrix: (Units=GPa)
#
#
# Indices 1 2 3 4 5 6 
#
# 1 87.1284 18.0567 23.2182 0.0001 5.0271 0.0000
# 2 18.0567 88.1859 22.3226 -0.0002 2.9728 -0.0002
# 3 23.2182 22.3226 51.7682 -0.0009 -0.7099 -0.0011
# 4 0.0001 -0.0002 -0.0009 13.2977 0.0002 1.8214
# 5 5.0271 2.9728 -0.7099 0.0002 19.6263 -0.0003
# 6 0.0000 -0.0002 -0.0011 1.8214 -0.0003 15.7778
#
#
#
# Elastic Compliance Matrix: (Units=1/GPa)
#
#
# Indices 1 2 3 4 5 6 
#
# 1 0.013404 -0.001229 -0.005529 0.000000 -0.003447 0.000000
# 2 -0.001229 0.012931 -0.005050 0.000000 -0.001827 0.000000
# 3 -0.005529 -0.005050 0.024016 0.000001 0.003050 0.000002
# 4 0.000000 0.000000 0.000001 0.076409 -0.000001 -0.008821
# 5 -0.003447 -0.001827 0.003050 -0.000001 0.052222 0.000001
# 6 0.000000 0.000000 0.000002 -0.008821 0.000001 0.064398
#
#
# Mechanical properties :
#
#
# Convention : Reuss Voigt Hill
#
# Bulk Modulus (GPa) = 37.40320 39.36416 38.38368
# Shear Modulus (GPa) = 18.12192 20.63937 19.38064
#
# Velocity S-wave (km/s) = 3.23479 3.45217 3.34525
# Velocity P-wave (km/s) = 5.96230 6.21445 6.08968
#
# Compressibility (1/GPa) = 0.02673568
#
# Stress axis : x y z
#
# Youngs Moduli (GPa) = 74.60278 77.33268 41.63865
#
# Poissons Ratio (x) = 0.09502 0.23023
# Poissons Ratio (y) = 0.09167 0.21027
# Poissons Ratio (z) = 0.41250 0.39052
#
# Static dielectric constant tensor:
#      x y z
#    x 2.988970 0.000000 0.043830 
#    y 0.000000 3.387210 0.000000 
#    z 0.043830 0.000000 3.347640 
# 
# 
# High freq. dielectric constant tensor:
#      x y z
#    x 1.634750 0.000000 0.000090 
#    y 0.000000 1.651350 0.000000 
#    z 0.000090 0.000000 1.686320 
# 
# From -- ./inp_files/318548.got.cif
#   From: 2010.06.25/outbox.cif.g09.slc.cpg/sg12_160_cif.got.tgz:318548.got - 2010.06.28 00:19:55.
