data_PCOD8092639
_publ_section_title
;
Structure prediction by ZEFSAII (Michael W. Deem and Ramdas Pophale) SiO2 
 PCOD8092639
Probable space group: C 2/M
;
_chemical_formula_sum "Si O2"
_cell_formula_units_Z 64
_cell_length_a 18.608058
_cell_length_b 8.994573
_cell_length_c 29.936910
_cell_angle_alpha 90.000000
_cell_angle_beta 137.117388
_cell_angle_gamma 90.000000
_cell_volume 3409.696809
_symmetry_space_group_name_H-M "C 2/M"
_symmetry_group_IT_number 12
_symmetry_cell_setting 'monoclinic'
loop_
_space_group_symop_operation_xyz
x,y,z
-x,y,-z
-x,-y,-z
x,-y,z
1/2+x,1/2+y,z
1/2-x,1/2+y,-z
1/2-x,1/2-y,-z
1/2+x,1/2-y,z
loop_
_atom_site_type_symbol
_atom_site_label
_atom_site_fract_x
_atom_site_fract_y
_atom_site_fract_z
Si Si1 0.097981 0.824482 0.515675
Si Si2 0.398158 0.326663 0.926554
Si Si3 0.668116 0.175574 0.363559
Si Si4 0.682238 0.675117 0.834590
Si Si5 0.486862 0.175239 0.784074
Si Si6 0.933655 0.327770 0.591369
Si Si7 0.887075 0.168199 0.818552
Si Si8 0.653550 0.831966 0.731077
O O1 0.209664 0.779155 0.589300
O O2 0.101741 0.762759 0.467591
O O3 0.000000 0.758523 0.500000
O O4 0.086132 0.000000 0.506694
O O5 0.375414 0.500000 0.924158
O O6 0.297988 0.236477 0.899040
O O7 0.416989 0.293656 0.883031
O O8 0.500000 0.271617 0.000000
O O9 0.595220 0.238991 0.290486
O O10 0.627473 0.235995 0.392979
O O11 0.655026 0.000000 0.358260
O O12 0.682296 0.500000 0.840199
O O13 0.599484 0.746022 0.831107
O O14 0.646657 0.717980 0.768596
O O15 0.445035 0.213886 0.813999
O O16 0.501130 0.000000 0.786050
O O17 0.906651 0.500000 0.571283
O O18 0.058673 0.301639 0.653995
O O19 0.761943 0.188499 0.753636
O O20 0.921554 0.000000 0.822257
O O21 0.646260 0.000000 0.747698
#
# Coordination Sequence:
#
# PCOD8092639 Si02
#       8
#     8   8   8   8   8   8   8   8
#     4  10  22  37  52  75 109 141 177 232 289 338
#     4   9  19  39  65  87 115 157 192 220 268 331
#     4   9  19  36  55  74 102 144 186 226 275 337
#     4  11  21  34  56  87 118 144 183 234 275 321
#     4  11  21  36  57  79 112 152 189 228 282 341
#     4  10  19  35  57  76 101 139 186 228 273 337
#     4   9  19  34  54  84 116 140 179 233 276 319
#     4   9  18  35  56  78 109 147 183 228 281 337
#
# _framework density 18.769995999999999
#
# number of rings (size 3 to 8) (size 9 to 14) (size 15 to 20)
#    0.000    2.250    1.250    2.625    1.750    3.000 
#    0.000    1.875    0.000    0.000    0.000    0.000 
#    0.000    0.000    0.000    0.000    0.000    0.000 
#
# Total GULP energy -396819.268792 kJ/mol
# GULP energy per Si atom -12400.602150 kJ/mol
# Density = 1.872728 g / cm^3
# Si number density = 18.769996 Si / 1000 Ang^3
#
#
#
# Elastic Constant Matrix: (Units=GPa)
#
#
# Indices 1 2 3 4 5 6 
#
# 1 123.5896 45.1907 56.1146 0.0000 13.2890 0.0000
# 2 45.1907 68.6606 40.4946 0.0000 12.3501 0.0001
# 3 56.1146 40.4946 108.3936 0.0000 16.6143 0.0000
# 4 0.0000 0.0000 0.0000 20.0288 0.0000 -3.5813
# 5 13.2890 12.3501 16.6143 0.0000 23.6484 0.0000
# 6 0.0000 0.0001 0.0000 -3.5813 0.0000 30.8905
#
#
#
# Elastic Compliance Matrix: (Units=1/GPa)
#
#
# Indices 1 2 3 4 5 6 
#
# 1 0.011991 -0.005298 -0.004056 0.000000 -0.001121 0.000000
# 2 -0.005298 0.021667 -0.004565 0.000000 -0.005131 0.000000
# 3 -0.004056 -0.004565 0.013803 0.000000 -0.005034 0.000000
# 4 0.000000 0.000000 0.000000 0.050985 0.000000 0.005911
# 5 -0.001121 -0.005131 -0.005034 0.000000 0.049132 0.000000
# 6 0.000000 0.000000 0.000000 0.005911 0.000000 0.033058
#
#
# Mechanical properties :
#
#
# Convention : Reuss Voigt Hill
#
# Bulk Modulus (GPa) = 50.96604 64.91594 57.94099
# Shear Modulus (GPa) = 23.25418 25.50312 24.37865
#
# Velocity S-wave (km/s) = 3.52362 3.69008 3.60781
# Velocity P-wave (km/s) = 6.61562 7.26743 6.94917
#
# Compressibility (1/GPa) = 0.01962091
#
# Stress axis : x y z
#
# Youngs Moduli (GPa) = 83.39670 46.15360 72.44958
#
# Poissons Ratio (x) = 0.24452 0.29389
# Poissons Ratio (y) = 0.44183 0.33076
# Poissons Ratio (z) = 0.33829 0.21071
#
# Static dielectric constant tensor:
#      x y z
#    x 3.494090 0.000000 0.259040 
#    y 0.000000 3.204900 0.000000 
#    z 0.259040 0.000000 3.559050 
# 
# 
# High freq. dielectric constant tensor:
#      x y z
#    x 1.730250 0.000000 0.014620 
#    y 0.000000 1.709510 0.000000 
#    z 0.014620 0.000000 1.725060 
# 
# From -- ./inp_files/378392.got.cif
#   From: 2010.06.25/outbox.cif.g09.slc.cpg/sg12_190_cif.got.tgz:378392.got - 2010.06.28 00:19:55.
