data_PCOD8092252
_publ_section_title
;
Structure prediction by ZEFSAII (Michael W. Deem and Ramdas Pophale) SiO2 
 PCOD8092252
Probable space group: C 2/M
;
_chemical_formula_sum "Si O2"
_cell_formula_units_Z 64
_cell_length_a 15.654604
_cell_length_b 24.905501
_cell_length_c 13.802798
_cell_angle_alpha 90.000000
_cell_angle_beta 38.515487
_cell_angle_gamma 90.000000
_cell_volume 3351.209710
_symmetry_space_group_name_H-M "C 2/M"
_symmetry_group_IT_number 12
_symmetry_cell_setting 'monoclinic'
loop_
_space_group_symop_operation_xyz
x,y,z
-x,y,-z
-x,-y,-z
x,-y,z
1/2+x,1/2+y,z
1/2-x,1/2+y,-z
1/2-x,1/2-y,-z
1/2+x,1/2-y,z
loop_
_atom_site_type_symbol
_atom_site_label
_atom_site_fract_x
_atom_site_fract_y
_atom_site_fract_z
Si Si1 0.533498 0.559568 0.676714
Si Si2 0.726498 0.938452 0.886755
Si Si3 0.019576 0.366121 0.182803
Si Si4 0.447699 0.169247 0.443592
Si Si5 0.114485 0.788112 0.469210
Si Si6 0.356220 0.338083 0.350238
Si Si7 0.788888 0.439487 0.320141
Si Si8 0.419415 0.761490 0.167562
O O1 0.547398 0.500000 0.711766
O O2 0.384991 0.568743 0.765809
O O3 0.563315 0.605267 0.731042
O O4 0.634628 0.564790 0.495362
O O5 0.699687 0.919914 0.800748
O O6 0.679076 0.000000 0.945047
O O7 0.646544 0.898916 0.028465
O O8 0.046990 0.353636 0.271621
O O9 0.882887 0.401589 0.301009
O O10 0.999543 0.311000 0.143251
O O11 0.500000 0.146468 0.500000
O O12 0.456213 0.233483 0.431936
O O13 0.292666 0.151267 0.561724
O O14 0.150467 0.824599 0.529346
O O15 0.259818 0.776056 0.286907
O O16 0.000000 0.815768 0.500000
O O17 0.430674 0.289818 0.228380
O O18 0.844213 0.500000 0.279173
O O19 0.500000 0.744922 0.000000
#
# Coordination Sequence:
#
# PCOD8092252 Si02
#       8
#     8   8   8   8   8   8   8   8
#     4  10  21  38  60  82 116 159 199 241 287 350
#     4  10  22  37  55  89 128 157 188 236 303 359
#     4  12  20  36  59  87 124 154 191 245 296 346
#     4  10  20  38  62  85 113 159 204 241 289 346
#     4  10  20  38  63  86 121 162 194 231 289 359
#     4  11  20  41  62  85 119 160 198 244 292 350
#     4  10  19  34  60  88 118 160 199 233 286 357
#     4  11  22  37  57  90 124 154 195 246 294 348
#
# _framework density 19.097581999999999
#
# number of rings (size 3 to 8) (size 9 to 14) (size 15 to 20)
#    0.000    1.500    3.750    2.625    0.000    5.500 
#    6.750    1.250    0.000    3.750    0.000    0.000 
#    0.000    0.000    0.000    0.000    0.000    0.000 
#
# Total GULP energy -396748.197095 kJ/mol
# GULP energy per Si atom -12398.381159 kJ/mol
# Density = 1.905411 g / cm^3
# Si number density = 19.097582 Si / 1000 Ang^3
#
#
#
# Elastic Constant Matrix: (Units=GPa)
#
#
# Indices 1 2 3 4 5 6 
#
# 1 109.0354 36.4715 43.6549 0.0019 11.7764 -0.0003
# 2 36.4715 99.2528 42.2328 0.0012 5.2601 -0.0002
# 3 43.6549 42.2328 111.3800 0.0033 0.3429 -0.0010
# 4 0.0019 0.0012 0.0033 21.4234 -0.0022 -0.5285
# 5 11.7764 5.2601 0.3429 -0.0022 21.0642 0.0004
# 6 -0.0003 -0.0002 -0.0010 -0.5285 0.0004 21.4024
#
#
#
# Elastic Compliance Matrix: (Units=1/GPa)
#
#
# Indices 1 2 3 4 5 6 
#
# 1 0.012205 -0.002543 -0.003801 -0.000001 -0.006127 0.000000
# 2 -0.002543 0.012727 -0.003824 0.000000 -0.001694 0.000000
# 3 -0.003801 -0.003824 0.011909 -0.000001 0.002886 0.000000
# 4 -0.000001 0.000000 -0.000001 0.046706 0.000006 0.001153
# 5 -0.006127 -0.001694 0.002886 0.000006 0.051275 -0.000001
# 6 0.000000 0.000000 0.000000 0.001153 -0.000001 0.046752
#
#
# Mechanical properties :
#
#
# Convention : Reuss Voigt Hill
#
# Bulk Modulus (GPa) = 60.58419 62.70962 61.64691
# Shear Modulus (GPa) = 24.10666 25.93193 25.01930
#
# Velocity S-wave (km/s) = 3.55672 3.68892 3.62343
# Velocity P-wave (km/s) = 6.97563 7.14506 7.06085
#
# Compressibility (1/GPa) = 0.01650596
#
# Stress axis : x y z
#
# Youngs Moduli (GPa) = 81.93088 78.57599 83.97074
#
# Poissons Ratio (x) = 0.19982 0.31915
# Poissons Ratio (y) = 0.20836 0.32107
# Poissons Ratio (z) = 0.31140 0.30045
#
# Static dielectric constant tensor:
#      x y z
#    x 3.571120 0.000000 0.022140 
#    y 0.000000 3.818290 0.000000 
#    z 0.022140 0.000000 3.438710 
# 
# 
# High freq. dielectric constant tensor:
#      x y z
#    x 1.728290 0.000000 -0.011230 
#    y 0.000000 1.752890 0.000000 
#    z -0.011230 0.000000 1.731780 
# 
# From -- ./inp_files/149718.got.cif
#   From: 2010.06.25/outbox.cif.g09.slc.cpg/sg12_75_cif.got.tgz:149718.got - 2010.06.28 00:19:55.
