data_PCOD8092893
_publ_section_title
;
Structure prediction by ZEFSAII (Michael W. Deem and Ramdas Pophale) SiO2 
 PCOD8092893
Probable space group: C 2/M
;
_chemical_formula_sum "Si O2"
_cell_formula_units_Z 64
_cell_length_a 20.888910
_cell_length_b 8.531295
_cell_length_c 18.942724
_cell_angle_alpha 90.000000
_cell_angle_beta 107.490654
_cell_angle_gamma 90.000000
_cell_volume 3219.696987
_symmetry_space_group_name_H-M "C 2/M"
_symmetry_group_IT_number 12
_symmetry_cell_setting 'monoclinic'
loop_
_space_group_symop_operation_xyz
x,y,z
-x,y,-z
-x,-y,-z
x,-y,z
1/2+x,1/2+y,z
1/2-x,1/2+y,-z
1/2-x,1/2-y,-z
1/2+x,1/2-y,z
loop_
_atom_site_type_symbol
_atom_site_label
_atom_site_fract_x
_atom_site_fract_y
_atom_site_fract_z
Si Si1 0.311217 0.319925 0.697017
Si Si2 0.529352 0.686406 0.800843
Si Si3 0.569527 0.180562 0.341106
Si Si4 0.174577 0.186026 0.637975
Si Si5 0.170586 0.815015 0.796196
Si Si6 0.570464 0.673018 0.488001
Si Si7 0.458459 0.315203 0.920415
Si Si8 0.681817 0.818449 0.151295
O O1 0.311231 0.500000 0.722207
O O2 0.370271 0.292704 0.661857
O O3 0.242395 0.272424 0.636228
O O4 0.323841 0.206235 0.767139
O O5 0.521787 0.500000 0.790991
O O6 0.497370 0.767416 0.721992
O O7 0.608731 0.735232 0.826629
O O8 0.492205 0.749396 0.859152
O O9 0.562026 0.205235 0.421838
O O10 0.585159 0.000000 0.330358
O O11 0.156131 0.243375 0.711370
O O12 0.119758 0.243273 0.563800
O O13 0.183945 0.000000 0.639007
O O14 0.243970 0.753131 0.848257
O O15 0.176961 0.000000 0.796097
O O16 0.500000 0.650753 0.500000
O O17 0.595090 0.500000 0.470218
O O18 0.464408 0.500000 0.921377
O O19 0.380473 0.270445 0.905490
O O20 0.500000 0.245053 0.000000
O O21 0.673777 0.000000 0.130097
#
# Coordination Sequence:
#
# PCOD8092893 Si02
#       8
#     8   8   8   8   8   8   8   8
#     4  11  21  35  56  80 107 144 186 227 280 339
#     4  10  19  36  60  82 110 148 193 233 276 341
#     4  12  24  36  54  81 113 144 185 238 285 328
#     4   9  18  34  55  79 108 140 184 235 278 327
#     4   8  16  32  57  84 107 144 190 231 275 329
#     4  10  21  38  58  78 106 148 191 229 280 344
#     4  10  21  36  57  86 117 150 188 232 281 335
#     4  10  19  35  58  83 113 145 186 233 279 332
#
# _framework density 19.877647
#
# number of rings (size 3 to 8) (size 9 to 14) (size 15 to 20)
#    0.000    2.000    1.250    4.125    0.000    3.500 
#    0.000    6.250    0.000    0.000    0.000    0.000 
#    0.000    0.000    0.000    0.000    0.000    0.000 
#
# Total GULP energy -396657.906306 kJ/mol
# GULP energy per Si atom -12395.559572 kJ/mol
# Density = 1.983241 g / cm^3
# Si number density = 19.877647 Si / 1000 Ang^3
#
#
#
# Elastic Constant Matrix: (Units=GPa)
#
#
# Indices 1 2 3 4 5 6 
#
# 1 127.3582 14.8877 49.6330 0.0000 26.2045 0.0000
# 2 14.8877 34.5680 11.3079 0.0000 3.6143 0.0000
# 3 49.6330 11.3079 109.5759 0.0000 29.9023 0.0000
# 4 0.0000 0.0000 0.0000 27.1090 0.0000 2.7784
# 5 26.2045 3.6143 29.9023 0.0000 30.0554 0.0000
# 6 0.0000 0.0000 0.0000 2.7784 0.0000 24.2238
#
#
#
# Elastic Compliance Matrix: (Units=1/GPa)
#
#
# Indices 1 2 3 4 5 6 
#
# 1 0.010540 -0.002986 -0.002823 0.000000 -0.006022 0.000000
# 2 -0.002986 0.030797 -0.002094 0.000000 0.000983 0.000000
# 3 -0.002823 -0.002094 0.013563 0.000000 -0.010781 0.000000
# 4 0.000000 0.000000 0.000000 0.037327 0.000000 -0.004281
# 5 -0.006022 0.000983 -0.010781 0.000000 0.049130 0.000000
# 6 0.000000 0.000000 0.000000 -0.004281 0.000000 0.041773
#
#
# Mechanical properties :
#
#
# Convention : Reuss Voigt Hill
#
# Bulk Modulus (GPa) = 25.57940 47.01771 36.29855
# Shear Modulus (GPa) = 23.58863 29.32252 26.45558
#
# Velocity S-wave (km/s) = 3.44858 3.84494 3.65214
# Velocity P-wave (km/s) = 5.36221 6.58910 6.00706
#
# Compressibility (1/GPa) = 0.03909396
#
# Stress axis : x y z
#
# Youngs Moduli (GPa) = 94.87591 32.47092 73.73182
#
# Poissons Ratio (x) = 0.09697 0.20811
# Poissons Ratio (y) = 0.28334 0.15438
# Poissons Ratio (z) = 0.26779 0.06799
#
# Static dielectric constant tensor:
#      x y z
#    x 3.944350 0.000000 0.276570 
#    y 0.000000 3.363290 0.000000 
#    z 0.276570 0.000000 3.658420 
# 
# 
# High freq. dielectric constant tensor:
#      x y z
#    x 1.783870 0.000000 0.018860 
#    y 0.000000 1.752340 0.000000 
#    z 0.018860 0.000000 1.757530 
# 
# From -- ./inp_files/320170.got.cif
#   From: 2010.06.25/outbox.cif.g09.slc.cpg/sg12_161_cif.got.tgz:320170.got - 2010.06.28 00:19:55.
