data_PCOD8092259
_publ_section_title
;
Structure prediction by ZEFSAII (Michael W. Deem and Ramdas Pophale) SiO2 
 PCOD8092259
Probable space group: C 2/M
;
_chemical_formula_sum "Si O2"
_cell_formula_units_Z 64
_cell_length_a 23.708309
_cell_length_b 11.273009
_cell_length_c 12.121964
_cell_angle_alpha 90.000000
_cell_angle_beta 92.892498
_cell_angle_gamma 90.000000
_cell_volume 3235.636806
_symmetry_space_group_name_H-M "C 2/M"
_symmetry_group_IT_number 12
_symmetry_cell_setting 'monoclinic'
loop_
_space_group_symop_operation_xyz
x,y,z
-x,y,-z
-x,-y,-z
x,-y,z
1/2+x,1/2+y,z
1/2-x,1/2+y,-z
1/2-x,1/2-y,-z
1/2+x,1/2-y,z
loop_
_atom_site_type_symbol
_atom_site_label
_atom_site_fract_x
_atom_site_fract_y
_atom_site_fract_z
Si Si1 0.611420 0.130169 0.216185
Si Si2 0.557066 0.865528 0.555666
Si Si3 0.661930 0.192803 0.447392
Si Si4 0.448232 0.629558 0.076462
Si Si5 0.980541 0.635174 0.204951
Si Si6 0.747892 0.630215 0.371434
Si Si7 0.776867 0.365546 0.137089
Si Si8 0.662288 0.287424 0.031383
O O1 0.642603 0.123102 0.336928
O O2 0.546283 0.168734 0.227232
O O3 0.644440 0.213496 0.136539
O O4 0.613183 0.000000 0.163555
O O5 0.500000 0.811932 0.500000
O O6 0.607831 0.781816 0.519431
O O7 0.553649 0.866972 0.685687
O O8 0.567103 0.000000 0.511586
O O9 0.690584 0.313733 0.411414
O O10 0.706506 0.121294 0.526211
O O11 0.450519 0.500000 0.141351
O O12 0.451167 0.755373 0.139704
O O13 0.500000 0.631040 0.000000
O O14 0.389125 0.627247 0.005545
O O15 0.974745 0.500000 0.151710
O O16 0.729379 0.500000 0.333004
O O17 0.771883 0.690640 0.261013
O O18 0.799036 0.500000 0.145815
O O19 0.716642 0.364057 0.069394
O O20 0.823181 0.293460 0.072955
#
# Coordination Sequence:
#
# PCOD8092259 Si02
#       8
#     8   8   8   8   8   8   8   8
#     4  11  20  35  59  91 124 157 199 253 305 357
#     4  10  19  34  60  89 119 153 194 248 306 363
#     4  11  21  37  60  87 119 154 196 248 301 365
#     4  11  24  42  63  89 124 166 207 249 309 375
#     4  10  22  38  60  92 126 162 204 254 309 364
#     4  10  22  39  60  85 116 159 202 246 299 365
#     4  10  22  40  61  86 118 156 205 255 304 359
#     4  11  22  39  61  88 119 161 203 251 303 364
#
# _framework density 19.779722
#
# number of rings (size 3 to 8) (size 9 to 14) (size 15 to 20)
#    0.000    1.500    3.750    1.875    1.750    1.250 
#    0.000    1.250    0.000    0.750    0.000    0.000 
#    0.000    0.000    0.000    0.000    0.000    0.000 
#
# Total GULP energy -396498.860772 kJ/mol
# GULP energy per Si atom -12390.589399 kJ/mol
# Density = 1.973470 g / cm^3
# Si number density = 19.779722 Si / 1000 Ang^3
#
#
#
# Elastic Constant Matrix: (Units=GPa)
#
#
# Indices 1 2 3 4 5 6 
#
# 1 105.5593 24.5829 29.5002 0.0000 -12.9265 0.0000
# 2 24.5829 88.5564 36.6975 0.0000 -3.9354 0.0000
# 3 29.5002 36.6975 92.0518 0.0000 -11.7001 0.0000
# 4 0.0000 0.0000 0.0000 15.5034 0.0000 24.1404
# 5 -12.9265 -3.9354 -11.7001 0.0000 39.9964 0.0000
# 6 0.0000 0.0000 0.0000 24.1404 0.0000 -54.9053
#
#
#
# Elastic Compliance Matrix: (Units=1/GPa)
#
#
# Indices 1 2 3 4 5 6 
#
# 1 0.010913 -0.001919 -0.002397 0.000000 0.002637 0.000000
# 2 -0.001919 0.013867 -0.005005 0.000000 -0.000720 0.000000
# 3 -0.002397 -0.005005 0.013986 0.000000 0.002824 0.000000
# 4 0.000000 0.000000 0.000000 0.038289 0.000000 0.016835
# 5 0.002637 -0.000720 0.002824 0.000000 0.026610 0.000000
# 6 0.000000 0.000000 0.000000 0.016835 0.000000 -0.010811
#
#
# Mechanical properties :
#
#
# Convention : Reuss Voigt Hill
#
# Bulk Modulus (GPa) = 49.69146 51.96986 50.83066
# Shear Modulus (GPa) = 42.30025 13.14469 27.72247
#
# Velocity S-wave (km/s) = 4.62948 2.58069 3.74780
# Velocity P-wave (km/s) = 7.33165 5.93391 6.66950
#
# Compressibility (1/GPa) = 0.02012418
#
# Stress axis : x y z
#
# Youngs Moduli (GPa) = 91.63324 72.11438 71.50087
#
# Poissons Ratio (x) = 0.13838 0.17140
# Poissons Ratio (y) = 0.17583 0.35784
# Poissons Ratio (z) = 0.21967 0.36091
#
# Static dielectric constant tensor:
#      x y z
#    x 3.714470 0.000000 -0.023580 
#    y 0.000000 3.671730 0.000000 
#    z -0.023580 0.000000 3.700210 
# 
# 
# High freq. dielectric constant tensor:
#      x y z
#    x 1.784310 0.000000 -0.004200 
#    y 0.000000 1.751180 0.000000 
#    z -0.004200 0.000000 1.770790 
# 
# From -- ./inp_files/174680.got.cif
#   From: 2010.06.25/outbox.cif.g09.slc.cpg/sg12_88_cif.got.tgz:174680.got - 2010.06.28 00:19:55.
