data_PCOD8092418
_publ_section_title
;
Structure prediction by ZEFSAII (Michael W. Deem and Ramdas Pophale) SiO2 
 PCOD8092418
Probable space group: C 2/M
;
_chemical_formula_sum "Si O2"
_cell_formula_units_Z 32
_cell_length_a 13.811626
_cell_length_b 7.894493
_cell_length_c 21.002285
_cell_angle_alpha 90.000000
_cell_angle_beta 131.217572
_cell_angle_gamma 90.000000
_cell_volume 1722.567922
_symmetry_space_group_name_H-M "C 2/M"
_symmetry_group_IT_number 12
_symmetry_cell_setting 'monoclinic'
loop_
_space_group_symop_operation_xyz
x,y,z
-x,y,-z
-x,-y,-z
x,-y,z
1/2+x,1/2+y,z
1/2-x,1/2+y,-z
1/2-x,1/2-y,-z
1/2+x,1/2-y,z
loop_
_atom_site_type_symbol
_atom_site_label
_atom_site_fract_x
_atom_site_fract_y
_atom_site_fract_z
Si Si1 0.043424 0.682969 0.823205
Si Si2 0.384910 0.693604 0.638977
Si Si3 0.001134 0.000000 0.895719
Si Si4 0.098498 0.700617 0.489991
Si Si5 0.713119 0.500000 0.095840
O O1 0.002876 0.500000 0.836260
O O2 0.196096 0.668395 0.870782
O O3 0.965118 0.700681 0.724195
O O4 0.014410 0.832721 0.859080
O O5 0.388675 0.500000 0.662753
O O6 0.239202 0.763741 0.572647
O O7 0.445687 0.714642 0.595236
O O8 0.861674 0.000000 0.869171
O O9 0.113095 0.000000 0.995342
O O10 0.096785 0.500000 0.480476
O O11 0.000000 0.765066 0.500000
#
# Coordination Sequence:
#
# PCOD8092418 Si02
#       5
#     8   8   4   8   4
#     4  10  22  39  62  91 121 162 196 249 304 355
#     4  10  19  35  54  81 118 151 192 247 289 343
#     4  11  20  46  63  88 129 150 205 252 294 367
#     4   9  19  34  54  77 110 155 196 238 290 345
#     4   9  24  40  65  94 117 162 199 248 302 363
#
# _framework density 18.576916000000001
#
# number of rings (size 3 to 8) (size 9 to 14) (size 15 to 20)
#    0.750    1.500    1.250    1.500    0.000    3.500 
#    2.250    3.750    0.000    0.000    0.000    0.000 
#    0.000    0.000    0.000    0.000    0.000    0.000 
#
# Total GULP energy -198311.711275 kJ/mol
# GULP energy per Si atom -12394.481955 kJ/mol
# Density = 1.853463 g / cm^3
# Si number density = 18.576916 Si / 1000 Ang^3
#
#
#
# Elastic Constant Matrix: (Units=GPa)
#
#
# Indices 1 2 3 4 5 6 
#
# 1 149.6347 52.4889 57.2214 0.0000 -12.8021 0.0000
# 2 52.4889 105.7850 43.3350 0.0000 -9.1412 0.0000
# 3 57.2214 43.3350 112.4188 0.0000 -6.3597 0.0000
# 4 0.0000 0.0000 0.0000 28.9178 0.0000 2.2900
# 5 -12.8021 -9.1412 -6.3597 0.0000 14.5634 0.0000
# 6 0.0000 0.0000 0.0000 2.2900 0.0000 23.3106
#
#
#
# Elastic Compliance Matrix: (Units=1/GPa)
#
#
# Indices 1 2 3 4 5 6 
#
# 1 0.009412 -0.002840 -0.003413 0.000000 0.005001 0.000000
# 2 -0.002840 0.012494 -0.003146 0.000000 0.003972 0.000000
# 3 -0.003413 -0.003146 0.011857 0.000000 0.000203 0.000000
# 4 0.000000 0.000000 0.000000 0.034852 0.000000 -0.003424
# 5 0.005001 0.003972 0.000203 0.000000 0.075643 0.000000
# 6 0.000000 0.000000 0.000000 -0.003424 0.000000 0.043235
#
#
# Mechanical properties :
#
#
# Convention : Reuss Voigt Hill
#
# Bulk Modulus (GPa) = 66.82239 74.88101 70.85170
# Shear Modulus (GPa) = 23.66528 27.67791 25.67160
#
# Velocity S-wave (km/s) = 3.57306 3.86412 3.72144
# Velocity P-wave (km/s) = 7.28499 7.76561 7.52914
#
# Compressibility (1/GPa) = 0.01496504
#
# Stress axis : x y z
#
# Youngs Moduli (GPa) = 106.24524 80.03686 84.33932
#
# Poissons Ratio (x) = 0.22729 0.28787
# Poissons Ratio (y) = 0.30172 0.26534
# Poissons Ratio (z) = 0.36264 0.25180
#
# Static dielectric constant tensor:
#      x y z
#    x 3.459910 0.000000 0.056360 
#    y 0.000000 3.324870 0.000000 
#    z 0.056360 0.000000 3.421730 
# 
# 
# High freq. dielectric constant tensor:
#      x y z
#    x 1.711170 0.000000 -0.000840 
#    y 0.000000 1.718370 0.000000 
#    z -0.000840 0.000000 1.729060 
# 
# From -- ./inp_files/307833.got.cif
#   From: 2010.06.25/outbox.cif.g09.slc.cpg/sg12_154_cif.got.tgz:307833.got - 2010.06.28 00:19:55.
