data_PCOD8092488
_publ_section_title
;
Structure prediction by ZEFSAII (Michael W. Deem and Ramdas Pophale) SiO2 
 PCOD8092488
Probable space group: C 2/M
;
_chemical_formula_sum "Si O2"
_cell_formula_units_Z 56
_cell_length_a 28.757168
_cell_length_b 9.301665
_cell_length_c 12.527079
_cell_angle_alpha 90.000000
_cell_angle_beta 119.445910
_cell_angle_gamma 90.000000
_cell_volume 2917.998805
_symmetry_space_group_name_H-M "C 2/M"
_symmetry_group_IT_number 12
_symmetry_cell_setting 'monoclinic'
loop_
_space_group_symop_operation_xyz
x,y,z
-x,y,-z
-x,-y,-z
x,-y,z
1/2+x,1/2+y,z
1/2-x,1/2+y,-z
1/2-x,1/2-y,-z
1/2+x,1/2-y,z
loop_
_atom_site_type_symbol
_atom_site_label
_atom_site_fract_x
_atom_site_fract_y
_atom_site_fract_z
Si Si1 0.940001 0.336003 0.470607
Si Si2 0.854553 0.668842 0.198076
Si Si3 0.790572 0.835463 0.474751
Si Si4 0.735705 0.330055 0.790967
Si Si5 0.855905 0.330531 0.960278
Si Si6 0.441430 0.833592 0.887877
Si Si7 0.587956 0.667027 0.351985
O O1 0.926895 0.500000 0.489074
O O2 0.901382 0.284966 0.331398
O O3 0.932961 0.232381 0.562039
O O4 0.000000 0.321386 0.500000
O O5 0.842487 0.500000 0.190329
O O6 0.799635 0.751003 0.160440
O O7 0.872683 0.713953 0.099241
O O8 0.750000 0.750000 0.500000
O O9 0.787851 0.782796 0.349822
O O10 0.848977 0.808830 0.586924
O O11 0.772923 0.000000 0.460191
O O12 0.731827 0.500000 0.806402
O O13 0.796487 0.273898 0.867252
O O14 0.857180 0.500000 0.949772
O O15 0.898609 0.267801 0.923840
O O16 0.440003 0.745159 0.777539
O O17 0.429145 0.000000 0.848508
O O18 0.500000 0.814164 0.000000
O O19 0.572777 0.500000 0.333521
#
# Coordination Sequence:
#
# PCOD8092488 Si02
#       7
#     8   8   8   8   8   8   8
#     4  10  22  38  61  88 115 152 199 247 290 344
#     4  10  20  35  57  86 116 145 189 241 286 339
#     4  10  21  35  55  82 114 154 195 237 286 345
#     4  10  19  35  55  79 116 152 186 228 286 351
#     4   9  19  35  57  85 115 149 189 240 289 334
#     4  10  22  40  65  88 112 152 200 243 287 345
#     4  11  23  40  60  86 122 154 190 242 298 355
#
# _framework density 19.191234999999999
#
# number of rings (size 3 to 8) (size 9 to 14) (size 15 to 20)
#    0.000    2.000    1.429    1.714    2.000    3.429 
#    0.000    1.429    0.000    0.000    0.000    0.000 
#    0.000    0.000    0.000    0.000    0.000    0.000 
#
# Total GULP energy -347278.766679 kJ/mol
# GULP energy per Si atom -12402.813096 kJ/mol
# Density = 1.914756 g / cm^3
# Si number density = 19.191235 Si / 1000 Ang^3
#
#
#
# Elastic Constant Matrix: (Units=GPa)
#
#
# Indices 1 2 3 4 5 6 
#
# 1 76.3971 38.3819 32.7179 0.0000 5.5677 0.0000
# 2 38.3819 65.9871 50.3476 0.0000 -5.5435 0.0000
# 3 32.7179 50.3476 126.1346 0.0000 -4.8323 0.0000
# 4 0.0000 0.0000 0.0000 7.5040 0.0000 -2.3432
# 5 5.5677 -5.5435 -4.8323 0.0000 27.8092 0.0000
# 6 0.0000 0.0000 0.0000 -2.3432 0.0000 32.0582
#
#
#
# Elastic Compliance Matrix: (Units=1/GPa)
#
#
# Indices 1 2 3 4 5 6 
#
# 1 0.019571 -0.011297 -0.000809 0.000000 -0.006311 0.000000
# 2 -0.011297 0.028538 -0.008211 0.000000 0.006524 0.000000
# 3 -0.000809 -0.008211 0.011435 0.000000 0.000512 0.000000
# 4 0.000000 0.000000 0.000000 0.136374 0.000000 0.009968
# 5 -0.006311 0.006524 0.000512 0.000000 0.038612 0.000000
# 6 0.000000 0.000000 0.000000 0.009968 0.000000 0.031922
#
#
# Mechanical properties :
#
#
# Convention : Reuss Voigt Hill
#
# Bulk Modulus (GPa) = 52.87966 56.82373 54.85170
# Shear Modulus (GPa) = 15.95452 23.27904 19.61678
#
# Velocity S-wave (km/s) = 2.88643 3.48660 3.20061
# Velocity P-wave (km/s) = 6.22274 6.77362 6.50402
#
# Compressibility (1/GPa) = 0.01891086
#
# Stress axis : x y z
#
# Youngs Moduli (GPa) = 51.09498 35.04064 87.44984
#
# Poissons Ratio (x) = 0.39584 0.07077
# Poissons Ratio (y) = 0.57720 0.71806
# Poissons Ratio (z) = 0.04135 0.28772
#
# Static dielectric constant tensor:
#      x y z
#    x 3.571260 0.000000 0.049390 
#    y 0.000000 3.356150 0.000000 
#    z 0.049390 0.000000 3.542040 
# 
# 
# High freq. dielectric constant tensor:
#      x y z
#    x 1.754080 0.000000 -0.000340 
#    y 0.000000 1.723620 0.000000 
#    z -0.000340 0.000000 1.761630 
# 
# From -- ./inp_files/187205.got.cif
#   From: 2010.06.25/outbox.cif.g09.slc.cpg/sg12_94_cif.got.tgz:187205.got - 2010.06.28 00:19:55.
