data_PCOD8092121
_publ_section_title
;
Structure prediction by ZEFSAII (Michael W. Deem and Ramdas Pophale) SiO2 
 PCOD8092121
Probable space group: C 2/M
;
_chemical_formula_sum "Si O2"
_cell_formula_units_Z 64
_cell_length_a 29.895202
_cell_length_b 9.159155
_cell_length_c 23.719756
_cell_angle_alpha 90.000000
_cell_angle_beta 30.561844
_cell_angle_gamma 90.000000
_cell_volume 3302.408734
_symmetry_space_group_name_H-M "C 2/M"
_symmetry_group_IT_number 12
_symmetry_cell_setting 'monoclinic'
loop_
_space_group_symop_operation_xyz
x,y,z
-x,y,-z
-x,-y,-z
x,-y,z
1/2+x,1/2+y,z
1/2-x,1/2+y,-z
1/2-x,1/2-y,-z
1/2+x,1/2-y,z
loop_
_atom_site_type_symbol
_atom_site_label
_atom_site_fract_x
_atom_site_fract_y
_atom_site_fract_z
Si Si1 0.032608 0.326770 0.834980
Si Si2 0.520270 0.836476 0.413916
Si Si3 0.694156 0.173262 0.732352
Si Si4 0.385573 0.674266 0.481920
Si Si5 0.520925 0.173868 0.718498
Si Si6 0.141435 0.673205 0.913592
Si Si7 0.291102 0.840532 0.807026
Si Si8 0.170743 0.656535 0.106293
O O1 0.029409 0.500000 0.838289
O O2 0.122961 0.268880 0.764448
O O3 0.028292 0.270818 0.775165
O O4 0.952288 0.268561 0.961290
O O5 0.500000 0.853428 0.500000
O O6 0.456413 0.728259 0.450316
O O7 0.617693 0.768229 0.311509
O O8 0.518946 0.000000 0.386855
O O9 0.790138 0.227590 0.608150
O O10 0.665858 0.234282 0.824800
O O11 0.693040 0.000000 0.736134
O O12 0.389823 0.500000 0.471796
O O13 0.404941 0.746111 0.399824
O O14 0.425647 0.226699 0.798670
O O15 0.534337 0.000000 0.698782
O O16 0.142255 0.500000 0.912256
O O17 0.213324 0.728899 0.879603
O O18 0.306119 0.869107 0.855303
O O19 0.273118 0.000000 0.797814
O O20 0.170214 0.500000 0.074808
O O21 0.250000 0.750000 0.000000
#
# Coordination Sequence:
#
# PCOD8092121 Si02
#       8
#     8   8   8   8   8   8   8   8
#     4   9  18  34  59  84 107 143 186 231 282 333
#     4  10  20  36  57  78 106 146 186 221 266 331
#     4   9  19  35  55  84 115 140 177 235 291 329
#     4  11  22  35  54  81 116 150 183 231 280 324
#     4  10  20  37  57  78 110 149 192 230 266 329
#     4  10  19  34  59  86 110 139 183 231 277 339
#     4  10  20  34  51  76 111 143 171 213 268 320
#     4  10  20  34  52  76 108 140 176 223 269 319
#
# _framework density 19.379794
#
# number of rings (size 3 to 8) (size 9 to 14) (size 15 to 20)
#    0.000    2.125    1.250    2.250    0.000    4.750 
#    0.000    1.250    0.000    4.500    0.000    0.000 
#    0.000    0.000    0.000    0.000    0.000    0.000 
#
# Total GULP energy -396542.059815 kJ/mol
# GULP energy per Si atom -12391.939369 kJ/mol
# Density = 1.933568 g / cm^3
# Si number density = 19.379794 Si / 1000 Ang^3
#
#
#
# Elastic Constant Matrix: (Units=GPa)
#
#
# Indices 1 2 3 4 5 6 
#
# 1 132.8725 29.3870 78.7481 0.0014 -4.2837 -0.0014
# 2 29.3870 39.0163 44.0066 0.0008 0.3055 -0.0058
# 3 78.7481 44.0066 188.4946 0.0110 -4.3884 -0.0096
# 4 0.0014 0.0008 0.0110 26.7005 -0.0042 1.9929
# 5 -4.2837 0.3055 -4.3884 -0.0042 37.7509 0.0033
# 6 -0.0014 -0.0058 -0.0096 1.9929 0.0033 22.1521
#
#
#
# Elastic Compliance Matrix: (Units=1/GPa)
#
#
# Indices 1 2 3 4 5 6 
#
# 1 0.010468 -0.004045 -0.003410 0.000001 0.000824 -0.000002
# 2 -0.004045 0.036412 -0.006847 0.000001 -0.001550 0.000006
# 3 -0.003410 -0.006847 0.008343 -0.000003 0.000638 0.000002
# 4 0.000001 0.000001 -0.000003 0.037706 0.000004 -0.003392
# 5 0.000824 -0.001550 0.000638 0.000004 0.026670 -0.000004
# 6 -0.000002 0.000006 0.000002 -0.003392 -0.000004 0.045448
#
#
# Mechanical properties :
#
#
# Convention : Reuss Voigt Hill
#
# Bulk Modulus (GPa) = 37.56659 73.85186 55.70922
# Shear Modulus (GPa) = 24.68860 31.20350 27.94605
#
# Velocity S-wave (km/s) = 3.57309 4.01696 3.80151
# Velocity P-wave (km/s) = 6.03731 7.72690 6.93377
#
# Compressibility (1/GPa) = 0.02661940
#
# Stress axis : x y z
#
# Youngs Moduli (GPa) = 95.52904 27.46350 119.86040
#
# Poissons Ratio (x) = 0.11109 0.40868
# Poissons Ratio (y) = 0.38643 0.82068
# Poissons Ratio (z) = 0.32572 0.18804
#
# Static dielectric constant tensor:
#      x y z
#    x 2.304440 0.000000 -0.272870 
#    y 0.000000 3.182950 0.000020 
#    z -0.272870 0.000020 3.710600 
# 
# 
# High freq. dielectric constant tensor:
#      x y z
#    x 1.757510 0.000000 0.003920 
#    y 0.000000 1.716320 0.000000 
#    z 0.003920 0.000000 1.772200 
# 
# From -- ./inp_files/249866.got.cif
#   From: 2010.06.25/outbox.cif.g09.slc.cpg/sg12_125_cif.got.tgz:249866.got - 2010.06.28 00:19:55.
