data_PCOD8092492
_publ_section_title
;
Structure prediction by ZEFSAII (Michael W. Deem and Ramdas Pophale) SiO2 
 PCOD8092492
Probable space group: C 2/M
;
_chemical_formula_sum "Si O2"
_cell_formula_units_Z 44
_cell_length_a 27.489169
_cell_length_b 11.106718
_cell_length_c 11.517454
_cell_angle_alpha 90.000000
_cell_angle_beta 41.096550
_cell_angle_gamma 90.000000
_cell_volume 2311.464407
_symmetry_space_group_name_H-M "C 2/M"
_symmetry_group_IT_number 12
_symmetry_cell_setting 'monoclinic'
loop_
_space_group_symop_operation_xyz
x,y,z
-x,y,-z
-x,-y,-z
x,-y,z
1/2+x,1/2+y,z
1/2-x,1/2+y,-z
1/2-x,1/2-y,-z
1/2+x,1/2-y,z
loop_
_atom_site_type_symbol
_atom_site_label
_atom_site_fract_x
_atom_site_fract_y
_atom_site_fract_z
Si Si1 0.931710 0.136905 0.186781
Si Si2 0.775474 0.135904 0.377451
Si Si3 0.598554 0.640642 0.507768
Si Si4 0.349113 0.867265 0.857950
Si Si5 0.738332 0.782204 0.193240
Si Si6 0.000000 0.259541 0.500000
O O1 0.863680 0.142434 0.220824
O O2 0.913474 0.200421 0.343009
O O3 0.955202 0.000000 0.171922
O O4 0.000000 0.203801 0.000000
O O5 0.750000 0.250000 0.500000
O O6 0.749126 0.146349 0.292866
O O7 0.750747 0.000000 0.466984
O O8 0.600976 0.500000 0.515728
O O9 0.678117 0.677146 0.315521
O O10 0.531176 0.676865 0.546420
O O11 0.294801 0.871245 0.843895
O O12 0.433465 0.838925 0.671043
O O13 0.349052 0.000000 0.913485
O O14 0.316714 0.773535 0.010559
#
# Coordination Sequence:
#
# PCOD8092492 Si02
#       6
#     8   8   8   8   8   4
#     4   9  19  34  55  80 112 151 187 231 285 338
#     4  11  22  38  62  90 119 154 194 240 291 347
#     4  10  19  35  55  80 113 148 192 241 285 338
#     4  10  21  38  57  80 114 151 191 242 296 350
#     4  10  21  36  58  85 110 149 196 239 288 343
#     4  10  22  34  54  84 110 150 190 234 296 352
#
# _framework density 19.035551999999999
#
# number of rings (size 3 to 8) (size 9 to 14) (size 15 to 20)
#    0.000    2.000    1.818    1.636    2.545    0.727 
#    0.000    1.818    0.000    0.545    0.000    0.000 
#    0.000    0.000    0.000    0.000    0.000    0.000 
#
# Total GULP energy -272646.245812 kJ/mol
# GULP energy per Si atom -12393.011173 kJ/mol
# Density = 1.899223 g / cm^3
# Si number density = 19.035552 Si / 1000 Ang^3
#
#
#
# Elastic Constant Matrix: (Units=GPa)
#
#
# Indices 1 2 3 4 5 6 
#
# 1 89.3336 13.8512 18.3568 0.0000 2.0247 0.0000
# 2 13.8512 86.6762 33.8869 0.0000 -2.7359 0.0000
# 3 18.3568 33.8869 108.7719 0.0000 -12.6654 0.0000
# 4 0.0000 0.0000 0.0000 15.8550 0.0000 6.9518
# 5 2.0247 -2.7359 -12.6654 0.0000 32.2753 0.0000
# 6 0.0000 0.0000 0.0000 6.9518 0.0000 19.5705
#
#
#
# Elastic Compliance Matrix: (Units=1/GPa)
#
#
# Indices 1 2 3 4 5 6 
#
# 1 0.011787 -0.001235 -0.001784 0.000000 -0.001544 0.000000
# 2 -0.001235 0.013275 -0.003969 0.000000 -0.000355 0.000000
# 3 -0.001784 -0.003969 0.011217 0.000000 0.004177 0.000000
# 4 0.000000 0.000000 0.000000 0.074707 0.000000 -0.026537
# 5 -0.001544 -0.000355 0.004177 0.000000 0.032690 0.000000
# 6 0.000000 0.000000 0.000000 -0.026537 0.000000 0.060524
#
#
# Mechanical properties :
#
#
# Convention : Reuss Voigt Hill
#
# Bulk Modulus (GPa) = 44.83491 46.33018 45.58254
# Shear Modulus (GPa) = 22.16216 28.11927 25.14071
#
# Velocity S-wave (km/s) = 3.41581 3.84760 3.63812
# Velocity P-wave (km/s) = 6.25791 6.64307 6.45336
#
# Compressibility (1/GPa) = 0.02230405
#
# Stress axis : x y z
#
# Youngs Moduli (GPa) = 84.83839 75.33028 89.14647
#
# Poissons Ratio (x) = 0.09301 0.15907
# Poissons Ratio (y) = 0.10475 0.35379
# Poissons Ratio (z) = 0.15139 0.29895
#
# Static dielectric constant tensor:
#      x y z
#    x 3.603790 0.000000 0.126210 
#    y 0.000000 3.294440 0.000000 
#    z 0.126210 0.000000 3.733940 
# 
# 
# High freq. dielectric constant tensor:
#      x y z
#    x 1.745430 0.000000 -0.001360 
#    y 0.000000 1.718440 0.000000 
#    z -0.001360 0.000000 1.743520 
# 
# From -- ./inp_files/182390.got.cif
#   From: 2010.06.25/outbox.cif.g09.slc.cpg/sg12_92_cif.got.tgz:182390.got - 2010.06.28 00:19:55.
