data_PCOD8092518
_publ_section_title
;
Structure prediction by ZEFSAII (Michael W. Deem and Ramdas Pophale) SiO2 
 PCOD8092518
Probable space group: C 2/M
;
_chemical_formula_sum "Si O2"
_cell_formula_units_Z 64
_cell_length_a 20.273601
_cell_length_b 22.381246
_cell_length_c 15.927160
_cell_angle_alpha 90.000000
_cell_angle_beta 153.932843
_cell_angle_gamma 90.000000
_cell_volume 3175.686329
_symmetry_space_group_name_H-M "C 2/M"
_symmetry_group_IT_number 12
_symmetry_cell_setting 'monoclinic'
loop_
_space_group_symop_operation_xyz
x,y,z
-x,y,-z
-x,-y,-z
x,-y,z
1/2+x,1/2+y,z
1/2-x,1/2+y,-z
1/2-x,1/2-y,-z
1/2+x,1/2-y,z
loop_
_atom_site_type_symbol
_atom_site_label
_atom_site_fract_x
_atom_site_fract_y
_atom_site_fract_z
Si Si1 0.169997 0.739270 0.716941
Si Si2 0.571265 0.567368 0.218509
Si Si3 0.112746 0.656797 0.796043
Si Si4 0.278645 0.932840 0.203864
Si Si5 0.563479 0.430342 0.406078
Si Si6 0.221512 0.863321 0.849173
Si Si7 0.792273 0.648292 0.368413
Si Si8 0.337965 0.069838 0.833320
O O1 0.198776 0.707648 0.839968
O O2 0.198564 0.809473 0.756599
O O3 0.264134 0.707741 0.748024
O O4 0.000000 0.724886 0.500000
O O5 0.630668 0.500000 0.265171
O O6 0.588966 0.579467 0.337174
O O7 0.660920 0.618852 0.272609
O O8 0.400626 0.572525 0.994580
O O9 0.163485 0.592571 0.818417
O O10 0.932296 0.663755 0.588872
O O11 0.164278 0.660742 0.950662
O O12 0.351088 0.898021 0.364961
O O13 0.334667 0.000000 0.272541
O O14 0.525194 0.500000 0.382136
O O15 0.431664 0.386824 0.285729
O O16 0.712141 0.407751 0.623948
O O17 0.293404 0.916532 0.878034
O O18 0.352574 0.000000 0.839147
O O19 0.500000 0.099985 0.000000
#
# Coordination Sequence:
#
# PCOD8092518 Si02
#       8
#     8   8   8   8   8   8   8   8
#     4   9  20  39  60  82 112 150 195 244 288 335
#     4  10  20  35  58  88 122 154 190 232 283 348
#     4  10  22  36  56  86 117 150 194 242 286 335
#     4  10  19  35  55  85 121 155 196 232 277 348
#     4  10  21  38  60  90 119 149 194 238 282 346
#     4  12  21  38  66  84 110 154 201 237 286 343
#     4  10  21  36  56  84 119 158 187 235 291 341
#     4  10  23  40  59  86 120 150 184 240 299 342
#
# _framework density 20.153123000000001
#
# number of rings (size 3 to 8) (size 9 to 14) (size 15 to 20)
#    0.000    1.875    1.250    3.750    1.750    4.000 
#    0.000    2.500    0.000    2.250    0.000    0.000 
#    0.000    0.000    0.000    0.000    0.000    0.000 
#
# Total GULP energy -396745.857012 kJ/mol
# GULP energy per Si atom -12398.308032 kJ/mol
# Density = 2.010725 g / cm^3
# Si number density = 20.153123 Si / 1000 Ang^3
#
#
#
# Elastic Constant Matrix: (Units=GPa)
#
#
# Indices 1 2 3 4 5 6 
#
# 1 82.2660 17.1494 25.2909 0.0000 -11.7150 0.0000
# 2 17.1494 58.6787 12.6001 0.0000 -9.0184 0.0000
# 3 25.2909 12.6001 84.2428 0.0000 -18.7659 0.0000
# 4 0.0000 0.0000 0.0000 20.0981 0.0000 -3.1019
# 5 -11.7150 -9.0184 -18.7659 0.0000 23.6925 0.0000
# 6 0.0000 0.0000 0.0000 -3.1019 0.0000 32.5236
#
#
#
# Elastic Compliance Matrix: (Units=1/GPa)
#
#
# Indices 1 2 3 4 5 6 
#
# 1 0.014206 -0.002962 -0.003046 0.000000 0.003484 0.000000
# 2 -0.002962 0.018860 -0.000800 0.000000 0.005081 0.000000
# 3 -0.003046 -0.000800 0.015179 0.000000 0.010213 0.000000
# 4 0.000000 0.000000 0.000000 0.050499 0.000000 0.004816
# 5 0.003484 0.005081 0.010213 0.000000 0.053953 0.000000
# 6 0.000000 0.000000 0.000000 0.004816 0.000000 0.031206
#
#
# Mechanical properties :
#
#
# Convention : Reuss Voigt Hill
#
# Bulk Modulus (GPa) = 28.87654 37.25205 33.06430
# Shear Modulus (GPa) = 23.91624 26.60596 25.26110
#
# Velocity S-wave (km/s) = 3.44863 3.63738 3.54426
# Velocity P-wave (km/s) = 5.49700 6.01377 5.76118
#
# Compressibility (1/GPa) = 0.03463019
#
# Stress axis : x y z
#
# Youngs Moduli (GPa) = 70.39445 53.02132 65.87901
#
# Poissons Ratio (x) = 0.15706 0.20064
# Poissons Ratio (y) = 0.20853 0.05269
# Poissons Ratio (z) = 0.21439 0.04241
#
# Static dielectric constant tensor:
#      x y z
#    x 3.500130 0.000000 -0.118670 
#    y 0.000000 3.607460 0.000000 
#    z -0.118670 0.000000 3.762300 
# 
# 
# High freq. dielectric constant tensor:
#      x y z
#    x 1.775150 0.000000 -0.013200 
#    y 0.000000 1.779160 0.000000 
#    z -0.013200 0.000000 1.790090 
# 
# From -- ./inp_files/228194.got.cif
#   From: 2010.06.25/outbox.cif.g09.slc.cpg/sg12_115_cif.got.tgz:228194.got - 2010.06.28 00:19:55.
