data_PCOD8092532
_publ_section_title
;
Structure prediction by ZEFSAII (Michael W. Deem and Ramdas Pophale) SiO2 
 PCOD8092532
Probable space group: C 2/M
;
_chemical_formula_sum "Si O2"
_cell_formula_units_Z 56
_cell_length_a 21.762873
_cell_length_b 8.562676
_cell_length_c 18.308193
_cell_angle_alpha 90.000000
_cell_angle_beta 59.910018
_cell_angle_gamma 90.000000
_cell_volume 2951.938840
_symmetry_space_group_name_H-M "C 2/M"
_symmetry_group_IT_number 12
_symmetry_cell_setting 'monoclinic'
loop_
_space_group_symop_operation_xyz
x,y,z
-x,y,-z
-x,-y,-z
x,-y,z
1/2+x,1/2+y,z
1/2-x,1/2+y,-z
1/2-x,1/2-y,-z
1/2+x,1/2-y,z
loop_
_atom_site_type_symbol
_atom_site_label
_atom_site_fract_x
_atom_site_fract_y
_atom_site_fract_z
Si Si1 0.577176 0.182235 0.533229
Si Si2 0.181621 0.184542 0.582219
Si Si3 0.667341 0.679525 0.753248
Si Si4 0.285970 0.675182 0.765358
Si Si5 0.081526 0.185804 0.942426
Si Si6 0.207364 0.678304 0.958256
Si Si7 0.428911 0.679620 0.613537
O O1 0.612131 0.265417 0.580840
O O2 0.604510 0.269371 0.444206
O O3 0.493157 0.205025 0.593256
O O4 0.596474 0.000000 0.518334
O O5 0.250000 0.250000 0.500000
O O6 0.168498 0.255431 0.671610
O O7 0.190592 0.000000 0.581191
O O8 0.648216 0.500000 0.756061
O O9 0.745970 0.701376 0.738329
O O10 0.611372 0.751525 0.846250
O O11 0.267272 0.500000 0.749003
O O12 0.370033 0.704420 0.710538
O O13 0.264983 0.698122 0.860857
O O14 0.084187 0.000000 0.941731
O O15 0.132340 0.242530 0.978935
O O16 0.000000 0.245331 0.000000
O O17 0.189056 0.500000 0.986851
O O18 0.250000 0.750000 0.000000
O O19 0.454909 0.500000 0.594334
#
# Coordination Sequence:
#
# PCOD8092532 Si02
#       7
#     8   8   8   8   8   8   8
#     4  11  22  35  51  75 107 140 175 216 263 315
#     4  11  22  36  53  76 107 141 180 220 265 313
#     4   9  19  34  54  79 105 137 176 218 262 317
#     4   9  19  34  55  79 103 135 174 216 264 316
#     4   9  18  36  60  83 109 144 183 225 279 334
#     4  10  20  36  56  82 113 143 180 226 275 328
#     4  10  19  35  56  76 100 136 178 219 266 313
#
# _framework density 18.970583999999999
#
# number of rings (size 3 to 8) (size 9 to 14) (size 15 to 20)
#    0.000    2.143    0.000    4.286    0.000    5.429 
#    2.571    0.000    0.000    0.000    0.000    0.000 
#    0.000    0.000    0.000    0.000    0.000    0.000 
#
# Total GULP energy -347026.104340 kJ/mol
# GULP energy per Si atom -12393.789441 kJ/mol
# Density = 1.892741 g / cm^3
# Si number density = 18.970584 Si / 1000 Ang^3
#
#
#
# Elastic Constant Matrix: (Units=GPa)
#
#
# Indices 1 2 3 4 5 6 
#
# 1 112.3196 21.6195 71.6011 0.0000 8.2808 -0.0001
# 2 21.6195 52.4899 25.9115 0.0001 2.4272 -0.0007
# 3 71.6011 25.9115 115.3684 0.0001 -3.0215 -0.0001
# 4 0.0000 0.0001 0.0001 22.9443 0.0000 -0.9843
# 5 8.2808 2.4272 -3.0215 0.0000 34.9373 0.0000
# 6 -0.0001 -0.0007 -0.0001 -0.9843 0.0000 32.7823
#
#
#
# Elastic Compliance Matrix: (Units=1/GPa)
#
#
# Indices 1 2 3 4 5 6 
#
# 1 0.015513 -0.001549 -0.009395 0.000000 -0.004382 0.000000
# 2 -0.001549 0.021709 -0.003953 0.000000 -0.001483 0.000000
# 3 -0.009395 -0.003953 0.015487 0.000000 0.003841 0.000000
# 4 0.000000 0.000000 0.000000 0.043640 0.000000 0.001310
# 5 -0.004382 -0.001483 0.003841 0.000000 0.030096 0.000000
# 6 0.000000 0.000000 0.000000 0.001310 0.000000 0.030544
#
#
# Mechanical properties :
#
#
# Convention : Reuss Voigt Hill
#
# Bulk Modulus (GPa) = 43.63906 57.60468 50.62187
# Shear Modulus (GPa) = 25.71705 28.86915 27.29310
#
# Velocity S-wave (km/s) = 3.68588 3.90524 3.79714
# Velocity P-wave (km/s) = 6.41621 7.12501 6.77988
#
# Compressibility (1/GPa) = 0.02291525
#
# Stress axis : x y z
#
# Youngs Moduli (GPa) = 64.46013 46.06282 64.56970
#
# Poissons Ratio (x) = 0.07136 0.60663
# Poissons Ratio (y) = 0.09987 0.25526
# Poissons Ratio (z) = 0.60560 0.18210
#
# Static dielectric constant tensor:
#      x y z
#    x 3.511090 0.000000 0.076200 
#    y 0.000000 3.501160 0.000000 
#    z 0.076200 0.000000 3.900980 
# 
# 
# High freq. dielectric constant tensor:
#      x y z
#    x 1.731170 0.000000 -0.002770 
#    y 0.000000 1.734150 0.000000 
#    z -0.002770 0.000000 1.741220 
# 
# From -- ./inp_files/280982.got.cif
#   From: 2010.06.25/outbox.cif.g09.slc.cpg/sg12_141_cif.got.tgz:280982.got - 2010.06.28 00:19:55.
