data_PCOD8092043
_publ_section_title
;
Structure prediction by ZEFSAII (Michael W. Deem and Ramdas Pophale) SiO2 
 PCOD8092043
Probable space group: C 2/M
;
_chemical_formula_sum "Si O2"
_cell_formula_units_Z 48
_cell_length_a 16.696106
_cell_length_b 19.153266
_cell_length_c 14.370702
_cell_angle_alpha 90.000000
_cell_angle_beta 31.650240
_cell_angle_gamma 90.000000
_cell_volume 2411.426434
_symmetry_space_group_name_H-M "C 2/M"
_symmetry_group_IT_number 12
_symmetry_cell_setting 'monoclinic'
loop_
_space_group_symop_operation_xyz
x,y,z
-x,y,-z
-x,-y,-z
x,-y,z
1/2+x,1/2+y,z
1/2-x,1/2+y,-z
1/2-x,1/2-y,-z
1/2+x,1/2-y,z
loop_
_atom_site_type_symbol
_atom_site_label
_atom_site_fract_x
_atom_site_fract_y
_atom_site_fract_z
Si Si1 0.063947 0.370256 0.332559
Si Si2 0.602483 0.601844 0.488066
Si Si3 0.668374 0.756606 0.482678
Si Si4 0.674304 0.356477 0.806604
Si Si5 0.621554 0.000000 0.796147
Si Si6 0.945151 0.000000 0.778804
Si Si7 0.409596 0.000000 0.826730
Si Si8 0.384163 0.500000 0.198604
O O1 0.240949 0.352160 0.177276
O O2 0.054020 0.434058 0.272734
O O3 0.000000 0.385385 0.500000
O O4 0.981616 0.305205 0.364188
O O5 0.500000 0.588009 0.500000
O O6 0.619839 0.682876 0.490171
O O7 0.769637 0.568008 0.307682
O O8 0.509838 0.568706 0.665054
O O9 0.750000 0.750000 0.500000
O O10 0.787752 0.790764 0.294333
O O11 0.717546 0.429283 0.708947
O O12 0.500000 0.352796 0.000000
O O13 0.529346 0.000000 0.791674
O O14 0.500000 0.000000 0.000000
O O15 0.011316 0.000000 0.815452
O O16 0.761526 0.000000 0.963209
O O17 0.500000 0.500000 0.000000
#
# Coordination Sequence:
#
# PCOD8092043 Si02
#       8
#     8   8   8   8   4   4   4   4
#     4  10  22  38  59  90 124 156 190 238 298 355
#     4  11  23  43  62  82 117 161 198 240 295 352
#     4  11  23  40  59  85 119 158 196 239 295 354
#     4  10  20  37  59  87 118 154 195 238 288 351
#     4  11  24  41  63  91 115 148 203 256 291 333
#     4  11  23  39  62  88 116 158 202 240 289 357
#     4  12  21  38  63  93 120 150 194 248 293 340
#     4  10  19  34  58  88 121 154 187 234 292 350
#
# _framework density 19.90523
#
# number of rings (size 3 to 8) (size 9 to 14) (size 15 to 20)
#    0.000    1.333    0.000    8.250    0.000    6.667 
#    0.000    6.667    0.000    0.000    0.000    0.000 
#    0.000    0.000    0.000    0.000    0.000    0.000 
#
# Total GULP energy -297534.820322 kJ/mol
# GULP energy per Si atom -12397.284180 kJ/mol
# Density = 1.985993 g / cm^3
# Si number density = 19.905230 Si / 1000 Ang^3
#
#
#
# Elastic Constant Matrix: (Units=GPa)
#
#
# Indices 1 2 3 4 5 6 
#
# 1 214.3050 68.1562 63.1775 -0.0201 -6.2533 0.0016
# 2 68.1562 177.6269 70.3315 -0.0612 -4.2650 -0.0057
# 3 63.1775 70.3315 98.5495 0.2128 -9.2726 0.0323
# 4 -0.0201 -0.0612 0.2128 313.8714 -0.0549 25.5231
# 5 -6.2533 -4.2650 -9.2726 -0.0549 40.4314 -0.0113
# 6 0.0016 -0.0057 0.0323 25.5231 -0.0113 40.3622
#
#
#
# Elastic Compliance Matrix: (Units=1/GPa)
#
#
# Indices 1 2 3 4 5 6 
#
# 1 0.005896 -0.001069 -0.003006 0.000002 0.000110 0.000001
# 2 -0.001069 0.008050 -0.005105 0.000005 -0.000487 0.000002
# 3 -0.003006 -0.005105 0.015968 -0.000011 0.002659 -0.000006
# 4 0.000002 0.000005 -0.000011 0.003359 0.000002 -0.002124
# 5 0.000110 -0.000487 0.002659 0.000002 0.025309 0.000003
# 6 0.000001 0.000002 -0.000006 -0.002124 0.000003 0.026119
#
#
# Mechanical properties :
#
#
# Convention : Reuss Voigt Hill
#
# Bulk Modulus (GPa) = 86.56409 99.31241 92.93825
# Shear Modulus (GPa) = 46.76766 98.18744 72.47755
#
# Velocity S-wave (km/s) = 4.85244 7.03097 6.04072
# Velocity P-wave (km/s) = 8.65895 10.76632 9.76962
#
# Compressibility (1/GPa) = 0.01155213
#
# Stress axis : x y z
#
# Youngs Moduli (GPa) = 169.61390 124.22697 62.62544
#
# Poissons Ratio (x) = 0.13283 0.18826
# Poissons Ratio (y) = 0.18137 0.31972
# Poissons Ratio (z) = 0.50989 0.63420
#
# Static dielectric constant tensor:
#      x y z
#    x 3.684640 0.000890 1.089490 
#    y 0.000890 5.006840 -0.003010 
#    z 1.089490 -0.003010 -0.547590 
# 
# 
# High freq. dielectric constant tensor:
#      x y z
#    x 1.806040 0.000000 -0.009870 
#    y 0.000000 1.784170 0.000000 
#    z -0.009870 0.000000 1.769050 
# 
# From -- ./inp_files/147985.got.cif
#   From: 2010.06.25/outbox.cif.g09.slc.cpg/sg12_74_cif.got.tgz:147985.got - 2010.06.28 00:19:55.
