data_PCOD8092624
_publ_section_title
;
Structure prediction by ZEFSAII (Michael W. Deem and Ramdas Pophale) SiO2 
 PCOD8092624
Probable space group: C 2/M
;
_chemical_formula_sum "Si O2"
_cell_formula_units_Z 40
_cell_length_a 13.806159
_cell_length_b 15.450107
_cell_length_c 11.637891
_cell_angle_alpha 90.000000
_cell_angle_beta 39.969534
_cell_angle_gamma 90.000000
_cell_volume 1594.669860
_symmetry_space_group_name_H-M "C 2/M"
_symmetry_group_IT_number 12
_symmetry_cell_setting 'monoclinic'
loop_
_space_group_symop_operation_xyz
x,y,z
-x,y,-z
-x,-y,-z
x,-y,z
1/2+x,1/2+y,z
1/2-x,1/2+y,-z
1/2-x,1/2-y,-z
1/2+x,1/2-y,z
loop_
_atom_site_type_symbol
_atom_site_label
_atom_site_fract_x
_atom_site_fract_y
_atom_site_fract_z
Si Si1 0.191444 0.121771 0.217939
Si Si2 0.725391 0.695728 0.866474
Si Si3 0.091299 0.230607 0.746047
Si Si4 0.643815 0.406507 0.516257
Si Si5 0.438623 0.905850 0.820222
O O1 0.184348 0.219248 0.174118
O O2 0.226273 0.115977 0.321961
O O3 0.033795 0.077258 0.337343
O O4 0.330503 0.077641 0.027313
O O5 0.701080 0.712018 0.753536
O O6 0.836850 0.617773 0.800003
O O7 0.567816 0.686297 0.076668
O O8 0.172309 0.177206 0.570374
O O9 0.065387 0.332844 0.735492
O O10 0.704136 0.500000 0.508621
O O11 0.515203 0.000000 0.725654
#
# Coordination Sequence:
#
# PCOD8092624 Si02
#       5
#     8   8   8   8   8
#     4  10  19  35  56  83 115 146 187 238 290 334
#     4  10  20  37  59  82 114 156 189 234 286 343
#     4  10  21  37  58  85 118 148 193 238 285 341
#     4  11  20  33  57  87 112 145 189 238 288 338
#     4  11  20  38  62  86 115 154 192 235 287 344
#
# _framework density 25.083561
#
# number of rings (size 3 to 8) (size 9 to 14) (size 15 to 20)
#    0.000    1.600    4.000    3.600    0.000    1.600 
#    0.000   12.000    0.000    2.400    0.000    0.000 
#    0.000    0.000    0.000    0.000    0.000    0.000 
#
# Total GULP energy -247784.754972 kJ/mol
# GULP energy per Si atom -12389.237749 kJ/mol
# Density = 2.502647 g / cm^3
# Si number density = 25.083561 Si / 1000 Ang^3
#
#
#
# Elastic Constant Matrix: (Units=GPa)
#
#
# Indices 1 2 3 4 5 6 
#
# 1 132.5657 51.0326 43.2243 0.0003 16.3115 -0.0006
# 2 51.0326 195.6713 53.6323 0.0000 22.0331 -0.0002
# 3 43.2243 53.6323 67.7247 0.0002 9.7099 -0.0004
# 4 0.0003 0.0000 0.0002 5.1456 -0.0002 8.7675
# 5 16.3115 22.0331 9.7099 -0.0002 38.6660 0.0004
# 6 -0.0006 -0.0002 -0.0004 8.7675 0.0004 -5.9723
#
#
#
# Elastic Compliance Matrix: (Units=1/GPa)
#
#
# Indices 1 2 3 4 5 6 
#
# 1 0.009891 -0.000865 -0.005291 0.000000 -0.002351 0.000000
# 2 -0.000865 0.006847 -0.004526 0.000000 -0.002400 0.000000
# 3 -0.005291 -0.004526 0.021823 0.000000 -0.000669 0.000000
# 4 0.000000 0.000000 0.000000 0.055505 -0.000001 0.081482
# 5 -0.002351 -0.002400 -0.000669 -0.000001 0.028390 0.000001
# 6 0.000000 0.000000 0.000000 0.081482 0.000001 -0.047822
#
#
# Mechanical properties :
#
#
# Convention : Reuss Voigt Hill
#
# Bulk Modulus (GPa) = 58.14946 76.86001 67.50473
# Shear Modulus (GPa) = 49.14998 24.10601 36.62800
#
# Velocity S-wave (km/s) = 4.43137 3.10341 3.82545
# Velocity P-wave (km/s) = 7.02960 6.59921 6.81781
#
# Compressibility (1/GPa) = 0.01719707
#
# Stress axis : x y z
#
# Youngs Moduli (GPa) = 101.10515 146.04887 45.82363
#
# Poissons Ratio (x) = 0.12628 0.24244
# Poissons Ratio (y) = 0.08742 0.20741
# Poissons Ratio (z) = 0.53492 0.66106
#
# Static dielectric constant tensor:
#      x y z
#    x 4.417910 0.000000 0.079240 
#    y 0.000000 4.449260 0.000000 
#    z 0.079240 0.000000 4.377210 
# 
# 
# High freq. dielectric constant tensor:
#      x y z
#    x 2.004480 0.000000 -0.009310 
#    y 0.000000 1.999400 0.000000 
#    z -0.009310 0.000000 1.996550 
# 
# From -- ./inp_files/155764.got.cif
#   From: 2010.06.25/outbox.cif.g09.slc.cpg/sg12_78_cif.got.tgz:155764.got - 2010.06.28 00:19:55.
