data_PCOD8092919
_publ_section_title
;
Structure prediction by ZEFSAII (Michael W. Deem and Ramdas Pophale) SiO2 
 PCOD8092919
Probable space group: C 2/M
;
_chemical_formula_sum "Si O2"
_cell_formula_units_Z 64
_cell_length_a 22.767649
_cell_length_b 8.575036
_cell_length_c 16.391859
_cell_angle_alpha 90.000000
_cell_angle_beta 86.293457
_cell_angle_gamma 90.000000
_cell_volume 3193.544402
_symmetry_space_group_name_H-M "C 2/M"
_symmetry_group_IT_number 12
_symmetry_cell_setting 'monoclinic'
loop_
_space_group_symop_operation_xyz
x,y,z
-x,y,-z
-x,-y,-z
x,-y,z
1/2+x,1/2+y,z
1/2-x,1/2+y,-z
1/2-x,1/2-y,-z
1/2+x,1/2-y,z
loop_
_atom_site_type_symbol
_atom_site_label
_atom_site_fract_x
_atom_site_fract_y
_atom_site_fract_z
Si Si1 0.356172 0.320565 0.169617
Si Si2 0.666477 0.814357 0.231945
Si Si3 0.083881 0.317210 0.681671
Si Si4 0.535785 0.818937 0.238505
Si Si5 0.661411 0.320816 0.550048
Si Si6 0.224276 0.818055 0.384329
Si Si7 0.245811 0.816639 0.091102
Si Si8 0.481941 0.321274 0.090532
O O1 0.335530 0.500000 0.174567
O O2 0.371742 0.265867 0.259466
O O3 0.304566 0.217081 0.137029
O O4 0.412355 0.297773 0.106559
O O5 0.600118 0.747354 0.250456
O O6 0.706210 0.733973 0.296529
O O7 0.690388 0.762798 0.141439
O O8 0.669655 0.000000 0.239606
O O9 0.085333 0.500000 0.699297
O O10 0.106054 0.278990 0.588386
O O11 0.016878 0.252300 0.699026
O O12 0.518525 0.787694 0.147139
O O13 0.541645 0.000000 0.253082
O O14 0.645844 0.500000 0.565021
O O15 0.719448 0.280916 0.595712
O O16 0.671668 0.283174 0.453565
O O17 0.241223 0.000000 0.383841
O O18 0.235012 0.000000 0.087138
O O19 0.250000 0.750000 0.000000
O O20 0.499809 0.500000 0.105641
O O21 0.500000 0.265409 0.000000
#
# Coordination Sequence:
#
# PCOD8092919 Si02
#       8
#     8   8   8   8   8   8   8   8
#     4  10  20  36  56  81 113 145 183 229 279 334
#     4  11  23  41  61  83 115 152 191 233 283 340
#     4  10  19  35  58  84 114 149 189 233 282 333
#     4   9  21  38  56  81 110 148 191 231 279 337
#     4  10  20  35  58  87 118 148 188 238 284 335
#     4  10  21  37  58  87 117 152 191 231 285 340
#     4  12  26  42  59  82 112 148 189 233 283 337
#     4   9  19  34  55  82 108 139 181 231 282 329
#
# _framework density 20.040429
#
# number of rings (size 3 to 8) (size 9 to 14) (size 15 to 20)
#    0.000    1.875    0.000    3.750    1.750    3.750 
#    0.000    0.625    0.000    3.750    0.000    0.000 
#    0.000    0.000    0.000    0.000    0.000    0.000 
#
# Total GULP energy -396824.720014 kJ/mol
# GULP energy per Si atom -12400.772500 kJ/mol
# Density = 1.999482 g / cm^3
# Si number density = 20.040429 Si / 1000 Ang^3
#
#
#
# Elastic Constant Matrix: (Units=GPa)
#
#
# Indices 1 2 3 4 5 6 
#
# 1 73.9137 14.2594 23.9523 0.0000 -7.6361 0.0000
# 2 14.2594 46.0298 16.7627 0.0000 -7.0215 0.0000
# 3 23.9523 16.7627 99.3296 0.0000 -23.3329 0.0000
# 4 0.0000 0.0000 0.0000 32.9527 0.0000 -1.3459
# 5 -7.6361 -7.0215 -23.3329 0.0000 27.3140 0.0000
# 6 0.0000 0.0000 0.0000 -1.3459 0.0000 24.1211
#
#
#
# Elastic Compliance Matrix: (Units=1/GPa)
#
#
# Indices 1 2 3 4 5 6 
#
# 1 0.015233 -0.003538 -0.002864 0.000000 0.000902 0.000000
# 2 -0.003538 0.024205 -0.002505 0.000000 0.003093 0.000000
# 3 -0.002864 -0.002505 0.013563 0.000000 0.010142 0.000000
# 4 0.000000 0.000000 0.000000 0.030416 0.000000 0.001697
# 5 0.000902 0.003093 0.010142 0.000000 0.046322 0.000000
# 6 0.000000 0.000000 0.000000 0.001697 0.000000 0.041552
#
#
# Mechanical properties :
#
#
# Convention : Reuss Voigt Hill
#
# Bulk Modulus (GPa) = 28.41990 36.58022 32.50006
# Shear Modulus (GPa) = 24.89594 27.83082 26.36338
#
# Velocity S-wave (km/s) = 3.52843 3.73061 3.63093
# Velocity P-wave (km/s) = 5.55084 6.07038 5.81641
#
# Compressibility (1/GPa) = 0.03518662
#
# Stress axis : x y z
#
# Youngs Moduli (GPa) = 65.64561 41.31334 73.72883
#
# Poissons Ratio (x) = 0.14618 0.21118
# Poissons Ratio (y) = 0.23228 0.18469
# Poissons Ratio (z) = 0.18803 0.10349
#
# Static dielectric constant tensor:
#      x y z
#    x 3.812720 0.000000 -0.308970 
#    y 0.000000 3.613300 0.000000 
#    z -0.308970 0.000000 3.759480 
# 
# 
# High freq. dielectric constant tensor:
#      x y z
#    x 1.777920 0.000000 -0.023270 
#    y 0.000000 1.784200 0.000000 
#    z -0.023270 0.000000 1.783010 
# 
# From -- ./inp_files/287595.got.cif
#   From: 2010.06.25/outbox.cif.g09.slc.cpg/sg12_144_cif.got.tgz:287595.got - 2010.06.28 00:19:55.
