data_PCOD8092584
_publ_section_title
;
Structure prediction by ZEFSAII (Michael W. Deem and Ramdas Pophale) SiO2 
 PCOD8092584
Probable space group: C 2/M
;
_chemical_formula_sum "Si O2"
_cell_formula_units_Z 64
_cell_length_a 29.684178
_cell_length_b 9.074310
_cell_length_c 11.828432
_cell_angle_alpha 90.000000
_cell_angle_beta 93.926371
_cell_angle_gamma 90.000000
_cell_volume 3178.668747
_symmetry_space_group_name_H-M "C 2/M"
_symmetry_group_IT_number 12
_symmetry_cell_setting 'monoclinic'
loop_
_space_group_symop_operation_xyz
x,y,z
-x,y,-z
-x,-y,-z
x,-y,z
1/2+x,1/2+y,z
1/2-x,1/2+y,-z
1/2-x,1/2-y,-z
1/2+x,1/2-y,z
loop_
_atom_site_type_symbol
_atom_site_label
_atom_site_fract_x
_atom_site_fract_y
_atom_site_fract_z
Si Si1 0.107233 0.825009 0.012271
Si Si2 0.166064 0.173286 0.674897
Si Si3 0.088959 0.327607 0.790147
Si Si4 0.257744 0.333870 0.698864
Si Si5 0.497766 0.172214 0.369615
Si Si6 0.791148 0.164500 0.951928
Si Si7 0.841299 0.826186 0.580099
Si Si8 0.577755 0.325084 0.255593
O O1 0.077789 0.747799 0.908826
O O2 0.104970 0.000000 0.998287
O O3 0.159341 0.769053 0.012175
O O4 0.085134 0.776797 0.127329
O O5 0.136057 0.260196 0.758274
O O6 0.217355 0.219652 0.703999
O O7 0.150185 0.219971 0.547205
O O8 0.161200 0.000000 0.695083
O O9 0.094548 0.500000 0.810535
O O10 0.051325 0.292152 0.689861
O O11 0.240129 0.500000 0.668178
O O12 0.287107 0.336611 0.816975
O O13 0.291663 0.270601 0.608953
O O14 0.500000 0.228761 0.500000
O O15 0.532167 0.257348 0.295810
O O16 0.509191 0.000000 0.366524
O O17 0.788604 0.000000 0.000883
O O18 0.750000 0.250000 0.000000
O O19 0.881124 0.758802 0.663072
O O20 0.841111 0.000000 0.596902
O O21 0.574734 0.500000 0.266559
#
# Coordination Sequence:
#
# PCOD8092584 Si02
#       8
#     8   8   8   8   8   8   8   8
#     4  10  21  39  61  86 118 152 192 243 291 341
#     4  11  22  35  55  85 118 151 193 244 291 340
#     4  11  24  41  60  83 115 154 193 235 290 350
#     4  10  19  35  56  79 113 155 194 233 287 348
#     4  10  23  43  64  88 119 153 191 238 292 350
#     4  10  20  34  54  78 110 153 196 238 282 332
#     4   9  18  35  58  84 116 152 191 237 289 345
#     4  10  20  38  65  91 116 152 196 241 293 347
#
# _framework density 20.134214
#
# number of rings (size 3 to 8) (size 9 to 14) (size 15 to 20)
#    0.000    1.875    1.250    2.625    0.000    5.250 
#    0.000    4.375    0.000    0.000    0.000    0.000 
#    0.000    0.000    0.000    0.000    0.000    0.000 
#
# Total GULP energy -396836.691740 kJ/mol
# GULP energy per Si atom -12401.146617 kJ/mol
# Density = 2.008839 g / cm^3
# Si number density = 20.134214 Si / 1000 Ang^3
#
#
#
# Elastic Constant Matrix: (Units=GPa)
#
#
# Indices 1 2 3 4 5 6 
#
# 1 88.2491 33.5981 41.2369 0.0000 -9.3984 0.0000
# 2 33.5981 47.7982 40.5817 0.0000 -2.7675 0.0000
# 3 41.2369 40.5817 129.8326 0.0000 -0.4895 0.0000
# 4 0.0000 0.0000 0.0000 28.5196 0.0000 -0.1863
# 5 -9.3984 -2.7675 -0.4895 0.0000 37.9095 0.0000
# 6 0.0000 0.0000 0.0000 -0.1863 0.0000 31.0755
#
#
#
# Elastic Compliance Matrix: (Units=1/GPa)
#
#
# Indices 1 2 3 4 5 6 
#
# 1 0.016296 -0.009363 -0.002237 0.000000 0.003328 0.000000
# 2 -0.009363 0.034005 -0.007655 0.000000 0.000062 0.000000
# 3 -0.002237 -0.007655 0.010802 0.000000 -0.000974 0.000000
# 4 0.000000 0.000000 0.000000 0.035065 0.000000 0.000210
# 5 0.003328 0.000062 -0.000974 0.000000 0.027196 0.000000
# 6 0.000000 0.000000 0.000000 0.000210 0.000000 0.032181
#
#
# Mechanical properties :
#
#
# Convention : Reuss Voigt Hill
#
# Bulk Modulus (GPa) = 44.26009 55.19036 49.72523
# Shear Modulus (GPa) = 24.80347 29.53180 27.16763
#
# Velocity S-wave (km/s) = 3.51366 3.83397 3.67730
# Velocity P-wave (km/s) = 6.20414 6.86074 6.54069
#
# Compressibility (1/GPa) = 0.02259372
#
# Stress axis : x y z
#
# Youngs Moduli (GPa) = 61.36590 29.40705 92.57800
#
# Poissons Ratio (x) = 0.27533 0.20707
# Poissons Ratio (y) = 0.57456 0.70869
# Poissons Ratio (z) = 0.13726 0.22511
#
# Static dielectric constant tensor:
#      x y z
#    x 3.584670 0.000000 0.056900 
#    y 0.000000 3.467270 0.000000 
#    z 0.056900 0.000000 3.943890 
# 
# 
# High freq. dielectric constant tensor:
#      x y z
#    x 1.786240 0.000000 -0.000430 
#    y 0.000000 1.763000 0.000000 
#    z -0.000430 0.000000 1.804630 
# 
# From -- ./inp_files/187514.got.cif
#   From: 2010.06.25/outbox.cif.g09.slc.cpg/sg12_94_cif.got.tgz:187514.got - 2010.06.28 00:19:55.
