data_PCOD8092650
_publ_section_title
;
Structure prediction by ZEFSAII (Michael W. Deem and Ramdas Pophale) SiO2 
 PCOD8092650
Probable space group: C 2/M
;
_chemical_formula_sum "Si O2"
_cell_formula_units_Z 64
_cell_length_a 20.340879
_cell_length_b 9.039993
_cell_length_c 33.428747
_cell_angle_alpha 90.000000
_cell_angle_beta 146.590966
_cell_angle_gamma 90.000000
_cell_volume 3384.572878
_symmetry_space_group_name_H-M "C 2/M"
_symmetry_group_IT_number 12
_symmetry_cell_setting 'monoclinic'
loop_
_space_group_symop_operation_xyz
x,y,z
-x,y,-z
-x,-y,-z
x,-y,z
1/2+x,1/2+y,z
1/2-x,1/2+y,-z
1/2-x,1/2-y,-z
1/2+x,1/2-y,z
loop_
_atom_site_type_symbol
_atom_site_label
_atom_site_fract_x
_atom_site_fract_y
_atom_site_fract_z
Si Si1 0.534075 0.324753 0.711733
Si Si2 0.037035 0.171825 0.803255
Si Si3 0.861892 0.325957 0.435472
Si Si4 0.194493 0.675563 0.285096
Si Si5 0.010673 0.676494 0.050417
Si Si6 0.723937 0.674803 0.444973
Si Si7 0.734964 0.823977 0.215271
Si Si8 0.773770 0.670850 0.971433
O O1 0.537989 0.500000 0.711580
O O2 0.549818 0.270667 0.764796
O O3 0.406998 0.265673 0.632472
O O4 0.641073 0.259299 0.739191
O O5 0.165393 0.200632 0.886838
O O6 0.939395 0.269744 0.775913
O O7 0.998238 0.000000 0.785631
O O8 0.842405 0.500000 0.419572
O O9 0.785922 0.244360 0.363125
O O10 0.816448 0.278261 0.456709
O O11 0.000000 0.280716 0.500000
O O12 0.200031 0.500000 0.291909
O O13 0.227390 0.729529 0.257185
O O14 0.013999 0.500000 0.050850
O O15 0.126531 0.738157 0.132874
O O16 0.000000 0.739239 0.000000
O O17 0.894183 0.736489 0.013862
O O18 0.727160 0.500000 0.452467
O O19 0.750000 0.750000 0.500000
O O20 0.732278 0.000000 0.211950
O O21 0.790976 0.500000 0.989404
O O22 0.750000 0.750000 0.000000
#
# Coordination Sequence:
#
# PCOD8092650 Si02
#       8
#     8   8   8   8   8   8   8   8
#     4   9  17  33  54  75 103 140 181 220 263 318
#     4  10  19  35  57  77 104 145 188 222 266 326
#     4  10  22  41  61  81 110 149 184 217 263 324
#     4  11  22  35  55  83 114 143 176 226 278 320
#     4   9  16  29  49  76 107 138 180 227 269 316
#     4  10  21  37  58  82 109 142 179 222 266 314
#     4   9  18  30  48  77 110 140 173 224 280 317
#     4  10  20  32  52  80 108 142 180 225 274 325
#
# _framework density 18.909330000000001
#
# number of rings (size 3 to 8) (size 9 to 14) (size 15 to 20)
#    0.000    2.250    1.250    1.875    1.750    5.250 
#    0.000    0.000    0.000    1.875    0.000    0.000 
#    0.000    0.000    0.000    0.000    0.000    0.000 
#
# Total GULP energy -396764.672266 kJ/mol
# GULP energy per Si atom -12398.896008 kJ/mol
# Density = 1.886629 g / cm^3
# Si number density = 18.909330 Si / 1000 Ang^3
#
#
#
# Elastic Constant Matrix: (Units=GPa)
#
#
# Indices 1 2 3 4 5 6 
#
# 1 203.8575 33.0961 95.8314 0.0001 1.0743 -0.0001
# 2 33.0961 25.8166 34.4314 0.0002 -2.0373 -0.0003
# 3 95.8314 34.4314 135.9336 0.0000 -3.9451 -0.0001
# 4 0.0001 0.0002 0.0000 21.4215 0.0000 -4.6367
# 5 1.0743 -2.0373 -3.9451 0.0000 45.7915 0.0000
# 6 -0.0001 -0.0003 -0.0001 -4.6367 0.0000 22.8538
#
#
#
# Elastic Compliance Matrix: (Units=1/GPa)
#
#
# Indices 1 2 3 4 5 6 
#
# 1 0.007615 -0.003974 -0.004383 0.000000 -0.000733 0.000000
# 2 -0.003974 0.060651 -0.012511 0.000000 0.001714 0.000001
# 3 -0.004383 -0.012511 0.013636 0.000000 0.000721 0.000000
# 4 0.000000 0.000000 0.000000 0.048826 0.000000 0.009906
# 5 -0.000733 0.001714 0.000721 0.000000 0.021994 0.000000
# 6 0.000000 0.000001 0.000000 0.009906 0.000000 0.045766
#
#
# Mechanical properties :
#
#
# Convention : Reuss Voigt Hill
#
# Bulk Modulus (GPa) = 24.89704 76.92506 50.91105
# Shear Modulus (GPa) = 19.71506 31.49662 25.60584
#
# Velocity S-wave (km/s) = 3.23245 4.08568 3.68385
# Velocity P-wave (km/s) = 5.20834 7.93892 6.71391
#
# Compressibility (1/GPa) = 0.04016541
#
# Stress axis : x y z
#
# Youngs Moduli (GPa) = 131.32191 16.48784 73.33327
#
# Poissons Ratio (x) = 0.06553 0.32142
# Poissons Ratio (y) = 0.52192 0.91747
# Poissons Ratio (z) = 0.57558 0.20628
#
# Static dielectric constant tensor:
#      x y z
#    x 3.764390 0.000000 0.084350 
#    y 0.000000 3.034090 0.000000 
#    z 0.084350 0.000000 3.601960 
# 
# 
# High freq. dielectric constant tensor:
#      x y z
#    x 1.755190 0.000000 0.001050 
#    y 0.000000 1.686400 0.000000 
#    z 0.001050 0.000000 1.751700 
# 
# From -- ./inp_files/378341.got.cif
#   From: 2010.06.25/outbox.cif.g09.slc.cpg/sg12_190_cif.got.tgz:378341.got - 2010.06.28 00:19:55.
