data_PCOD8092092
_publ_section_title
;
Structure prediction by ZEFSAII (Michael W. Deem and Ramdas Pophale) SiO2 
 PCOD8092092
Probable space group: C 2/M
;
_chemical_formula_sum "Si O2"
_cell_formula_units_Z 56
_cell_length_a 28.318121
_cell_length_b 8.924346
_cell_length_c 19.355968
_cell_angle_alpha 90.000000
_cell_angle_beta 37.332413
_cell_angle_gamma 90.000000
_cell_volume 2966.486385
_symmetry_space_group_name_H-M "C 2/M"
_symmetry_group_IT_number 12
_symmetry_cell_setting 'monoclinic'
loop_
_space_group_symop_operation_xyz
x,y,z
-x,y,-z
-x,-y,-z
x,-y,z
1/2+x,1/2+y,z
1/2-x,1/2+y,-z
1/2-x,1/2-y,-z
1/2+x,1/2-y,z
loop_
_atom_site_type_symbol
_atom_site_label
_atom_site_fract_x
_atom_site_fract_y
_atom_site_fract_z
Si Si1 0.944444 0.675853 0.626190
Si Si2 0.694434 0.674755 0.424941
Si Si3 0.637470 0.325368 0.919219
Si Si4 0.042547 0.671158 0.643556
Si Si5 0.146794 0.824799 0.748341
Si Si6 0.494711 0.172127 0.158302
Si Si7 0.796293 0.825299 0.745133
O O1 0.929682 0.500000 0.636972
O O2 0.861588 0.756921 0.718705
O O3 0.000000 0.733208 0.500000
O O4 0.982467 0.722293 0.654510
O O5 0.710628 0.500000 0.417816
O O6 0.618115 0.723781 0.555128
O O7 0.766913 0.768047 0.370249
O O8 0.681939 0.713502 0.359050
O O9 0.648013 0.500000 0.919958
O O10 0.626469 0.289251 0.851355
O O11 0.713138 0.243999 0.861698
O O12 0.561916 0.269520 0.046449
O O13 0.069373 0.500000 0.599233
O O14 0.998791 0.688586 0.766927
O O15 0.088361 0.733281 0.768700
O O16 0.140333 0.000000 0.739149
O O17 0.503369 0.000000 0.125021
O O18 0.791103 0.000000 0.764859
#
# Coordination Sequence:
#
# PCOD8092092 Si02
#       7
#     8   8   8   8   8   8   8
#     4  10  19  34  59  84 110 146 185 223 270 329
#     4  10  20  34  55  84 114 144 181 228 278 325
#     4  10  21  38  60  83 109 144 188 229 270 326
#     4  10  22  38  55  80 114 150 185 222 272 333
#     4  10  21  37  59  83 109 144 187 229 272 327
#     4  11  23  38  56  80 113 148 184 229 276 323
#     4  10  20  34  56  87 116 140 178 232 281 321
#
# _framework density 18.877552000000001
#
# number of rings (size 3 to 8) (size 9 to 14) (size 15 to 20)
#    0.000    1.857    1.429    2.571    0.000    7.143 
#    0.000    0.714    0.000    0.000    0.000    0.000 
#    0.000    0.000    0.000    0.000    0.000    0.000 
#
# Total GULP energy -347373.435701 kJ/mol
# GULP energy per Si atom -12406.194132 kJ/mol
# Density = 1.883459 g / cm^3
# Si number density = 18.877552 Si / 1000 Ang^3
#
#
#
# Elastic Constant Matrix: (Units=GPa)
#
#
# Indices 1 2 3 4 5 6 
#
# 1 109.6529 33.2302 27.2000 0.0024 -10.0124 -0.0015
# 2 33.2302 55.9451 15.9995 -0.0006 -0.4297 0.0003
# 3 27.2000 15.9995 34.5798 0.0017 -4.2030 -0.0006
# 4 0.0024 -0.0006 0.0017 30.7062 0.0030 -7.7186
# 5 -10.0124 -0.4297 -4.2030 0.0030 25.1661 -0.0022
# 6 -0.0015 0.0003 -0.0006 -7.7186 -0.0022 31.3632
#
#
#
# Elastic Compliance Matrix: (Units=1/GPa)
#
#
# Indices 1 2 3 4 5 6 
#
# 1 0.012940 -0.005624 -0.007106 -0.000001 0.003865 0.000001
# 2 -0.005624 0.023084 -0.006615 0.000001 -0.002948 0.000000
# 3 -0.007106 -0.006615 0.037983 -0.000002 0.003403 0.000000
# 4 -0.000001 0.000001 -0.000002 0.034714 -0.000004 0.008543
# 5 0.003865 -0.002948 0.003403 -0.000004 0.041792 0.000002
# 6 0.000001 0.000000 0.000000 0.008543 0.000002 0.033987
#
#
# Mechanical properties :
#
#
# Convention : Reuss Voigt Hill
#
# Bulk Modulus (GPa) = 28.31602 39.22636 33.77119
# Shear Modulus (GPa) = 21.27992 25.69699 23.48845
#
# Velocity S-wave (km/s) = 3.36111 3.69351 3.53122
# Velocity P-wave (km/s) = 5.48591 6.24610 5.87831
#
# Compressibility (1/GPa) = 0.03531570
#
# Stress axis : x y z
#
# Youngs Moduli (GPa) = 77.28144 43.31930 26.32763
#
# Poissons Ratio (x) = 0.24362 0.18709
# Poissons Ratio (y) = 0.43462 0.17417
# Poissons Ratio (z) = 0.54919 0.28658
#
# Static dielectric constant tensor:
#      x y z
#    x 3.507260 -0.000010 -0.057800 
#    y -0.000010 3.482430 0.000010 
#    z -0.057800 0.000010 3.315320 
# 
# 
# High freq. dielectric constant tensor:
#      x y z
#    x 1.732900 0.000000 -0.012410 
#    y 0.000000 1.742810 0.000000 
#    z -0.012410 0.000000 1.723570 
# 
# From -- ./inp_files/237817.got.cif
#   From: 2010.06.25/outbox.cif.g09.slc.cpg/sg12_119_cif.got.tgz:237817.got - 2010.06.28 00:19:55.
