data_PCOD8092588
_publ_section_title
;
Structure prediction by ZEFSAII (Michael W. Deem and Ramdas Pophale) SiO2 
 PCOD8092588
Probable space group: C 2/M
;
_chemical_formula_sum "Si O2"
_cell_formula_units_Z 56
_cell_length_a 19.002728
_cell_length_b 9.073783
_cell_length_c 26.998371
_cell_angle_alpha 90.000000
_cell_angle_beta 140.226282
_cell_angle_gamma 90.000000
_cell_volume 2978.222183
_symmetry_space_group_name_H-M "C 2/M"
_symmetry_group_IT_number 12
_symmetry_cell_setting 'monoclinic'
loop_
_space_group_symop_operation_xyz
x,y,z
-x,y,-z
-x,-y,-z
x,-y,z
1/2+x,1/2+y,z
1/2-x,1/2+y,-z
1/2-x,1/2-y,-z
1/2+x,1/2-y,z
loop_
_atom_site_type_symbol
_atom_site_label
_atom_site_fract_x
_atom_site_fract_y
_atom_site_fract_z
Si Si1 0.931625 0.170994 0.779173
Si Si2 0.202707 0.337276 0.833356
Si Si3 0.235414 0.326475 0.741432
Si Si4 0.447367 0.161832 0.692815
Si Si5 0.365840 0.326121 0.557763
Si Si6 0.983304 0.669829 0.432854
Si Si7 0.688303 0.671748 0.922425
O O1 0.853061 0.219583 0.782071
O O2 0.890857 0.264739 0.710033
O O3 0.058616 0.203091 0.860060
O O4 0.912927 0.000000 0.756192
O O5 0.258963 0.500000 0.868552
O O6 0.229132 0.261921 0.794135
O O7 0.239111 0.231938 0.898145
O O8 0.074403 0.359712 0.771100
O O9 0.224527 0.500000 0.741262
O O10 0.135631 0.273421 0.651595
O O11 0.439395 0.272574 0.642964
O O12 0.393389 0.000000 0.653641
O O13 0.353087 0.500000 0.551212
O O14 0.250000 0.250000 0.500000
O O15 0.422463 0.273038 0.538204
O O16 0.001376 0.500000 0.426426
O O17 0.000000 0.687574 0.500000
O O18 0.713935 0.500000 0.937946
O O19 0.750000 0.750000 0.000000
#
# Coordination Sequence:
#
# PCOD8092588 Si02
#       7
#     8   8   8   8   8   8   8
#     4   9  19  34  56  85 112 145 188 228 269 331
#     4   9  17  33  58  81 107 143 181 220 271 332
#     4   9  17  34  57  82 113 148 185 226 275 336
#     4  10  19  35  56  80 108 142 184 230 282 336
#     4  12  25  39  56  78 109 146 192 243 288 335
#     4  10  21  38  59  84 115 152 189 230 289 346
#     4  10  20  35  56  83 113 144 185 228 275 328
#
# _framework density 18.803163000000001
#
# number of rings (size 3 to 8) (size 9 to 14) (size 15 to 20)
#    0.000    2.143    1.429    2.143    2.000    1.429 
#    0.000    2.143    0.000    4.286    0.000    0.000 
#    0.000    0.000    0.000    0.000    0.000    0.000 
#
# Total GULP energy -347078.758330 kJ/mol
# GULP energy per Si atom -12395.669940 kJ/mol
# Density = 1.876037 g / cm^3
# Si number density = 18.803163 Si / 1000 Ang^3
#
#
#
# Elastic Constant Matrix: (Units=GPa)
#
#
# Indices 1 2 3 4 5 6 
#
# 1 126.2027 50.8856 44.8643 0.0000 -22.7522 0.0000
# 2 50.8856 115.0987 49.2690 0.0000 -11.0144 0.0000
# 3 44.8643 49.2690 91.1938 0.0000 -26.2751 0.0000
# 4 0.0000 0.0000 0.0000 25.4408 0.0000 -5.9528
# 5 -22.7522 -11.0144 -26.2751 0.0000 30.8163 0.0000
# 6 0.0000 0.0000 0.0000 -5.9528 0.0000 27.9829
#
#
#
# Elastic Compliance Matrix: (Units=1/GPa)
#
#
# Indices 1 2 3 4 5 6 
#
# 1 0.010980 -0.003491 -0.002041 0.000000 0.005119 0.000000
# 2 -0.003491 0.012468 -0.005935 0.000000 -0.003182 0.000000
# 3 -0.002041 -0.005935 0.018733 0.000000 0.012344 0.000000
# 4 0.000000 0.000000 0.000000 0.041366 0.000000 0.008800
# 5 0.005119 -0.003182 0.012344 0.000000 0.045617 0.000000
# 6 0.000000 0.000000 0.000000 0.008800 0.000000 0.037608
#
#
# Mechanical properties :
#
#
# Convention : Reuss Voigt Hill
#
# Bulk Modulus (GPa) = 51.95740 69.17033 60.56387
# Shear Modulus (GPa) = 25.49449 29.34641 27.42045
#
# Velocity S-wave (km/s) = 3.68620 3.95488 3.82290
# Velocity P-wave (km/s) = 6.76828 7.59744 7.19482
#
# Compressibility (1/GPa) = 0.01924654
#
# Stress axis : x y z
#
# Youngs Moduli (GPa) = 91.07856 80.20790 53.38174
#
# Poissons Ratio (x) = 0.27998 0.10895
# Poissons Ratio (y) = 0.31792 0.31683
# Poissons Ratio (z) = 0.18588 0.47605
#
# Static dielectric constant tensor:
#      x y z
#    x 3.559700 0.000000 -0.150850 
#    y 0.000000 3.553570 0.000000 
#    z -0.150850 0.000000 3.337830 
# 
# 
# High freq. dielectric constant tensor:
#      x y z
#    x 1.730430 0.000000 -0.015320 
#    y 0.000000 1.718830 0.000000 
#    z -0.015320 0.000000 1.720420 
# 
# From -- ./inp_files/342203.got.cif
#   From: 2010.06.25/outbox.cif.g09.slc.cpg/sg12_172_cif.got.tgz:342203.got - 2010.06.28 00:19:55.
