data_PCOD8092087
_publ_section_title
;
Structure prediction by ZEFSAII (Michael W. Deem and Ramdas Pophale) SiO2 
 PCOD8092087
Probable space group: C 2/M
;
_chemical_formula_sum "Si O2"
_cell_formula_units_Z 48
_cell_length_a 16.389924
_cell_length_b 18.164114
_cell_length_c 9.963644
_cell_angle_alpha 90.000000
_cell_angle_beta 117.974613
_cell_angle_gamma 90.000000
_cell_volume 2619.669777
_symmetry_space_group_name_H-M "C 2/M"
_symmetry_group_IT_number 12
_symmetry_cell_setting 'monoclinic'
loop_
_space_group_symop_operation_xyz
x,y,z
-x,y,-z
-x,-y,-z
x,-y,z
1/2+x,1/2+y,z
1/2-x,1/2+y,-z
1/2-x,1/2-y,-z
1/2+x,1/2-y,z
loop_
_atom_site_type_symbol
_atom_site_label
_atom_site_fract_x
_atom_site_fract_y
_atom_site_fract_z
Si Si1 0.766600 0.836847 0.639636
Si Si2 0.918547 0.413601 0.836357
Si Si3 0.073106 0.916094 0.673748
Si Si4 0.450257 0.582153 0.821488
Si Si5 0.762633 0.173622 0.320957
Si Si6 0.079232 0.413739 0.467828
O O1 0.857998 0.871521 0.772092
O O2 0.783550 0.835958 0.493817
O O3 0.752120 0.760520 0.707490
O O4 0.676064 0.884372 0.596900
O O5 0.897079 0.500000 0.833737
O O6 0.827072 0.368895 0.802630
O O7 0.944953 0.392454 0.704064
O O8 0.000000 0.389504 0.000000
O O9 0.153903 0.858478 0.702509
O O10 0.000000 0.916079 0.500000
O O11 0.021448 0.885664 0.766487
O O12 0.111653 0.000000 0.723751
O O13 0.421973 0.500000 0.752712
O O14 0.500000 0.581036 0.000000
O O15 0.083436 0.500000 0.489549
O O16 0.000000 0.378705 0.500000
#
# Coordination Sequence:
#
# PCOD8092087 Si02
#       6
#     8   8   8   8   8   8
#     4  10  20  35  54  80 111 144 176 218 272 322
#     4   9  18  34  55  77 104 136 173 221 267 307
#     4  10  19  34  59  84 106 139 187 232 264 315
#     4  10  21  38  58  82 112 144 179 225 278 323
#     4  10  20  34  54  83 109 140 180 220 269 320
#     4   9  18  34  55  77 100 136 182 218 255 311
#
# _framework density 18.322921000000001
#
# number of rings (size 3 to 8) (size 9 to 14) (size 15 to 20)
#    0.000    2.333    1.667    1.000    0.000    2.667 
#    6.000    0.833    0.000    0.000    0.000    0.000 
#    0.000    0.000    0.000    0.000    0.000    0.000 
#
# Total GULP energy -297528.911011 kJ/mol
# GULP energy per Si atom -12397.037959 kJ/mol
# Density = 1.828122 g / cm^3
# Si number density = 18.322921 Si / 1000 Ang^3
#
#
#
# Elastic Constant Matrix: (Units=GPa)
#
#
# Indices 1 2 3 4 5 6 
#
# 1 162.7085 62.7786 52.7393 0.0000 0.8758 0.0000
# 2 62.7786 61.3963 32.8972 0.0000 8.6409 0.0000
# 3 52.7393 32.8972 75.8953 0.0000 9.5737 0.0000
# 4 0.0000 0.0000 0.0000 20.6000 0.0000 -0.3128
# 5 0.8758 8.6409 9.5737 0.0000 29.8632 0.0000
# 6 0.0000 0.0000 0.0000 -0.3128 0.0000 18.4793
#
#
#
# Elastic Compliance Matrix: (Units=1/GPa)
#
#
# Indices 1 2 3 4 5 6 
#
# 1 0.011236 -0.009878 -0.004007 0.000000 0.003813 0.000000
# 2 -0.009878 0.030221 -0.005387 0.000000 -0.006728 0.000000
# 3 -0.004007 -0.005387 0.018846 0.000000 -0.004366 0.000000
# 4 0.000000 0.000000 0.000000 0.048556 0.000000 0.000822
# 5 0.003813 -0.006728 -0.004366 0.000000 0.036720 0.000000
# 6 0.000000 0.000000 0.000000 0.000822 0.000000 0.054128
#
#
# Mechanical properties :
#
#
# Convention : Reuss Voigt Hill
#
# Bulk Modulus (GPa) = 45.95670 66.31447 56.13559
# Shear Modulus (GPa) = 20.36625 23.89418 22.13022
#
# Velocity S-wave (km/s) = 3.33756 3.61509 3.47910
# Velocity P-wave (km/s) = 6.32364 7.32775 6.84413
#
# Compressibility (1/GPa) = 0.02175961
#
# Stress axis : x y z
#
# Youngs Moduli (GPa) = 89.00328 33.08915 53.06207
#
# Poissons Ratio (x) = 0.32686 0.21261
# Poissons Ratio (y) = 0.87920 0.28582
# Poissons Ratio (z) = 0.35661 0.17824
#
# Static dielectric constant tensor:
#      x y z
#    x 3.284740 0.000000 -0.014720 
#    y 0.000000 3.453070 0.000000 
#    z -0.014720 0.000000 3.221910 
# 
# 
# High freq. dielectric constant tensor:
#      x y z
#    x 1.716310 0.000000 0.003720 
#    y 0.000000 1.704090 0.000000 
#    z 0.003720 0.000000 1.697780 
# 
# From -- ./inp_files/63611.got.cif
#   From: 2010.06.25/outbox.cif.g09.slc.cpg/sg12_32_cif.got.tgz:63611.got - 2010.06.28 00:19:55.
