data_PCOD8092444
_publ_section_title
;
Structure prediction by ZEFSAII (Michael W. Deem and Ramdas Pophale) SiO2 
 PCOD8092444
Probable space group: C 2/M
;
_chemical_formula_sum "Si O2"
_cell_formula_units_Z 64
_cell_length_a 23.398489
_cell_length_b 8.923268
_cell_length_c 17.415986
_cell_angle_alpha 90.000000
_cell_angle_beta 72.916711
_cell_angle_gamma 90.000000
_cell_volume 3475.862728
_symmetry_space_group_name_H-M "C 2/M"
_symmetry_group_IT_number 12
_symmetry_cell_setting 'monoclinic'
loop_
_space_group_symop_operation_xyz
x,y,z
-x,y,-z
-x,-y,-z
x,-y,z
1/2+x,1/2+y,z
1/2-x,1/2+y,-z
1/2-x,1/2-y,-z
1/2+x,1/2-y,z
loop_
_atom_site_type_symbol
_atom_site_label
_atom_site_fract_x
_atom_site_fract_y
_atom_site_fract_z
Si Si1 0.854338 0.172623 0.465218
Si Si2 0.430395 0.835262 0.010904
Si Si3 0.491540 0.672279 0.415385
Si Si4 0.950513 0.823147 0.852939
Si Si5 0.183625 0.326519 0.667747
Si Si6 0.078362 0.678128 0.818045
Si Si7 0.317248 0.325292 0.646767
Si Si8 0.408516 0.823212 0.720583
O O1 0.923512 0.198551 0.417703
O O2 0.814854 0.252184 0.416407
O O3 0.839293 0.236469 0.555434
O O4 0.836258 0.000000 0.471261
O O5 0.419237 0.719279 0.946298
O O6 0.405681 0.000000 0.997149
O O7 0.500000 0.848534 0.000000
O O8 0.401222 0.780085 0.102772
O O9 0.500000 0.717792 0.500000
O O10 0.511368 0.500000 0.394760
O O11 0.531640 0.779890 0.348467
O O12 0.909019 0.754818 0.803232
O O13 0.017282 0.758894 0.818434
O O14 0.953432 0.000000 0.843593
O O15 0.172582 0.500000 0.658077
O O16 0.130835 0.261744 0.742081
O O17 0.246685 0.297541 0.684319
O O18 0.068051 0.500000 0.815606
O O19 0.334320 0.500000 0.648653
O O20 0.349686 0.231626 0.699735
O O21 0.406185 0.000000 0.732203
#
# Coordination Sequence:
#
# PCOD8092444 Si02
#       8
#     8   8   8   8   8   8   8   8
#     4  10  20  34  54  76 103 138 174 216 265 310
#     4   8  15  30  52  77 110 141 165 204 261 315
#     4  10  19  35  55  75 104 139 171 209 263 314
#     4  11  21  33  53  81 110 140 174 211 257 313
#     4  10  21  35  55  78 103 136 177 220 258 308
#     4   9  18  34  54  81 112 140 169 210 264 313
#     4  10  21  39  55  71 100 141 181 219 265 309
#     4  12  24  36  53  77 105 138 178 221 264 311
#
# _framework density 18.412694999999999
#
# number of rings (size 3 to 8) (size 9 to 14) (size 15 to 20)
#    0.000    2.000    1.250    4.125    0.000    6.500 
#    0.000    0.000    0.000    0.750    0.000    0.000 
#    0.000    0.000    0.000    0.000    0.000    0.000 
#
# Total GULP energy -396823.662477 kJ/mol
# GULP energy per Si atom -12400.739452 kJ/mol
# Density = 1.837079 g / cm^3
# Si number density = 18.412695 Si / 1000 Ang^3
#
#
#
# Elastic Constant Matrix: (Units=GPa)
#
#
# Indices 1 2 3 4 5 6 
#
# 1 69.3130 36.9379 45.4222 0.0000 12.3246 0.0000
# 2 36.9379 88.2238 49.8004 0.0000 14.8624 0.0000
# 3 45.4222 49.8004 117.9561 0.0000 21.6254 0.0000
# 4 0.0000 0.0000 0.0000 26.9121 0.0000 7.0220
# 5 12.3246 14.8624 21.6254 0.0000 22.4056 0.0000
# 6 0.0000 0.0000 0.0000 7.0220 0.0000 23.6009
#
#
#
# Elastic Compliance Matrix: (Units=1/GPa)
#
#
# Indices 1 2 3 4 5 6 
#
# 1 0.021375 -0.005397 -0.005410 0.000000 -0.002955 0.000000
# 2 -0.005397 0.016650 -0.004217 0.000000 -0.004006 0.000000
# 3 -0.005410 -0.004217 0.013709 0.000000 -0.007458 0.000000
# 4 0.000000 0.000000 0.000000 0.040285 0.000000 -0.011986
# 5 -0.002955 -0.004006 -0.007458 0.000000 0.056113 0.000000
# 6 0.000000 0.000000 0.000000 -0.011986 0.000000 0.045937
#
#
# Mechanical properties :
#
#
# Convention : Reuss Voigt Hill
#
# Bulk Modulus (GPa) = 46.11628 59.97932 53.04780
# Shear Modulus (GPa) = 21.61271 24.13922 22.87596
#
# Velocity S-wave (km/s) = 3.42978 3.62471 3.52860
# Velocity P-wave (km/s) = 6.38630 7.08264 6.74346
#
# Compressibility (1/GPa) = 0.02168432
#
# Stress axis : x y z
#
# Youngs Moduli (GPa) = 46.78447 60.06172 72.94634
#
# Poissons Ratio (x) = 0.32417 0.39467
# Poissons Ratio (y) = 0.25251 0.30758
# Poissons Ratio (z) = 0.25312 0.25326
#
# Static dielectric constant tensor:
#      x y z
#    x 3.230740 0.000000 0.005020 
#    y 0.000000 3.256210 0.000000 
#    z 0.005020 0.000000 3.818040 
# 
# 
# High freq. dielectric constant tensor:
#      x y z
#    x 1.692750 0.000000 0.008930 
#    y 0.000000 1.704240 0.000000 
#    z 0.008930 0.000000 1.720380 
# 
# From -- ./inp_files/287489.got.cif
#   From: 2010.06.25/outbox.cif.g09.slc.cpg/sg12_144_cif.got.tgz:287489.got - 2010.06.28 00:19:55.
