data_PCOD8092222
_publ_section_title
;
Structure prediction by ZEFSAII (Michael W. Deem and Ramdas Pophale) SiO2 
 PCOD8092222
Probable space group: C 2/M
;
_chemical_formula_sum "Si O2"
_cell_formula_units_Z 56
_cell_length_a 11.646236
_cell_length_b 33.316753
_cell_length_c 9.656665
_cell_angle_alpha 90.000000
_cell_angle_beta 130.530602
_cell_angle_gamma 90.000000
_cell_volume 2847.886766
_symmetry_space_group_name_H-M "C 2/M"
_symmetry_group_IT_number 12
_symmetry_cell_setting 'monoclinic'
loop_
_space_group_symop_operation_xyz
x,y,z
-x,y,-z
-x,-y,-z
x,-y,z
1/2+x,1/2+y,z
1/2-x,1/2+y,-z
1/2-x,1/2-y,-z
1/2+x,1/2-y,z
loop_
_atom_site_type_symbol
_atom_site_label
_atom_site_fract_x
_atom_site_fract_y
_atom_site_fract_z
Si Si1 0.669930 0.377040 0.002720
Si Si2 0.215644 0.332832 0.358440
Si Si3 0.980370 0.266262 0.140385
Si Si4 0.482038 0.095089 0.135780
Si Si5 0.154596 0.113887 0.302667
Si Si6 0.170763 0.196031 0.834441
Si Si7 0.114509 0.454038 0.467493
O O1 0.517662 0.402053 0.849257
O O2 0.611974 0.334317 0.903359
O O3 0.809276 0.392987 0.024680
O O4 0.714683 0.373013 0.198587
O O5 0.315035 0.348607 0.567184
O O6 0.330864 0.323591 0.321224
O O7 0.125474 0.290851 0.312445
O O8 0.091062 0.366570 0.231864
O O9 0.938583 0.234489 0.229216
O O10 0.843128 0.296611 0.012285
O O11 0.000000 0.247153 0.000000
O O12 0.521587 0.057144 0.259467
O O13 0.500000 0.076585 0.000000
O O14 0.239513 0.073848 0.414750
O O15 0.167770 0.500000 0.507775
O O16 0.000000 0.444435 0.500000
#
# Coordination Sequence:
#
# PCOD8092222 Si02
#       7
#     8   8   8   8   8   8   8
#     4  11  21  39  60  89 118 157 203 247 302 357
#     4  10  19  38  60  88 113 157 210 251 295 357
#     4   9  18  33  59  83 117 157 200 253 311 349
#     4  11  19  37  66  90 118 160 206 241 288 362
#     4  10  24  38  63  90 122 155 201 250 305 355
#     4  10  19  34  60  84 117 154 200 255 303 352
#     4  10  21  40  64  93 126 156 194 244 296 358
#
# _framework density 19.663705
#
# number of rings (size 3 to 8) (size 9 to 14) (size 15 to 20)
#    0.000    1.857    4.286    0.429    2.000    0.857 
#    0.000    2.857    6.286    0.857    0.000    0.000 
#    0.000    0.000    0.000    0.000    0.000    0.000 
#
# Total GULP energy -346902.143777 kJ/mol
# GULP energy per Si atom -12389.362278 kJ/mol
# Density = 1.961895 g / cm^3
# Si number density = 19.663705 Si / 1000 Ang^3
#
#
#
# Elastic Constant Matrix: (Units=GPa)
#
#
# Indices 1 2 3 4 5 6 
#
# 1 94.5898 34.4308 54.4920 0.0000 -17.6545 0.0000
# 2 34.4308 67.9931 47.7722 0.0000 -12.0483 0.0000
# 3 54.4920 47.7722 120.0902 0.0000 -14.2005 0.0000
# 4 0.0000 0.0000 0.0000 15.0697 0.0000 -6.8949
# 5 -17.6545 -12.0483 -14.2005 0.0000 32.3458 0.0000
# 6 0.0000 0.0000 0.0000 -6.8949 0.0000 33.2356
#
#
#
# Elastic Compliance Matrix: (Units=1/GPa)
#
#
# Indices 1 2 3 4 5 6 
#
# 1 0.015751 -0.003442 -0.005182 0.000000 0.005040 0.000000
# 2 -0.003442 0.021737 -0.006698 0.000000 0.003278 0.000000
# 3 -0.005182 -0.006698 0.013409 0.000000 0.000564 0.000000
# 4 0.000000 0.000000 0.000000 0.073318 0.000000 0.015210
# 5 0.005040 0.003278 0.000564 0.000000 0.035135 0.000000
# 6 0.000000 0.000000 0.000000 0.015210 0.000000 0.033244
#
#
# Mechanical properties :
#
#
# Convention : Reuss Voigt Hill
#
# Bulk Modulus (GPa) = 49.37290 61.78479 55.57885
# Shear Modulus (GPa) = 21.74030 25.86209 23.80119
#
# Velocity S-wave (km/s) = 3.32867 3.63053 3.48287
# Velocity P-wave (km/s) = 6.31954 7.00452 6.67083
#
# Compressibility (1/GPa) = 0.02025403
#
# Stress axis : x y z
#
# Youngs Moduli (GPa) = 63.48921 46.00472 74.57490
#
# Poissons Ratio (x) = 0.15836 0.38643
# Poissons Ratio (y) = 0.21854 0.49947
# Poissons Ratio (z) = 0.32899 0.30812
#
# Static dielectric constant tensor:
#      x y z
#    x 3.819960 0.000000 -0.055840 
#    y 0.000000 3.359420 0.000000 
#    z -0.055840 0.000000 3.655460 
# 
# 
# High freq. dielectric constant tensor:
#      x y z
#    x 1.780250 0.000000 -0.000950 
#    y 0.000000 1.740220 0.000000 
#    z -0.000950 0.000000 1.765330 
# 
# From -- ./inp_files/54817.got.cif
#   From: 2010.06.25/outbox.cif.g09.slc.cpg/sg12_28_cif.got.tgz:54817.got - 2010.06.28 00:19:55.
