data_PCOD8092263
_publ_section_title
;
Structure prediction by ZEFSAII (Michael W. Deem and Ramdas Pophale) SiO2 
 PCOD8092263
Probable space group: C 2/M
;
_chemical_formula_sum "Si O2"
_cell_formula_units_Z 44
_cell_length_a 11.408714
_cell_length_b 17.016173
_cell_length_c 11.839525
_cell_angle_alpha 90.000000
_cell_angle_beta 67.274970
_cell_angle_gamma 90.000000
_cell_volume 2120.009263
_symmetry_space_group_name_H-M "C 2/M"
_symmetry_group_IT_number 12
_symmetry_cell_setting 'monoclinic'
loop_
_space_group_symop_operation_xyz
x,y,z
-x,y,-z
-x,-y,-z
x,-y,z
1/2+x,1/2+y,z
1/2-x,1/2+y,-z
1/2-x,1/2-y,-z
1/2+x,1/2-y,z
loop_
_atom_site_type_symbol
_atom_site_label
_atom_site_fract_x
_atom_site_fract_y
_atom_site_fract_z
Si Si1 0.651091 0.412726 0.156488
Si Si2 0.212712 0.332808 0.072993
Si Si3 0.540259 0.189112 0.699444
Si Si4 0.567516 0.307340 0.863321
Si Si5 0.221882 0.908447 0.386089
Si Si6 0.000000 0.206512 0.500000
O O1 0.599519 0.500000 0.162893
O O2 0.532126 0.359043 0.169347
O O3 0.702545 0.396253 0.261065
O O4 0.771121 0.398563 0.029263
O O5 0.310688 0.354582 0.137714
O O6 0.075367 0.339452 0.179061
O O7 0.250000 0.250000 0.000000
O O8 0.620842 0.243992 0.754624
O O9 0.635735 0.118475 0.629461
O O10 0.485215 0.235999 0.612664
O O11 0.500000 0.269371 0.000000
O O12 0.119502 0.850693 0.482517
O O13 0.202665 0.000000 0.429473
#
# Coordination Sequence:
#
# PCOD8092263 Si02
#       6
#     8   8   8   8   8   4
#     4  10  21  38  60  93 130 168 209 258 321 388
#     4  11  20  35  58  93 127 167 204 257 322 380
#     4  12  23  39  67  95 126 165 222 263 321 382
#     4  10  19  34  60  89 124 163 211 260 301 371
#     4  11  25  43  65  95 132 168 214 272 330 381
#     4  12  23  46  69  92 120 172 230 268 311 388
#
# _framework density 20.754625999999998
#
# number of rings (size 3 to 8) (size 9 to 14) (size 15 to 20)
#    0.000    1.091    5.455    3.000    0.000    4.000 
#    0.000    2.273    0.000    0.000    0.000    0.000 
#    0.000    0.000    0.000    0.000    0.000    0.000 
#
# Total GULP energy -272603.685846 kJ/mol
# GULP energy per Si atom -12391.076629 kJ/mol
# Density = 2.070739 g / cm^3
# Si number density = 20.754626 Si / 1000 Ang^3
#
#
#
# Elastic Constant Matrix: (Units=GPa)
#
#
# Indices 1 2 3 4 5 6 
#
# 1 85.8239 28.6925 13.0227 0.0000 -20.2797 0.0000
# 2 28.6925 74.5426 14.7853 0.0000 1.9162 0.0000
# 3 13.0227 14.7853 55.0477 0.0000 -3.1760 0.0000
# 4 0.0000 0.0000 0.0000 27.3717 0.0000 1.0141
# 5 -20.2797 1.9162 -3.1760 0.0000 36.0741 0.0000
# 6 0.0000 0.0000 0.0000 1.0141 0.0000 26.2963
#
#
#
# Elastic Compliance Matrix: (Units=1/GPa)
#
#
# Indices 1 2 3 4 5 6 
#
# 1 0.016133 -0.006123 -0.001638 0.000000 0.009250 0.000000
# 2 -0.006123 0.016537 -0.003259 0.000000 -0.004607 0.000000
# 3 -0.001638 -0.003259 0.019485 0.000000 0.000968 0.000000
# 4 0.000000 0.000000 0.000000 0.036586 0.000000 -0.001411
# 5 0.009250 -0.004607 0.000968 0.000000 0.033251 0.000000
# 6 0.000000 0.000000 0.000000 -0.001411 0.000000 0.038083
#
#
# Mechanical properties :
#
#
# Convention : Reuss Voigt Hill
#
# Bulk Modulus (GPa) = 33.20660 36.49057 34.84858
# Shear Modulus (GPa) = 26.02095 28.54267 27.28181
#
# Velocity S-wave (km/s) = 3.54466 3.71245 3.62953
# Velocity P-wave (km/s) = 5.72601 5.99970 5.86445
#
# Compressibility (1/GPa) = 0.03011450
#
# Stress axis : x y z
#
# Youngs Moduli (GPa) = 61.98421 60.47154 51.32195
#
# Poissons Ratio (x) = 0.37025 0.08409
# Poissons Ratio (y) = 0.37951 0.16726
# Poissons Ratio (z) = 0.10156 0.19708
#
# Static dielectric constant tensor:
#      x y z
#    x 4.041780 0.000000 0.038400 
#    y 0.000000 3.756540 0.000000 
#    z 0.038400 0.000000 3.883010 
# 
# 
# High freq. dielectric constant tensor:
#      x y z
#    x 1.816270 0.000000 0.004380 
#    y 0.000000 1.787760 0.000000 
#    z 0.004380 0.000000 1.813990 
# 
# From -- ./inp_files/130958.got.cif
#   From: 2010.06.25/outbox.cif.g09.slc.cpg/sg12_66_cif.got.tgz:130958.got - 2010.06.28 00:19:55.
