data_PCOD8092683
_publ_section_title
;
Structure prediction by ZEFSAII (Michael W. Deem and Ramdas Pophale) SiO2 
 PCOD8092683
Probable space group: C 2/M
;
_chemical_formula_sum "Si O2"
_cell_formula_units_Z 56
_cell_length_a 5.236527
_cell_length_b 25.265960
_cell_length_c 21.256726
_cell_angle_alpha 90.000000
_cell_angle_beta 82.882234
_cell_angle_gamma 90.000000
_cell_volume 2790.716375
_symmetry_space_group_name_H-M "C 2/M"
_symmetry_group_IT_number 12
_symmetry_cell_setting 'monoclinic'
loop_
_space_group_symop_operation_xyz
x,y,z
-x,y,-z
-x,-y,-z
x,-y,z
1/2+x,1/2+y,z
1/2-x,1/2+y,-z
1/2-x,1/2-y,-z
1/2+x,1/2-y,z
loop_
_atom_site_type_symbol
_atom_site_label
_atom_site_fract_x
_atom_site_fract_y
_atom_site_fract_z
Si Si1 0.817848 0.106282 0.257476
Si Si2 0.567315 0.887571 0.928549
Si Si3 0.602647 0.775688 0.870838
Si Si4 0.714449 0.937652 0.678794
Si Si5 0.698773 0.730147 0.730554
Si Si6 0.267797 0.937106 0.465195
Si Si7 0.586677 0.438169 0.879799
O O1 0.548639 0.077084 0.278243
O O2 0.770596 0.168465 0.259776
O O3 0.917536 0.091586 0.186100
O O4 0.035941 0.090737 0.300581
O O5 0.594196 0.838478 0.880266
O O6 0.342052 0.925721 0.911259
O O7 0.832853 0.919914 0.924799
O O8 0.500000 0.866515 0.000000
O O9 0.337209 0.749487 0.903463
O O10 0.634494 0.762918 0.796285
O O11 0.691352 0.918834 0.607544
O O12 0.760092 0.000000 0.683328
O O13 0.458872 0.745041 0.692619
O O14 0.500000 0.913710 0.500000
O O15 0.000000 0.914098 0.500000
O O16 0.266345 0.000000 0.469816
O O17 0.572961 0.500000 0.867372
#
# Coordination Sequence:
#
# PCOD8092683 Si02
#       7
#     8   8   8   8   8   8   8
#     4  12  23  38  59  86 118 153 195 236 290 351
#     4  12  26  43  63  86 110 143 192 242 293 359
#     4  10  20  37  59  83 108 136 173 224 293 351
#     4  11  22  36  56  88 128 163 198 236 273 329
#     4  10  19  35  57  79 108 142 178 232 295 347
#     4   9  17  31  52  79 117 164 202 233 273 317
#     4  12  25  42  62  83 114 155 193 233 286 346
#
# _framework density 20.066531999999999
#
# number of rings (size 3 to 8) (size 9 to 14) (size 15 to 20)
#    0.000    1.143    0.000    9.000    0.000    4.571 
#    0.000    0.000    0.000    0.000    0.000    0.000 
#    0.000   40.000    0.000    0.000    0.000    0.000 
#
# Total GULP energy -347228.801243 kJ/mol
# GULP energy per Si atom -12401.028616 kJ/mol
# Density = 2.002086 g / cm^3
# Si number density = 20.066532 Si / 1000 Ang^3
#
#
#
# Elastic Constant Matrix: (Units=GPa)
#
#
# Indices 1 2 3 4 5 6 
#
# 1 151.5772 26.1367 10.0296 0.0000 -15.0326 0.0000
# 2 26.1367 51.3629 3.3610 0.0000 1.8433 0.0000
# 3 10.0296 3.3610 56.4530 0.0000 0.8706 0.0000
# 4 0.0000 0.0000 0.0000 17.2695 0.0000 -5.7939
# 5 -15.0326 1.8433 0.8706 0.0000 25.1491 0.0000
# 6 0.0000 0.0000 0.0000 -5.7939 0.0000 39.6605
#
#
#
# Elastic Compliance Matrix: (Units=1/GPa)
#
#
# Indices 1 2 3 4 5 6 
#
# 1 0.007891 -0.004116 -0.001235 0.000000 0.005061 0.000000
# 2 -0.004116 0.021741 -0.000501 0.000000 -0.004037 0.000000
# 3 -0.001235 -0.000501 0.017983 0.000000 -0.001324 0.000000
# 4 0.000000 0.000000 0.000000 0.060890 0.000000 0.008895
# 5 0.005061 -0.004037 -0.001324 0.000000 0.043130 0.000000
# 6 0.000000 0.000000 0.000000 0.008895 0.000000 0.026514
#
#
# Mechanical properties :
#
#
# Convention : Reuss Voigt Hill
#
# Bulk Modulus (GPa) = 27.84592 37.60531 32.72562
# Shear Modulus (GPa) = 24.77415 31.07352 27.92384
#
# Velocity S-wave (km/s) = 3.51750 3.93940 3.73441
# Velocity P-wave (km/s) = 5.51398 6.28274 5.91087
#
# Compressibility (1/GPa) = 0.03591190
#
# Stress axis : x y z
#
# Youngs Moduli (GPa) = 126.73179 45.99506 55.60663
#
# Poissons Ratio (x) = 0.18932 0.06867
# Poissons Ratio (y) = 0.52164 0.02785
# Poissons Ratio (z) = 0.15650 0.02304
#
# Static dielectric constant tensor:
#      x y z
#    x 5.172250 0.000000 -0.101240 
#    y 0.000000 3.482210 0.000000 
#    z -0.101240 0.000000 3.466370 
# 
# 
# High freq. dielectric constant tensor:
#      x y z
#    x 1.820480 0.000000 -0.006060 
#    y 0.000000 1.770530 0.000000 
#    z -0.006060 0.000000 1.750510 
# 
# From -- ./inp_files/298024.got.cif
#   From: 2010.06.25/outbox.cif.g09.slc.cpg/sg12_150_cif.got.tgz:298024.got - 2010.06.28 00:19:55.
