data_PCOD8092364
_publ_section_title
;
Structure prediction by ZEFSAII (Michael W. Deem and Ramdas Pophale) SiO2 
 PCOD8092364
Probable space group: C 2/M
;
_chemical_formula_sum "Si O2"
_cell_formula_units_Z 56
_cell_length_a 12.168054
_cell_length_b 19.196218
_cell_length_c 18.074476
_cell_angle_alpha 90.000000
_cell_angle_beta 49.533323
_cell_angle_gamma 90.000000
_cell_volume 3211.911960
_symmetry_space_group_name_H-M "C 2/M"
_symmetry_group_IT_number 12
_symmetry_cell_setting 'monoclinic'
loop_
_space_group_symop_operation_xyz
x,y,z
-x,y,-z
-x,-y,-z
x,-y,z
1/2+x,1/2+y,z
1/2-x,1/2+y,-z
1/2-x,1/2-y,-z
1/2+x,1/2-y,z
loop_
_atom_site_type_symbol
_atom_site_label
_atom_site_fract_x
_atom_site_fract_y
_atom_site_fract_z
Si Si1 0.054033 0.210585 0.081797
Si Si2 0.134662 0.174382 0.208835
Si Si3 0.234076 0.815946 0.863287
Si Si4 0.993323 0.917679 0.382241
Si Si5 0.945639 0.364727 0.104617
Si Si6 0.475564 0.921558 0.781291
Si Si7 0.724765 0.581426 0.401510
O O1 0.100247 0.173829 0.137010
O O2 0.913848 0.167828 0.115220
O O3 0.003439 0.290560 0.109549
O O4 0.189861 0.207272 0.966178
O O5 0.168814 0.254590 0.215975
O O6 0.002793 0.135375 0.308488
O O7 0.273894 0.129929 0.171153
O O8 0.329045 0.884626 0.821161
O O9 0.116236 0.892290 0.385649
O O10 0.838527 0.903260 0.489170
O O11 0.006543 0.000000 0.354719
O O12 0.999473 0.420342 0.141055
O O13 0.000000 0.383645 0.000000
O O14 0.615249 0.885922 0.679771
O O15 0.454613 0.000000 0.764040
O O16 0.739701 0.500000 0.382286
#
# Coordination Sequence:
#
# PCOD8092364 Si02
#       7
#     8   8   8   8   8   8   8
#     4  10  19  35  53  73 102 146 181 204 247 324
#     4  11  18  29  55  80 102 132 175 222 254 300
#     4  10  20  35  54  73 102 148 185 201 251 319
#     4   9  17  31  51  78 106 135 169 211 267 318
#     4  11  19  31  52  79 105 134 173 213 263 313
#     4  11  21  34  53  77 106 137 176 221 260 306
#     4   8  16  32  52  73 105 140 167 202 266 335
#
# _framework density 17.435098
#
# number of rings (size 3 to 8) (size 9 to 14) (size 15 to 20)
#    0.000    2.000    5.714    2.143    0.000    0.286 
#    0.000    5.000    0.000    0.857    0.000    3.000 
#    0.000    0.000    0.000    0.000    0.000    0.000 
#
# Total GULP energy -346966.249581 kJ/mol
# GULP energy per Si atom -12391.651771 kJ/mol
# Density = 1.739541 g / cm^3
# Si number density = 17.435098 Si / 1000 Ang^3
#
#
#
# Elastic Constant Matrix: (Units=GPa)
#
#
# Indices 1 2 3 4 5 6 
#
# 1 47.3466 23.2687 22.1182 -0.0002 -5.0841 0.0003
# 2 23.2687 55.8676 43.0239 -0.0003 -4.3726 0.0003
# 3 22.1182 43.0239 103.0000 -0.0001 -5.5586 0.0005
# 4 -0.0002 -0.0003 -0.0001 31.0987 0.0006 -0.0966
# 5 -5.0841 -4.3726 -5.5586 0.0006 22.6627 -0.0006
# 6 0.0003 0.0003 0.0005 -0.0966 -0.0006 19.5343
#
#
#
# Elastic Compliance Matrix: (Units=1/GPa)
#
#
# Indices 1 2 3 4 5 6 
#
# 1 0.027055 -0.009810 -0.001507 0.000000 0.003807 0.000000
# 2 -0.009810 0.030077 -0.010400 0.000000 0.001052 0.000000
# 3 -0.001507 -0.010400 0.014441 0.000000 0.001197 0.000000
# 4 0.000000 0.000000 0.000000 0.032156 -0.000001 0.000159
# 5 0.003807 0.001052 0.001197 -0.000001 0.045476 0.000001
# 6 0.000000 0.000000 0.000000 0.000159 0.000001 0.051193
#
#
# Mechanical properties :
#
#
# Convention : Reuss Voigt Hill
#
# Bulk Modulus (GPa) = 35.53743 42.55951 39.04847
# Shear Modulus (GPa) = 19.74646 22.51269 21.12958
#
# Velocity S-wave (km/s) = 3.36902 3.59726 3.48501
# Velocity P-wave (km/s) = 5.96328 6.45887 6.21601
#
# Compressibility (1/GPa) = 0.02813935
#
# Stress axis : x y z
#
# Youngs Moduli (GPa) = 36.96233 33.24842 69.24732
#
# Poissons Ratio (x) = 0.32617 0.10432
# Poissons Ratio (y) = 0.36260 0.72017
# Poissons Ratio (z) = 0.05568 0.34578
#
# Static dielectric constant tensor:
#      x y z
#    x 3.240020 0.000000 -0.198180 
#    y 0.000000 2.915930 0.000000 
#    z -0.198180 0.000000 3.430720 
# 
# 
# High freq. dielectric constant tensor:
#      x y z
#    x 1.663580 0.000000 -0.013250 
#    y 0.000000 1.641280 0.000000 
#    z -0.013250 0.000000 1.672810 
# 
# From -- ./inp_files/264228.got.cif
#   From: 2010.06.25/outbox.cif.g09.slc.cpg/sg12_133_cif.got.tgz:264228.got - 2010.06.28 00:19:55.
