data_PCOD8092821
_publ_section_title
;
Structure prediction by ZEFSAII (Michael W. Deem and Ramdas Pophale) SiO2 
 PCOD8092821
Probable space group: C 2/M
;
_chemical_formula_sum "Si O2"
_cell_formula_units_Z 64
_cell_length_a 14.835805
_cell_length_b 8.558261
_cell_length_c 27.402015
_cell_angle_alpha 90.000000
_cell_angle_beta 105.852601
_cell_angle_gamma 90.000000
_cell_volume 3346.875799
_symmetry_space_group_name_H-M "C 2/M"
_symmetry_group_IT_number 12
_symmetry_cell_setting 'monoclinic'
loop_
_space_group_symop_operation_xyz
x,y,z
-x,y,-z
-x,-y,-z
x,-y,z
1/2+x,1/2+y,z
1/2-x,1/2+y,-z
1/2-x,1/2-y,-z
1/2+x,1/2-y,z
loop_
_atom_site_type_symbol
_atom_site_label
_atom_site_fract_x
_atom_site_fract_y
_atom_site_fract_z
Si Si1 0.296189 0.316518 0.758489
Si Si2 0.021707 0.814319 0.056441
Si Si3 0.462669 0.813057 0.426398
Si Si4 0.284990 0.684161 0.869040
Si Si5 0.098883 0.684547 0.688213
Si Si6 0.647184 0.313410 0.499736
Si Si7 0.012127 0.682664 0.236617
Si Si8 0.405224 0.316895 0.129000
O O1 0.317392 0.500000 0.758926
O O2 0.285468 0.263406 0.812863
O O3 0.205344 0.266855 0.714618
O O4 0.379007 0.222283 0.745400
O O5 0.944457 0.753175 0.083296
O O6 0.122115 0.756566 0.090363
O O7 0.020904 0.000000 0.053391
O O8 0.000000 0.741785 0.000000
O O9 0.433245 0.750682 0.368796
O O10 0.384088 0.746144 0.451504
O O11 0.567286 0.748285 0.450988
O O12 0.463929 0.000000 0.431163
O O13 0.270309 0.500000 0.870872
O O14 0.202030 0.769589 0.884629
O O15 0.088745 0.500000 0.686472
O O16 0.034458 0.755715 0.721641
O O17 0.649880 0.500000 0.499265
O O18 0.750000 0.250000 0.500000
O O19 0.994156 0.500000 0.233152
O O20 0.965280 0.749740 0.181728
O O21 0.418273 0.500000 0.133458
#
# Coordination Sequence:
#
# PCOD8092821 Si02
#       8
#     8   8   8   8   8   8   8   8
#     4  10  19  36  56  80 110 148 188 225 274 335
#     4   9  19  36  56  78 108 146 183 225 282 340
#     4  10  20  38  61  88 119 153 191 240 291 339
#     4  10  19  35  58  79 107 145 182 223 279 335
#     4   9  20  37  57  81 118 153 184 228 284 339
#     4  11  22  39  62  88 118 156 198 239 284 339
#     4  11  21  36  56  82 112 148 187 228 277 333
#     4  11  21  35  56  82 107 140 185 230 275 334
#
# _framework density 19.122312000000001
#
# number of rings (size 3 to 8) (size 9 to 14) (size 15 to 20)
#    0.000    1.875    2.500    3.000    0.000    2.000 
#    0.000    6.250    0.000    2.625    0.000    0.000 
#    0.000    0.000    0.000    0.000    0.000    0.000 
#
# Total GULP energy -396791.614392 kJ/mol
# GULP energy per Si atom -12399.737950 kJ/mol
# Density = 1.907879 g / cm^3
# Si number density = 19.122312 Si / 1000 Ang^3
#
#
#
# Elastic Constant Matrix: (Units=GPa)
#
#
# Indices 1 2 3 4 5 6 
#
# 1 96.4489 26.0990 2.2722 0.0000 8.7807 0.0000
# 2 26.0990 61.3028 18.2078 0.0000 -1.1867 0.0000
# 3 2.2722 18.2078 81.5483 0.0000 8.3477 0.0000
# 4 0.0000 0.0000 0.0000 16.4724 0.0000 2.2897
# 5 8.7807 -1.1867 8.3477 0.0000 26.0967 0.0000
# 6 0.0000 0.0000 0.0000 2.2897 0.0000 34.9293
#
#
#
# Elastic Compliance Matrix: (Units=1/GPa)
#
#
# Indices 1 2 3 4 5 6 
#
# 1 0.012342 -0.005778 0.001446 0.000000 -0.004878 0.000000
# 2 -0.005778 0.020290 -0.004820 0.000000 0.004409 0.000000
# 3 0.001446 -0.004820 0.013824 0.000000 -0.005127 0.000000
# 4 0.000000 0.000000 0.000000 0.061266 0.000000 -0.004016
# 5 -0.004878 0.004409 -0.005127 0.000000 0.041801 0.000000
# 6 0.000000 0.000000 0.000000 -0.004016 0.000000 0.028893
#
#
# Mechanical properties :
#
#
# Convention : Reuss Voigt Hill
#
# Bulk Modulus (GPa) = 35.52558 36.93978 36.23268
# Shear Modulus (GPa) = 24.25970 28.34775 26.30372
#
# Velocity S-wave (km/s) = 3.56569 3.85443 3.71287
# Velocity P-wave (km/s) = 5.96411 6.25847 6.11306
#
# Compressibility (1/GPa) = 0.02814873
#
# Stress axis : x y z
#
# Youngs Moduli (GPa) = 81.02566 49.28641 72.34018
#
# Poissons Ratio (x) = 0.28478 -0.10457
# Poissons Ratio (y) = 0.46818 0.34872
# Poissons Ratio (z) = -0.11713 0.23758
#
# Static dielectric constant tensor:
#      x y z
#    x 3.987270 0.000000 -0.039700 
#    y 0.000000 3.299830 0.000000 
#    z -0.039700 0.000000 3.778230 
# 
# 
# High freq. dielectric constant tensor:
#      x y z
#    x 1.758090 0.000000 0.000390 
#    y 0.000000 1.724120 0.000000 
#    z 0.000390 0.000000 1.747930 
# 
# From -- ./inp_files/375076.got.cif
#   From: 2010.06.25/outbox.cif.g09.slc.cpg/sg12_188_cif.got.tgz:375076.got - 2010.06.28 00:19:55.
