data_PCOD8092819
_publ_section_title
;
Structure prediction by ZEFSAII (Michael W. Deem and Ramdas Pophale) SiO2 
 PCOD8092819
Probable space group: C 2/M
;
_chemical_formula_sum "Si O2"
_cell_formula_units_Z 64
_cell_length_a 18.644604
_cell_length_b 8.934931
_cell_length_c 29.410415
_cell_angle_alpha 90.000000
_cell_angle_beta 136.901128
_cell_angle_gamma 90.000000
_cell_volume 3347.581305
_symmetry_space_group_name_H-M "C 2/M"
_symmetry_group_IT_number 12
_symmetry_cell_setting 'monoclinic'
loop_
_space_group_symop_operation_xyz
x,y,z
-x,y,-z
-x,-y,-z
x,-y,z
1/2+x,1/2+y,z
1/2-x,1/2+y,-z
1/2-x,1/2-y,-z
1/2+x,1/2-y,z
loop_
_atom_site_type_symbol
_atom_site_label
_atom_site_fract_x
_atom_site_fract_y
_atom_site_fract_z
Si Si1 0.587317 0.671895 0.773842
Si Si2 0.152975 0.827771 0.979731
Si Si3 0.295530 0.672477 0.893433
Si Si4 0.876451 0.672663 0.686269
Si Si5 0.650505 0.173782 0.431780
Si Si6 0.421161 0.677628 0.863917
Si Si7 0.936516 0.827259 0.342671
Si Si8 0.263763 0.323004 0.713281
O O1 0.564941 0.500000 0.776344
O O2 0.692878 0.725441 0.846373
O O3 0.494230 0.772762 0.750384
O O4 0.597757 0.694973 0.725041
O O5 0.040019 0.760848 0.911396
O O6 0.162321 0.000000 0.970498
O O7 0.250000 0.750000 0.000000
O O8 0.151753 0.807099 0.033387
O O9 0.263870 0.500000 0.869444
O O10 0.375231 0.730253 0.891371
O O11 0.867282 0.500000 0.696159
O O12 0.844156 0.699979 0.619507
O O13 0.798960 0.773321 0.679846
O O14 0.750000 0.250000 0.500000
O O15 0.547160 0.250086 0.404486
O O16 0.648227 0.000000 0.443323
O O17 0.426470 0.500000 0.865689
O O18 0.346375 0.738330 0.789100
O O19 0.849796 0.748080 0.332894
O O20 0.945387 0.000000 0.360354
O O21 0.253725 0.500000 0.711815
#
# Coordination Sequence:
#
# PCOD8092819 Si02
#       8
#     8   8   8   8   8   8   8   8
#     4  10  20  34  55  83 112 146 188 236 284 337
#     4  10  22  38  55  78 108 146 189 240 294 350
#     4  10  19  35  58  79 104 145 193 236 286 347
#     4  10  22  38  57  84 120 154 188 232 282 335
#     4  10  21  39  64  90 119 156 193 233 278 333
#     4   9  19  36  57  79 107 145 191 235 284 344
#     4  10  20  36  58  86 119 153 190 234 281 337
#     4  11  21  35  58  87 118 152 190 240 292 341
#
# _framework density 19.118281
#
# number of rings (size 3 to 8) (size 9 to 14) (size 15 to 20)
#    0.000    2.000    1.250    2.250    1.750    4.500 
#    0.000    1.875    0.000    5.250    0.000    0.000 
#    0.000    0.000    0.000    0.000    0.000    0.000 
#
# Total GULP energy -396883.703340 kJ/mol
# GULP energy per Si atom -12402.615729 kJ/mol
# Density = 1.907477 g / cm^3
# Si number density = 19.118281 Si / 1000 Ang^3
#
#
#
# Elastic Constant Matrix: (Units=GPa)
#
#
# Indices 1 2 3 4 5 6 
#
# 1 128.2989 48.4280 50.3524 0.0000 23.4523 0.0000
# 2 48.4280 82.6257 45.5221 0.0000 11.5753 0.0001
# 3 50.3524 45.5221 107.9953 0.0000 31.5807 0.0000
# 4 0.0000 0.0000 0.0000 29.9903 0.0000 4.5211
# 5 23.4523 11.5753 31.5807 0.0000 27.2925 0.0000
# 6 0.0000 0.0001 0.0000 4.5211 0.0000 35.0962
#
#
#
# Elastic Compliance Matrix: (Units=1/GPa)
#
#
# Indices 1 2 3 4 5 6 
#
# 1 0.011341 -0.005027 -0.001425 0.000000 -0.005965 0.000000
# 2 -0.005027 0.018033 -0.006475 0.000000 0.004164 0.000000
# 3 -0.001425 -0.006475 0.017370 0.000000 -0.016128 0.000000
# 4 0.000000 0.000000 0.000000 0.034005 0.000000 -0.004380
# 5 -0.005965 0.004164 -0.016128 0.000000 0.058662 0.000000
# 6 0.000000 0.000000 0.000000 -0.004380 0.000000 0.029057
#
#
# Mechanical properties :
#
#
# Convention : Reuss Voigt Hill
#
# Bulk Modulus (GPa) = 47.86768 67.50277 57.68522
# Shear Modulus (GPa) = 24.84043 30.11695 27.47869
#
# Velocity S-wave (km/s) = 3.60849 3.97331 3.79529
# Velocity P-wave (km/s) = 6.51565 7.51227 7.03164
#
# Compressibility (1/GPa) = 0.02089092
#
# Stress axis : x y z
#
# Youngs Moduli (GPa) = 88.17446 55.45339 57.57158
#
# Poissons Ratio (x) = 0.27875 0.08202
# Poissons Ratio (y) = 0.44322 0.37279
# Poissons Ratio (z) = 0.12561 0.35908
#
# Static dielectric constant tensor:
#      x y z
#    x 3.512300 0.000000 0.080670 
#    y 0.000000 3.442980 0.000000 
#    z 0.080670 0.000000 3.449830 
# 
# 
# High freq. dielectric constant tensor:
#      x y z
#    x 1.748860 0.000000 0.010940 
#    y 0.000000 1.736840 0.000000 
#    z 0.010940 0.000000 1.737860 
# 
# From -- ./inp_files/378265.got.cif
#   From: 2010.06.25/outbox.cif.g09.slc.cpg/sg12_190_cif.got.tgz:378265.got - 2010.06.28 00:19:55.
