data_PCOD8092083
_publ_section_title
;
Structure prediction by ZEFSAII (Michael W. Deem and Ramdas Pophale) SiO2 
 PCOD8092083
Probable space group: C 2/M
;
_chemical_formula_sum "Si O2"
_cell_formula_units_Z 56
_cell_length_a 22.121372
_cell_length_b 8.925052
_cell_length_c 14.561986
_cell_angle_alpha 90.000000
_cell_angle_beta 109.680653
_cell_angle_gamma 90.000000
_cell_volume 2707.089660
_symmetry_space_group_name_H-M "C 2/M"
_symmetry_group_IT_number 12
_symmetry_cell_setting 'monoclinic'
loop_
_space_group_symop_operation_xyz
x,y,z
-x,y,-z
-x,-y,-z
x,-y,z
1/2+x,1/2+y,z
1/2-x,1/2+y,-z
1/2-x,1/2-y,-z
1/2+x,1/2-y,z
loop_
_atom_site_type_symbol
_atom_site_label
_atom_site_fract_x
_atom_site_fract_y
_atom_site_fract_z
Si Si1 0.498196 0.326794 0.764881
Si Si2 0.186011 0.177303 0.051263
Si Si3 0.560436 0.325649 0.080856
Si Si4 0.799358 0.177619 0.452149
Si Si5 0.785378 0.328924 0.256104
Si Si6 0.052561 0.178411 0.452837
Si Si7 0.628910 0.171483 0.857451
O O1 0.514962 0.500000 0.759366
O O2 0.442115 0.301581 0.810672
O O3 0.472688 0.257586 0.657002
O O4 0.561706 0.252239 0.838118
O O5 0.124176 0.243968 0.072189
O O6 0.241563 0.224140 0.149239
O O7 0.186578 0.000000 0.034585
O O8 0.185473 0.258304 0.951347
O O9 0.560947 0.500000 0.056544
O O10 0.500000 0.248374 0.000000
O O11 0.750000 0.250000 0.500000
O O12 0.776376 0.222031 0.338532
O O13 0.873638 0.236173 0.497715
O O14 0.795924 0.000000 0.463306
O O15 0.770487 0.500000 0.279102
O O16 0.855142 0.314010 0.243630
O O17 0.000000 0.238092 0.500000
O O18 0.054413 0.000000 0.456139
O O19 0.622957 0.000000 0.883145
#
# Coordination Sequence:
#
# PCOD8092083 Si02
#       7
#     8   8   8   8   8   8   8
#     4  10  19  34  59  83 108 148 197 243 286 344
#     4  10  20  36  59  82 110 153 202 244 282 343
#     4   9  16  29  52  81 104 135 190 241 278 326
#     4  11  24  42  65  92 124 159 200 254 308 360
#     4  10  23  40  60  84 115 156 200 242 290 351
#     4   9  19  36  61  91 115 147 204 259 293 338
#     4  11  22  36  54  86 125 154 185 237 303 361
#
# _framework density 20.686423000000001
#
# number of rings (size 3 to 8) (size 9 to 14) (size 15 to 20)
#    0.000    2.000    1.429    2.143    2.000    2.857 
#    0.000    2.857    0.000    3.857    0.000    0.000 
#    0.000    0.000    0.000    0.000    0.000    0.000 
#
# Total GULP energy -346980.719594 kJ/mol
# GULP energy per Si atom -12392.168557 kJ/mol
# Density = 2.063934 g / cm^3
# Si number density = 20.686423 Si / 1000 Ang^3
#
#
#
# Elastic Constant Matrix: (Units=GPa)
#
#
# Indices 1 2 3 4 5 6 
#
# 1 91.8257 24.8181 38.8531 0.0000 -5.4532 0.0000
# 2 24.8181 55.8445 39.2001 0.0000 -1.5684 0.0000
# 3 38.8531 39.2001 135.3606 0.0000 -9.5114 0.0000
# 4 0.0000 0.0000 0.0000 29.0438 0.0000 -0.7921
# 5 -5.4532 -1.5684 -9.5114 0.0000 29.5081 0.0000
# 6 0.0000 0.0000 0.0000 -0.7921 0.0000 21.1349
#
#
#
# Elastic Compliance Matrix: (Units=1/GPa)
#
#
# Indices 1 2 3 4 5 6 
#
# 1 0.013122 -0.004039 -0.002498 0.000000 0.001405 0.000000
# 2 -0.004039 0.023743 -0.005812 0.000000 -0.001358 0.000000
# 3 -0.002498 -0.005812 0.009959 0.000000 0.002440 0.000000
# 4 0.000000 0.000000 0.000000 0.034466 0.000000 0.001292
# 5 0.001405 -0.001358 0.002440 0.000000 0.034863 0.000000
# 6 0.000000 0.000000 0.000000 0.001292 0.000000 0.047364
#
#
# Mechanical properties :
#
#
# Convention : Reuss Voigt Hill
#
# Bulk Modulus (GPa) = 45.19383 54.30817 49.75100
# Shear Modulus (GPa) = 25.56350 27.94798 26.75574
#
# Velocity S-wave (km/s) = 3.51915 3.67962 3.60028
# Velocity P-wave (km/s) = 6.19735 6.66055 6.43312
#
# Compressibility (1/GPa) = 0.02212692
#
# Stress axis : x y z
#
# Youngs Moduli (GPa) = 76.20665 42.11679 100.40777
#
# Poissons Ratio (x) = 0.17009 0.25084
# Poissons Ratio (y) = 0.30777 0.58360
# Poissons Ratio (z) = 0.19038 0.24479
#
# Static dielectric constant tensor:
#      x y z
#    x 4.087920 0.000000 -0.077340 
#    y 0.000000 3.285980 0.000000 
#    z -0.077340 0.000000 3.879660 
# 
# 
# High freq. dielectric constant tensor:
#      x y z
#    x 1.825880 0.000000 -0.009720 
#    y 0.000000 1.764430 0.000000 
#    z -0.009720 0.000000 1.818460 
# 
# From -- ./inp_files/237854.got.cif
#   From: 2010.06.25/outbox.cif.g09.slc.cpg/sg12_119_cif.got.tgz:237854.got - 2010.06.28 00:19:55.
