data_PCOD8092320
_publ_section_title
;
Structure prediction by ZEFSAII (Michael W. Deem and Ramdas Pophale) SiO2 
 PCOD8092320
Probable space group: C 2/M
;
_chemical_formula_sum "Si O2"
_cell_formula_units_Z 48
_cell_length_a 20.465035
_cell_length_b 8.802396
_cell_length_c 28.722431
_cell_angle_alpha 90.000000
_cell_angle_beta 29.155276
_cell_angle_gamma 90.000000
_cell_volume 2520.707003
_symmetry_space_group_name_H-M "C 2/M"
_symmetry_group_IT_number 12
_symmetry_cell_setting 'monoclinic'
loop_
_space_group_symop_operation_xyz
x,y,z
-x,y,-z
-x,-y,-z
x,-y,z
1/2+x,1/2+y,z
1/2-x,1/2+y,-z
1/2-x,1/2-y,-z
1/2+x,1/2-y,z
loop_
_atom_site_type_symbol
_atom_site_label
_atom_site_fract_x
_atom_site_fract_y
_atom_site_fract_z
Si Si1 0.026347 0.319590 0.932470
Si Si2 0.272648 0.178757 0.435588
Si Si3 0.270557 0.179689 0.037091
Si Si4 0.029983 0.677201 0.534329
Si Si5 0.450450 0.676688 0.751468
Si Si6 0.174847 0.822973 0.270806
O O1 0.019995 0.500000 0.940232
O O2 0.171033 0.268883 0.823567
O O3 0.000000 0.250025 0.000000
O O4 0.911774 0.258676 0.969134
O O5 0.250000 0.250000 0.500000
O O6 0.158938 0.229984 0.470582
O O7 0.415133 0.226735 0.325985
O O8 0.265320 0.000000 0.446128
O O9 0.151366 0.231546 0.145355
O O10 0.273372 0.000000 0.031270
O O11 0.250000 0.250000 0.000000
O O12 0.060103 0.500000 0.521822
O O13 0.000000 0.720731 0.500000
O O14 0.900827 0.721657 0.644624
O O15 0.486269 0.500000 0.734317
O O16 0.383959 0.710282 0.743328
O O17 0.159538 0.000000 0.293083
#
# Coordination Sequence:
#
# PCOD8092320 Si02
#       6
#     8   8   8   8   8   8
#     4   9  16  32  59  87 111 146 196 241 283 338
#     4  12  24  39  63  91 120 156 201 249 298 360
#     4  10  21  37  58  86 123 158 195 243 296 350
#     4  11  25  43  61  86 123 160 195 246 307 358
#     4  10  20  36  60  89 119 157 200 247 298 351
#     4  10  19  34  62  91 114 150 201 249 293 349
#
# _framework density 19.042278
#
# number of rings (size 3 to 8) (size 9 to 14) (size 15 to 20)
#    0.000    1.667    3.333    2.000    0.000    3.333 
#    0.000    4.167    0.000    1.000    0.000    0.000 
#    0.000    0.000    0.000    0.000    0.000    0.000 
#
# Total GULP energy -297681.836118 kJ/mol
# GULP energy per Si atom -12403.409838 kJ/mol
# Density = 1.899894 g / cm^3
# Si number density = 19.042278 Si / 1000 Ang^3
#
#
#
# Elastic Constant Matrix: (Units=GPa)
#
#
# Indices 1 2 3 4 5 6 
#
# 1 150.7624 53.0094 90.9276 0.0017 -7.8348 -0.0037
# 2 53.0094 73.7536 53.0644 0.0082 -2.6393 -0.0063
# 3 90.9276 53.0644 158.1358 -0.0007 -11.7197 0.0029
# 4 0.0017 0.0082 -0.0007 32.0237 -0.0011 0.7968
# 5 -7.8348 -2.6393 -11.7197 -0.0011 42.1870 0.0038
# 6 -0.0037 -0.0063 0.0029 0.7968 0.0038 28.2654
#
#
#
# Elastic Compliance Matrix: (Units=1/GPa)
#
#
# Indices 1 2 3 4 5 6 
#
# 1 0.011190 -0.004510 -0.004888 0.000000 0.000438 0.000001
# 2 -0.004510 0.019704 -0.004074 -0.000005 -0.000736 0.000004
# 3 -0.004888 -0.004074 0.010634 0.000002 0.001792 -0.000003
# 4 0.000000 -0.000005 0.000002 0.031249 0.000001 -0.000881
# 5 0.000438 -0.000736 0.001792 0.000001 0.024237 -0.000004
# 6 0.000001 0.000004 -0.000003 -0.000881 -0.000004 0.035404
#
#
# Mechanical properties :
#
#
# Convention : Reuss Voigt Hill
#
# Bulk Modulus (GPa) = 68.56303 86.29497 77.42900
# Shear Modulus (GPa) = 30.44655 32.87191 31.65923
#
# Velocity S-wave (km/s) = 4.00295 4.15934 4.08189
# Velocity P-wave (km/s) = 7.57949 8.27543 7.93509
#
# Compressibility (1/GPa) = 0.01458512
#
# Stress axis : x y z
#
# Youngs Moduli (GPa) = 89.36928 50.74997 94.03711
#
# Poissons Ratio (x) = 0.22887 0.45967
# Poissons Ratio (y) = 0.40303 0.38307
# Poissons Ratio (z) = 0.43686 0.20673
#
# Static dielectric constant tensor:
#      x y z
#    x 3.520870 -0.000050 0.184410 
#    y -0.000050 3.271640 -0.000120 
#    z 0.184410 -0.000120 3.985020 
# 
# 
# High freq. dielectric constant tensor:
#      x y z
#    x 1.746280 0.000000 -0.008520 
#    y 0.000000 1.719160 0.000000 
#    z -0.008520 0.000000 1.755630 
# 
# From -- ./inp_files/365371.got.cif
#   From: 2010.06.25/outbox.cif.g09.slc.cpg/sg12_183_cif.got.tgz:365371.got - 2010.06.28 00:19:55.
