data_PCOD8092577
_publ_section_title
;
Structure prediction by ZEFSAII (Michael W. Deem and Ramdas Pophale) SiO2 
 PCOD8092577
Probable space group: C 2/M
;
_chemical_formula_sum "Si O2"
_cell_formula_units_Z 48
_cell_length_a 31.442197
_cell_length_b 8.594092
_cell_length_c 20.133915
_cell_angle_alpha 90.000000
_cell_angle_beta 27.604744
_cell_angle_gamma 90.000000
_cell_volume 2520.974620
_symmetry_space_group_name_H-M "C 2/M"
_symmetry_group_IT_number 12
_symmetry_cell_setting 'monoclinic'
loop_
_space_group_symop_operation_xyz
x,y,z
-x,y,-z
-x,-y,-z
x,-y,z
1/2+x,1/2+y,z
1/2-x,1/2+y,-z
1/2-x,1/2-y,-z
1/2+x,1/2-y,z
loop_
_atom_site_type_symbol
_atom_site_label
_atom_site_fract_x
_atom_site_fract_y
_atom_site_fract_z
Si Si1 0.240580 0.681467 0.156611
Si Si2 0.568496 0.819299 0.096971
Si Si3 0.231056 0.819360 0.311278
Si Si4 0.562041 0.682985 0.352995
Si Si5 0.578706 0.682814 0.940932
Si Si6 0.542889 0.680027 0.635000
O O1 0.259721 0.500000 0.123154
O O2 0.333638 0.770476 0.007419
O O3 0.211809 0.721899 0.271525
O O4 0.159979 0.731743 0.218434
O O5 0.549431 0.724272 0.056151
O O6 0.568903 0.000000 0.078709
O O7 0.488429 0.783226 0.259848
O O8 0.327690 0.770032 0.209728
O O9 0.150640 0.786213 0.475149
O O10 0.232199 0.000000 0.289210
O O11 0.500000 0.741926 0.500000
O O12 0.578716 0.500000 0.335696
O O13 0.512370 0.730418 0.353965
O O14 0.595646 0.500000 0.911637
O O15 0.500000 0.740160 0.000000
O O16 0.524778 0.500000 0.676360
#
# Coordination Sequence:
#
# PCOD8092577 Si02
#       6
#     8   8   8   8   8   8
#     4  11  21  34  54  80 112 149 192 235 276 325
#     4  11  23  38  58  82 113 148 186 229 278 333
#     4  10  19  35  59  84 111 147 187 226 276 332
#     4  10  19  35  56  79 110 149 194 235 276 324
#     4  10  21  39  63  88 113 142 179 225 276 333
#     4  10  21  37  57  81 114 150 184 231 283 327
#
# _framework density 19.040254999999998
#
# number of rings (size 3 to 8) (size 9 to 14) (size 15 to 20)
#    0.000    1.667    1.667    6.000    0.000    4.333 
#    0.000    0.833    0.000    0.000    0.000    0.000 
#    0.000    0.000    0.000    0.000    0.000    0.000 
#
# Total GULP energy -297701.047812 kJ/mol
# GULP energy per Si atom -12404.210326 kJ/mol
# Density = 1.899692 g / cm^3
# Si number density = 19.040255 Si / 1000 Ang^3
#
#
#
# Elastic Constant Matrix: (Units=GPa)
#
#
# Indices 1 2 3 4 5 6 
#
# 1 100.1235 15.3070 49.9385 -0.0009 -20.0920 0.0012
# 2 15.3070 51.9513 22.8021 -0.0060 -6.0914 0.0057
# 3 49.9385 22.8021 122.1929 -0.0193 -4.0389 0.0076
# 4 -0.0009 -0.0060 -0.0193 30.7401 0.0052 -4.4875
# 5 -20.0920 -6.0914 -4.0389 0.0052 26.2763 -0.0019
# 6 0.0012 0.0057 0.0076 -4.4875 -0.0019 25.4975
#
#
#
# Elastic Compliance Matrix: (Units=1/GPa)
#
#
# Indices 1 2 3 4 5 6 
#
# 1 0.015015 -0.000716 -0.005658 -0.000005 0.010446 0.000001
# 2 -0.000716 0.021490 -0.003589 0.000001 0.003883 -0.000003
# 3 -0.005658 -0.003589 0.011051 0.000006 -0.003459 -0.000001
# 4 -0.000005 0.000001 0.000006 0.033389 -0.000009 0.005876
# 5 0.010446 0.003883 -0.003459 -0.000009 0.046413 0.000002
# 6 0.000001 -0.000003 -0.000001 0.005876 0.000002 0.040254
#
#
# Mechanical properties :
#
#
# Convention : Reuss Voigt Hill
#
# Bulk Modulus (GPa) = 36.19122 50.04031 43.11577
# Shear Modulus (GPa) = 25.41322 28.91746 27.16534
#
# Velocity S-wave (km/s) = 3.65733 3.90135 3.78131
# Velocity P-wave (km/s) = 6.07320 6.82879 6.46205
#
# Compressibility (1/GPa) = 0.02763101
#
# Stress axis : x y z
#
# Youngs Moduli (GPa) = 66.59964 46.53234 90.48637
#
# Poissons Ratio (x) = 0.03332 0.51193
# Poissons Ratio (y) = 0.04769 0.32478
# Poissons Ratio (z) = 0.37679 0.16702
#
# Static dielectric constant tensor:
#      x y z
#    x 3.392730 -0.000010 -0.184820 
#    y -0.000010 3.481070 0.000010 
#    z -0.184820 0.000010 3.524040 
# 
# 
# High freq. dielectric constant tensor:
#      x y z
#    x 1.722270 0.000000 -0.011890 
#    y 0.000000 1.743870 0.000000 
#    z -0.011890 0.000000 1.742740 
# 
# From -- ./inp_files/295374.got.cif
#   From: 2010.06.25/outbox.cif.g09.slc.cpg/sg12_148_cif.got.tgz:295374.got - 2010.06.28 00:19:55.
