data_PCOD8092831
_publ_section_title
;
Structure prediction by ZEFSAII (Michael W. Deem and Ramdas Pophale) SiO2 
 PCOD8092831
Probable space group: C 2/M
;
_chemical_formula_sum "Si O2"
_cell_formula_units_Z 56
_cell_length_a 15.132550
_cell_length_b 8.530947
_cell_length_c 21.615099
_cell_angle_alpha 90.000000
_cell_angle_beta 81.494142
_cell_angle_gamma 90.000000
_cell_volume 2759.708489
_symmetry_space_group_name_H-M "C 2/M"
_symmetry_group_IT_number 12
_symmetry_cell_setting 'monoclinic'
loop_
_space_group_symop_operation_xyz
x,y,z
-x,y,-z
-x,-y,-z
x,-y,z
1/2+x,1/2+y,z
1/2-x,1/2+y,-z
1/2-x,1/2-y,-z
1/2+x,1/2-y,z
loop_
_atom_site_type_symbol
_atom_site_label
_atom_site_fract_x
_atom_site_fract_y
_atom_site_fract_z
Si Si1 0.691378 0.322311 0.196302
Si Si2 0.179742 0.818218 0.722868
Si Si3 0.897559 0.685187 0.503159
Si Si4 0.221087 0.320488 0.938423
Si Si5 0.235453 0.682907 0.589125
Si Si6 0.996874 0.184188 0.195797
Si Si7 0.461073 0.682671 0.066636
O O1 0.713621 0.500000 0.215104
O O2 0.751902 0.202038 0.227551
O O3 0.701354 0.308562 0.120914
O O4 0.588693 0.278956 0.221628
O O5 0.211234 0.717375 0.661865
O O6 0.084096 0.749050 0.754569
O O7 0.174987 0.000000 0.704589
O O8 0.905616 0.500000 0.502790
O O9 0.846898 0.744132 0.445672
O O10 0.831574 0.737265 0.565383
O O11 0.000000 0.753876 0.500000
O O12 0.190640 0.500000 0.950937
O O13 0.143565 0.212608 0.919770
O O14 0.250000 0.250000 0.000000
O O15 0.248718 0.500000 0.577026
O O16 0.999899 0.257671 0.126027
O O17 0.979990 0.000000 0.189427
O O18 0.484004 0.500000 0.061856
O O19 0.500000 0.763368 0.000000
#
# Coordination Sequence:
#
# PCOD8092831 Si02
#       7
#     8   8   8   8   8   8   8
#     4  10  21  39  59  81 110 148 192 240 293 352
#     4  11  22  38  59  83 116 155 197 244 289 345
#     4   9  19  38  63  91 124 157 195 241 285 332
#     4  11  22  35  55  81 112 145 187 241 297 359
#     4  10  21  37  59  88 122 159 196 237 286 343
#     4   9  19  36  57  80 109 147 190 234 291 355
#     4  10  19  35  58  80 108 145 187 236 297 361
#
# _framework density 20.291998
#
# number of rings (size 3 to 8) (size 9 to 14) (size 15 to 20)
#    0.000    2.000    1.429    2.143    0.000    5.143 
#    0.000    5.000    0.000    0.000    0.000    0.000 
#    0.000    0.000    0.000    0.000    0.000    0.000 
#
# Total GULP energy -347072.646662 kJ/mol
# GULP energy per Si atom -12395.451667 kJ/mol
# Density = 2.024581 g / cm^3
# Si number density = 20.291998 Si / 1000 Ang^3
#
#
#
# Elastic Constant Matrix: (Units=GPa)
#
#
# Indices 1 2 3 4 5 6 
#
# 1 147.7249 11.8436 43.9188 0.0000 -11.5208 0.0000
# 2 11.8436 14.0547 13.5295 0.0000 -1.0128 0.0000
# 3 43.9188 13.5295 105.1904 0.0000 -15.3482 0.0000
# 4 0.0000 0.0000 0.0000 22.4748 0.0000 1.8063
# 5 -11.5208 -1.0128 -15.3482 0.0000 28.9944 0.0000
# 6 0.0000 0.0000 0.0000 1.8063 0.0000 25.3945
#
#
#
# Elastic Compliance Matrix: (Units=1/GPa)
#
#
# Indices 1 2 3 4 5 6 
#
# 1 0.007994 -0.004152 -0.002559 0.000000 0.001677 0.000000
# 2 -0.004152 0.083590 -0.009572 0.000000 -0.003797 0.000000
# 3 -0.002559 -0.009572 0.012581 0.000000 0.005308 0.000000
# 4 0.000000 0.000000 0.000000 0.044750 0.000000 -0.003183
# 5 0.001677 -0.003797 0.005308 0.000000 0.037833 0.000000
# 6 0.000000 0.000000 0.000000 -0.003183 0.000000 0.039605
#
#
# Mechanical properties :
#
#
# Convention : Reuss Voigt Hill
#
# Bulk Modulus (GPa) = 13.96665 45.06153 29.51409
# Shear Modulus (GPa) = 17.68131 28.55127 23.11629
#
# Velocity S-wave (km/s) = 2.95506 3.75510 3.37884
# Velocity P-wave (km/s) = 4.30592 6.40748 5.45879
#
# Compressibility (1/GPa) = 0.07159915
#
# Stress axis : x y z
#
# Youngs Moduli (GPa) = 125.09793 11.96312 79.48754
#
# Poissons Ratio (x) = 0.04967 0.20339
# Poissons Ratio (y) = 0.51942 0.76083
# Poissons Ratio (z) = 0.32010 0.11451
#
# Static dielectric constant tensor:
#      x y z
#    x 3.834770 0.000000 -0.097520 
#    y 0.000000 3.271050 0.000000 
#    z -0.097520 0.000000 3.647410 
# 
# 
# High freq. dielectric constant tensor:
#      x y z
#    x 1.799950 0.000000 -0.004530 
#    y 0.000000 1.766280 0.000000 
#    z -0.004530 0.000000 1.792510 
# 
# From -- ./inp_files/308943.got.cif
#   From: 2010.06.25/outbox.cif.g09.slc.cpg/sg12_155_cif.got.tgz:308943.got - 2010.06.28 00:19:55.
