data_PCOD8092366
_publ_section_title
;
Structure prediction by ZEFSAII (Michael W. Deem and Ramdas Pophale) SiO2 
 PCOD8092366
Probable space group: C 2/M
;
_chemical_formula_sum "Si O2"
_cell_formula_units_Z 60
_cell_length_a 22.582877
_cell_length_b 13.042634
_cell_length_c 12.765583
_cell_angle_alpha 90.000000
_cell_angle_beta 74.032977
_cell_angle_gamma 90.000000
_cell_volume 3614.918119
_symmetry_space_group_name_H-M "C 2/M"
_symmetry_group_IT_number 12
_symmetry_cell_setting 'monoclinic'
loop_
_space_group_symop_operation_xyz
x,y,z
-x,y,-z
-x,-y,-z
x,-y,z
1/2+x,1/2+y,z
1/2-x,1/2+y,-z
1/2-x,1/2-y,-z
1/2+x,1/2-y,z
loop_
_atom_site_type_symbol
_atom_site_label
_atom_site_fract_x
_atom_site_fract_y
_atom_site_fract_z
Si Si1 0.780917 0.247004 0.735369
Si Si2 0.628200 0.380768 0.458224
Si Si3 0.500000 0.264923 0.500000
Si Si4 0.644623 0.119813 0.145962
Si Si5 0.386181 0.115897 0.264915
Si Si6 0.313770 0.119718 0.098369
Si Si7 0.014532 0.382246 0.295920
Si Si8 0.195197 0.780648 0.599995
O O1 0.827110 0.180692 0.641627
O O2 0.817309 0.333906 0.777552
O O3 0.749411 0.171783 0.834320
O O4 0.727453 0.306904 0.695398
O O5 0.627180 0.500000 0.427778
O O6 0.559299 0.336865 0.485849
O O7 0.654967 0.370082 0.564393
O O8 0.490799 0.192385 0.603625
O O9 0.573457 0.146759 0.198136
O O10 0.656817 0.000000 0.142446
O O11 0.665223 0.165386 0.023747
O O12 0.368594 0.142611 0.154014
O O13 0.458427 0.134528 0.243418
O O14 0.349299 0.183300 0.366112
O O15 0.367196 0.000000 0.301250
O O16 0.300088 0.000000 0.096081
O O17 0.017514 0.500000 0.334959
O O18 0.250000 0.750000 0.500000
#
# Coordination Sequence:
#
# PCOD8092366 Si02
#       8
#     8   8   4   8   8   8   8   8
#     4  10  19  35  53  74 103 137 166 202 253 304
#     4  11  22  35  52  74 100 133 173 211 249 298
#     4  12  20  36  52  72 104 130 172 210 254 298
#     4  10  20  33  50  78 104 130 168 210 252 297
#     4   9  17  32  52  73  99 133 164 200 252 306
#     4   9  18  32  53  77 104 131 165 208 249 300
#     4  10  20  33  53  76 103 135 165 207 257 305
#     4   9  19  32  48  72  99 130 166 205 241 295
#
# _framework density 16.597885999999999
#
# number of rings (size 3 to 8) (size 9 to 14) (size 15 to 20)
#    0.000    2.133    2.667    1.200    0.000    4.267 
#    0.000    4.667    0.000    0.000    0.000    0.000 
#    0.000    3.467    0.000    0.000    0.000    0.000 
#
# Total GULP energy -371865.263170 kJ/mol
# GULP energy per Si atom -12395.508772 kJ/mol
# Density = 1.656011 g / cm^3
# Si number density = 16.597886 Si / 1000 Ang^3
#
#
#
# Elastic Constant Matrix: (Units=GPa)
#
#
# Indices 1 2 3 4 5 6 
#
# 1 124.2663 38.1883 50.2931 0.0000 -3.8505 0.0000
# 2 38.1883 40.0417 42.9548 0.0000 0.8707 0.0000
# 3 50.2931 42.9548 98.8795 0.0000 -8.4503 0.0000
# 4 0.0000 0.0000 0.0000 23.3763 0.0000 0.3181
# 5 -3.8505 0.8707 -8.4503 0.0000 23.8312 0.0000
# 6 0.0000 0.0000 0.0000 0.3181 0.0000 22.9330
#
#
#
# Elastic Compliance Matrix: (Units=1/GPa)
#
#
# Indices 1 2 3 4 5 6 
#
# 1 0.011657 -0.009247 -0.001776 0.000000 0.001591 0.000000
# 2 -0.009247 0.056141 -0.020613 0.000000 -0.010854 0.000000
# 3 -0.001776 -0.020613 0.020637 0.000000 0.007784 0.000000
# 4 0.000000 0.000000 0.000000 0.042786 0.000000 -0.000594
# 5 0.001591 -0.010854 0.007784 0.000000 0.045375 0.000000
# 6 0.000000 0.000000 0.000000 -0.000594 0.000000 0.043614
#
#
# Mechanical properties :
#
#
# Convention : Reuss Voigt Hill
#
# Bulk Modulus (GPa) = 39.74086 58.45106 49.09596
# Shear Modulus (GPa) = 17.13089 22.81153 19.97121
#
# Velocity S-wave (km/s) = 3.21614 3.71126 3.47254
# Velocity P-wave (km/s) = 6.14709 7.32510 6.76179
#
# Compressibility (1/GPa) = 0.02516302
#
# Stress axis : x y z
#
# Youngs Moduli (GPa) = 85.78547 17.81215 48.45739
#
# Poissons Ratio (x) = 0.16470 0.08607
# Poissons Ratio (y) = 0.79322 0.99886
# Poissons Ratio (z) = 0.15238 0.36717
#
# Static dielectric constant tensor:
#      x y z
#    x 3.390310 0.000000 0.134030 
#    y 0.000000 2.961240 0.000000 
#    z 0.134030 0.000000 3.300300 
# 
# 
# High freq. dielectric constant tensor:
#      x y z
#    x 1.655120 0.000000 0.002200 
#    y 0.000000 1.620390 0.000000 
#    z 0.002200 0.000000 1.639440 
# 
# From -- ./inp_files/166689.got.cif
#   From: 2010.06.25/outbox.cif.g09.slc.cpg/sg12_84_cif.got.tgz:166689.got - 2010.06.28 00:19:55.
