data_PCOD8092701
_publ_section_title
;
Structure prediction by ZEFSAII (Michael W. Deem and Ramdas Pophale) SiO2 
 PCOD8092701
Probable space group: C 2/M
;
_chemical_formula_sum "Si O2"
_cell_formula_units_Z 64
_cell_length_a 28.645048
_cell_length_b 8.812222
_cell_length_c 14.258456
_cell_angle_alpha 90.000000
_cell_angle_beta 86.687427
_cell_angle_gamma 90.000000
_cell_volume 3593.198754
_symmetry_space_group_name_H-M "C 2/M"
_symmetry_group_IT_number 12
_symmetry_cell_setting 'monoclinic'
loop_
_space_group_symop_operation_xyz
x,y,z
-x,y,-z
-x,-y,-z
x,-y,z
1/2+x,1/2+y,z
1/2-x,1/2+y,-z
1/2-x,1/2-y,-z
1/2+x,1/2-y,z
loop_
_atom_site_type_symbol
_atom_site_label
_atom_site_fract_x
_atom_site_fract_y
_atom_site_fract_z
Si Si1 0.852237 0.177850 0.553658
Si Si2 0.007088 0.820980 0.607038
Si Si3 0.849582 0.819515 0.841019
Si Si4 0.321822 0.821574 0.224120
Si Si5 0.800274 0.679460 0.015254
Si Si6 0.081793 0.679031 0.303373
Si Si7 0.775114 0.822279 0.698205
Si Si8 0.610757 0.322728 0.647468
O O1 0.889823 0.271248 0.608030
O O2 0.799607 0.216920 0.595628
O O3 0.856543 0.223133 0.444739
O O4 0.863778 0.000000 0.568463
O O5 0.058273 0.767624 0.634007
O O6 0.000000 0.773119 0.500000
O O7 0.971421 0.732121 0.677876
O O8 0.999476 0.000000 0.619862
O O9 0.898110 0.757751 0.792901
O O10 0.808088 0.761820 0.777728
O O11 0.851986 0.000000 0.849160
O O12 0.840081 0.746427 0.943011
O O13 0.316889 0.774047 0.116894
O O14 0.276803 0.752741 0.286045
O O15 0.369091 0.753786 0.261623
O O16 0.324842 0.000000 0.235209
O O17 0.796227 0.500000 0.004074
O O18 0.750000 0.750000 0.000000
O O19 0.084355 0.500000 0.290698
O O20 0.770300 0.000000 0.713473
O O21 0.611548 0.500000 0.663918
#
# Coordination Sequence:
#
# PCOD8092701 Si02
#       8
#     8   8   8   8   8   8   8   8
#     4   9  17  33  53  73 105 148 188 222 261 313
#     4  10  19  36  58  78 105 144 186 226 274 322
#     4  10  19  35  57  80 109 143 180 224 275 322
#     4  10  21  36  51  75 112 149 180 220 277 325
#     4  11  21  35  56  83 111 144 186 229 273 322
#     4  11  21  32  52  85 114 137 176 225 276 328
#     4   8  15  30  51  73 103 144 181 211 259 318
#     4  10  21  35  53  78 105 143 191 229 266 320
#
# _framework density 17.811426999999998
#
# number of rings (size 3 to 8) (size 9 to 14) (size 15 to 20)
#    0.000    2.125    2.500    2.625    0.000    2.750 
#    0.000    0.625    0.000    0.750    0.000    5.250 
#    0.000    0.000    0.000    0.000    0.000    0.000 
#
# Total GULP energy -396758.035316 kJ/mol
# GULP energy per Si atom -12398.688604 kJ/mol
# Density = 1.777089 g / cm^3
# Si number density = 17.811427 Si / 1000 Ang^3
#
#
#
# Elastic Constant Matrix: (Units=GPa)
#
#
# Indices 1 2 3 4 5 6 
#
# 1 117.9856 36.7837 75.6773 0.0000 -0.6995 0.0000
# 2 36.7837 59.3389 47.7791 0.0000 -0.5767 0.0000
# 3 75.6773 47.7791 122.6826 0.0000 -5.7704 0.0000
# 4 0.0000 0.0000 0.0000 27.9156 0.0000 -1.1764
# 5 -0.6995 -0.5767 -5.7704 0.0000 27.9967 0.0000
# 6 0.0000 0.0000 0.0000 -1.1764 0.0000 26.0422
#
#
#
# Elastic Compliance Matrix: (Units=1/GPa)
#
#
# Indices 1 2 3 4 5 6 
#
# 1 0.014336 -0.002519 -0.007925 0.000000 -0.001327 0.000000
# 2 -0.002519 0.025055 -0.008263 0.000000 -0.001250 0.000000
# 3 -0.007925 -0.008263 0.016399 0.000000 0.003012 0.000000
# 4 0.000000 0.000000 0.000000 0.035891 0.000000 0.001621
# 5 -0.001327 -0.001250 0.003012 0.000000 0.036280 0.000000
# 6 0.000000 0.000000 0.000000 0.001621 0.000000 0.038472
#
#
# Mechanical properties :
#
#
# Convention : Reuss Voigt Hill
#
# Bulk Modulus (GPa) = 54.41461 68.94301 61.67881
# Shear Modulus (GPa) = 23.81281 25.70870 24.76076
#
# Velocity S-wave (km/s) = 3.66039 3.80331 3.73253
# Velocity P-wave (km/s) = 6.96285 7.62090 7.29929
#
# Compressibility (1/GPa) = 0.01837742
#
# Stress axis : x y z
#
# Youngs Moduli (GPa) = 69.75447 39.91284 60.97910
#
# Poissons Ratio (x) = 0.10053 0.48324
# Poissons Ratio (y) = 0.17570 0.50385
# Poissons Ratio (z) = 0.55278 0.32979
#
# Static dielectric constant tensor:
#      x y z
#    x 3.404570 0.000000 -0.227950 
#    y 0.000000 3.121970 0.000000 
#    z -0.227950 0.000000 3.387120 
# 
# 
# High freq. dielectric constant tensor:
#      x y z
#    x 1.677860 0.000000 -0.019760 
#    y 0.000000 1.677600 0.000000 
#    z -0.019760 0.000000 1.682880 
# 
# From -- ./inp_files/243991.got.cif
#   From: 2010.06.25/outbox.cif.g09.slc.cpg/sg12_122_cif.got.tgz:243991.got - 2010.06.28 00:19:55.
