data_PCOD8092714
_publ_section_title
;
Structure prediction by ZEFSAII (Michael W. Deem and Ramdas Pophale) SiO2 
 PCOD8092714
Probable space group: C 2/M
;
_chemical_formula_sum "Si O2"
_cell_formula_units_Z 64
_cell_length_a 24.013712
_cell_length_b 30.059344
_cell_length_c 8.288883
_cell_angle_alpha 90.000000
_cell_angle_beta 149.160444
_cell_angle_gamma 90.000000
_cell_volume 3067.211320
_symmetry_space_group_name_H-M "C 2/M"
_symmetry_group_IT_number 12
_symmetry_cell_setting 'monoclinic'
loop_
_space_group_symop_operation_xyz
x,y,z
-x,y,-z
-x,-y,-z
x,-y,z
1/2+x,1/2+y,z
1/2-x,1/2+y,-z
1/2-x,1/2-y,-z
1/2+x,1/2-y,z
loop_
_atom_site_type_symbol
_atom_site_label
_atom_site_fract_x
_atom_site_fract_y
_atom_site_fract_z
Si Si1 0.435887 0.676593 0.181943
Si Si2 0.206174 0.890312 0.661949
Si Si3 0.141246 0.205437 0.558843
Si Si4 0.596460 0.874818 0.621596
Si Si5 0.090263 0.449992 0.359566
Si Si6 0.491227 0.577339 0.298658
Si Si7 0.286006 0.549586 0.623169
Si Si8 0.776637 0.701954 0.224274
O O1 0.500000 0.692560 0.500000
O O2 0.510068 0.699304 0.228588
O O3 0.431243 0.623949 0.164149
O O4 0.309560 0.689234 0.850864
O O5 0.185548 0.837795 0.572551
O O6 0.234297 0.914584 0.566611
O O7 0.106587 0.915927 0.499425
O O8 0.304908 0.893905 0.029807
O O9 0.168214 0.254276 0.559114
O O10 0.199183 0.207091 0.877113
O O11 0.500000 0.858350 0.500000
O O12 0.556365 0.915895 0.414690
O O13 0.631075 0.834178 0.589531
O O14 0.092590 0.500000 0.437178
O O15 0.207965 0.437572 0.578241
O O16 0.000000 0.445912 0.000000
O O17 0.500000 0.556089 0.500000
O O18 0.411759 0.547592 0.992047
O O19 0.255719 0.500000 0.484718
#
# Coordination Sequence:
#
# PCOD8092714 Si02
#       8
#     8   8   8   8   8   8   8   8
#     4   8  14  27  47  70 100 142 180 215 266 329
#     4  10  21  36  54  83 118 150 189 234 290 348
#     4   8  16  28  47  75 110 150 183 219 273 338
#     4  11  22  36  59  88 114 145 190 244 291 333
#     4  10  22  41  61  80 109 153 195 231 287 354
#     4  10  19  35  57  80 112 152 192 231 285 350
#     4  11  23  38  59  85 113 149 192 242 292 338
#     4   9  16  28  49  78 109 140 184 231 274 328
#
# _framework density 20.865860000000001
#
# number of rings (size 3 to 8) (size 9 to 14) (size 15 to 20)
#    0.000    2.375    0.000    4.875    0.000    5.500 
#    0.000    0.000    0.000    6.000    0.000    0.000 
#    0.000    0.000    0.000    0.000    0.000    0.000 
#
# Total GULP energy -396497.304776 kJ/mol
# GULP energy per Si atom -12390.540774 kJ/mol
# Density = 2.081837 g / cm^3
# Si number density = 20.865860 Si / 1000 Ang^3
#
#
#
# Elastic Constant Matrix: (Units=GPa)
#
#
# Indices 1 2 3 4 5 6 
#
# 1 61.1266 46.4134 19.2601 0.0000 16.3509 0.0000
# 2 46.4134 116.7697 27.1524 0.0000 6.2912 0.0000
# 3 19.2601 27.1524 59.6835 0.0000 21.6459 0.0000
# 4 0.0000 0.0000 0.0000 22.5673 0.0000 4.1212
# 5 16.3509 6.2912 21.6459 0.0000 33.3898 0.0000
# 6 0.0000 0.0000 0.0000 4.1212 0.0000 25.4727
#
#
#
# Elastic Compliance Matrix: (Units=1/GPa)
#
#
# Indices 1 2 3 4 5 6 
#
# 1 0.027119 -0.010166 -0.000006 0.000000 -0.011361 0.000000
# 2 -0.010166 0.013433 -0.004861 0.000000 0.005599 0.000000
# 3 -0.000006 -0.004861 0.024364 0.000000 -0.014875 0.000000
# 4 0.000000 0.000000 0.000000 0.045661 0.000000 -0.007388
# 5 -0.011361 0.005599 -0.014875 0.000000 0.044101 0.000000
# 6 0.000000 0.000000 0.000000 -0.007388 0.000000 0.040453
#
#
# Mechanical properties :
#
#
# Convention : Reuss Voigt Hill
#
# Bulk Modulus (GPa) = 28.69499 47.02574 37.86036
# Shear Modulus (GPa) = 21.11358 25.93622 23.52490
#
# Velocity S-wave (km/s) = 3.18444 3.52944 3.36137
# Velocity P-wave (km/s) = 5.22522 6.26062 5.76621
#
# Compressibility (1/GPa) = 0.03484929
#
# Stress axis : x y z
#
# Youngs Moduli (GPa) = 36.87427 74.44203 41.04470
#
# Poissons Ratio (x) = 0.75676 0.00026
# Poissons Ratio (y) = 0.37485 0.19953
# Poissons Ratio (z) = 0.00024 0.36188
#
# Static dielectric constant tensor:
#      x y z
#    x 3.757460 0.000000 0.321540 
#    y 0.000000 3.830470 0.000000 
#    z 0.321540 0.000000 3.706970 
# 
# 
# High freq. dielectric constant tensor:
#      x y z
#    x 1.800010 0.000000 0.025110 
#    y 0.000000 1.814510 0.000000 
#    z 0.025110 0.000000 1.806600 
# 
# From -- ./inp_files/100241.got.cif
#   From: 2010.06.25/outbox.cif.g09.slc.cpg/sg12_51_cif.got.tgz:100241.got - 2010.06.28 00:19:55.
