data_PCOD8092114
_publ_section_title
;
Structure prediction by ZEFSAII (Michael W. Deem and Ramdas Pophale) SiO2 
 PCOD8092114
Probable space group: C 2/M
;
_chemical_formula_sum "Si O2"
_cell_formula_units_Z 64
_cell_length_a 25.453358
_cell_length_b 9.147214
_cell_length_c 14.415764
_cell_angle_alpha 90.000000
_cell_angle_beta 100.632970
_cell_angle_gamma 90.000000
_cell_volume 3298.752251
_symmetry_space_group_name_H-M "C 2/M"
_symmetry_group_IT_number 12
_symmetry_cell_setting 'monoclinic'
loop_
_space_group_symop_operation_xyz
x,y,z
-x,y,-z
-x,-y,-z
x,-y,z
1/2+x,1/2+y,z
1/2-x,1/2+y,-z
1/2-x,1/2-y,-z
1/2+x,1/2-y,z
loop_
_atom_site_type_symbol
_atom_site_label
_atom_site_fract_x
_atom_site_fract_y
_atom_site_fract_z
Si Si1 0.520289 0.671894 0.106113
Si Si2 0.106119 0.668162 0.419825
Si Si3 0.709882 0.671788 0.706403
Si Si4 0.301804 0.665065 0.643109
Si Si5 0.897962 0.667664 0.366833
Si Si6 0.231058 0.329831 0.084852
Si Si7 0.000010 0.327592 0.281171
Si Si8 0.141292 0.836508 0.142979
O O1 0.511363 0.500000 0.115950
O O2 0.489123 0.752866 0.178433
O O3 0.581490 0.719675 0.132619
O O4 0.500000 0.726488 0.000000
O O5 0.117797 0.500000 0.398189
O O6 0.160504 0.758150 0.420377
O O7 0.090040 0.686965 0.521088
O O8 0.056012 0.728055 0.343634
O O9 0.711636 0.500000 0.687623
O O10 0.746065 0.749114 0.639011
O O11 0.649952 0.729647 0.681753
O O12 0.731045 0.709559 0.816127
O O13 0.288860 0.500000 0.606137
O O14 0.333688 0.665804 0.748269
O O15 0.883102 0.500000 0.338546
O O16 0.951365 0.718273 0.331715
O O17 0.229502 0.500000 0.064029
O O18 0.171327 0.274623 0.085264
O O19 0.250000 0.250000 0.000000
O O20 0.001933 0.500000 0.268416
O O21 0.143606 0.000000 0.101023
#
# Coordination Sequence:
#
# PCOD8092114 Si02
#       8
#     8   8   8   8   8   8   8   8
#     4  10  21  37  57  83 115 150 187 232 289 343
#     4  10  20  36  60  86 114 151 193 237 287 343
#     4  10  22  39  57  82 115 150 190 236 289 342
#     4  10  19  34  59  85 111 146 189 237 283 335
#     4  10  22  39  58  84 118 155 192 234 289 345
#     4  10  21  36  57  82 108 143 187 232 281 339
#     4  10  21  38  60  84 115 152 194 240 284 338
#     4   9  18  34  54  78 109 144 183 229 280 333
#
# _framework density 19.401274999999998
#
# number of rings (size 3 to 8) (size 9 to 14) (size 15 to 20)
#    0.000    2.125    1.250    1.500    0.000    6.750 
#    0.000    3.750    0.000    2.250    0.000    0.000 
#    0.000    0.000    0.000    0.000    0.000    0.000 
#
# Total GULP energy -396883.728795 kJ/mol
# GULP energy per Si atom -12402.616525 kJ/mol
# Density = 1.935712 g / cm^3
# Si number density = 19.401275 Si / 1000 Ang^3
#
#
#
# Elastic Constant Matrix: (Units=GPa)
#
#
# Indices 1 2 3 4 5 6 
#
# 1 99.8487 49.8929 43.4635 0.0000 -14.6263 0.0000
# 2 49.8929 79.2643 45.5295 0.0000 -9.4945 0.0000
# 3 43.4635 45.5295 91.6730 0.0000 -22.8578 0.0000
# 4 0.0000 0.0000 0.0000 30.1427 0.0000 -4.1369
# 5 -14.6263 -9.4945 -22.8578 0.0000 30.0310 0.0000
# 6 0.0000 0.0000 0.0000 -4.1369 0.0000 34.0386
#
#
#
# Elastic Compliance Matrix: (Units=1/GPa)
#
#
# Indices 1 2 3 4 5 6 
#
# 1 0.015581 -0.007884 -0.002716 0.000000 0.003028 0.000000
# 2 -0.007884 0.021686 -0.007751 0.000000 -0.002884 0.000000
# 3 -0.002716 -0.007751 0.018643 0.000000 0.010416 0.000000
# 4 0.000000 0.000000 0.000000 0.033738 0.000000 0.004100
# 5 0.003028 -0.002884 0.010416 0.000000 0.041791 0.000000
# 6 0.000000 0.000000 0.000000 0.004100 0.000000 0.029877
#
#
# Mechanical properties :
#
#
# Convention : Reuss Voigt Hill
#
# Bulk Modulus (GPa) = 52.06698 60.95087 56.50893
# Shear Modulus (GPa) = 24.45937 27.63580 26.04758
#
# Velocity S-wave (km/s) = 3.55450 3.77826 3.66809
# Velocity P-wave (km/s) = 6.61371 7.10759 6.86509
#
# Compressibility (1/GPa) = 0.01920603
#
# Stress axis : x y z
#
# Youngs Moduli (GPa) = 64.18146 46.11336 53.63945
#
# Poissons Ratio (x) = 0.36358 0.14570
# Poissons Ratio (y) = 0.50603 0.41577
# Poissons Ratio (z) = 0.17433 0.35743
#
# Static dielectric constant tensor:
#      x y z
#    x 3.673290 0.000000 -0.058330 
#    y 0.000000 3.568910 0.000000 
#    z -0.058330 0.000000 3.495460 
# 
# 
# High freq. dielectric constant tensor:
#      x y z
#    x 1.760100 0.000000 -0.006210 
#    y 0.000000 1.752030 0.000000 
#    z -0.006210 0.000000 1.753940 
# 
# From -- ./inp_files/238569.got.cif
#   From: 2010.06.25/outbox.cif.g09.slc.cpg/sg12_120_cif.got.tgz:238569.got - 2010.06.28 00:19:55.
