data_PCOD8092328
_publ_section_title
;
Structure prediction by ZEFSAII (Michael W. Deem and Ramdas Pophale) SiO2 
 PCOD8092328
Probable space group: C 2/M
;
_chemical_formula_sum "Si O2"
_cell_formula_units_Z 64
_cell_length_a 29.346546
_cell_length_b 13.082166
_cell_length_c 21.482359
_cell_angle_alpha 90.000000
_cell_angle_beta 158.789974
_cell_angle_gamma 90.000000
_cell_volume 2983.818672
_symmetry_space_group_name_H-M "C 2/M"
_symmetry_group_IT_number 12
_symmetry_cell_setting 'monoclinic'
loop_
_space_group_symop_operation_xyz
x,y,z
-x,y,-z
-x,-y,-z
x,-y,z
1/2+x,1/2+y,z
1/2-x,1/2+y,-z
1/2-x,1/2-y,-z
1/2+x,1/2-y,z
loop_
_atom_site_type_symbol
_atom_site_label
_atom_site_fract_x
_atom_site_fract_y
_atom_site_fract_z
Si Si1 0.113744 0.117487 0.597456
Si Si2 0.238884 0.616850 0.673896
Si Si3 0.710369 0.620374 0.028923
Si Si4 0.380036 0.273462 0.744562
Si Si5 0.498600 0.379806 0.672486
Si Si6 0.187099 0.883048 0.457569
Si Si7 0.986635 0.380673 0.412782
Si Si8 0.338995 0.272336 0.910376
O O1 0.050921 0.168227 0.455296
O O2 0.238203 0.180313 0.775181
O O3 0.000000 0.125080 0.500000
O O4 0.157813 0.000000 0.645307
O O5 0.254235 0.500000 0.670754
O O6 0.308847 0.694434 0.716880
O O7 0.298848 0.629462 0.818622
O O8 0.093322 0.649730 0.498459
O O9 0.689834 0.500000 0.017654
O O10 0.857180 0.650096 0.214054
O O11 0.647256 0.689548 0.001707
O O12 0.642724 0.647716 0.876679
O O13 0.317245 0.176152 0.631996
O O14 0.370559 0.367943 0.684532
O O15 0.523571 0.239050 0.939639
O O16 0.487883 0.500000 0.649083
O O17 0.411389 0.341342 0.617423
O O18 0.219132 0.000000 0.509068
O O19 0.995197 0.500000 0.435601
O O20 0.000000 0.329315 0.500000
#
# Coordination Sequence:
#
# PCOD8092328 Si02
#       8
#     8   8   8   8   8   8   8   8
#     4  10  24  45  67  92 127 173 224 275 323 374
#     4  11  23  37  58  92 136 172 204 260 331 390
#     4  10  19  34  62  97 125 159 208 258 315 392
#     4  11  24  39  59  94 127 163 218 265 323 385
#     4   9  18  38  65  88 117 164 214 259 312 380
#     4  10  21  41  64  84 122 170 214 264 320 385
#     4   9  17  32  54  86 128 169 204 244 309 391
#     4  12  23  37  63  95 127 166 212 267 322 387
#
# _framework density 21.449024999999999
#
# number of rings (size 3 to 8) (size 9 to 14) (size 15 to 20)
#    0.000    1.750    2.500    1.875    1.750    2.500 
#    0.000    3.125    0.000    8.250    0.000    0.000 
#    0.000    0.000    0.000    0.000    0.000    0.000 
#
# Total GULP energy -396610.577806 kJ/mol
# GULP energy per Si atom -12394.080556 kJ/mol
# Density = 2.140021 g / cm^3
# Si number density = 21.449025 Si / 1000 Ang^3
#
#
#
# Elastic Constant Matrix: (Units=GPa)
#
#
# Indices 1 2 3 4 5 6 
#
# 1 91.7548 12.7532 39.4151 0.0000 6.2102 0.0000
# 2 12.7532 67.8297 43.4889 0.0000 1.7972 0.0000
# 3 39.4151 43.4889 143.9403 0.0000 19.2828 0.0000
# 4 0.0000 0.0000 0.0000 22.7469 0.0000 1.1722
# 5 6.2102 1.7972 19.2828 0.0000 41.0568 0.0000
# 6 0.0000 0.0000 0.0000 1.1722 0.0000 -0.1034
#
#
#
# Elastic Compliance Matrix: (Units=1/GPa)
#
#
# Indices 1 2 3 4 5 6 
#
# 1 0.012357 -0.000215 -0.003276 0.000000 -0.000321 0.000001
# 2 -0.000215 0.018431 -0.005769 0.000000 0.001935 0.000001
# 3 -0.003276 -0.005769 0.010124 0.000000 -0.004007 0.000000
# 4 0.000000 0.000000 0.000000 0.027752 0.000000 0.314577
# 5 -0.000321 0.001935 -0.004007 0.000000 0.026202 0.000004
# 6 0.000001 0.000001 0.000000 0.314577 0.000004 -6.104649
#
#
# Mechanical properties :
#
#
# Convention : Reuss Voigt Hill
#
# Bulk Modulus (GPa) = 44.65631 54.98214 49.81923
# Shear Modulus (GPa) = -0.83559 26.59789 12.88115
#
# Velocity S-wave (km/s) = -0.62483 3.52526 2.45327
# Velocity P-wave (km/s) = 4.51047 6.50073 5.59481
#
# Compressibility (1/GPa) = 0.02239325
#
# Stress axis : x y z
#
# Youngs Moduli (GPa) = 80.92297 54.25752 98.77363
#
# Poissons Ratio (x) = 0.01164 0.32358
# Poissons Ratio (y) = 0.01736 0.56982
# Poissons Ratio (z) = 0.26510 0.31301
#
# Static dielectric constant tensor:
#      x y z
#    x 3.933270 0.000000 0.051170 
#    y 0.000000 3.723610 0.000000 
#    z 0.051170 0.000000 4.049030 
# 
# 
# High freq. dielectric constant tensor:
#      x y z
#    x 1.837720 0.000000 0.001400 
#    y 0.000000 1.834830 0.000000 
#    z 0.001400 0.000000 1.848820 
# 
# From -- ./inp_files/330421.got.cif
#   From: 2010.06.25/outbox.cif.g09.slc.cpg/sg12_166_cif.got.tgz:330421.got - 2010.06.28 00:19:55.
