data_PCOD8092519
_publ_section_title
;
Structure prediction by ZEFSAII (Michael W. Deem and Ramdas Pophale) SiO2 
 PCOD8092519
Probable space group: C 2/M
;
_chemical_formula_sum "Si O2"
_cell_formula_units_Z 64
_cell_length_a 31.506797
_cell_length_b 15.715391
_cell_length_c 11.727093
_cell_angle_alpha 90.000000
_cell_angle_beta 34.852129
_cell_angle_gamma 90.000000
_cell_volume 3318.226135
_symmetry_space_group_name_H-M "C 2/M"
_symmetry_group_IT_number 12
_symmetry_cell_setting 'monoclinic'
loop_
_space_group_symop_operation_xyz
x,y,z
-x,y,-z
-x,-y,-z
x,-y,z
1/2+x,1/2+y,z
1/2-x,1/2+y,-z
1/2-x,1/2-y,-z
1/2+x,1/2-y,z
loop_
_atom_site_type_symbol
_atom_site_label
_atom_site_fract_x
_atom_site_fract_y
_atom_site_fract_z
Si Si1 0.226519 0.178769 0.964356
Si Si2 0.529357 0.748317 0.117362
Si Si3 0.076049 0.246897 0.270668
Si Si4 0.863697 0.406203 0.731720
Si Si5 0.723389 0.175751 0.398532
Si Si6 0.838472 0.822292 0.319028
Si Si7 0.553445 0.408558 0.775850
Si Si8 0.924157 0.403030 0.349641
O O1 0.274743 0.097291 0.898561
O O2 0.249909 0.202936 0.785083
O O3 0.250000 0.250000 0.000000
O O4 0.136464 0.172080 0.165767
O O5 0.566503 0.756671 0.157804
O O6 0.470859 0.669360 0.252371
O O7 0.487363 0.835503 0.174403
O O8 0.591930 0.731146 0.885100
O O9 0.108246 0.337702 0.239605
O O10 0.000000 0.221638 0.500000
O O11 0.879641 0.500000 0.746225
O O12 0.910277 0.390302 0.514348
O O13 0.790862 0.132702 0.322419
O O14 0.710372 0.261942 0.494873
O O15 0.651842 0.114660 0.552224
O O16 0.865685 0.893848 0.347526
O O17 0.553270 0.500000 0.710256
O O18 0.500000 0.414198 0.000000
O O19 0.949590 0.500000 0.266663
#
# Coordination Sequence:
#
# PCOD8092519 Si02
#       8
#     8   8   8   8   8   8   8   8
#     4   9  19  35  56  81 109 149 190 231 284 340
#     4  11  20  36  55  85 118 152 191 239 293 344
#     4  11  20  33  57  86 111 149 191 238 289 348
#     4   9  19  35  56  85 115 150 197 239 279 343
#     4  10  19  35  55  86 110 151 194 240 281 346
#     4  10  20  34  60  80 113 149 196 242 288 338
#     4   9  19  35  56  80 106 145 196 242 285 336
#     4  10  20  34  56  87 121 157 192 235 289 350
#
# _framework density 19.287413000000001
#
# number of rings (size 3 to 8) (size 9 to 14) (size 15 to 20)
#    0.000    2.125    3.750    0.000    0.000    1.250 
#    0.000    1.875    0.000    8.250    0.000    0.000 
#    0.000    0.000    0.000    0.000    0.000    0.000 
#
# Total GULP energy -396466.646067 kJ/mol
# GULP energy per Si atom -12389.582690 kJ/mol
# Density = 1.924351 g / cm^3
# Si number density = 19.287413 Si / 1000 Ang^3
#
#
#
# Elastic Constant Matrix: (Units=GPa)
#
#
# Indices 1 2 3 4 5 6 
#
# 1 114.7843 36.0247 20.5438 0.0000 -11.9867 0.0000
# 2 36.0247 94.4244 13.3180 0.0000 -5.5411 0.0000
# 3 20.5438 13.3180 67.5796 0.0000 -15.2488 0.0000
# 4 0.0000 0.0000 0.0000 30.1363 0.0000 9.2750
# 5 -11.9867 -5.5411 -15.2488 0.0000 31.9246 0.0000
# 6 0.0000 0.0000 0.0000 9.2750 0.0000 27.1345
#
#
#
# Elastic Compliance Matrix: (Units=1/GPa)
#
#
# Indices 1 2 3 4 5 6 
#
# 1 0.010424 -0.003566 -0.001931 0.000000 0.002373 0.000000
# 2 -0.003566 0.012140 -0.001272 0.000000 0.000161 0.000000
# 3 -0.001931 -0.001272 0.017285 0.000000 0.007310 0.000000
# 4 0.000000 0.000000 0.000000 0.037084 0.000000 -0.012676
# 5 0.002373 0.000161 0.007310 0.000000 0.035734 0.000000
# 6 0.000000 0.000000 0.000000 -0.012676 0.000000 0.041186
#
#
# Mechanical properties :
#
#
# Convention : Reuss Voigt Hill
#
# Bulk Modulus (GPa) = 38.00640 46.28459 42.14549
# Shear Modulus (GPa) = 28.38321 31.63256 30.00788
#
# Velocity S-wave (km/s) = 3.84030 4.05416 3.94868
# Velocity P-wave (km/s) = 6.27789 6.77970 6.53362
#
# Compressibility (1/GPa) = 0.02631136
#
# Stress axis : x y z
#
# Youngs Moduli (GPa) = 95.92884 82.37467 57.85514
#
# Poissons Ratio (x) = 0.29371 0.11171
# Poissons Ratio (y) = 0.34204 0.07361
# Poissons Ratio (z) = 0.18523 0.10480
#
# Static dielectric constant tensor:
#      x y z
#    x 4.232670 0.000000 -0.516110 
#    y 0.000000 3.585110 0.000000 
#    z -0.516110 0.000000 3.693110 
# 
# 
# High freq. dielectric constant tensor:
#      x y z
#    x 1.769940 0.000000 -0.013770 
#    y 0.000000 1.722600 0.000000 
#    z -0.013770 0.000000 1.735960 
# 
# From -- ./inp_files/189428.got.cif
#   From: 2010.06.25/outbox.cif.g09.slc.cpg/sg12_95_cif.got.tgz:189428.got - 2010.06.28 00:19:55.
