data_PCOD8092395
_publ_section_title
;
Structure prediction by ZEFSAII (Michael W. Deem and Ramdas Pophale) SiO2 
 PCOD8092395
Probable space group: C 2/M
;
_chemical_formula_sum "Si O2"
_cell_formula_units_Z 48
_cell_length_a 23.575236
_cell_length_b 16.657116
_cell_length_c 17.724424
_cell_angle_alpha 90.000000
_cell_angle_beta 157.826114
_cell_angle_gamma 90.000000
_cell_volume 2626.947973
_symmetry_space_group_name_H-M "C 2/M"
_symmetry_group_IT_number 12
_symmetry_cell_setting 'monoclinic'
loop_
_space_group_symop_operation_xyz
x,y,z
-x,y,-z
-x,-y,-z
x,-y,z
1/2+x,1/2+y,z
1/2-x,1/2+y,-z
1/2-x,1/2-y,-z
1/2+x,1/2-y,z
loop_
_atom_site_type_symbol
_atom_site_label
_atom_site_fract_x
_atom_site_fract_y
_atom_site_fract_z
Si Si1 0.042840 0.329763 0.774815
Si Si2 0.267431 0.592961 0.610687
Si Si3 0.844938 0.201590 0.838621
Si Si4 0.861882 0.093340 0.165085
Si Si5 0.035298 0.226334 0.457397
Si Si6 0.532334 0.330518 0.852911
O O1 0.908282 0.392375 0.620813
O O2 0.048442 0.292983 0.697152
O O3 0.017918 0.258470 0.802861
O O4 0.196537 0.375174 0.981526
O O5 0.305091 0.500000 0.650821
O O6 0.309893 0.622449 0.746616
O O7 0.366118 0.640096 0.670489
O O8 0.714940 0.267717 0.666983
O O9 0.000000 0.241744 0.000000
O O10 0.856500 0.171835 0.938736
O O11 0.981809 0.138040 0.366758
O O12 0.897629 0.108773 0.121564
O O13 0.873124 0.000000 0.197462
O O14 0.000000 0.245497 0.500000
#
# Coordination Sequence:
#
# PCOD8092395 Si02
#       6
#     8   8   8   8   8   8
#     4  10  20  35  54  75 101 136 173 206 246 300
#     4  10  20  33  52  79 108 133 162 206 255 300
#     4   9  19  33  53  76 100 134 169 205 248 299
#     4  11  22  34  52  77 104 133 167 213 259 295
#     4  10  19  35  54  73  99 132 173 211 248 299
#     4  10  19  35  54  74 100 136 174 205 245 301
#
# _framework density 18.272155000000001
#
# number of rings (size 3 to 8) (size 9 to 14) (size 15 to 20)
#    0.000    2.000    0.000    5.500    0.000    5.333 
#    0.000    0.000    0.000    6.000    0.000    0.000 
#    0.000    0.000    0.000    0.000    0.000    0.000 
#
# Total GULP energy -297643.552075 kJ/mol
# GULP energy per Si atom -12401.814670 kJ/mol
# Density = 1.823057 g / cm^3
# Si number density = 18.272155 Si / 1000 Ang^3
#
#
#
# Elastic Constant Matrix: (Units=GPa)
#
#
# Indices 1 2 3 4 5 6 
#
# 1 91.8122 38.7632 32.3041 -0.0006 5.0716 -0.0002
# 2 38.7632 112.9564 56.1802 -0.0002 11.6720 0.0000
# 3 32.3041 56.1802 103.3699 -0.0009 22.6924 -0.0002
# 4 -0.0006 -0.0002 -0.0009 23.0180 0.0000 6.7059
# 5 5.0716 11.6720 22.6924 0.0000 19.6706 0.0001
# 6 -0.0002 0.0000 -0.0002 6.7059 0.0001 17.0267
#
#
#
# Elastic Compliance Matrix: (Units=1/GPa)
#
#
# Indices 1 2 3 4 5 6 
#
# 1 0.013153 -0.003371 -0.002642 0.000000 0.001657 0.000000
# 2 -0.003371 0.013001 -0.006039 0.000000 0.000121 0.000000
# 3 -0.002642 -0.006039 0.017202 0.000001 -0.015580 0.000000
# 4 0.000000 0.000000 0.000001 0.049075 -0.000001 -0.019328
# 5 0.001657 0.000121 -0.015580 -0.000001 0.068311 0.000000
# 6 0.000000 0.000000 0.000000 -0.019328 0.000000 0.066344
#
#
# Mechanical properties :
#
#
# Convention : Reuss Voigt Hill
#
# Bulk Modulus (GPa) = 51.94326 62.51481 57.22904
# Shear Modulus (GPa) = 19.40936 24.00246 21.70591
#
# Velocity S-wave (km/s) = 3.26273 3.62831 3.45036
# Velocity P-wave (km/s) = 6.53324 7.20002 6.87471
#
# Compressibility (1/GPa) = 0.01925177
#
# Stress axis : x y z
#
# Youngs Moduli (GPa) = 76.02771 76.91869 58.13268
#
# Poissons Ratio (x) = 0.25928 0.15360
# Poissons Ratio (y) = 0.25628 0.35106
# Poissons Ratio (z) = 0.20088 0.46451
#
# Static dielectric constant tensor:
#      x y z
#    x 3.472020 0.000000 0.041200 
#    y 0.000000 3.117530 0.000000 
#    z 0.041200 0.000000 3.575980 
# 
# 
# High freq. dielectric constant tensor:
#      x y z
#    x 1.715800 0.000000 0.006340 
#    y 0.000000 1.685230 0.000000 
#    z 0.006340 0.000000 1.719970 
# 
# From -- ./inp_files/74602.got.cif
#   From: 2010.06.25/outbox.cif.g09.slc.cpg/sg12_38_cif.got.tgz:74602.got - 2010.06.28 00:19:55.
