data_PCOD8092448
_publ_section_title
;
Structure prediction by ZEFSAII (Michael W. Deem and Ramdas Pophale) SiO2 
 PCOD8092448
Probable space group: C 2/M
;
_chemical_formula_sum "Si O2"
_cell_formula_units_Z 64
_cell_length_a 14.884759
_cell_length_b 8.627458
_cell_length_c 27.469125
_cell_angle_alpha 90.000000
_cell_angle_beta 106.491324
_cell_angle_gamma 90.000000
_cell_volume 3382.407476
_symmetry_space_group_name_H-M "C 2/M"
_symmetry_group_IT_number 12
_symmetry_cell_setting 'monoclinic'
loop_
_space_group_symop_operation_xyz
x,y,z
-x,y,-z
-x,-y,-z
x,-y,z
1/2+x,1/2+y,z
1/2-x,1/2+y,-z
1/2-x,1/2-y,-z
1/2+x,1/2-y,z
loop_
_atom_site_type_symbol
_atom_site_label
_atom_site_fract_x
_atom_site_fract_y
_atom_site_fract_z
Si Si1 0.921849 0.817257 0.130837
Si Si2 0.913318 0.182503 0.310132
Si Si3 0.649779 0.683189 0.500395
Si Si4 0.961202 0.816572 0.941882
Si Si5 0.959672 0.815591 0.422863
Si Si6 0.718784 0.181848 0.130007
Si Si7 0.231558 0.180037 0.237494
Si Si8 0.530255 0.318081 0.239879
O O1 0.813688 0.769359 0.117032
O O2 0.965500 0.755209 0.087276
O O3 0.977067 0.743024 0.185275
O O4 0.934644 0.000000 0.134092
O O5 0.931155 0.256195 0.366124
O O6 0.811001 0.218784 0.274453
O O7 0.988737 0.252143 0.283512
O O8 0.924891 0.000000 0.316355
O O9 0.659888 0.500000 0.500783
O O10 0.750000 0.750000 0.500000
O O11 0.617322 0.740989 0.549231
O O12 0.565926 0.738682 0.451507
O O13 0.863485 0.730182 0.918793
O O14 0.944688 0.000000 0.936254
O O15 0.000000 0.765766 0.000000
O O16 0.958252 0.000000 0.422561
O O17 0.711361 0.274640 0.179006
O O18 0.716593 0.000000 0.141369
O O19 0.139695 0.218053 0.254811
O O20 0.258286 0.000000 0.243841
O O21 0.509719 0.500000 0.235785
#
# Coordination Sequence:
#
# PCOD8092448 Si02
#       8
#     8   8   8   8   8   8   8   8
#     4   9  17  33  54  76 102 135 169 206 255 314
#     4  10  19  35  55  76 103 141 180 214 257 315
#     4   9  17  33  55  79 104 140 182 221 263 310
#     4  10  21  38  58  78 104 138 173 214 268 320
#     4   8  17  33  53  75 106 142 178 215 260 319
#     4  11  21  35  57  79 103 137 176 216 257 311
#     4  11  21  34  53  79 108 138 173 217 262 312
#     4   9  17  31  52  73 100 136 171 205 256 316
#
# _framework density 18.921434000000001
#
# number of rings (size 3 to 8) (size 9 to 14) (size 15 to 20)
#    0.000    2.375    2.500    1.500    0.000    1.750 
#    0.000    7.500    0.000    0.000    0.000    0.000 
#    0.000    0.000    0.000    0.000    0.000    0.000 
#
# Total GULP energy -396699.908437 kJ/mol
# GULP energy per Si atom -12396.872139 kJ/mol
# Density = 1.887837 g / cm^3
# Si number density = 18.921434 Si / 1000 Ang^3
#
#
#
# Elastic Constant Matrix: (Units=GPa)
#
#
# Indices 1 2 3 4 5 6 
#
# 1 136.5679 13.9331 55.2746 0.0000 -14.6833 0.0000
# 2 13.9331 14.3503 4.6371 0.0000 -4.3189 0.0000
# 3 55.2746 4.6371 132.1999 0.0000 -17.1966 0.0000
# 4 0.0000 0.0000 0.0000 15.5977 0.0000 4.5182
# 5 -14.6833 -4.3189 -17.1966 0.0000 28.3436 0.0000
# 6 0.0000 0.0000 0.0000 4.5182 0.0000 26.0632
#
#
#
# Elastic Compliance Matrix: (Units=1/GPa)
#
#
# Indices 1 2 3 4 5 6 
#
# 1 0.009750 -0.007801 -0.003583 0.000000 0.001688 0.000000
# 2 -0.007801 0.079454 0.001654 0.000000 0.009070 0.000000
# 3 -0.003583 0.001654 0.009550 0.000000 0.004190 0.000000
# 4 0.000000 0.000000 0.000000 0.067502 0.000000 -0.011702
# 5 0.001688 0.009070 0.004190 0.000000 0.040080 0.000000
# 6 0.000000 0.000000 0.000000 -0.011702 0.000000 0.040397
#
#
# Mechanical properties :
#
#
# Convention : Reuss Voigt Hill
#
# Bulk Modulus (GPa) = 12.61127 47.86753 30.23940
# Shear Modulus (GPa) = 17.08685 27.95244 22.51965
#
# Velocity S-wave (km/s) = 3.00833 3.84772 3.45362
# Velocity P-wave (km/s) = 4.32969 6.71513 5.64974
#
# Compressibility (1/GPa) = 0.07929418
#
# Stress axis : x y z
#
# Youngs Moduli (GPa) = 102.56331 12.58591 104.71718
#
# Poissons Ratio (x) = 0.09818 0.37525
# Poissons Ratio (y) = 0.80006 -0.17324
# Poissons Ratio (z) = 0.36753 -0.02082
#
# Static dielectric constant tensor:
#      x y z
#    x 3.701140 0.000000 -0.192140 
#    y 0.000000 3.040460 0.000000 
#    z -0.192140 0.000000 3.765170 
# 
# 
# High freq. dielectric constant tensor:
#      x y z
#    x 1.749290 0.000000 -0.003630 
#    y 0.000000 1.694090 0.000000 
#    z -0.003630 0.000000 1.737950 
# 
# From -- ./inp_files/359808.got.cif
#   From: 2010.06.25/outbox.cif.g09.slc.cpg/sg12_180_cif.got.tgz:359808.got - 2010.06.28 00:19:55.
