data_PCOD8092995
_publ_section_title
;
Structure prediction by ZEFSAII (Michael W. Deem and Ramdas Pophale) SiO2 
 PCOD8092995
Probable space group: C 2/M
;
_chemical_formula_sum "Si O2"
_cell_formula_units_Z 64
_cell_length_a 20.800981
_cell_length_b 19.378054
_cell_length_c 9.704016
_cell_angle_alpha 90.000000
_cell_angle_beta 62.412283
_cell_angle_gamma 90.000000
_cell_volume 3466.790864
_symmetry_space_group_name_H-M "C 2/M"
_symmetry_group_IT_number 12
_symmetry_cell_setting 'monoclinic'
loop_
_space_group_symop_operation_xyz
x,y,z
-x,y,-z
-x,-y,-z
x,-y,z
1/2+x,1/2+y,z
1/2-x,1/2+y,-z
1/2-x,1/2-y,-z
1/2+x,1/2-y,z
loop_
_atom_site_type_symbol
_atom_site_label
_atom_site_fract_x
_atom_site_fract_y
_atom_site_fract_z
Si Si1 0.960534 0.684774 0.681021
Si Si2 0.291431 0.195790 0.123577
Si Si3 0.302994 0.920332 0.326697
Si Si4 0.794584 0.676558 0.808833
Si Si5 0.062302 0.222510 0.053596
Si Si6 0.722922 0.422042 0.673792
Si Si7 0.917632 0.075152 0.037159
Si Si8 0.472418 0.920527 0.176549
O O1 0.879761 0.669933 0.713582
O O2 0.968715 0.752514 0.768929
O O3 0.000000 0.699159 0.500000
O O4 0.989119 0.619181 0.737402
O O5 0.283519 0.125903 0.215939
O O6 0.234154 0.252815 0.233962
O O7 0.269217 0.175042 0.991749
O O8 0.372467 0.227001 0.055356
O O9 0.252446 0.891235 0.500742
O O10 0.386969 0.910548 0.280958
O O11 0.285989 0.000000 0.306852
O O12 0.759365 0.612146 0.769171
O O13 0.091675 0.143809 0.047223
O O14 0.000000 0.225236 0.000000
O O15 0.750326 0.500000 0.648765
O O16 0.635436 0.415709 0.776786
O O17 0.898542 0.000000 0.984994
O O18 0.000000 0.071815 0.000000
O O19 0.495818 0.000000 0.166632
O O20 0.500000 0.892173 0.000000
#
# Coordination Sequence:
#
# PCOD8092995 Si02
#       8
#     8   8   8   8   8   8   8   8
#     4  11  22  35  52  79 116 147 179 221 269 320
#     4  10  20  36  54  75 112 142 179 218 262 320
#     4  10  21  36  56  83 113 142 180 229 273 316
#     4  10  21  35  52  76 108 148 179 214 261 325
#     4  10  19  35  59  81 102 138 183 224 268 326
#     4  10  20  36  56  82 110 136 178 228 276 325
#     4   9  18  35  58  80 102 133 179 233 279 320
#     4  10  20  36  58  83 111 147 189 226 261 315
#
# _framework density 18.460878000000001
#
# number of rings (size 3 to 8) (size 9 to 14) (size 15 to 20)
#    0.000    2.000    1.250    3.375    0.000    1.750 
#    4.500    0.000    0.000    0.375    0.000    0.000 
#    0.000    0.000    0.000    0.000    0.000    0.000 
#
# Total GULP energy -396621.395967 kJ/mol
# GULP energy per Si atom -12394.418624 kJ/mol
# Density = 1.841886 g / cm^3
# Si number density = 18.460878 Si / 1000 Ang^3
#
#
#
# Elastic Constant Matrix: (Units=GPa)
#
#
# Indices 1 2 3 4 5 6 
#
# 1 82.9520 34.6675 48.0665 0.0000 -5.3862 0.0000
# 2 34.6675 109.4474 59.0056 0.0000 10.2033 0.0000
# 3 48.0665 59.0056 124.0296 0.0000 -5.2940 0.0000
# 4 0.0000 0.0000 0.0000 -8.2163 0.0000 15.4136
# 5 -5.3862 10.2033 -5.2940 0.0000 25.2936 0.0000
# 6 0.0000 0.0000 0.0000 15.4136 0.0000 14.2038
#
#
#
# Elastic Compliance Matrix: (Units=1/GPa)
#
#
# Indices 1 2 3 4 5 6 
#
# 1 0.016273 -0.002931 -0.004756 0.000000 0.003652 0.000000
# 2 -0.002931 0.013875 -0.005782 0.000000 -0.007432 0.000000
# 3 -0.004756 -0.005782 0.012828 0.000000 0.004005 0.000000
# 4 0.000000 0.000000 0.000000 -0.040092 0.000000 0.043507
# 5 0.003652 -0.007432 0.004005 0.000000 0.044149 0.000000
# 6 0.000000 0.000000 0.000000 0.043507 0.000000 0.023191
#
#
# Mechanical properties :
#
#
# Convention : Reuss Voigt Hill
#
# Bulk Modulus (GPa) = 62.35516 66.65647 64.50581
# Shear Modulus (GPa) = 48.77564 17.90220 33.33892
#
# Velocity S-wave (km/s) = 5.14572 3.11744 4.25423
# Velocity P-wave (km/s) = 8.31594 7.01022 7.69084
#
# Compressibility (1/GPa) = 0.01603717
#
# Stress axis : x y z
#
# Youngs Moduli (GPa) = 61.45069 72.06994 77.95595
#
# Poissons Ratio (x) = 0.21122 0.37079
# Poissons Ratio (y) = 0.18010 0.45078
# Poissons Ratio (z) = 0.29228 0.41674
#
# Static dielectric constant tensor:
#      x y z
#    x 3.339240 0.000000 -0.205980 
#    y 0.000000 3.804570 0.000000 
#    z -0.205980 0.000000 3.437940 
# 
# 
# High freq. dielectric constant tensor:
#      x y z
#    x 1.710710 0.000000 -0.020050 
#    y 0.000000 1.728190 0.000000 
#    z -0.020050 0.000000 1.705250 
# 
# From -- ./inp_files/89583.got.cif
#   From: 2010.06.25/outbox.cif.g09.slc.cpg/sg12_45_cif.got.tgz:89583.got - 2010.06.28 00:19:55.
