data_PCOD8092627
_publ_section_title
;
Structure prediction by ZEFSAII (Michael W. Deem and Ramdas Pophale) SiO2 
 PCOD8092627
Probable space group: C 2/M
;
_chemical_formula_sum "Si O2"
_cell_formula_units_Z 56
_cell_length_a 16.501614
_cell_length_b 20.366993
_cell_length_c 14.404177
_cell_angle_alpha 90.000000
_cell_angle_beta 32.821449
_cell_angle_gamma 90.000000
_cell_volume 2623.973094
_symmetry_space_group_name_H-M "C 2/M"
_symmetry_group_IT_number 12
_symmetry_cell_setting 'monoclinic'
loop_
_space_group_symop_operation_xyz
x,y,z
-x,y,-z
-x,-y,-z
x,-y,z
1/2+x,1/2+y,z
1/2-x,1/2+y,-z
1/2-x,1/2-y,-z
1/2+x,1/2-y,z
loop_
_atom_site_type_symbol
_atom_site_label
_atom_site_fract_x
_atom_site_fract_y
_atom_site_fract_z
Si Si1 0.350231 0.569946 0.593677
Si Si2 0.566828 0.131289 0.336482
Si Si3 0.160263 0.212324 0.857837
Si Si4 0.859781 0.644106 0.078463
Si Si5 0.773564 0.304287 0.556115
Si Si6 0.926324 0.077456 0.312268
Si Si7 0.730048 0.926419 0.018216
O O1 0.500000 0.552280 0.500000
O O2 0.259128 0.500000 0.678480
O O3 0.278085 0.627182 0.723087
O O4 0.383720 0.594542 0.458351
O O5 0.500000 0.105211 0.500000
O O6 0.719779 0.170392 0.202804
O O7 0.447756 0.176390 0.396971
O O8 0.622999 0.074418 0.212590
O O9 0.128824 0.278040 0.946594
O O10 0.225188 0.232605 0.695653
O O11 0.000000 0.174952 0.000000
O O12 0.847655 0.615594 0.987225
O O13 0.000000 0.615117 0.000000
O O14 0.750000 0.250000 0.500000
O O15 0.678827 0.372460 0.643197
O O16 0.895629 0.000000 0.317035
O O17 0.099347 0.096406 0.125762
O O18 0.738331 0.000000 0.972201
#
# Coordination Sequence:
#
# PCOD8092627 Si02
#       7
#     8   8   8   8   8   8   8
#     4  10  19  35  56  84 128 171 208 252 312 384
#     4  10  25  45  65  94 128 168 219 278 330 376
#     4  10  23  43  64  91 128 166 211 269 328 387
#     4  11  24  37  61  96 133 168 212 265 329 388
#     4  11  24  40  66  98 128 171 223 269 327 389
#     4  10  22  40  63  95 132 175 220 268 325 395
#     4  11  24  42  66  95 131 177 222 264 326 396
#
# _framework density 21.341683
#
# number of rings (size 3 to 8) (size 9 to 14) (size 15 to 20)
#    0.000    1.571    1.429    2.143    8.000    4.286 
#    0.000    2.143    0.000    7.714    0.000    0.000 
#    0.000    0.000    0.000    0.000    0.000    0.000 
#
# Total GULP energy -346971.446797 kJ/mol
# GULP energy per Si atom -12391.837386 kJ/mol
# Density = 2.129311 g / cm^3
# Si number density = 21.341683 Si / 1000 Ang^3
#
#
#
# Elastic Constant Matrix: (Units=GPa)
#
#
# Indices 1 2 3 4 5 6 
#
# 1 107.0768 41.7331 40.2966 0.0090 -16.2939 -0.0134
# 2 41.7331 73.4845 26.1524 -0.0255 -7.6684 0.0121
# 3 40.2966 26.1524 107.0579 -0.0022 -3.9458 -0.0046
# 4 0.0090 -0.0255 -0.0022 32.7470 0.0156 4.6958
# 5 -16.2939 -7.6684 -3.9458 0.0156 44.0126 -0.0004
# 6 -0.0134 0.0121 -0.0046 4.6958 -0.0004 25.0599
#
#
#
# Elastic Compliance Matrix: (Units=1/GPa)
#
#
# Indices 1 2 3 4 5 6 
#
# 1 0.013582 -0.006090 -0.003490 -0.000012 0.003654 0.000012
# 2 -0.006090 0.017866 -0.002047 0.000017 0.000675 -0.000015
# 3 -0.003490 -0.002047 0.011130 0.000000 -0.000651 0.000001
# 4 -0.000012 0.000017 0.000000 0.031380 -0.000013 -0.005880
# 5 0.003654 0.000675 -0.000651 -0.000013 0.024133 0.000004
# 6 0.000012 -0.000015 0.000001 -0.005880 0.000004 0.041006
#
#
# Mechanical properties :
#
#
# Convention : Reuss Voigt Hill
#
# Bulk Modulus (GPa) = 51.74881 55.99815 53.87348
# Shear Modulus (GPa) = 29.62193 32.32639 30.97416
#
# Velocity S-wave (km/s) = 3.72961 3.89615 3.81379
# Velocity P-wave (km/s) = 6.54577 6.82171 6.68516
#
# Compressibility (1/GPa) = 0.01932411
#
# Stress axis : x y z
#
# Youngs Moduli (GPa) = 73.62582 55.97221 89.84373
#
# Poissons Ratio (x) = 0.34088 0.31355
# Poissons Ratio (y) = 0.44840 0.18392
# Poissons Ratio (z) = 0.25695 0.11458
#
# Static dielectric constant tensor:
#      x y z
#    x 3.999750 -0.000040 -0.063600 
#    y -0.000040 3.603570 0.000030 
#    z -0.063600 0.000030 3.959710 
# 
# 
# High freq. dielectric constant tensor:
#      x y z
#    x 1.840800 0.000000 -0.002200 
#    y 0.000000 1.823600 0.000000 
#    z -0.002200 0.000000 1.848090 
# 
# From -- ./inp_files/65755.got.cif
#   From: 2010.06.25/outbox.cif.g09.slc.cpg/sg12_33_cif.got.tgz:65755.got - 2010.06.28 00:19:55.
