data_PCOD8092901
_publ_section_title
;
Structure prediction by ZEFSAII (Michael W. Deem and Ramdas Pophale) SiO2 
 PCOD8092901
Probable space group: C 2/M
;
_chemical_formula_sum "Si O2"
_cell_formula_units_Z 64
_cell_length_a 18.809404
_cell_length_b 9.083094
_cell_length_c 30.015029
_cell_angle_alpha 90.000000
_cell_angle_beta 42.061412
_cell_angle_gamma 90.000000
_cell_volume 3435.381191
_symmetry_space_group_name_H-M "C 2/M"
_symmetry_group_IT_number 12
_symmetry_cell_setting 'monoclinic'
loop_
_space_group_symop_operation_xyz
x,y,z
-x,y,-z
-x,-y,-z
x,-y,z
1/2+x,1/2+y,z
1/2-x,1/2+y,-z
1/2-x,1/2-y,-z
1/2+x,1/2-y,z
loop_
_atom_site_type_symbol
_atom_site_label
_atom_site_fract_x
_atom_site_fract_y
_atom_site_fract_z
Si Si1 0.102409 0.671448 0.923133
Si Si2 0.942475 0.826298 0.403042
Si Si3 0.642375 0.834465 0.280482
Si Si4 0.313833 0.831473 0.842326
Si Si5 0.119407 0.169483 0.825377
Si Si6 0.832876 0.173385 0.364317
Si Si7 0.903982 0.673442 0.513152
Si Si8 0.510271 0.672489 0.784393
O O1 0.129529 0.500000 0.908310
O O2 0.200552 0.754213 0.900267
O O3 0.080217 0.728926 0.883765
O O4 0.000000 0.705253 0.000000
O O5 0.064462 0.783392 0.338404
O O6 0.871848 0.766769 0.394378
O O7 0.902822 0.750584 0.466148
O O8 0.933278 0.000000 0.413074
O O9 0.641740 0.816225 0.227945
O O10 0.759043 0.798872 0.244637
O O11 0.607542 0.000000 0.310381
O O12 0.397701 0.752483 0.835022
O O13 0.300727 0.000000 0.862964
O O14 0.050502 0.207271 0.814796
O O15 0.108790 0.000000 0.845784
O O16 0.709836 0.214032 0.411905
O O17 0.906455 0.238345 0.290604
O O18 0.847245 0.000000 0.358025
O O19 0.915923 0.500000 0.499891
O O20 0.000000 0.731052 0.500000
O O21 0.493947 0.500000 0.783784
#
# Coordination Sequence:
#
# PCOD8092901 Si02
#       8
#     8   8   8   8   8   8   8   8
#     4  10  21  38  61  86 115 153 192 228 271 328
#     4  11  21  34  54  77 106 140 179 227 281 333
#     4   9  18  33  53  79 107 139 184 226 268 327
#     4  10  20  35  57  86 116 146 186 231 272 324
#     4   9  20  35  57  86 116 149 184 232 281 325
#     4   9  19  35  55  79 105 141 183 224 276 335
#     4  10  22  38  57  76 101 141 185 230 281 338
#     4  10  19  35  58  83 117 149 182 229 284 340
#
# _framework density 18.629663999999998
#
# number of rings (size 3 to 8) (size 9 to 14) (size 15 to 20)
#    0.000    2.250    1.250    2.250    1.750    3.750 
#    0.000    1.875    0.000    0.000    0.000    0.000 
#    0.000    0.000    0.000    0.000    0.000    0.000 
#
# Total GULP energy -396826.319196 kJ/mol
# GULP energy per Si atom -12400.822475 kJ/mol
# Density = 1.858726 g / cm^3
# Si number density = 18.629664 Si / 1000 Ang^3
#
#
#
# Elastic Constant Matrix: (Units=GPa)
#
#
# Indices 1 2 3 4 5 6 
#
# 1 134.4130 54.9933 62.8159 -0.0001 -18.5600 0.0002
# 2 54.9933 67.8484 46.9227 -0.0001 -9.0557 -0.0012
# 3 62.8159 46.9227 99.9643 0.0000 -13.5333 0.0005
# 4 -0.0001 -0.0001 0.0000 27.8210 0.0001 2.2767
# 5 -18.5600 -9.0557 -13.5333 0.0001 18.5379 0.0002
# 6 0.0002 -0.0012 0.0005 2.2767 0.0002 27.5782
#
#
#
# Elastic Compliance Matrix: (Units=1/GPa)
#
#
# Indices 1 2 3 4 5 6 
#
# 1 0.013102 -0.006894 -0.004081 0.000000 0.006771 0.000000
# 2 -0.006894 0.025661 -0.007713 0.000000 0.000002 0.000001
# 3 -0.004081 -0.007713 0.016784 0.000000 0.004400 -0.000001
# 4 0.000000 0.000000 0.000000 0.036188 0.000000 -0.002988
# 5 0.006771 0.000002 0.004400 0.000000 0.063936 -0.000001
# 6 0.000000 0.000001 -0.000001 -0.002988 -0.000001 0.036507
#
#
# Mechanical properties :
#
#
# Convention : Reuss Voigt Hill
#
# Bulk Modulus (GPa) = 55.02877 70.18774 62.60826
# Shear Modulus (GPa) = 21.22151 23.95369 22.58760
#
# Velocity S-wave (km/s) = 3.37875 3.58967 3.48581
# Velocity P-wave (km/s) = 6.69505 7.41202 7.06264
#
# Compressibility (1/GPa) = 0.01817231
#
# Stress axis : x y z
#
# Youngs Moduli (GPa) = 76.32207 38.96994 59.58205
#
# Poissons Ratio (x) = 0.26866 0.24313
# Poissons Ratio (y) = 0.52617 0.45953
# Poissons Ratio (z) = 0.31144 0.30056
#
# Static dielectric constant tensor:
#      x y z
#    x 3.562410 0.000000 -0.146870 
#    y 0.000000 3.305110 0.000000 
#    z -0.146870 0.000000 3.369240 
# 
# 
# High freq. dielectric constant tensor:
#      x y z
#    x 1.728500 0.000000 -0.010190 
#    y 0.000000 1.710150 0.000000 
#    z -0.010190 0.000000 1.716070 
# 
# From -- ./inp_files/378202.got.cif
#   From: 2010.06.25/outbox.cif.g09.slc.cpg/sg12_190_cif.got.tgz:378202.got - 2010.06.28 00:19:55.
