data_PCOD8092475
_publ_section_title
;
Structure prediction by ZEFSAII (Michael W. Deem and Ramdas Pophale) SiO2 
 PCOD8092475
Probable space group: C 2/M
;
_chemical_formula_sum "Si O2"
_cell_formula_units_Z 56
_cell_length_a 31.269019
_cell_length_b 9.147055
_cell_length_c 11.634395
_cell_angle_alpha 90.000000
_cell_angle_beta 63.133714
_cell_angle_gamma 90.000000
_cell_volume 2968.487117
_symmetry_space_group_name_H-M "C 2/M"
_symmetry_group_IT_number 12
_symmetry_cell_setting 'monoclinic'
loop_
_space_group_symop_operation_xyz
x,y,z
-x,y,-z
-x,-y,-z
x,-y,z
1/2+x,1/2+y,z
1/2-x,1/2+y,-z
1/2-x,1/2-y,-z
1/2+x,1/2-y,z
loop_
_atom_site_type_symbol
_atom_site_label
_atom_site_fract_x
_atom_site_fract_y
_atom_site_fract_z
Si Si1 0.083595 0.172287 0.722434
Si Si2 0.866754 0.829800 0.573219
Si Si3 0.787117 0.671420 0.799908
Si Si4 0.953633 0.832065 0.632340
Si Si5 0.016522 0.331270 0.185567
Si Si6 0.306920 0.829926 0.034330
Si Si7 0.396028 0.167239 0.079563
O O1 0.115713 0.215922 0.574418
O O2 0.110851 0.230391 0.801703
O O3 0.031486 0.242119 0.775789
O O4 0.076294 0.000000 0.738690
O O5 0.819559 0.738616 0.660149
O O6 0.907779 0.788843 0.613809
O O7 0.854058 0.000000 0.594107
O O8 0.783533 0.500000 0.784700
O O9 0.734227 0.738144 0.852663
O O10 0.809731 0.712087 0.896432
O O11 0.954377 0.727160 0.740547
O O12 0.000000 0.802724 0.500000
O O13 0.952016 0.000000 0.675513
O O14 0.003438 0.500000 0.221175
O O15 0.050591 0.311503 0.034145
O O16 0.357365 0.787525 0.030308
O O17 0.294513 0.000000 0.063810
O O18 0.388157 0.000000 0.127231
#
# Coordination Sequence:
#
# PCOD8092475 Si02
#       7
#     8   8   8   8   8   8   8
#     4  11  23  39  56  78 111 151 194 232 270 327
#     4  10  21  37  56  79 113 151 183 224 280 329
#     4  10  20  35  60  90 114 139 180 226 273 335
#     4  10  19  35  55  78 112 147 183 226 272 325
#     4  11  22  36  56  83 114 147 186 232 282 330
#     4   9  19  38  60  83 115 145 175 224 282 331
#     4  10  22  39  57  80 111 147 187 232 280 328
#
# _framework density 18.864826999999998
#
# number of rings (size 3 to 8) (size 9 to 14) (size 15 to 20)
#    0.000    1.857    1.429    2.571    0.000    7.143 
#    0.000    0.714    0.000    0.000    0.000    0.000 
#    0.000    0.000    0.000    0.000    0.000    0.000 
#
# Total GULP energy -347333.875764 kJ/mol
# GULP energy per Si atom -12404.781277 kJ/mol
# Density = 1.882189 g / cm^3
# Si number density = 18.864827 Si / 1000 Ang^3
#
#
#
# Elastic Constant Matrix: (Units=GPa)
#
#
# Indices 1 2 3 4 5 6 
#
# 1 65.7321 44.9697 49.2221 0.0000 -3.9746 0.0000
# 2 44.9697 80.3175 58.7685 0.0000 -5.1442 0.0000
# 3 49.2221 58.7685 106.7272 0.0000 -6.3440 0.0000
# 4 0.0000 0.0000 0.0000 33.7707 0.0000 2.5904
# 5 -3.9746 -5.1442 -6.3440 0.0000 32.4876 0.0000
# 6 0.0000 0.0000 0.0000 2.5904 0.0000 30.1039
#
#
#
# Elastic Compliance Matrix: (Units=1/GPa)
#
#
# Indices 1 2 3 4 5 6 
#
# 1 0.027496 -0.010230 -0.007025 0.000000 0.000372 0.000000
# 2 -0.010230 0.024695 -0.008825 0.000000 0.000936 0.000000
# 3 -0.007025 -0.008825 0.017538 0.000000 0.001168 0.000000
# 4 0.000000 0.000000 0.000000 0.029808 0.000000 -0.002565
# 5 0.000372 0.000936 0.001168 0.000000 0.031203 0.000000
# 6 0.000000 0.000000 0.000000 -0.002565 0.000000 0.033439
#
#
# Mechanical properties :
#
#
# Convention : Reuss Voigt Hill
#
# Bulk Modulus (GPa) = 56.91951 62.07750 59.49851
# Shear Modulus (GPa) = 22.50262 25.92686 24.21474
#
# Velocity S-wave (km/s) = 3.45749 3.71124 3.58661
# Velocity P-wave (km/s) = 6.79535 7.16536 6.98281
#
# Compressibility (1/GPa) = 0.01756867
#
# Stress axis : x y z
#
# Youngs Moduli (GPa) = 36.36944 40.49326 57.01784
#
# Poissons Ratio (x) = 0.41426 0.40057
# Poissons Ratio (y) = 0.37207 0.50316
# Poissons Ratio (z) = 0.25551 0.35733
#
# Static dielectric constant tensor:
#      x y z
#    x 3.501070 0.000000 0.059500 
#    y 0.000000 3.453030 0.000000 
#    z 0.059500 0.000000 3.497200 
# 
# 
# High freq. dielectric constant tensor:
#      x y z
#    x 1.728240 0.000000 -0.002290 
#    y 0.000000 1.735600 0.000000 
#    z -0.002290 0.000000 1.733560 
# 
# From -- ./inp_files/181140.got.cif
#   From: 2010.06.25/outbox.cif.g09.slc.cpg/sg12_91_cif.got.tgz:181140.got - 2010.06.28 00:19:55.
