data_PCOD8092094
_publ_section_title
;
Structure prediction by ZEFSAII (Michael W. Deem and Ramdas Pophale) SiO2 
 PCOD8092094
Probable space group: C 2/M
;
_chemical_formula_sum "Si O2"
_cell_formula_units_Z 56
_cell_length_a 25.097197
_cell_length_b 9.240378
_cell_length_c 14.507869
_cell_angle_alpha 90.000000
_cell_angle_beta 59.649617
_cell_angle_gamma 90.000000
_cell_volume 2903.387490
_symmetry_space_group_name_H-M "C 2/M"
_symmetry_group_IT_number 12
_symmetry_cell_setting 'monoclinic'
loop_
_space_group_symop_operation_xyz
x,y,z
-x,y,-z
-x,-y,-z
x,-y,z
1/2+x,1/2+y,z
1/2-x,1/2+y,-z
1/2-x,1/2-y,-z
1/2+x,1/2-y,z
loop_
_atom_site_type_symbol
_atom_site_label
_atom_site_fract_x
_atom_site_fract_y
_atom_site_fract_z
Si Si1 0.571834 0.168778 0.700849
Si Si2 0.745402 0.167579 0.785964
Si Si3 0.529190 0.162215 0.073466
Si Si4 0.512727 0.830945 0.388252
Si Si5 0.790858 0.671684 0.388685
Si Si6 0.848487 0.168983 0.004062
Si Si7 0.868390 0.165100 0.778515
O O1 0.521147 0.235190 0.814561
O O2 0.548839 0.200562 0.617282
O O3 0.639691 0.233661 0.658572
O O4 0.575842 0.000000 0.719466
O O5 0.732465 0.215638 0.692500
O O6 0.817416 0.195301 0.744633
O O7 0.727524 0.000000 0.815974
O O8 0.706848 0.260846 0.891276
O O9 0.587856 0.264237 0.016856
O O10 0.548029 0.000000 0.090996
O O11 0.500000 0.151349 0.000000
O O12 0.500000 0.763812 0.500000
O O13 0.572306 0.762895 0.289110
O O14 0.526725 0.000000 0.382968
O O15 0.786967 0.500000 0.407977
O O16 0.750000 0.750000 0.500000
O O17 0.839108 0.200803 0.903831
O O18 0.849196 0.000000 0.025210
O O19 0.890930 0.000000 0.755423
#
# Coordination Sequence:
#
# PCOD8092094 Si02
#       7
#     8   8   8   8   8   8   8
#     4   9  18  35  56  81 112 143 183 231 276 332
#     4  10  22  40  60  82 115 158 198 233 281 348
#     4  10  19  34  59  84 110 152 194 228 278 343
#     4  10  21  36  58  86 112 147 192 237 285 338
#     4  10  22  40  61  85 113 148 192 239 284 336
#     4  11  22  36  56  87 120 148 187 241 294 338
#     4  10  22  39  58  85 119 153 190 237 291 345
#
# _framework density 19.287814999999998
#
# number of rings (size 3 to 8) (size 9 to 14) (size 15 to 20)
#    0.000    2.000    1.429    1.714    2.000    4.571 
#    0.000    1.429    0.000    0.000    0.000    0.000 
#    0.000    0.000    0.000    0.000    0.000    0.000 
#
# Total GULP energy -347236.366345 kJ/mol
# GULP energy per Si atom -12401.298798 kJ/mol
# Density = 1.924392 g / cm^3
# Si number density = 19.287815 Si / 1000 Ang^3
#
#
#
# Elastic Constant Matrix: (Units=GPa)
#
#
# Indices 1 2 3 4 5 6 
#
# 1 118.5944 37.1408 35.2902 0.0000 6.9057 0.0000
# 2 37.1408 57.3920 38.4113 0.0000 -0.1446 -0.0001
# 3 35.2902 38.4113 96.3043 0.0000 7.6427 0.0000
# 4 0.0000 0.0000 0.0000 36.5788 0.0000 11.0680
# 5 6.9057 -0.1446 7.6427 0.0000 33.4413 0.0000
# 6 0.0000 -0.0001 0.0000 11.0680 0.0000 72.1888
#
#
#
# Elastic Compliance Matrix: (Units=1/GPa)
#
#
# Indices 1 2 3 4 5 6 
#
# 1 0.010874 -0.006110 -0.001393 0.000000 -0.001954 0.000000
# 2 -0.006110 0.027379 -0.008953 0.000000 0.003426 0.000000
# 3 -0.001393 -0.008953 0.014712 0.000000 -0.003113 0.000000
# 4 0.000000 0.000000 0.000000 0.028668 0.000000 -0.004395
# 5 -0.001954 0.003426 -0.003113 0.000000 0.031033 0.000000
# 6 0.000000 0.000000 0.000000 -0.004395 0.000000 0.014526
#
#
# Mechanical properties :
#
#
# Convention : Reuss Voigt Hill
#
# Bulk Modulus (GPa) = 49.86649 54.88612 52.37631
# Shear Modulus (GPa) = 29.97828 39.20500 34.59164
#
# Velocity S-wave (km/s) = 3.94669 4.51336 4.23950
# Velocity P-wave (km/s) = 6.83216 7.46182 7.15392
#
# Compressibility (1/GPa) = 0.02005355
#
# Stress axis : x y z
#
# Youngs Moduli (GPa) = 91.96533 36.52489 67.97093
#
# Poissons Ratio (x) = 0.22315 0.09467
# Poissons Ratio (y) = 0.56187 0.60855
# Poissons Ratio (z) = 0.12808 0.32701
#
# Static dielectric constant tensor:
#      x y z
#    x 3.766190 0.000000 0.119290 
#    y 0.000000 3.382030 0.000000 
#    z 0.119290 0.000000 3.576290 
# 
# 
# High freq. dielectric constant tensor:
#      x y z
#    x 1.764370 0.000000 0.006300 
#    y 0.000000 1.726640 0.000000 
#    z 0.006300 0.000000 1.757150 
# 
# From -- ./inp_files/238419.got.cif
#   From: 2010.06.25/outbox.cif.g09.slc.cpg/sg12_120_cif.got.tgz:238419.got - 2010.06.28 00:19:55.
