data_PCOD8092754
_publ_section_title
;
Structure prediction by ZEFSAII (Michael W. Deem and Ramdas Pophale) SiO2 
 PCOD8092754
Probable space group: C 2/M
;
_chemical_formula_sum "Si O2"
_cell_formula_units_Z 56
_cell_length_a 22.038901
_cell_length_b 13.060050
_cell_length_c 10.715639
_cell_angle_alpha 90.000000
_cell_angle_beta 75.744951
_cell_angle_gamma 90.000000
_cell_volume 2989.306058
_symmetry_space_group_name_H-M "C 2/M"
_symmetry_group_IT_number 12
_symmetry_cell_setting 'monoclinic'
loop_
_space_group_symop_operation_xyz
x,y,z
-x,y,-z
-x,-y,-z
x,-y,z
1/2+x,1/2+y,z
1/2-x,1/2+y,-z
1/2-x,1/2-y,-z
1/2+x,1/2-y,z
loop_
_atom_site_type_symbol
_atom_site_label
_atom_site_fract_x
_atom_site_fract_y
_atom_site_fract_z
Si Si1 0.892459 0.120748 0.709529
Si Si2 0.766301 0.386302 0.585970
Si Si3 0.157245 0.745890 0.048321
Si Si4 0.010122 0.740422 0.636507
Si Si5 0.257923 0.615814 0.121183
Si Si6 0.351242 0.296437 0.471572
Si Si7 0.462458 0.115789 0.891228
O O1 0.850065 0.175767 0.833591
O O2 0.858079 0.144609 0.597838
O O3 0.963215 0.163956 0.676003
O O4 0.895549 0.000000 0.732529
O O5 0.783200 0.500000 0.531315
O O6 0.774275 0.376405 0.729116
O O7 0.693572 0.364792 0.591699
O O8 0.817171 0.313076 0.498338
O O9 0.208091 0.658035 0.047533
O O10 0.093988 0.689848 0.047020
O O11 0.179600 0.814204 0.919168
O O12 0.080561 0.780306 0.623108
O O13 0.000000 0.695346 0.500000
O O14 0.997849 0.654871 0.748488
O O15 0.275752 0.500000 0.077829
O O16 0.440797 0.000000 0.872369
O O17 0.500000 0.118277 0.000000
#
# Coordination Sequence:
#
# PCOD8092754 Si02
#       7
#     8   8   8   8   8   8   8
#     4  10  19  35  57  83 110 142 182 226 273 327
#     4  10  21  35  54  79 111 147 180 221 273 325
#     4  10  20  36  57  80 111 142 179 228 269 322
#     4   9  21  37  58  85 110 143 184 231 276 326
#     4  10  20  35  57  81 106 144 184 221 269 323
#     4  10  20  36  55  80 112 144 180 227 275 320
#     4  10  22  39  59  83 112 147 183 226 280 332
#
# _framework density 18.733446000000001
#
# number of rings (size 3 to 8) (size 9 to 14) (size 15 to 20)
#    0.000    2.143    1.429    1.286    2.000    4.000 
#    0.000    0.000    0.000    2.143    0.000    0.000 
#    0.000    0.000    0.000    0.000    0.000    0.000 
#
# Total GULP energy -347109.895686 kJ/mol
# GULP energy per Si atom -12396.781989 kJ/mol
# Density = 1.869081 g / cm^3
# Si number density = 18.733446 Si / 1000 Ang^3
#
#
#
# Elastic Constant Matrix: (Units=GPa)
#
#
# Indices 1 2 3 4 5 6 
#
# 1 71.4038 24.1444 2.2005 0.0000 -5.9297 0.0000
# 2 24.1444 122.9093 28.6851 0.0000 1.6223 0.0000
# 3 2.2005 28.6851 47.4552 0.0000 -1.1036 0.0000
# 4 0.0000 0.0000 0.0000 25.3995 0.0000 0.8305
# 5 -5.9297 1.6223 -1.1036 0.0000 25.0393 0.0000
# 6 0.0000 0.0000 0.0000 0.8305 0.0000 21.6364
#
#
#
# Elastic Compliance Matrix: (Units=1/GPa)
#
#
# Indices 1 2 3 4 5 6 
#
# 1 0.015445 -0.003423 0.001445 0.000000 0.003943 0.000000
# 2 -0.003423 0.010250 -0.006078 0.000000 -0.001743 0.000000
# 3 0.001445 -0.006078 0.024722 0.000000 0.001826 0.000000
# 4 0.000000 0.000000 0.000000 0.039420 0.000000 -0.001513
# 5 0.003943 -0.001743 0.001826 0.000000 0.041064 0.000000
# 6 0.000000 0.000000 0.000000 -0.001513 0.000000 0.046277
#
#
# Mechanical properties :
#
#
# Convention : Reuss Voigt Hill
#
# Bulk Modulus (GPa) = 29.15047 39.09204 34.12126
# Shear Modulus (GPa) = 24.42298 26.86427 25.64363
#
# Velocity S-wave (km/s) = 3.61461 3.79096 3.70384
# Velocity P-wave (km/s) = 5.74587 6.33046 6.04523
#
# Compressibility (1/GPa) = 0.03430477
#
# Stress axis : x y z
#
# Youngs Moduli (GPa) = 64.74439 97.56120 40.45038
#
# Poissons Ratio (x) = 0.33399 -0.05844
# Poissons Ratio (y) = 0.22164 0.24584
# Poissons Ratio (z) = -0.09354 0.59293
#
# Static dielectric constant tensor:
#      x y z
#    x 3.433770 0.000000 -0.080210 
#    y 0.000000 3.545240 0.000000 
#    z -0.080210 0.000000 3.436380 
# 
# 
# High freq. dielectric constant tensor:
#      x y z
#    x 1.728470 0.000000 -0.005300 
#    y 0.000000 1.734230 0.000000 
#    z -0.005300 0.000000 1.722880 
# 
# From -- ./inp_files/164877.got.cif
#   From: 2010.06.25/outbox.cif.g09.slc.cpg/sg12_83_cif.got.tgz:164877.got - 2010.06.28 00:19:55.
