data_PCOD8092818
_publ_section_title
;
Structure prediction by ZEFSAII (Michael W. Deem and Ramdas Pophale) SiO2 
 PCOD8092818
Probable space group: C 2/M
;
_chemical_formula_sum "Si O2"
_cell_formula_units_Z 64
_cell_length_a 29.672332
_cell_length_b 9.121031
_cell_length_c 12.758382
_cell_angle_alpha 90.000000
_cell_angle_beta 100.256819
_cell_angle_gamma 90.000000
_cell_volume 3397.777398
_symmetry_space_group_name_H-M "C 2/M"
_symmetry_group_IT_number 12
_symmetry_cell_setting 'monoclinic'
loop_
_space_group_symop_operation_xyz
x,y,z
-x,y,-z
-x,-y,-z
x,-y,z
1/2+x,1/2+y,z
1/2-x,1/2+y,-z
1/2-x,1/2-y,-z
1/2+x,1/2-y,z
loop_
_atom_site_type_symbol
_atom_site_label
_atom_site_fract_x
_atom_site_fract_y
_atom_site_fract_z
Si Si1 0.048717 0.172246 0.052607
Si Si2 0.685231 0.326328 0.803428
Si Si3 0.359285 0.674191 0.429884
Si Si4 0.548049 0.168262 0.478706
Si Si5 0.072781 0.661298 0.260271
Si Si6 0.326847 0.833998 0.612027
Si Si7 0.787396 0.673069 0.809951
Si Si8 0.856053 0.174468 0.995977
O O1 0.057610 0.213052 0.175808
O O2 0.091181 0.226065 0.997953
O O3 0.045047 0.000000 0.042608
O O4 0.000000 0.244093 0.000000
O O5 0.683751 0.500000 0.800780
O O6 0.660311 0.267379 0.688795
O O7 0.737769 0.272842 0.828085
O O8 0.659963 0.266536 0.897002
O O9 0.360503 0.500000 0.436299
O O10 0.410538 0.734790 0.460761
O O11 0.325940 0.730386 0.509556
O O12 0.500000 0.230543 0.500000
O O13 0.543114 0.179906 0.352164
O O14 0.556632 0.000000 0.517196
O O15 0.064793 0.500000 0.207130
O O16 0.125363 0.681801 0.309489
O O17 0.290135 0.789077 0.686234
O O18 0.319020 0.000000 0.569242
O O19 0.794898 0.500000 0.829424
O O20 0.825491 0.756999 0.891914
O O21 0.851256 0.000000 0.985801
#
# Coordination Sequence:
#
# PCOD8092818 Si02
#       8
#     8   8   8   8   8   8   8   8
#     4  10  21  34  50  75 105 138 172 212 266 320
#     4   9  20  36  53  77 111 146 175 220 276 322
#     4  10  20  34  53  79 110 142 179 219 265 321
#     4   9  19  36  56  77 104 139 178 220 269 318
#     4   9  17  32  52  74  99 131 170 214 260 305
#     4   9  18  33  54  77 104 138 174 219 269 315
#     4  10  19  35  58  79 103 140 184 221 268 326
#     4  10  20  36  55  76 107 141 178 224 271 316
#
# _framework density 18.835840999999999
#
# number of rings (size 3 to 8) (size 9 to 14) (size 15 to 20)
#    0.000    2.500    1.250    1.500    0.000    4.500 
#    0.000    3.750    0.000    0.000    0.000    0.000 
#    0.000    0.000    0.000    0.000    0.000    0.000 
#
# Total GULP energy -396698.571920 kJ/mol
# GULP energy per Si atom -12396.830373 kJ/mol
# Density = 1.879297 g / cm^3
# Si number density = 18.835841 Si / 1000 Ang^3
#
#
#
# Elastic Constant Matrix: (Units=GPa)
#
#
# Indices 1 2 3 4 5 6 
#
# 1 126.8482 31.8938 60.0585 0.0000 -17.9264 0.0000
# 2 31.8938 36.9567 34.3718 0.0000 -0.4109 0.0000
# 3 60.0585 34.3718 110.3320 0.0000 -4.9942 0.0000
# 4 0.0000 0.0000 0.0000 24.8555 0.0000 -2.3023
# 5 -17.9264 -0.4109 -4.9942 0.0000 18.0461 0.0000
# 6 0.0000 0.0000 0.0000 -2.3023 0.0000 17.5075
#
#
#
# Elastic Compliance Matrix: (Units=1/GPa)
#
#
# Indices 1 2 3 4 5 6 
#
# 1 0.013602 -0.007359 -0.004565 0.000000 0.012081 0.000000
# 2 -0.007359 0.042185 -0.009543 0.000000 -0.008991 0.000000
# 3 -0.004565 -0.009543 0.014488 0.000000 -0.000743 0.000000
# 4 0.000000 0.000000 0.000000 0.040729 0.000000 0.005356
# 5 0.012081 -0.008991 -0.000743 0.000000 0.067005 0.000000
# 6 0.000000 0.000000 0.000000 0.005356 0.000000 0.057823
#
#
# Mechanical properties :
#
#
# Convention : Reuss Voigt Hill
#
# Bulk Modulus (GPa) = 36.57473 58.53169 47.55321
# Shear Modulus (GPa) = 17.36837 21.93602 19.65219
#
# Velocity S-wave (km/s) = 3.03989 3.41631 3.23358
# Velocity P-wave (km/s) = 5.63747 6.83401 6.26437
#
# Compressibility (1/GPa) = 0.02734128
#
# Stress axis : x y z
#
# Youngs Moduli (GPa) = 73.51612 23.70499 69.02334
#
# Poissons Ratio (x) = 0.17444 0.31509
# Poissons Ratio (y) = 0.54100 0.65870
# Poissons Ratio (z) = 0.33560 0.22622
#
# Static dielectric constant tensor:
#      x y z
#    x 3.729640 0.000000 -0.258120 
#    y 0.000000 3.238810 0.000000 
#    z -0.258120 0.000000 3.601180 
# 
# 
# High freq. dielectric constant tensor:
#      x y z
#    x 1.737050 0.000000 -0.013910 
#    y 0.000000 1.709440 0.000000 
#    z -0.013910 0.000000 1.733400 
# 
# From -- ./inp_files/187609.got.cif
#   From: 2010.06.25/outbox.cif.g09.slc.cpg/sg12_94_cif.got.tgz:187609.got - 2010.06.28 00:19:55.
