data_PCOD8092772
_publ_section_title
;
Structure prediction by ZEFSAII (Michael W. Deem and Ramdas Pophale) SiO2 
 PCOD8092772
Probable space group: C 2/M
;
_chemical_formula_sum "Si O2"
_cell_formula_units_Z 56
_cell_length_a 23.178271
_cell_length_b 21.093365
_cell_length_c 9.772200
_cell_angle_alpha 90.000000
_cell_angle_beta 143.568549
_cell_angle_gamma 90.000000
_cell_volume 2837.290343
_symmetry_space_group_name_H-M "C 2/M"
_symmetry_group_IT_number 12
_symmetry_cell_setting 'monoclinic'
loop_
_space_group_symop_operation_xyz
x,y,z
-x,y,-z
-x,-y,-z
x,-y,z
1/2+x,1/2+y,z
1/2-x,1/2+y,-z
1/2-x,1/2-y,-z
1/2+x,1/2-y,z
loop_
_atom_site_type_symbol
_atom_site_label
_atom_site_fract_x
_atom_site_fract_y
_atom_site_fract_z
Si Si1 0.609548 0.688500 0.697172
Si Si2 0.405624 0.928644 0.390466
Si Si3 0.579744 0.725787 0.343903
Si Si4 0.180778 0.650069 0.525413
Si Si5 0.253520 0.144608 0.634134
Si Si6 0.270111 0.570550 0.145223
Si Si7 0.643975 0.732848 0.049966
O O1 0.500000 0.666533 0.500000
O O2 0.622148 0.726583 0.580465
O O3 0.663898 0.621703 0.804265
O O4 0.642573 0.735811 0.881388
O O5 0.500000 0.895827 0.500000
O O6 0.368451 0.893987 0.455679
O O7 0.431113 0.000000 0.486244
O O8 0.330073 0.928911 0.124621
O O9 0.605496 0.795011 0.338026
O O10 0.645345 0.672820 0.392449
O O11 0.464902 0.714033 0.105883
O O12 0.202116 0.615357 0.421051
O O13 0.283867 0.676737 0.772285
O O14 0.246919 0.087678 0.728645
O O15 0.322209 0.200137 0.826525
O O16 0.316871 0.500000 0.228189
#
# Coordination Sequence:
#
# PCOD8092772 Si02
#       7
#     8   8   8   8   8   8   8
#     4   9  18  33  57  89 110 143 181 226 278 329
#     4  10  23  41  60  81 106 143 192 239 277 318
#     4   9  20  33  54  86 118 144 181 222 278 329
#     4  11  22  36  58  83 113 149 185 223 276 336
#     4  10  23  35  53  87 114 148 186 220 276 335
#     4  10  21  39  58  78 109 147 187 233 276 317
#     4  10  19  35  57  83 120 147 178 226 274 336
#
# _framework density 19.737141000000001
#
# number of rings (size 3 to 8) (size 9 to 14) (size 15 to 20)
#    0.000    2.143    1.429    1.714    4.000    5.429 
#    0.000    0.000    0.000    2.571    0.000    4.000 
#    0.000    0.000    0.000    0.000    0.000    0.000 
#
# Total GULP energy -347028.389831 kJ/mol
# GULP energy per Si atom -12393.871065 kJ/mol
# Density = 1.969222 g / cm^3
# Si number density = 19.737141 Si / 1000 Ang^3
#
#
#
# Elastic Constant Matrix: (Units=GPa)
#
#
# Indices 1 2 3 4 5 6 
#
# 1 120.7294 21.5209 31.2018 0.0000 0.0559 0.0000
# 2 21.5209 48.6669 15.3181 0.0000 0.1303 0.0000
# 3 31.2018 15.3181 64.9273 0.0000 11.8307 0.0000
# 4 0.0000 0.0000 0.0000 10.5991 0.0000 5.2649
# 5 0.0559 0.1303 11.8307 0.0000 19.1234 0.0000
# 6 0.0000 0.0000 0.0000 5.2649 0.0000 17.4511
#
#
#
# Elastic Compliance Matrix: (Units=1/GPa)
#
#
# Indices 1 2 3 4 5 6 
#
# 1 0.010008 -0.002977 -0.004627 0.000000 0.002854 0.000000
# 2 -0.002977 0.023289 -0.004549 0.000000 0.002665 0.000000
# 3 -0.004627 -0.004549 0.021065 0.000000 -0.012988 0.000000
# 4 0.000000 0.000000 0.000000 0.110979 0.000000 -0.033482
# 5 0.002854 0.002665 -0.012988 0.000000 0.060300 0.000000
# 6 0.000000 0.000000 0.000000 -0.033482 0.000000 0.067404
#
#
# Mechanical properties :
#
#
# Convention : Reuss Voigt Hill
#
# Bulk Modulus (GPa) = 33.27179 41.15615 37.21397
# Shear Modulus (GPa) = 15.27313 20.52024 17.89669
#
# Velocity S-wave (km/s) = 2.78479 3.22790 3.01450
# Velocity P-wave (km/s) = 5.21863 5.89829 5.56884
#
# Compressibility (1/GPa) = 0.03005549
#
# Stress axis : x y z
#
# Youngs Moduli (GPa) = 99.91801 42.93858 47.47119
#
# Poissons Ratio (x) = 0.12782 0.21966
# Poissons Ratio (y) = 0.29745 0.21597
# Poissons Ratio (z) = 0.46235 0.19535
#
# Static dielectric constant tensor:
#      x y z
#    x 4.055870 0.000000 -0.051930 
#    y 0.000000 3.364860 0.000000 
#    z -0.051930 0.000000 3.654980 
# 
# 
# High freq. dielectric constant tensor:
#      x y z
#    x 1.789530 0.000000 0.000180 
#    y 0.000000 1.732490 0.000000 
#    z 0.000180 0.000000 1.774360 
# 
# From -- ./inp_files/99715.got.cif
#   From: 2010.06.25/outbox.cif.g09.slc.cpg/sg12_50_cif.got.tgz:99715.got - 2010.06.28 00:19:55.
