data_PCOD8092568
_publ_section_title
;
Structure prediction by ZEFSAII (Michael W. Deem and Ramdas Pophale) SiO2 
 PCOD8092568
Probable space group: C 2/M
;
_chemical_formula_sum "Si O2"
_cell_formula_units_Z 64
_cell_length_a 12.756763
_cell_length_b 13.549136
_cell_length_c 30.440849
_cell_angle_alpha 90.000000
_cell_angle_beta 138.240147
_cell_angle_gamma 90.000000
_cell_volume 3504.205523
_symmetry_space_group_name_H-M "C 2/M"
_symmetry_group_IT_number 12
_symmetry_cell_setting 'monoclinic'
loop_
_space_group_symop_operation_xyz
x,y,z
-x,y,-z
-x,-y,-z
x,-y,z
1/2+x,1/2+y,z
1/2-x,1/2+y,-z
1/2-x,1/2-y,-z
1/2+x,1/2-y,z
loop_
_atom_site_type_symbol
_atom_site_label
_atom_site_fract_x
_atom_site_fract_y
_atom_site_fract_z
Si Si1 0.293002 0.323453 0.975249
Si Si2 0.130341 0.794739 0.096597
Si Si3 0.965261 0.749099 0.339164
Si Si4 0.320223 0.114314 0.738386
Si Si5 0.755056 0.887179 0.587832
Si Si6 0.968851 0.613000 0.561407
Si Si7 0.397339 0.885361 0.237600
Si Si8 0.462446 0.891744 0.876851
O O1 0.294672 0.272650 0.927621
O O2 0.152608 0.403119 0.931612
O O3 0.250000 0.250000 0.000000
O O4 0.470258 0.360790 0.041475
O O5 0.244722 0.859542 0.161654
O O6 0.093779 0.687333 0.105172
O O7 0.830933 0.818159 0.317870
O O8 0.046990 0.684467 0.402294
O O9 0.891287 0.677386 0.279954
O O10 0.096665 0.817337 0.357886
O O11 0.446664 0.140747 0.740758
O O12 0.391712 0.139814 0.808064
O O13 0.270450 0.000000 0.719778
O O14 0.678059 0.866765 0.516368
O O15 0.630745 0.864471 0.587018
O O16 0.812240 0.000000 0.608657
O O17 0.965816 0.500000 0.576749
O O18 0.391336 0.000000 0.248233
O O19 0.399676 0.000000 0.871306
#
# Coordination Sequence:
#
# PCOD8092568 Si02
#       8
#     8   8   8   8   8   8   8   8
#     4   9  19  34  57  78 104 135 177 223 265 314
#     4  10  19  36  55  80 103 140 180 222 267 320
#     4  12  20  34  56  82 108 143 181 219 267 315
#     4  10  21  35  52  77 108 142 178 216 262 321
#     4   9  19  36  57  81 107 141 182 222 262 316
#     4   9  19  36  56  80 111 141 177 222 268 312
#     4  11  23  36  52  77 111 144 179 220 269 323
#     4  10  19  35  56  79 104 138 175 218 269 316
#
# _framework density 18.263767999999999
#
# number of rings (size 3 to 8) (size 9 to 14) (size 15 to 20)
#    0.000    2.000    2.500    2.625    0.000    0.500 
#    0.000    6.250    0.000    4.500    0.000   10.500 
#    0.000    0.000    0.000    0.000    0.000    0.000 
#
# Total GULP energy -396682.082799 kJ/mol
# GULP energy per Si atom -12396.315087 kJ/mol
# Density = 1.822220 g / cm^3
# Si number density = 18.263768 Si / 1000 Ang^3
#
#
#
# Elastic Constant Matrix: (Units=GPa)
#
#
# Indices 1 2 3 4 5 6 
#
# 1 65.1623 31.0649 13.4983 0.0000 -0.2975 0.0000
# 2 31.0649 73.7554 26.6834 0.0000 4.5314 0.0000
# 3 13.4983 26.6834 58.7331 0.0000 1.4977 0.0000
# 4 0.0000 0.0000 0.0000 17.7986 0.0000 8.5226
# 5 -0.2975 4.5314 1.4977 0.0000 33.3733 0.0000
# 6 0.0000 0.0000 0.0000 8.5226 0.0000 21.3406
#
#
#
# Elastic Compliance Matrix: (Units=1/GPa)
#
#
# Indices 1 2 3 4 5 6 
#
# 1 0.019295 -0.007885 -0.000885 0.000000 0.001282 0.000000
# 2 -0.007885 0.019566 -0.007015 0.000000 -0.002412 0.000000
# 3 -0.000885 -0.007015 0.020416 0.000000 0.000028 0.000000
# 4 0.000000 0.000000 0.000000 0.069469 0.000000 -0.027743
# 5 0.001282 -0.002412 0.000028 0.000000 0.030302 0.000000
# 6 0.000000 0.000000 0.000000 -0.027743 0.000000 0.057939
#
#
# Mechanical properties :
#
#
# Convention : Reuss Voigt Hill
#
# Bulk Modulus (GPa) = 36.09363 37.79377 36.94370
# Shear Modulus (GPa) = 19.39551 22.92943 21.16247
#
# Velocity S-wave (km/s) = 3.26232 3.54709 3.40768
# Velocity P-wave (km/s) = 5.83058 6.12487 5.97953
#
# Compressibility (1/GPa) = 0.02770572
#
# Stress axis : x y z
#
# Youngs Moduli (GPa) = 51.82788 51.10962 48.98140
#
# Poissons Ratio (x) = 0.40302 0.04333
# Poissons Ratio (y) = 0.40869 0.34362
# Poissons Ratio (z) = 0.04585 0.35855
#
# Static dielectric constant tensor:
#      x y z
#    x 3.422400 0.000000 0.112110 
#    y 0.000000 3.231280 0.000000 
#    z 0.112110 0.000000 3.470110 
# 
# 
# High freq. dielectric constant tensor:
#      x y z
#    x 1.707690 0.000000 0.002360 
#    y 0.000000 1.699130 0.000000 
#    z 0.002360 0.000000 1.715260 
# 
# From -- ./inp_files/358388.got.cif
#   From: 2010.06.25/outbox.cif.g09.slc.cpg/sg12_180_cif.got.tgz:358388.got - 2010.06.28 00:19:55.
