data_PCOD8092569
_publ_section_title
;
Structure prediction by ZEFSAII (Michael W. Deem and Ramdas Pophale) SiO2 
 PCOD8092569
Probable space group: C 2/M
;
_chemical_formula_sum "Si O2"
_cell_formula_units_Z 48
_cell_length_a 14.224753
_cell_length_b 8.486220
_cell_length_c 29.935167
_cell_angle_alpha 90.000000
_cell_angle_beta 45.045540
_cell_angle_gamma 90.000000
_cell_volume 2557.234888
_symmetry_space_group_name_H-M "C 2/M"
_symmetry_group_IT_number 12
_symmetry_cell_setting 'monoclinic'
loop_
_space_group_symop_operation_xyz
x,y,z
-x,y,-z
-x,-y,-z
x,-y,z
1/2+x,1/2+y,z
1/2-x,1/2+y,-z
1/2-x,1/2-y,-z
1/2+x,1/2-y,z
loop_
_atom_site_type_symbol
_atom_site_label
_atom_site_fract_x
_atom_site_fract_y
_atom_site_fract_z
Si Si1 0.646302 0.314385 0.499690
Si Si2 0.154721 0.315422 0.730717
Si Si3 0.145381 0.812872 0.831055
Si Si4 0.638684 0.187473 0.070069
Si Si5 0.860829 0.316255 0.593605
Si Si6 0.144237 0.314454 0.168314
O O1 0.648865 0.500000 0.499544
O O2 0.750000 0.250000 0.500000
O O3 0.687794 0.257127 0.436618
O O4 0.500053 0.257084 0.562352
O O5 0.179544 0.500000 0.714727
O O6 0.181137 0.274172 0.773243
O O7 0.252400 0.215065 0.667564
O O8 0.004977 0.265106 0.767754
O O9 0.250345 0.745719 0.832018
O O10 0.000400 0.765367 0.897519
O O11 0.155586 0.000000 0.821149
O O12 0.675540 0.245585 0.107703
O O13 0.625289 0.000000 0.071898
O O14 0.750000 0.250000 0.000000
O O15 0.881545 0.500000 0.579726
O O16 0.156315 0.500000 0.164168
#
# Coordination Sequence:
#
# PCOD8092569 Si02
#       6
#     8   8   8   8   8   8
#     4  11  22  39  60  84 113 148 186 231 281 332
#     4  10  20  37  56  79 110 145 180 222 272 325
#     4  10  19  35  56  79 104 138 180 224 268 321
#     4  10  20  36  54  77 106 140 176 218 268 323
#     4  11  22  38  58  84 114 148 188 231 276 330
#     4   8  18  35  55  75 104 141 177 214 265 323
#
# _framework density 18.770274000000001
#
# number of rings (size 3 to 8) (size 9 to 14) (size 15 to 20)
#    0.000    2.000    0.000    6.500    0.000    2.000 
#    0.000   18.333    0.000    0.000    0.000    0.000 
#    0.000    0.000    0.000    0.000    0.000    0.000 
#
# Total GULP energy -297638.738659 kJ/mol
# GULP energy per Si atom -12401.614111 kJ/mol
# Density = 1.872755 g / cm^3
# Si number density = 18.770274 Si / 1000 Ang^3
#
#
#
# Elastic Constant Matrix: (Units=GPa)
#
#
# Indices 1 2 3 4 5 6 
#
# 1 179.8035 39.4534 64.0162 -0.0003 -8.5637 -0.0003
# 2 39.4534 103.6752 25.5265 -0.0007 -2.8287 -0.0001
# 3 64.0162 25.5265 133.1802 0.0001 -7.6928 0.0002
# 4 -0.0003 -0.0007 0.0001 34.6621 -0.0002 0.1617
# 5 -8.5637 -2.8287 -7.6928 -0.0002 14.0044 -0.0003
# 6 -0.0003 -0.0001 0.0002 0.1617 -0.0003 29.8882
#
#
#
# Elastic Compliance Matrix: (Units=1/GPa)
#
#
# Indices 1 2 3 4 5 6 
#
# 1 0.007140 -0.001932 -0.002925 0.000000 0.002369 0.000000
# 2 -0.001932 0.010660 -0.001093 0.000000 0.000371 0.000000
# 3 -0.002925 -0.001093 0.009303 0.000000 0.003101 0.000000
# 4 0.000000 0.000000 0.000000 0.028851 0.000000 -0.000156
# 5 0.002369 0.000371 0.003101 0.000000 0.074633 0.000001
# 6 0.000000 0.000000 0.000000 -0.000156 0.000001 0.033459
#
#
# Mechanical properties :
#
#
# Convention : Reuss Voigt Hill
#
# Bulk Modulus (GPa) = 65.77643 74.96125 70.36884
# Shear Modulus (GPa) = 27.62229 34.88845 31.25537
#
# Velocity S-wave (km/s) = 3.84030 4.31595 4.08505
# Velocity P-wave (km/s) = 7.40154 8.05353 7.73441
#
# Compressibility (1/GPa) = 0.01520301
#
# Stress axis : x y z
#
# Youngs Moduli (GPa) = 140.06113 93.80802 107.49155
#
# Poissons Ratio (x) = 0.18126 0.31438
# Poissons Ratio (y) = 0.27064 0.11748
# Poissons Ratio (z) = 0.40963 0.10253
#
# Static dielectric constant tensor:
#      x y z
#    x 3.438580 0.000000 -0.161370 
#    y 0.000000 3.451640 0.000000 
#    z -0.161370 0.000000 3.381660 
# 
# 
# High freq. dielectric constant tensor:
#      x y z
#    x 1.734280 0.000000 -0.001430 
#    y 0.000000 1.734280 0.000000 
#    z -0.001430 0.000000 1.732540 
# 
# From -- ./inp_files/374910.got.cif
#   From: 2010.06.25/outbox.cif.g09.slc.cpg/sg12_188_cif.got.tgz:374910.got - 2010.06.28 00:19:55.
