data_PCOD8092761
_publ_section_title
;
Structure prediction by ZEFSAII (Michael W. Deem and Ramdas Pophale) SiO2 
 PCOD8092761
Probable space group: C 2/M
;
_chemical_formula_sum "Si O2"
_cell_formula_units_Z 64
_cell_length_a 20.110977
_cell_length_b 8.765771
_cell_length_c 22.211646
_cell_angle_alpha 90.000000
_cell_angle_beta 63.341391
_cell_angle_gamma 90.000000
_cell_volume 3499.401106
_symmetry_space_group_name_H-M "C 2/M"
_symmetry_group_IT_number 12
_symmetry_cell_setting 'monoclinic'
loop_
_space_group_symop_operation_xyz
x,y,z
-x,y,-z
-x,-y,-z
x,-y,z
1/2+x,1/2+y,z
1/2-x,1/2+y,-z
1/2-x,1/2-y,-z
1/2+x,1/2-y,z
loop_
_atom_site_type_symbol
_atom_site_label
_atom_site_fract_x
_atom_site_fract_y
_atom_site_fract_z
Si Si1 0.239894 0.181060 0.180985
Si Si2 0.598643 0.818878 0.907825
Si Si3 0.440296 0.179566 0.945735
Si Si4 0.859237 0.823411 0.441284
Si Si5 0.018093 0.822550 0.424891
Si Si6 0.329792 0.179137 0.674703
Si Si7 0.302675 0.180979 0.927898
Si Si8 0.755035 0.178085 0.593163
O O1 0.325282 0.240056 0.153729
O O2 0.190210 0.250430 0.253276
O O3 0.209161 0.238413 0.130240
O O4 0.233822 0.000000 0.185705
O O5 0.525359 0.761541 0.900826
O O6 0.602507 0.000000 0.907888
O O7 0.593219 0.753676 0.978234
O O8 0.387720 0.222853 0.911501
O O9 0.443744 0.000000 0.953018
O O10 0.946716 0.789247 0.411818
O O11 0.818863 0.775405 0.519693
O O12 0.825650 0.727668 0.399452
O O13 0.843592 0.000000 0.434674
O O14 0.000000 0.772573 0.500000
O O15 0.085751 0.723247 0.373805
O O16 0.040865 0.000000 0.414096
O O17 0.272032 0.237661 0.648297
O O18 0.323049 0.000000 0.681478
O O19 0.289896 0.000000 0.928649
O O20 0.250000 0.250000 0.000000
O O21 0.754503 0.000000 0.606885
#
# Coordination Sequence:
#
# PCOD8092761 Si02
#       8
#     8   8   8   8   8   8   8   8
#     4  11  22  38  58  80 109 150 191 232 290 349
#     4   8  14  28  52  80 105 135 179 226 271 323
#     4   8  14  27  51  82 109 133 174 228 273 317
#     4   9  18  33  57  87 116 143 181 234 286 333
#     4  10  19  37  61  86 116 150 189 237 292 344
#     4  12  25  39  56  82 116 154 196 240 289 347
#     4  11  20  33  55  84 115 147 184 232 283 338
#     4  10  19  35  57  83 114 149 187 229 282 342
#
# _framework density 18.288843
#
# number of rings (size 3 to 8) (size 9 to 14) (size 15 to 20)
#    0.000    2.125    2.500    3.000    0.000    1.250 
#    0.000    1.250    0.000    8.250    0.000    0.000 
#    0.000    0.000    0.000    0.000    0.000    0.000 
#
# Total GULP energy -396710.230442 kJ/mol
# GULP energy per Si atom -12397.194701 kJ/mol
# Density = 1.824722 g / cm^3
# Si number density = 18.288843 Si / 1000 Ang^3
#
#
#
# Elastic Constant Matrix: (Units=GPa)
#
#
# Indices 1 2 3 4 5 6 
#
# 1 133.7329 50.2033 64.7600 -0.0001 0.2478 -0.0005
# 2 50.2033 81.5912 46.2713 -0.0002 5.4724 -0.0021
# 3 64.7600 46.2713 110.8967 0.0000 7.4997 0.0000
# 4 -0.0001 -0.0002 0.0000 23.6286 0.0000 3.8947
# 5 0.2478 5.4724 7.4997 0.0000 22.6166 0.0000
# 6 -0.0005 -0.0021 0.0000 3.8947 0.0000 28.9868
#
#
#
# Elastic Compliance Matrix: (Units=1/GPa)
#
#
# Indices 1 2 3 4 5 6 
#
# 1 0.011608 -0.004420 -0.005113 0.000000 0.002638 0.000000
# 2 -0.004420 0.017802 -0.004664 0.000000 -0.002713 0.000001
# 3 -0.005113 -0.004664 0.014187 0.000000 -0.003520 0.000000
# 4 0.000000 0.000000 0.000000 0.043280 0.000000 -0.005815
# 5 0.002638 -0.002713 -0.003520 0.000000 0.046010 0.000000
# 6 0.000000 0.000001 0.000000 -0.005815 0.000000 0.035280
#
#
# Mechanical properties :
#
#
# Convention : Reuss Voigt Hill
#
# Bulk Modulus (GPa) = 65.76788 72.07669 68.92229
# Shear Modulus (GPa) = 24.79823 26.04549 25.42186
#
# Velocity S-wave (km/s) = 3.68628 3.77784 3.73234
# Velocity P-wave (km/s) = 7.35914 7.65018 7.50607
#
# Compressibility (1/GPa) = 0.01520499
#
# Stress axis : x y z
#
# Youngs Moduli (GPa) = 86.14966 56.17228 70.48685
#
# Poissons Ratio (x) = 0.24826 0.36039
# Poissons Ratio (y) = 0.38075 0.32872
# Poissons Ratio (z) = 0.44047 0.26197
#
# Static dielectric constant tensor:
#      x y z
#    x 3.875200 0.000000 -0.051380 
#    y 0.000000 3.195360 0.000000 
#    z -0.051380 0.000000 3.251460 
# 
# 
# High freq. dielectric constant tensor:
#      x y z
#    x 1.728220 0.000000 -0.001190 
#    y 0.000000 1.691270 0.000000 
#    z -0.001190 0.000000 1.682710 
# 
# From -- ./inp_files/319777.got.cif
#   From: 2010.06.25/outbox.cif.g09.slc.cpg/sg12_160_cif.got.tgz:319777.got - 2010.06.28 00:19:55.
