data_PCOD8092780
_publ_section_title
;
Structure prediction by ZEFSAII (Michael W. Deem and Ramdas Pophale) SiO2 
 PCOD8092780
Probable space group: C 2/M
;
_chemical_formula_sum "Si O2"
_cell_formula_units_Z 56
_cell_length_a 24.015620
_cell_length_b 18.901871
_cell_length_c 13.183457
_cell_angle_alpha 90.000000
_cell_angle_beta 148.590906
_cell_angle_gamma 90.000000
_cell_volume 3118.793099
_symmetry_space_group_name_H-M "C 2/M"
_symmetry_group_IT_number 12
_symmetry_cell_setting 'monoclinic'
loop_
_space_group_symop_operation_xyz
x,y,z
-x,y,-z
-x,-y,-z
x,-y,z
1/2+x,1/2+y,z
1/2-x,1/2+y,-z
1/2-x,1/2-y,-z
1/2+x,1/2-y,z
loop_
_atom_site_type_symbol
_atom_site_label
_atom_site_fract_x
_atom_site_fract_y
_atom_site_fract_z
Si Si1 0.198186 0.580002 0.430857
Si Si2 0.592149 0.576209 0.368193
Si Si3 0.500000 0.867773 0.000000
Si Si4 0.490587 0.289008 0.264263
Si Si5 0.305989 0.421568 0.257181
Si Si6 0.000000 0.159415 0.500000
Si Si7 0.703438 0.221783 0.533036
Si Si8 0.653360 0.799631 0.083684
O O1 0.203439 0.500000 0.481591
O O2 0.303337 0.600033 0.530378
O O3 0.093754 0.585472 0.196385
O O4 0.200375 0.635762 0.526742
O O5 0.548620 0.500000 0.261373
O O6 0.497593 0.633930 0.219682
O O7 0.629110 0.569122 0.539922
O O8 0.448343 0.818867 0.005922
O O9 0.506811 0.291642 0.410731
O O10 0.582209 0.242999 0.356301
O O11 0.380695 0.250575 0.063178
O O12 0.267939 0.500000 0.160299
O O13 0.392836 0.387500 0.315735
O O14 0.204785 0.370334 0.115603
O O15 0.750000 0.250000 0.500000
O O16 0.765815 0.253258 0.724968
#
# Coordination Sequence:
#
# PCOD8092780 Si02
#       8
#     8   8   4   8   8   4   8   8
#     4  11  21  32  53  81 117 156 190 230 278 336
#     4   9  17  33  53  77 112 149 184 233 283 327
#     4  12  19  32  54  88 121 144 190 230 289 336
#     4  11  21  37  57  86 113 150 193 233 288 336
#     4  10  19  35  57  84 113 141 184 242 294 331
#     4  10  21  40  60  82 113 148 192 238 293 332
#     4  12  19  38  55  80 121 154 187 226 282 346
#     4  12  22  34  59  89 115 152 189 235 281 347
#
# _framework density 17.955663999999999
#
# number of rings (size 3 to 8) (size 9 to 14) (size 15 to 20)
#    0.000    1.143    8.571    0.429    0.000    1.714 
#    0.000    0.714    0.000    1.714    0.000    1.000 
#    0.000    0.000    0.000    0.000    0.000    0.000 
#
# Total GULP energy -346980.992616 kJ/mol
# GULP energy per Si atom -12392.178308 kJ/mol
# Density = 1.791480 g / cm^3
# Si number density = 17.955664 Si / 1000 Ang^3
#
#
#
# Elastic Constant Matrix: (Units=GPa)
#
#
# Indices 1 2 3 4 5 6 
#
# 1 65.4213 30.7362 13.9012 0.0000 12.3784 0.0000
# 2 30.7362 124.2794 40.6483 0.0000 4.9241 0.0000
# 3 13.9012 40.6483 63.5969 0.0000 1.6785 0.0000
# 4 0.0000 0.0000 0.0000 29.5901 0.0000 5.8552
# 5 12.3784 4.9241 1.6785 0.0000 16.1761 0.0000
# 6 0.0000 0.0000 0.0000 5.8552 0.0000 24.7830
#
#
#
# Elastic Compliance Matrix: (Units=1/GPa)
#
#
# Indices 1 2 3 4 5 6 
#
# 1 0.020105 -0.003919 -0.001519 0.000000 -0.014034 0.000000
# 2 -0.003919 0.011033 -0.006203 0.000000 0.000284 0.000000
# 3 -0.001519 -0.006203 0.019995 0.000000 0.000976 0.000000
# 4 0.000000 0.000000 0.000000 0.035452 0.000000 -0.008376
# 5 -0.014034 0.000284 0.000976 0.000000 0.072371 0.000000
# 6 0.000000 0.000000 0.000000 -0.008376 0.000000 0.042329
#
#
# Mechanical properties :
#
#
# Convention : Reuss Voigt Hill
#
# Bulk Modulus (GPa) = 35.90576 47.09656 41.50116
# Shear Modulus (GPa) = 21.38105 25.31063 23.34584
#
# Velocity S-wave (km/s) = 3.45450 3.75856 3.60973
# Velocity P-wave (km/s) = 5.99597 6.71729 6.36686
#
# Compressibility (1/GPa) = 0.02785068
#
# Stress axis : x y z
#
# Youngs Moduli (GPa) = 49.73842 90.63571 50.01293
#
# Poissons Ratio (x) = 0.35524 0.07598
# Poissons Ratio (y) = 0.19494 0.31021
# Poissons Ratio (z) = 0.07556 0.56219
#
# Static dielectric constant tensor:
#      x y z
#    x 3.359960 0.000000 0.256610 
#    y 0.000000 4.117410 0.000000 
#    z 0.256610 0.000000 3.249620 
# 
# 
# High freq. dielectric constant tensor:
#      x y z
#    x 1.685290 0.000000 0.021510 
#    y 0.000000 1.707790 0.000000 
#    z 0.021510 0.000000 1.660020 
# 
# From -- ./inp_files/169533.got.cif
#   From: 2010.06.25/outbox.cif.g09.slc.cpg/sg12_85_cif.got.tgz:169533.got - 2010.06.28 00:19:55.
