data_PCOD8092805
_publ_section_title
;
Structure prediction by ZEFSAII (Michael W. Deem and Ramdas Pophale) SiO2 
 PCOD8092805
Probable space group: C 2/M
;
_chemical_formula_sum "Si O2"
_cell_formula_units_Z 64
_cell_length_a 24.203837
_cell_length_b 20.262932
_cell_length_c 8.849302
_cell_angle_alpha 90.000000
_cell_angle_beta 46.163008
_cell_angle_gamma 90.000000
_cell_volume 3130.541083
_symmetry_space_group_name_H-M "C 2/M"
_symmetry_group_IT_number 12
_symmetry_cell_setting 'monoclinic'
loop_
_space_group_symop_operation_xyz
x,y,z
-x,y,-z
-x,-y,-z
x,-y,z
1/2+x,1/2+y,z
1/2-x,1/2+y,-z
1/2-x,1/2-y,-z
1/2+x,1/2-y,z
loop_
_atom_site_type_symbol
_atom_site_label
_atom_site_fract_x
_atom_site_fract_y
_atom_site_fract_z
Si Si1 0.523877 0.801351 0.784189
Si Si2 0.776276 0.374171 0.755571
Si Si3 0.683010 0.635833 0.661103
Si Si4 0.183065 0.763030 0.409954
Si Si5 0.922836 0.071656 0.361177
Si Si6 0.052642 0.424511 0.547524
Si Si7 0.054757 0.174025 0.134328
Si Si8 0.148316 0.870451 0.230116
O O1 0.609850 0.776178 0.608911
O O2 0.513562 0.875397 0.740653
O O3 0.469383 0.750143 0.799377
O O4 0.500000 0.803847 0.000000
O O5 0.747480 0.400202 0.644685
O O6 0.762656 0.294953 0.756239
O O7 0.859971 0.399838 0.643783
O O8 0.721833 0.396231 0.997031
O O9 0.717444 0.692551 0.482612
O O10 0.644492 0.579018 0.634123
O O11 0.620335 0.669964 0.886235
O O12 0.166683 0.807631 0.297171
O O13 0.884216 0.072449 0.600286
O O14 0.982361 0.130315 0.218906
O O15 0.962064 0.000000 0.265727
O O16 0.054015 0.500000 0.604777
O O17 0.000000 0.419928 0.500000
O O18 0.080080 0.148223 0.247988
#
# Coordination Sequence:
#
# PCOD8092805 Si02
#       8
#     8   8   8   8   8   8   8   8
#     4  11  20  36  64  93 121 160 194 249 302 351
#     4  10  22  38  62  87 115 155 194 252 304 360
#     4  10  20  37  57  87 123 158 200 241 294 359
#     4  10  19  35  57  87 125 154 192 242 300 354
#     4  11  23  37  55  84 127 170 206 238 279 341
#     4  10  25  46  66  88 116 153 203 257 313 370
#     4  11  20  35  59  91 128 159 201 245 289 353
#     4  10  22  35  57  89 124 160 201 242 290 356
#
# _framework density 20.443750000000001
#
# number of rings (size 3 to 8) (size 9 to 14) (size 15 to 20)
#    0.000    1.625    3.750    1.500    3.500    3.250 
#    0.000    5.000    0.000    0.000    0.000    0.000 
#    0.000    0.000    0.000    0.000    0.000    0.000 
#
# Total GULP energy -396573.540209 kJ/mol
# GULP energy per Si atom -12392.923132 kJ/mol
# Density = 2.039722 g / cm^3
# Si number density = 20.443750 Si / 1000 Ang^3
#
#
#
# Elastic Constant Matrix: (Units=GPa)
#
#
# Indices 1 2 3 4 5 6 
#
# 1 119.9183 33.9264 34.2130 0.0000 3.3910 0.0000
# 2 33.9264 111.5101 15.9038 0.0000 -0.5100 0.0000
# 3 34.2130 15.9038 38.7734 0.0000 2.4084 0.0000
# 4 0.0000 0.0000 0.0000 14.4063 0.0000 -3.9493
# 5 3.3910 -0.5100 2.4084 0.0000 27.2174 0.0000
# 6 0.0000 0.0000 0.0000 -3.9493 0.0000 6.8196
#
#
#
# Elastic Compliance Matrix: (Units=1/GPa)
#
#
# Indices 1 2 3 4 5 6 
#
# 1 0.011645 -0.002216 -0.009325 0.000000 -0.000667 0.000000
# 2 -0.002216 0.009954 -0.002168 0.000000 0.000654 0.000000
# 3 -0.009325 -0.002168 0.035032 0.000000 -0.001979 0.000000
# 4 0.000000 0.000000 0.000000 0.082513 0.000000 0.047784
# 5 -0.000667 0.000654 -0.001979 0.000000 0.037012 0.000000
# 6 0.000000 0.000000 0.000000 0.047784 0.000000 0.174308
#
#
# Mechanical properties :
#
#
# Convention : Reuss Voigt Hill
#
# Bulk Modulus (GPa) = 34.23234 48.69867 41.46551
# Shear Modulus (GPa) = 12.89922 22.09924 17.49923
#
# Velocity S-wave (km/s) = 2.51462 3.29139 2.92887
# Velocity P-wave (km/s) = 5.02116 6.19006 5.63600
#
# Compressibility (1/GPa) = 0.02921215
#
# Stress axis : x y z
#
# Youngs Moduli (GPa) = 85.87118 100.45947 28.54569
#
# Poissons Ratio (x) = 0.22263 0.26620
# Poissons Ratio (y) = 0.19030 0.06189
# Poissons Ratio (z) = 0.80077 0.21781
#
# Static dielectric constant tensor:
#      x y z
#    x 4.069710 0.000000 -0.035990 
#    y 0.000000 3.733450 0.000000 
#    z -0.035990 0.000000 3.948860 
# 
# 
# High freq. dielectric constant tensor:
#      x y z
#    x 1.806640 0.000000 0.010510 
#    y 0.000000 1.786970 0.000000 
#    z 0.010510 0.000000 1.796640 
# 
# From -- ./inp_files/99097.got.cif
#   From: 2010.06.25/outbox.cif.g09.slc.cpg/sg12_50_cif.got.tgz:99097.got - 2010.06.28 00:19:55.
