data_PCOD8092988
_publ_section_title
;
Structure prediction by ZEFSAII (Michael W. Deem and Ramdas Pophale) SiO2 
 PCOD8092988
Probable space group: C 2/M
;
_chemical_formula_sum "Si O2"
_cell_formula_units_Z 56
_cell_length_a 21.929190
_cell_length_b 14.214392
_cell_length_c 16.134642
_cell_angle_alpha 90.000000
_cell_angle_beta 145.851353
_cell_angle_gamma 90.000000
_cell_volume 2823.173959
_symmetry_space_group_name_H-M "C 2/M"
_symmetry_group_IT_number 12
_symmetry_cell_setting 'monoclinic'
loop_
_space_group_symop_operation_xyz
x,y,z
-x,y,-z
-x,-y,-z
x,-y,z
1/2+x,1/2+y,z
1/2-x,1/2+y,-z
1/2-x,1/2-y,-z
1/2+x,1/2-y,z
loop_
_atom_site_type_symbol
_atom_site_label
_atom_site_fract_x
_atom_site_fract_y
_atom_site_fract_z
Si Si1 0.773119 0.389476 0.872610
Si Si2 0.973372 0.100071 0.376200
Si Si3 0.255590 0.389428 0.643177
Si Si4 0.333575 0.895773 0.629057
Si Si5 0.465504 0.795981 0.555916
Si Si6 0.567396 0.104611 0.809678
Si Si7 0.873792 0.719693 0.836022
O O1 0.795587 0.500000 0.877488
O O2 0.652836 0.371912 0.770573
O O3 0.797562 0.326202 0.819849
O O4 0.850268 0.350186 0.032043
O O5 0.000000 0.079834 0.500000
O O6 0.046547 0.186947 0.425209
O O7 0.995823 0.000000 0.353442
O O8 0.271539 0.500000 0.679861
O O9 0.253994 0.370333 0.541746
O O10 0.143107 0.355005 0.556665
O O11 0.351114 0.331012 0.796840
O O12 0.449081 0.894269 0.715462
O O13 0.333602 0.824945 0.704913
O O14 0.309273 0.000000 0.636779
O O15 0.500000 0.794886 0.500000
O O16 0.564564 0.839362 0.720301
O O17 0.607193 0.000000 0.833518
O O18 0.000000 0.701995 0.000000
#
# Coordination Sequence:
#
# PCOD8092988 Si02
#       7
#     8   8   8   8   8   8   8
#     4  10  20  34  53  83 116 140 171 221 278 325
#     4   9  18  33  52  76 109 141 170 215 273 326
#     4  10  23  40  55  77 111 148 185 227 273 317
#     4   9  18  35  56  81 111 140 178 227 271 319
#     4  10  19  35  59  79  99 137 190 228 260 320
#     4   9  18  32  51  79 112 139 171 225 276 308
#     4  12  21  32  58  86 110 144 184 221 266 331
#
# _framework density 19.835830000000001
#
# number of rings (size 3 to 8) (size 9 to 14) (size 15 to 20)
#    0.000    2.143    1.429    3.857    0.000    2.571 
#    0.000    0.714    0.000    4.286    0.000    0.000 
#    0.000    0.000    0.000    0.000    0.000    0.000 
#
# Total GULP energy -346953.087042 kJ/mol
# GULP energy per Si atom -12391.181680 kJ/mol
# Density = 1.979068 g / cm^3
# Si number density = 19.835830 Si / 1000 Ang^3
#
#
#
# Elastic Constant Matrix: (Units=GPa)
#
#
# Indices 1 2 3 4 5 6 
#
# 1 33.9657 27.9890 10.8111 0.0000 -17.9533 0.0000
# 2 27.9890 122.8301 31.2718 0.0000 -20.7504 0.0000
# 3 10.8111 31.2718 74.7086 0.0000 -15.8064 0.0000
# 4 0.0000 0.0000 0.0000 31.6408 0.0000 2.0750
# 5 -17.9533 -20.7504 -15.8064 0.0000 24.0419 0.0000
# 6 0.0000 0.0000 0.0000 2.0750 0.0000 21.5935
#
#
#
# Elastic Compliance Matrix: (Units=1/GPa)
#
#
# Indices 1 2 3 4 5 6 
#
# 1 0.052866 -0.006743 0.002664 0.000000 0.035410 0.000000
# 2 -0.006743 0.010851 -0.003078 0.000000 0.002307 0.000000
# 3 0.002664 -0.003078 0.016433 0.000000 0.010136 0.000000
# 4 0.000000 0.000000 0.000000 0.031805 0.000000 -0.003056
# 5 0.035410 0.002307 0.010136 0.000000 0.076691 0.000000
# 6 0.000000 0.000000 0.000000 -0.003056 0.000000 0.046604
#
#
# Mechanical properties :
#
#
# Convention : Reuss Voigt Hill
#
# Bulk Modulus (GPa) = 15.18924 41.29424 28.24174
# Shear Modulus (GPa) = 18.41547 26.21739 22.31643
#
# Velocity S-wave (km/s) = 3.05026 3.63949 3.35783
# Velocity P-wave (km/s) = 4.48102 6.20680 5.41313
#
# Compressibility (1/GPa) = 0.06583608
#
# Stress axis : x y z
#
# Youngs Moduli (GPa) = 18.91562 92.15589 60.85322
#
# Poissons Ratio (x) = 0.62138 -0.16211
# Poissons Ratio (y) = 0.12754 0.18733
# Poissons Ratio (z) = -0.05039 0.28369
#
# Static dielectric constant tensor:
#      x y z
#    x 2.947550 0.000000 -0.917260 
#    y 0.000000 4.000780 0.000000 
#    z -0.917260 0.000000 1.729230 
# 
# 
# High freq. dielectric constant tensor:
#      x y z
#    x 1.735150 0.000000 -0.005630 
#    y 0.000000 1.783040 0.000000 
#    z -0.005630 0.000000 1.779780 
# 
# From -- ./inp_files/233743.got.cif
#   From: 2010.06.25/outbox.cif.g09.slc.cpg/sg12_117_cif.got.tgz:233743.got - 2010.06.28 00:19:55.
