data_PCOD8092494
_publ_section_title
;
Structure prediction by ZEFSAII (Michael W. Deem and Ramdas Pophale) SiO2 
 PCOD8092494
Probable space group: C 2/M
;
_chemical_formula_sum "Si O2"
_cell_formula_units_Z 44
_cell_length_a 14.725918
_cell_length_b 12.239926
_cell_length_c 12.072327
_cell_angle_alpha 90.000000
_cell_angle_beta 82.813443
_cell_angle_gamma 90.000000
_cell_volume 2158.872061
_symmetry_space_group_name_H-M "C 2/M"
_symmetry_group_IT_number 12
_symmetry_cell_setting 'monoclinic'
loop_
_space_group_symop_operation_xyz
x,y,z
-x,y,-z
-x,-y,-z
x,-y,z
1/2+x,1/2+y,z
1/2-x,1/2+y,-z
1/2-x,1/2-y,-z
1/2+x,1/2-y,z
loop_
_atom_site_type_symbol
_atom_site_label
_atom_site_fract_x
_atom_site_fract_y
_atom_site_fract_z
Si Si1 0.740369 0.373589 0.898424
Si Si2 0.500000 0.721031 0.500000
Si Si3 0.247460 0.254252 0.676353
Si Si4 0.340517 0.126234 0.488580
Si Si5 0.428087 0.373261 0.716683
Si Si6 0.909465 0.760426 0.943843
O O1 0.745743 0.500000 0.864955
O O2 0.717071 0.300105 0.795282
O O3 0.839446 0.341412 0.935939
O O4 0.654385 0.355093 0.993128
O O5 0.581885 0.803213 0.466917
O O6 0.494092 0.646987 0.389621
O O7 0.255875 0.157701 0.582309
O O8 0.172461 0.337887 0.637584
O O9 0.332662 0.334131 0.681254
O O10 0.364421 0.000000 0.491316
O O11 0.424484 0.500000 0.747832
O O12 0.451155 0.304856 0.823000
O O13 0.000000 0.726542 0.000000
#
# Coordination Sequence:
#
# PCOD8092494 Si02
#       6
#     8   4   8   8   8   8
#     4  10  21  40  64  88 119 158 198 248 300 350
#     4  10  22  34  54  86 116 148 194 236 282 354
#     4   9  20  35  57  83 111 146 198 238 284 357
#     4  10  19  35  55  80 115 152 187 236 293 344
#     4  10  20  37  57  81 116 151 190 243 292 340
#     4  10  23  40  61  89 124 154 202 248 293 360
#
# _framework density 20.381012999999999
#
# number of rings (size 3 to 8) (size 9 to 14) (size 15 to 20)
#    0.000    2.182    0.000    2.182    2.545    1.818 
#    0.000    3.636    0.000    0.000    0.000    0.000 
#    0.000    0.000    0.000    0.000    0.000    0.000 
#
# Total GULP energy -272604.253089 kJ/mol
# GULP energy per Si atom -12391.102413 kJ/mol
# Density = 2.033463 g / cm^3
# Si number density = 20.381013 Si / 1000 Ang^3
#
#
#
# Elastic Constant Matrix: (Units=GPa)
#
#
# Indices 1 2 3 4 5 6 
#
# 1 54.9627 6.0106 23.6758 0.0000 7.2859 0.0000
# 2 6.0106 74.7292 13.2092 0.0000 -3.9982 0.0000
# 3 23.6758 13.2092 114.3558 0.0000 -2.4600 0.0000
# 4 0.0000 0.0000 0.0000 20.5363 0.0000 -1.4075
# 5 7.2859 -3.9982 -2.4600 0.0000 33.5148 0.0000
# 6 0.0000 0.0000 0.0000 -1.4075 0.0000 15.7497
#
#
#
# Elastic Compliance Matrix: (Units=1/GPa)
#
#
# Indices 1 2 3 4 5 6 
#
# 1 0.020829 -0.001185 -0.004283 0.000000 -0.004984 0.000000
# 2 -0.001185 0.013805 -0.001310 0.000000 0.001808 0.000000
# 3 -0.004283 -0.001310 0.009815 0.000000 0.001495 0.000000
# 4 0.000000 0.000000 0.000000 0.048994 0.000000 0.004379
# 5 -0.004984 0.001808 0.001495 0.000000 0.031247 0.000000
# 6 0.000000 0.000000 0.000000 0.004379 0.000000 0.063884
#
#
# Mechanical properties :
#
#
# Convention : Reuss Voigt Hill
#
# Bulk Modulus (GPa) = 32.36960 36.64877 34.50918
# Shear Modulus (GPa) = 23.53731 27.37032 25.45382
#
# Velocity S-wave (km/s) = 3.40202 3.66858 3.53781
# Velocity P-wave (km/s) = 5.59896 5.99712 5.80146
#
# Compressibility (1/GPa) = 0.03089319
#
# Stress axis : x y z
#
# Youngs Moduli (GPa) = 48.00939 72.43576 101.88646
#
# Poissons Ratio (x) = 0.08583 0.43635
# Poissons Ratio (y) = 0.05689 0.13351
# Poissons Ratio (z) = 0.20561 0.09492
#
# Static dielectric constant tensor:
#      x y z
#    x 3.635600 0.000000 -0.067010 
#    y 0.000000 3.466260 0.000000 
#    z -0.067010 0.000000 4.063340 
# 
# 
# High freq. dielectric constant tensor:
#      x y z
#    x 1.782040 0.000000 0.006190 
#    y 0.000000 1.785780 0.000000 
#    z 0.006190 0.000000 1.809070 
# 
# From -- ./inp_files/140966.got.cif
#   From: 2010.06.25/outbox.cif.g09.slc.cpg/sg12_71_cif.got.tgz:140966.got - 2010.06.28 00:19:55.
