data_PCOD8092553
_publ_section_title
;
Structure prediction by ZEFSAII (Michael W. Deem and Ramdas Pophale) SiO2 
 PCOD8092553
Probable space group: C 2/M
;
_chemical_formula_sum "Si O2"
_cell_formula_units_Z 48
_cell_length_a 24.861386
_cell_length_b 9.158975
_cell_length_c 11.587902
_cell_angle_alpha 90.000000
_cell_angle_beta 109.663132
_cell_angle_gamma 90.000000
_cell_volume 2484.755832
_symmetry_space_group_name_H-M "C 2/M"
_symmetry_group_IT_number 12
_symmetry_cell_setting 'monoclinic'
loop_
_space_group_symop_operation_xyz
x,y,z
-x,y,-z
-x,-y,-z
x,-y,z
1/2+x,1/2+y,z
1/2-x,1/2+y,-z
1/2-x,1/2-y,-z
1/2+x,1/2-y,z
loop_
_atom_site_type_symbol
_atom_site_label
_atom_site_fract_x
_atom_site_fract_y
_atom_site_fract_z
Si Si1 0.303545 0.666725 0.987653
Si Si2 0.774828 0.166144 0.705081
Si Si3 0.626351 0.827811 0.343508
Si Si4 0.485386 0.172475 0.862886
Si Si5 0.401873 0.172341 0.184476
Si Si6 0.853099 0.671477 0.387818
O O1 0.302230 0.500000 0.030510
O O2 0.302816 0.674580 0.850190
O O3 0.250000 0.750000 0.000000
O O4 0.361031 0.745386 0.066963
O O5 0.813385 0.258930 0.646610
O O6 0.711257 0.235988 0.661572
O O7 0.772951 0.000000 0.658383
O O8 0.574232 0.763365 0.229469
O O9 0.615083 0.788602 0.469998
O O10 0.631502 0.000000 0.330246
O O11 0.533891 0.213454 0.805124
O O12 0.479347 0.000000 0.870148
O O13 0.500000 0.239028 0.000000
O O14 0.390262 0.229758 0.306404
O O15 0.390627 0.000000 0.163931
O O16 0.846773 0.500000 0.367551
#
# Coordination Sequence:
#
# PCOD8092553 Si02
#       6
#     8   8   8   8   8   8
#     4  11  21  34  54  80 109 138 174 217 263 318
#     4  10  20  35  52  75 109 141 172 219 272 315
#     4  10  20  34  54  79 104 140 187 221 258 319
#     4   9  18  32  52  79 107 136 178 226 265 308
#     4  10  19  35  56  77 110 145 172 220 273 309
#     4   9  18  33  52  77 108 139 178 223 266 314
#
# _framework density 19.317792000000001
#
# number of rings (size 3 to 8) (size 9 to 14) (size 15 to 20)
#    0.000    2.167    1.667    2.000    0.000    3.333 
#    0.000    5.000    0.000    3.000    0.000    2.333 
#    0.000    0.000    0.000    0.000    0.000    0.000 
#
# Total GULP energy -297569.885837 kJ/mol
# GULP energy per Si atom -12398.745243 kJ/mol
# Density = 1.927382 g / cm^3
# Si number density = 19.317792 Si / 1000 Ang^3
#
#
#
# Elastic Constant Matrix: (Units=GPa)
#
#
# Indices 1 2 3 4 5 6 
#
# 1 126.9316 20.8914 61.2655 0.0000 -8.2018 0.0000
# 2 20.8914 40.1272 16.0817 0.0000 -4.2549 0.0000
# 3 61.2655 16.0817 122.4731 0.0000 -1.7757 0.0000
# 4 0.0000 0.0000 0.0000 20.2062 0.0000 0.4169
# 5 -8.2018 -4.2549 -1.7757 0.0000 30.0595 0.0000
# 6 0.0000 0.0000 0.0000 0.4169 0.0000 23.0670
#
#
#
# Elastic Compliance Matrix: (Units=1/GPa)
#
#
# Indices 1 2 3 4 5 6 
#
# 1 0.011020 -0.003490 -0.005022 0.000000 0.002216 0.000000
# 2 -0.003490 0.027788 -0.001862 0.000000 0.002871 0.000000
# 3 -0.005022 -0.001862 0.010907 0.000000 -0.000989 0.000000
# 4 0.000000 0.000000 0.000000 0.049508 0.000000 -0.000895
# 5 0.002216 0.002871 -0.000989 0.000000 0.034220 0.000000
# 6 0.000000 0.000000 0.000000 -0.000895 0.000000 0.043368
#
#
# Mechanical properties :
#
#
# Convention : Reuss Voigt Hill
#
# Bulk Modulus (GPa) = 34.52000 54.00102 44.26051
# Shear Modulus (GPa) = 24.12958 27.41942 25.77450
#
# Velocity S-wave (km/s) = 3.53808 3.77156 3.65668
# Velocity P-wave (km/s) = 5.88209 6.85427 6.38670
#
# Compressibility (1/GPa) = 0.02896871
#
# Stress axis : x y z
#
# Youngs Moduli (GPa) = 90.74553 35.98673 91.68054
#
# Poissons Ratio (x) = 0.12558 0.46044
# Poissons Ratio (y) = 0.31666 0.17067
# Poissons Ratio (z) = 0.45574 0.06699
#
# Static dielectric constant tensor:
#      x y z
#    x 3.852830 0.000000 0.316370 
#    y 0.000000 5.232260 0.000000 
#    z 0.316370 0.000000 4.259760 
# 
# 
# High freq. dielectric constant tensor:
#      x y z
#    x 1.756580 0.000000 -0.003930 
#    y 0.000000 1.706610 0.000000 
#    z -0.003930 0.000000 1.764580 
# 
# From -- ./inp_files/173050.got.cif
#   From: 2010.06.25/outbox.cif.g09.slc.cpg/sg12_87_cif.got.tgz:173050.got - 2010.06.28 00:19:55.
