data_PCOD8092487
_publ_section_title
;
Structure prediction by ZEFSAII (Michael W. Deem and Ramdas Pophale) SiO2 
 PCOD8092487
Probable space group: C 2/M
;
_chemical_formula_sum "Si O2"
_cell_formula_units_Z 64
_cell_length_a 22.801267
_cell_length_b 27.057867
_cell_length_c 5.139557
_cell_angle_alpha 90.000000
_cell_angle_beta 77.827039
_cell_angle_gamma 90.000000
_cell_volume 3099.573102
_symmetry_space_group_name_H-M "C 2/M"
_symmetry_group_IT_number 12
_symmetry_cell_setting 'monoclinic'
loop_
_space_group_symop_operation_xyz
x,y,z
-x,y,-z
-x,-y,-z
x,-y,z
1/2+x,1/2+y,z
1/2-x,1/2+y,-z
1/2-x,1/2-y,-z
1/2+x,1/2-y,z
loop_
_atom_site_type_symbol
_atom_site_label
_atom_site_fract_x
_atom_site_fract_y
_atom_site_fract_z
Si Si1 0.126926 0.117373 0.943904
Si Si2 0.110840 0.383489 0.430080
Si Si3 0.259693 0.947694 0.337551
Si Si4 0.235747 0.607917 0.158246
Si Si5 0.428589 0.723511 0.058193
Si Si6 0.569974 0.058548 0.965527
Si Si7 0.068503 0.723592 0.445193
Si Si8 0.877787 0.054855 0.564433
O O1 0.198103 0.132457 0.899296
O O2 0.091168 0.167382 0.943751
O O3 0.111732 0.082029 0.717493
O O4 0.099528 0.089661 0.221526
O O5 0.178667 0.361241 0.320452
O O6 0.107722 0.414395 0.701742
O O7 0.069651 0.335374 0.476294
O O8 0.090512 0.420774 0.223967
O O9 0.262537 0.937584 0.641295
O O10 0.191502 0.952886 0.311655
O O11 0.292851 0.000000 0.259726
O O12 0.285899 0.907699 0.111368
O O13 0.400369 0.748679 0.341455
O O14 0.500000 0.726242 0.000000
O O15 0.401387 0.755915 0.846536
O O16 0.581297 0.000000 0.942680
O O17 0.500000 0.071102 0.000000
O O18 0.000000 0.740138 0.500000
O O19 0.908650 0.000000 0.533790
#
# Coordination Sequence:
#
# PCOD8092487 Si02
#       8
#     8   8   8   8   8   8   8   8
#     4  10  19  35  55  79 114 145 177 227 271 312
#     4  12  23  38  58  82 113 146 181 226 275 326
#     4   9  17  30  47  70 104 144 184 220 249 292
#     4  10  21  32  49  78 109 142 178 215 267 328
#     4  10  21  38  61  84 103 134 184 232 276 323
#     4  11  24  40  58  82 113 150 188 226 273 322
#     4  10  21  38  59  81 102 132 181 233 277 323
#     4   9  17  30  52  79 108 147 183 209 254 318
#
# _framework density 20.648005999999999
#
# number of rings (size 3 to 8) (size 9 to 14) (size 15 to 20)
#    0.000    1.875    0.000    4.500    0.000    8.000 
#    0.000    1.250    0.000    2.250    0.000    0.000 
#    0.000    0.000    0.000    0.000    0.000    0.000 
#
# Total GULP energy -396498.301461 kJ/mol
# GULP energy per Si atom -12390.571921 kJ/mol
# Density = 2.060101 g / cm^3
# Si number density = 20.648006 Si / 1000 Ang^3
#
#
#
# Elastic Constant Matrix: (Units=GPa)
#
#
# Indices 1 2 3 4 5 6 
#
# 1 23.0821 12.4649 21.7545 0.0000 8.5729 0.0000
# 2 12.4649 115.0313 49.4018 0.0000 17.2870 0.0000
# 3 21.7545 49.4018 141.9270 0.0000 30.7168 0.0000
# 4 0.0000 0.0000 0.0000 30.9366 0.0000 4.7958
# 5 8.5729 17.2870 30.7168 0.0000 21.9968 0.0000
# 6 0.0000 0.0000 0.0000 4.7958 0.0000 6.3217
#
#
#
# Elastic Compliance Matrix: (Units=1/GPa)
#
#
# Indices 1 2 3 4 5 6 
#
# 1 0.053577 -0.001823 -0.004828 0.000000 -0.012707 0.000000
# 2 -0.001823 0.010588 -0.002521 0.000000 -0.004091 0.000000
# 3 -0.004828 -0.002521 0.011218 0.000000 -0.011802 0.000000
# 4 0.000000 0.000000 0.000000 0.036632 0.000000 -0.027790
# 5 -0.012707 -0.004091 -0.011802 0.000000 0.070108 0.000000
# 6 0.000000 0.000000 0.000000 -0.027790 0.000000 0.179267
#
#
# Mechanical properties :
#
#
# Convention : Reuss Voigt Hill
#
# Bulk Modulus (GPa) = 17.53141 49.69810 33.61476
# Shear Modulus (GPa) = 12.53927 24.94563 18.74245
#
# Velocity S-wave (km/s) = 2.46699 3.47960 3.01610
# Velocity P-wave (km/s) = 4.07723 6.34546 5.33332
#
# Compressibility (1/GPa) = 0.05704049
#
# Stress axis : x y z
#
# Youngs Moduli (GPa) = 18.66456 94.44540 89.14621
#
# Poissons Ratio (x) = 0.17215 0.43038
# Poissons Ratio (y) = 0.03402 0.22472
# Poissons Ratio (z) = 0.09011 0.23808
#
# Static dielectric constant tensor:
#      x y z
#    x 3.706540 0.000000 0.094960 
#    y 0.000000 3.535750 0.000000 
#    z 0.094960 0.000000 4.088320 
# 
# 
# High freq. dielectric constant tensor:
#      x y z
#    x 1.788250 0.000000 0.010760 
#    y 0.000000 1.788100 0.000000 
#    z 0.010760 0.000000 1.830730 
# 
# From -- ./inp_files/26064.got.cif
#   From: 2010.06.25/outbox.cif.g09.slc.cpg/sg12_14_cif.got.tgz:26064.got - 2010.06.28 00:19:55.
