data_PCOD8092649
_publ_section_title
;
Structure prediction by ZEFSAII (Michael W. Deem and Ramdas Pophale) SiO2 
 PCOD8092649
Probable space group: C 2/M
;
_chemical_formula_sum "Si O2"
_cell_formula_units_Z 64
_cell_length_a 15.249286
_cell_length_b 9.098424
_cell_length_c 23.854759
_cell_angle_alpha 90.000000
_cell_angle_beta 91.590730
_cell_angle_gamma 90.000000
_cell_volume 3308.440388
_symmetry_space_group_name_H-M "C 2/M"
_symmetry_group_IT_number 12
_symmetry_cell_setting 'monoclinic'
loop_
_space_group_symop_operation_xyz
x,y,z
-x,y,-z
-x,-y,-z
x,-y,z
1/2+x,1/2+y,z
1/2-x,1/2+y,-z
1/2-x,1/2-y,-z
1/2+x,1/2-y,z
loop_
_atom_site_type_symbol
_atom_site_label
_atom_site_fract_x
_atom_site_fract_y
_atom_site_fract_z
Si Si1 0.920895 0.167316 0.731617
Si Si2 0.841029 0.826991 0.381076
Si Si3 0.911756 0.673623 0.280997
Si Si4 0.240411 0.672816 0.920097
Si Si5 0.103029 0.827205 0.994736
Si Si6 0.248530 0.174339 0.206327
Si Si7 0.329422 0.332263 0.617232
Si Si8 0.403472 0.674127 0.502335
O O1 0.838949 0.230921 0.764833
O O2 0.906013 0.174214 0.664327
O O3 0.000937 0.273098 0.748933
O O4 0.941864 0.000000 0.750001
O O5 0.911312 0.748788 0.342299
O O6 0.746493 0.771033 0.360052
O O7 0.851858 0.776981 0.445912
O O8 0.852051 0.000000 0.374299
O O9 0.910784 0.500000 0.288218
O O10 0.831657 0.733550 0.242239
O O11 0.222534 0.500000 0.922672
O O12 0.334572 0.710304 0.950696
O O13 0.248404 0.732648 0.857069
O O14 0.153605 0.749075 0.944361
O O15 0.101461 0.000000 0.982499
O O16 0.000000 0.773501 0.000000
O O17 0.249898 0.000000 0.207511
O O18 0.295031 0.500000 0.610550
O O19 0.359320 0.265068 0.558113
O O20 0.500000 0.742665 0.500000
O O21 0.409375 0.500000 0.507849
#
# Coordination Sequence:
#
# PCOD8092649 Si02
#       8
#     8   8   8   8   8   8   8   8
#     4  10  20  37  59  81 106 143 184 224 277 337
#     4  11  21  34  54  79 105 137 180 225 273 333
#     4  11  22  38  57  79 107 143 185 231 278 326
#     4   9  18  34  56  80 110 149 187 222 264 321
#     4   9  18  33  54  83 116 147 179 223 274 316
#     4   9  19  37  57  78 109 148 186 222 270 326
#     4  10  19  35  57  77 104 141 176 219 277 334
#     4   9  18  32  51  75 102 134 175 220 271 333
#
# _framework density 19.344462
#
# number of rings (size 3 to 8) (size 9 to 14) (size 15 to 20)
#    0.000    2.250    1.250    1.875    0.000    3.750 
#    0.000    3.750    0.000    2.625    0.000    0.000 
#    0.000    0.000    0.000    0.000    0.000    0.000 
#
# Total GULP energy -396668.970925 kJ/mol
# GULP energy per Si atom -12395.905341 kJ/mol
# Density = 1.930043 g / cm^3
# Si number density = 19.344462 Si / 1000 Ang^3
#
#
#
# Elastic Constant Matrix: (Units=GPa)
#
#
# Indices 1 2 3 4 5 6 
#
# 1 153.1604 41.5030 57.5949 0.0000 -15.4498 0.0000
# 2 41.5030 50.0840 35.0726 0.0000 -3.3290 0.0000
# 3 57.5949 35.0726 133.4759 0.0000 -15.7499 0.0000
# 4 0.0000 0.0000 0.0000 22.4280 0.0000 -5.6147
# 5 -15.4498 -3.3290 -15.7499 0.0000 19.3695 0.0000
# 6 0.0000 0.0000 0.0000 -5.6147 0.0000 31.6896
#
#
#
# Elastic Compliance Matrix: (Units=1/GPa)
#
#
# Indices 1 2 3 4 5 6 
#
# 1 0.009391 -0.006157 -0.001853 0.000000 0.004926 0.000000
# 2 -0.006157 0.028528 -0.005354 0.000000 -0.004362 0.000000
# 3 -0.001853 -0.005354 0.010415 0.000000 0.006070 0.000000
# 4 0.000000 0.000000 0.000000 0.046657 0.000000 0.008267
# 5 0.004926 -0.004362 0.006070 0.000000 0.059743 0.000000
# 6 0.000000 0.000000 0.000000 0.008267 0.000000 0.033021
#
#
# Mechanical properties :
#
#
# Convention : Reuss Voigt Hill
#
# Bulk Modulus (GPa) = 46.28477 67.22904 56.75691
# Shear Modulus (GPa) = 22.55458 28.20075 25.37766
#
# Velocity S-wave (km/s) = 3.41830 3.82228 3.62592
# Velocity P-wave (km/s) = 6.28953 7.36946 6.85081
#
# Compressibility (1/GPa) = 0.02160538
#
# Stress axis : x y z
#
# Youngs Moduli (GPa) = 106.48137 35.05332 96.01748
#
# Poissons Ratio (x) = 0.21583 0.17795
# Poissons Ratio (y) = 0.65561 0.51408
# Poissons Ratio (z) = 0.19734 0.18767
#
# Static dielectric constant tensor:
#      x y z
#    x 3.651270 0.000000 -0.045770 
#    y 0.000000 3.182300 0.000000 
#    z -0.045770 0.000000 3.667900 
# 
# 
# High freq. dielectric constant tensor:
#      x y z
#    x 1.761190 0.000000 -0.004810 
#    y 0.000000 1.720940 0.000000 
#    z -0.004810 0.000000 1.752980 
# 
# From -- ./inp_files/338699.got.cif
#   From: 2010.06.25/outbox.cif.g09.slc.cpg/sg12_170_cif.got.tgz:338699.got - 2010.06.28 00:19:55.
