data_PCOD8092389
_publ_section_title
;
Structure prediction by ZEFSAII (Michael W. Deem and Ramdas Pophale) SiO2 
 PCOD8092389
Probable space group: C 2/M
;
_chemical_formula_sum "Si O2"
_cell_formula_units_Z 64
_cell_length_a 19.254606
_cell_length_b 9.187987
_cell_length_c 29.122669
_cell_angle_alpha 90.000000
_cell_angle_beta 136.122410
_cell_angle_gamma 90.000000
_cell_volume 3571.038892
_symmetry_space_group_name_H-M "C 2/M"
_symmetry_group_IT_number 12
_symmetry_cell_setting 'monoclinic'
loop_
_space_group_symop_operation_xyz
x,y,z
-x,y,-z
-x,-y,-z
x,-y,z
1/2+x,1/2+y,z
1/2-x,1/2+y,-z
1/2-x,1/2-y,-z
1/2+x,1/2-y,z
loop_
_atom_site_type_symbol
_atom_site_label
_atom_site_fract_x
_atom_site_fract_y
_atom_site_fract_z
Si Si1 0.955946 0.661065 0.529971
Si Si2 0.964650 0.167214 0.841924
Si Si3 0.744981 0.668211 0.217989
Si Si4 0.269946 0.170405 0.389946
Si Si5 0.449286 0.665419 0.728244
Si Si6 0.836981 0.327478 0.068953
Si Si7 0.858003 0.666878 0.182365
Si Si8 0.367221 0.672603 0.351289
O O1 0.965661 0.500000 0.556553
O O2 0.838459 0.704942 0.467534
O O3 0.000000 0.660258 0.500000
O O4 0.016747 0.774316 0.590414
O O5 0.870372 0.211462 0.828593
O O6 0.932625 0.194013 0.774261
O O7 0.056670 0.270940 0.899661
O O8 0.996429 0.000000 0.865417
O O9 0.762637 0.500000 0.240635
O O10 0.768066 0.694360 0.175197
O O11 0.819823 0.769691 0.281853
O O12 0.303527 0.266948 0.363143
O O13 0.154540 0.208117 0.346645
O O14 0.280446 0.000000 0.380880
O O15 0.477733 0.500000 0.731987
O O16 0.540730 0.757103 0.751568
O O17 0.829673 0.500000 0.058971
O O18 0.825049 0.277244 0.116394
O O19 0.750000 0.250000 0.000000
O O20 0.887079 0.500000 0.192343
O O21 0.365360 0.500000 0.350879
#
# Coordination Sequence:
#
# PCOD8092389 Si02
#       8
#     8   8   8   8   8   8   8   8
#     4   8  15  27  43  62  91 130 171 210 252 307
#     4   9  17  31  54  78  99 130 169 206 245 289
#     4  10  19  35  54  72 101 137 171 205 248 305
#     4   9  16  29  47  68  94 131 174 211 253 307
#     4   9  16  29  50  74  99 128 165 210 255 301
#     4  10  20  36  57  81 107 134 166 200 242 292
#     4   9  20  35  53  77 103 132 167 208 247 292
#     4  11  20  27  42  70 102 131 164 211 262 301
#
# _framework density 17.921955000000001
#
# number of rings (size 3 to 8) (size 9 to 14) (size 15 to 20)
#    0.000    2.625    1.250    2.250    0.000    4.250 
#    0.000    0.625    0.000    4.500    0.000    0.000 
#    0.000    0.000    0.000    0.000    0.000    0.000 
#
# Total GULP energy -396701.338444 kJ/mol
# GULP energy per Si atom -12396.916826 kJ/mol
# Density = 1.788116 g / cm^3
# Si number density = 17.921955 Si / 1000 Ang^3
#
#
#
# Elastic Constant Matrix: (Units=GPa)
#
#
# Indices 1 2 3 4 5 6 
#
# 1 85.9676 34.7767 44.5413 0.0000 15.0141 0.0000
# 2 34.7767 86.2421 58.6446 0.0000 6.5040 0.0000
# 3 44.5413 58.6446 126.5498 0.0000 22.5489 0.0000
# 4 0.0000 0.0000 0.0000 26.5224 0.0000 5.6063
# 5 15.0141 6.5040 22.5489 0.0000 21.2167 0.0000
# 6 0.0000 0.0000 0.0000 5.6063 0.0000 19.9635
#
#
#
# Elastic Compliance Matrix: (Units=1/GPa)
#
#
# Indices 1 2 3 4 5 6 
#
# 1 0.015846 -0.004294 -0.002250 0.000000 -0.007506 0.000000
# 2 -0.004294 0.018357 -0.008061 0.000000 0.005978 0.000000
# 3 -0.002250 -0.008061 0.014440 0.000000 -0.011283 0.000000
# 4 0.000000 0.000000 0.000000 0.040083 0.000000 -0.011257
# 5 -0.007506 0.005978 -0.011283 0.000000 0.062604 0.000000
# 6 0.000000 0.000000 0.000000 -0.011257 0.000000 0.053253
#
#
# Mechanical properties :
#
#
# Convention : Reuss Voigt Hill
#
# Bulk Modulus (GPa) = 51.45671 63.85386 57.65528
# Shear Modulus (GPa) = 20.80993 24.26031 22.53512
#
# Velocity S-wave (km/s) = 3.41125 3.68321 3.54983
# Velocity P-wave (km/s) = 6.65503 7.33446 7.00299
#
# Compressibility (1/GPa) = 0.01943381
#
# Stress axis : x y z
#
# Youngs Moduli (GPa) = 63.10778 54.47443 69.25226
#
# Poissons Ratio (x) = 0.23389 0.15582
# Poissons Ratio (y) = 0.27096 0.55824
# Poissons Ratio (z) = 0.14200 0.43911
#
# Static dielectric constant tensor:
#      x y z
#    x 3.120700 0.000000 0.216020 
#    y 0.000000 3.265430 0.000000 
#    z 0.216020 0.000000 3.498200 
# 
# 
# High freq. dielectric constant tensor:
#      x y z
#    x 1.662190 0.000000 0.019620 
#    y 0.000000 1.688320 0.000000 
#    z 0.019620 0.000000 1.691400 
# 
# From -- ./inp_files/378359.got.cif
#   From: 2010.06.25/outbox.cif.g09.slc.cpg/sg12_190_cif.got.tgz:378359.got - 2010.06.28 00:19:55.
