data_PCOD8092899
_publ_section_title
;
Structure prediction by ZEFSAII (Michael W. Deem and Ramdas Pophale) SiO2 
 PCOD8092899
Probable space group: C 2/M
;
_chemical_formula_sum "Si O2"
_cell_formula_units_Z 48
_cell_length_a 12.981326
_cell_length_b 13.515017
_cell_length_c 13.567457
_cell_angle_alpha 90.000000
_cell_angle_beta 78.244062
_cell_angle_gamma 90.000000
_cell_volume 2330.384621
_symmetry_space_group_name_H-M "C 2/M"
_symmetry_group_IT_number 12
_symmetry_cell_setting 'monoclinic'
loop_
_space_group_symop_operation_xyz
x,y,z
-x,y,-z
-x,-y,-z
x,-y,z
1/2+x,1/2+y,z
1/2-x,1/2+y,-z
1/2-x,1/2-y,-z
1/2+x,1/2-y,z
loop_
_atom_site_type_symbol
_atom_site_label
_atom_site_fract_x
_atom_site_fract_y
_atom_site_fract_z
Si Si1 0.162876 0.288360 0.406339
Si Si2 0.807997 0.385832 0.408438
Si Si3 0.343891 0.616705 0.247180
Si Si4 0.929996 0.388558 0.181274
Si Si5 0.268788 0.228969 0.109299
Si Si6 0.446585 0.729446 0.758337
O O1 0.123325 0.346352 0.511660
O O2 0.200820 0.177514 0.426191
O O3 0.260566 0.352766 0.346235
O O4 0.067355 0.276766 0.347978
O O5 0.777884 0.500000 0.427520
O O6 0.870946 0.367907 0.295825
O O7 0.341927 0.500000 0.229055
O O8 0.312062 0.671213 0.151995
O O9 0.461514 0.647854 0.258491
O O10 0.967768 0.500000 0.159670
O O11 0.855324 0.357639 0.105245
O O12 0.031288 0.318263 0.167848
O O13 0.164481 0.185723 0.183089
O O14 0.250000 0.250000 0.000000
#
# Coordination Sequence:
#
# PCOD8092899 Si02
#       6
#     8   8   8   8   8   8
#     4  10  20  37  57  82 122 154 188 228 281 328
#     4  10  19  35  58  83 116 155 191 229 274 332
#     4  10  21  38  58  86 116 148 190 236 279 334
#     4  10  21  38  57  85 115 146 189 233 277 332
#     4  10  22  41  60  82 113 148 185 234 291 341
#     4  10  20  38  57  84 110 151 183 235 279 336
#
# _framework density 20.597458
#
# number of rings (size 3 to 8) (size 9 to 14) (size 15 to 20)
#    0.000    2.000    5.000    0.500    0.000    8.667 
#    0.000    3.333    0.000    3.000    0.000    0.000 
#    0.000    0.000    0.000    0.000    0.000    0.000 
#
# Total GULP energy -297530.405832 kJ/mol
# GULP energy per Si atom -12397.100243 kJ/mol
# Density = 2.055058 g / cm^3
# Si number density = 20.597458 Si / 1000 Ang^3
#
#
#
# Elastic Constant Matrix: (Units=GPa)
#
#
# Indices 1 2 3 4 5 6 
#
# 1 79.9411 12.3240 15.6352 0.0000 24.1207 0.0000
# 2 12.3240 97.6126 -0.1780 0.0000 5.8211 0.0000
# 3 15.6352 -0.1780 91.9244 0.0000 29.7917 0.0000
# 4 0.0000 0.0000 0.0000 22.2696 0.0000 2.1009
# 5 24.1207 5.8211 29.7917 0.0000 27.6294 0.0000
# 6 0.0000 0.0000 0.0000 2.1009 0.0000 16.6983
#
#
#
# Elastic Compliance Matrix: (Units=1/GPa)
#
#
# Indices 1 2 3 4 5 6 
#
# 1 0.017639 -0.001129 0.002938 0.000000 -0.018329 0.000000
# 2 -0.001129 0.010523 0.000940 0.000000 -0.002245 0.000000
# 3 0.002938 0.000940 0.017333 0.000000 -0.021453 0.000000
# 4 0.000000 0.000000 0.000000 0.045444 0.000000 -0.005717
# 5 -0.018329 -0.002245 -0.021453 0.000000 0.075799 0.000000
# 6 0.000000 0.000000 0.000000 -0.005717 0.000000 0.060606
#
#
# Mechanical properties :
#
#
# Convention : Reuss Voigt Hill
#
# Bulk Modulus (GPa) = 19.61037 36.11560 27.86299
# Shear Modulus (GPa) = 20.93430 29.43259 25.18344
#
# Velocity S-wave (km/s) = 3.19149 3.78424 3.50043
# Velocity P-wave (km/s) = 4.80856 6.05525 5.46755
#
# Compressibility (1/GPa) = 0.05099343
#
# Stress axis : x y z
#
# Youngs Moduli (GPa) = 56.69253 95.03280 57.69288
#
# Poissons Ratio (x) = 0.10725 -0.16949
# Poissons Ratio (y) = 0.06398 -0.05423
# Poissons Ratio (z) = -0.16655 -0.08933
#
# Static dielectric constant tensor:
#      x y z
#    x 3.694790 0.000000 0.227390 
#    y 0.000000 3.684350 0.000000 
#    z 0.227390 0.000000 3.714910 
# 
# 
# High freq. dielectric constant tensor:
#      x y z
#    x 1.801460 0.000000 0.017510 
#    y 0.000000 1.796310 0.000000 
#    z 0.017510 0.000000 1.803640 
# 
# From -- ./inp_files/204448.got.cif
#   From: 2010.06.25/outbox.cif.g09.slc.cpg/sg12_103_cif.got.tgz:204448.got - 2010.06.28 00:19:55.
