data_PCOD8092835
_publ_section_title
;
Structure prediction by ZEFSAII (Michael W. Deem and Ramdas Pophale) SiO2 
 PCOD8092835
Probable space group: C 2/M
;
_chemical_formula_sum "Si O2"
_cell_formula_units_Z 64
_cell_length_a 13.269936
_cell_length_b 13.503546
_cell_length_c 27.754138
_cell_angle_alpha 90.000000
_cell_angle_beta 42.215405
_cell_angle_gamma 90.000000
_cell_volume 3341.656478
_symmetry_space_group_name_H-M "C 2/M"
_symmetry_group_IT_number 12
_symmetry_cell_setting 'monoclinic'
loop_
_space_group_symop_operation_xyz
x,y,z
-x,y,-z
-x,-y,-z
x,-y,z
1/2+x,1/2+y,z
1/2-x,1/2+y,-z
1/2-x,1/2-y,-z
1/2+x,1/2-y,z
loop_
_atom_site_type_symbol
_atom_site_label
_atom_site_fract_x
_atom_site_fract_y
_atom_site_fract_z
Si Si1 0.031746 0.888230 0.849280
Si Si2 0.349251 0.793844 0.393336
Si Si3 0.829903 0.887618 0.463485
Si Si4 0.877327 0.114348 0.005311
Si Si5 0.846599 0.112702 0.616507
Si Si6 0.410170 0.800828 0.851095
Si Si7 0.283682 0.887807 0.233289
Si Si8 0.160421 0.300150 0.233547
O O1 0.208718 0.871513 0.793781
O O2 0.964932 0.813213 0.833501
O O3 0.005986 0.000000 0.840245
O O4 0.943320 0.866832 0.929556
O O5 0.313598 0.859634 0.453208
O O6 0.339217 0.678593 0.412044
O O7 0.229263 0.811962 0.393635
O O8 0.514230 0.822373 0.317137
O O9 0.974470 0.872199 0.446831
O O10 0.818390 0.000000 0.449318
O O11 0.732039 0.182151 0.064289
O O12 0.834278 0.000000 0.029215
O O13 0.000000 0.149999 0.000000
O O14 0.788847 0.138447 0.689929
O O15 0.804441 0.000000 0.616882
O O16 0.538502 0.872959 0.825888
O O17 0.372852 0.828047 0.809590
O O18 0.211730 0.814497 0.219313
O O19 0.248366 0.000000 0.229873
#
# Coordination Sequence:
#
# PCOD8092835 Si02
#       8
#     8   8   8   8   8   8   8   8
#     4  10  23  39  56  82 117 152 187 228 276 334
#     4  11  21  35  59  85 112 143 187 236 279 329
#     4  10  22  39  58  81 111 149 188 228 280 337
#     4  10  19  35  60  86 111 147 191 233 277 324
#     4  10  19  35  58  81 105 139 183 227 276 327
#     4  11  21  37  60  85 113 150 189 229 280 331
#     4  10  21  36  56  83 113 143 183 232 277 330
#     4  11  22  36  57  84 114 145 184 232 282 331
#
# _framework density 19.152177999999999
#
# number of rings (size 3 to 8) (size 9 to 14) (size 15 to 20)
#    0.000    1.625    3.750    1.500    0.000    3.000 
#    0.000    0.000    0.000    7.125    0.000    0.000 
#    0.000    0.000    0.000    0.000    0.000    0.000 
#
# Total GULP energy -396908.832291 kJ/mol
# GULP energy per Si atom -12403.401009 kJ/mol
# Density = 1.910859 g / cm^3
# Si number density = 19.152178 Si / 1000 Ang^3
#
#
#
# Elastic Constant Matrix: (Units=GPa)
#
#
# Indices 1 2 3 4 5 6 
#
# 1 56.1725 21.7556 14.8536 0.0000 -11.5019 0.0000
# 2 21.7556 88.3116 23.4722 0.0000 -8.0222 0.0000
# 3 14.8536 23.4722 119.6672 0.0000 -17.8420 0.0000
# 4 0.0000 0.0000 0.0000 23.7438 0.0000 1.9927
# 5 -11.5019 -8.0222 -17.8420 0.0000 22.1944 0.0000
# 6 0.0000 0.0000 0.0000 1.9927 0.0000 13.7073
#
#
#
# Elastic Compliance Matrix: (Units=1/GPa)
#
#
# Indices 1 2 3 4 5 6 
#
# 1 0.021486 -0.004339 -0.000443 0.000000 0.009211 0.000000
# 2 -0.004339 0.012974 -0.001866 0.000000 0.000941 0.000000
# 3 -0.000443 -0.001866 0.009820 0.000000 0.006990 0.000000
# 4 0.000000 0.000000 0.000000 0.042637 0.000000 -0.006198
# 5 0.009211 0.000941 0.006990 0.000000 0.055789 0.000000
# 6 0.000000 0.000000 0.000000 -0.006198 0.000000 0.073855
#
#
# Mechanical properties :
#
#
# Convention : Reuss Voigt Hill
#
# Bulk Modulus (GPa) = 32.27403 42.70158 37.48781
# Shear Modulus (GPa) = 20.81755 25.53376 23.17565
#
# Velocity S-wave (km/s) = 3.30048 3.65527 3.48239
# Velocity P-wave (km/s) = 5.60465 6.33711 5.98210
#
# Compressibility (1/GPa) = 0.03098466
#
# Stress axis : x y z
#
# Youngs Moduli (GPa) = 46.54272 77.07851 101.83648
#
# Poissons Ratio (x) = 0.33442 0.04507
# Poissons Ratio (y) = 0.20193 0.19002
# Poissons Ratio (z) = 0.02060 0.14382
#
# Static dielectric constant tensor:
#      x y z
#    x 3.319140 0.000000 -0.136600 
#    y 0.000000 3.470090 0.000000 
#    z -0.136600 0.000000 3.641960 
# 
# 
# High freq. dielectric constant tensor:
#      x y z
#    x 1.727630 0.000000 -0.010010 
#    y 0.000000 1.739250 0.000000 
#    z -0.010010 0.000000 1.760600 
# 
# From -- ./inp_files/358391.got.cif
#   From: 2010.06.25/outbox.cif.g09.slc.cpg/sg12_180_cif.got.tgz:358391.got - 2010.06.28 00:19:55.
