data_PCOD8092198
_publ_section_title
;
Structure prediction by ZEFSAII (Michael W. Deem and Ramdas Pophale) SiO2 
 PCOD8092198
Probable space group: C 2/M
;
_chemical_formula_sum "Si O2"
_cell_formula_units_Z 48
_cell_length_a 29.104923
_cell_length_b 8.613437
_cell_length_c 14.878408
_cell_angle_alpha 90.000000
_cell_angle_beta 140.104395
_cell_angle_gamma 90.000000
_cell_volume 2392.335663
_symmetry_space_group_name_H-M "C 2/M"
_symmetry_group_IT_number 12
_symmetry_cell_setting 'monoclinic'
loop_
_space_group_symop_operation_xyz
x,y,z
-x,y,-z
-x,-y,-z
x,-y,z
1/2+x,1/2+y,z
1/2-x,1/2+y,-z
1/2-x,1/2-y,-z
1/2+x,1/2-y,z
loop_
_atom_site_type_symbol
_atom_site_label
_atom_site_fract_x
_atom_site_fract_y
_atom_site_fract_z
Si Si1 0.666588 0.180739 0.744643
Si Si2 0.647380 0.680261 0.409256
Si Si3 0.314081 0.819951 0.911096
Si Si4 0.906355 0.180516 0.196358
Si Si5 0.692926 0.820371 0.302758
Si Si6 0.441824 0.819104 0.574150
O O1 0.748382 0.214422 0.843724
O O2 0.645946 0.280557 0.800094
O O3 0.617261 0.231132 0.587270
O O4 0.657244 0.000000 0.753503
O O5 0.631561 0.500000 0.399623
O O6 0.644639 0.722078 0.299483
O O7 0.724158 0.730040 0.564790
O O8 0.586389 0.775836 0.369361
O O9 0.333994 0.783643 0.837735
O O10 0.293269 0.000000 0.891262
O O11 0.383125 0.776919 0.073494
O O12 0.986782 0.226053 0.342896
O O13 0.901282 0.000000 0.166586
O O14 0.684745 0.000000 0.316177
O O15 0.459396 0.000000 0.595733
#
# Coordination Sequence:
#
# PCOD8092198 Si02
#       6
#     8   8   8   8   8   8
#     4  11  23  40  63  89 117 154 201 246 292 347
#     4  10  19  34  59  90 120 151 193 241 291 347
#     4  11  22  40  63  88 121 157 198 243 292 349
#     4  12  26  41  59  85 121 159 198 244 297 352
#     4   9  19  35  58  88 119 153 192 238 292 346
#     4  11  23  40  62  88 120 156 197 244 295 350
#
# _framework density 20.064074999999999
#
# number of rings (size 3 to 8) (size 9 to 14) (size 15 to 20)
#    0.000    1.333    1.667    4.500    0.000    6.000 
#    0.000    0.833    0.000    5.000    0.000    0.000 
#    0.000    0.000    0.000    0.000    0.000    0.000 
#
# Total GULP energy -297784.499817 kJ/mol
# GULP energy per Si atom -12407.687492 kJ/mol
# Density = 2.001841 g / cm^3
# Si number density = 20.064075 Si / 1000 Ang^3
#
#
#
# Elastic Constant Matrix: (Units=GPa)
#
#
# Indices 1 2 3 4 5 6 
#
# 1 64.6221 28.5319 22.9059 0.0000 -24.4701 0.0000
# 2 28.5319 64.9622 22.3478 0.0000 -9.7196 0.0000
# 3 22.9059 22.3478 72.4841 0.0000 -10.5607 0.0000
# 4 0.0000 0.0000 0.0000 28.9545 0.0000 1.9036
# 5 -24.4701 -9.7196 -10.5607 0.0000 28.0463 0.0000
# 6 0.0000 0.0000 0.0000 1.9036 0.0000 36.9572
#
#
#
# Elastic Compliance Matrix: (Units=1/GPa)
#
#
# Indices 1 2 3 4 5 6 
#
# 1 0.027915 -0.008062 -0.003380 0.000000 0.020289 0.000000
# 2 -0.008062 0.020029 -0.003852 0.000000 -0.001544 0.000000
# 3 -0.003380 -0.003852 0.016323 0.000000 0.001863 0.000000
# 4 0.000000 0.000000 0.000000 0.034654 0.000000 -0.001785
# 5 0.020289 -0.001544 0.001863 0.000000 0.053523 0.000000
# 6 0.000000 0.000000 0.000000 -0.001785 0.000000 0.027150
#
#
# Mechanical properties :
#
#
# Convention : Reuss Voigt Hill
#
# Bulk Modulus (GPa) = 29.69263 38.84885 34.27074
# Shear Modulus (GPa) = 22.58262 27.34378 24.96320
#
# Velocity S-wave (km/s) = 3.35852 3.69565 3.53111
# Velocity P-wave (km/s) = 5.46540 6.13309 5.80885
#
# Compressibility (1/GPa) = 0.03367839
#
# Stress axis : x y z
#
# Youngs Moduli (GPa) = 35.82336 49.92815 61.26227
#
# Poissons Ratio (x) = 0.40253 0.20705
# Poissons Ratio (y) = 0.28881 0.23600
# Poissons Ratio (z) = 0.12108 0.19234
#
# Static dielectric constant tensor:
#      x y z
#    x 3.600320 0.000000 -0.176980 
#    y 0.000000 3.592730 0.000000 
#    z -0.176980 0.000000 3.590260 
# 
# 
# High freq. dielectric constant tensor:
#      x y z
#    x 1.786950 0.000000 -0.012970 
#    y 0.000000 1.789640 0.000000 
#    z -0.012970 0.000000 1.771190 
# 
# From -- ./inp_files/244743.got.cif
#   From: 2010.06.25/outbox.cif.g09.slc.cpg/sg12_123_cif.got.tgz:244743.got - 2010.06.28 00:19:55.
