data_PCOD8092737
_publ_section_title
;
Structure prediction by ZEFSAII (Michael W. Deem and Ramdas Pophale) SiO2 
 PCOD8092737
Probable space group: C 2/M
;
_chemical_formula_sum "Si O2"
_cell_formula_units_Z 56
_cell_length_a 10.822787
_cell_length_b 13.838136
_cell_length_c 23.707362
_cell_angle_alpha 90.000000
_cell_angle_beta 53.878834
_cell_angle_gamma 90.000000
_cell_volume 2868.063902
_symmetry_space_group_name_H-M "C 2/M"
_symmetry_group_IT_number 12
_symmetry_cell_setting 'monoclinic'
loop_
_space_group_symop_operation_xyz
x,y,z
-x,y,-z
-x,-y,-z
x,-y,z
1/2+x,1/2+y,z
1/2-x,1/2+y,-z
1/2-x,1/2-y,-z
1/2+x,1/2-y,z
loop_
_atom_site_type_symbol
_atom_site_label
_atom_site_fract_x
_atom_site_fract_y
_atom_site_fract_z
Si Si1 0.839389 0.601913 0.865596
Si Si2 0.795633 0.888250 0.640486
Si Si3 0.122684 0.819097 0.010382
Si Si4 0.823125 0.265728 0.541976
Si Si5 0.601030 0.604028 0.837051
Si Si6 0.943911 0.887108 0.339729
Si Si7 0.444406 0.249486 0.240383
O O1 0.932646 0.500000 0.848546
O O2 0.756948 0.595164 0.828275
O O3 0.936295 0.699795 0.834975
O O4 0.714963 0.602468 0.949046
O O5 0.813711 0.838155 0.575090
O O6 0.658544 0.837737 0.710435
O O7 0.951708 0.875888 0.633238
O O8 0.753978 0.000000 0.642143
O O9 0.039666 0.865770 0.085697
O O10 0.250000 0.750000 0.000000
O O11 0.000000 0.768791 0.000000
O O12 0.750000 0.250000 0.500000
O O13 0.726024 0.348207 0.600381
O O14 0.000000 0.300417 0.500000
O O15 0.557097 0.500000 0.822481
O O16 0.645028 0.676835 0.775382
O O17 0.013392 0.816681 0.272140
O O18 0.936660 0.000000 0.322907
#
# Coordination Sequence:
#
# PCOD8092737 Si02
#       7
#     8   8   8   8   8   8   8
#     4  10  20  34  55  81 111 150 198 246 292 351
#     4  10  22  39  60  86 120 161 195 228 283 348
#     4  10  19  35  57  82 110 151 194 244 302 355
#     4  11  22  40  67  94 118 151 191 236 284 335
#     4  10  20  34  55  81 112 151 195 243 299 353
#     4  10  22  39  59  86 122 158 193 234 283 343
#     4  11  20  35  58  82 115 152 197 244 288 333
#
# _framework density 19.525366999999999
#
# number of rings (size 3 to 8) (size 9 to 14) (size 15 to 20)
#    0.000    1.714    2.857    2.143    0.000    2.857 
#    0.000    0.000    0.000    3.429    0.000    0.000 
#    0.000    0.000    0.000    0.000    0.000    0.000 
#
# Total GULP energy -346881.375715 kJ/mol
# GULP energy per Si atom -12388.620561 kJ/mol
# Density = 1.948093 g / cm^3
# Si number density = 19.525367 Si / 1000 Ang^3
#
#
#
# Elastic Constant Matrix: (Units=GPa)
#
#
# Indices 1 2 3 4 5 6 
#
# 1 81.7823 43.2519 10.6986 0.0000 5.9919 0.0000
# 2 43.2519 139.3770 25.7989 0.0000 7.3713 0.0000
# 3 10.6986 25.7989 53.1820 0.0000 7.6848 0.0000
# 4 0.0000 0.0000 0.0000 -4.7773 0.0000 -3.9246
# 5 5.9919 7.3713 7.6848 0.0000 30.6157 0.0000
# 6 0.0000 0.0000 0.0000 -3.9246 0.0000 27.3581
#
#
#
# Elastic Compliance Matrix: (Units=1/GPa)
#
#
# Indices 1 2 3 4 5 6 
#
# 1 0.014743 -0.004375 -0.000601 0.000000 -0.001681 0.000000
# 2 -0.004375 0.009209 -0.003518 0.000000 -0.000478 0.000000
# 3 -0.000601 -0.003518 0.021263 0.000000 -0.004372 0.000000
# 4 0.000000 0.000000 0.000000 -0.187257 0.000000 -0.026863
# 5 -0.001681 -0.000478 -0.004372 0.000000 0.034205 0.000000
# 6 0.000000 0.000000 0.000000 -0.026863 0.000000 0.032699
#
#
# Mechanical properties :
#
#
# Convention : Reuss Voigt Hill
#
# Bulk Modulus (GPa) = 35.42670 48.20442 41.81556
# Shear Modulus (GPa) = -102.58045 23.61211 -39.48417
#
# Velocity S-wave (km/s) = -7.25611 3.48128 -4.50176
# Velocity P-wave (km/s) = 7.21236 6.39537 2.35768
#
# Compressibility (1/GPa) = 0.02822730
#
# Stress axis : x y z
#
# Youngs Moduli (GPa) = 67.82811 108.58999 47.03077
#
# Poissons Ratio (x) = 0.47509 0.02824
# Poissons Ratio (y) = 0.29675 0.16546
# Poissons Ratio (z) = 0.04073 0.38203
#
# Static dielectric constant tensor:
#      x y z
#    x 3.654890 0.000000 0.038260 
#    y 0.000000 3.873250 0.000000 
#    z 0.038260 0.000000 3.927150 
# 
# 
# High freq. dielectric constant tensor:
#      x y z
#    x 1.748300 0.000000 0.007220 
#    y 0.000000 1.767240 0.000000 
#    z 0.007220 0.000000 1.766830 
# 
# From -- ./inp_files/304693.got.cif
#   From: 2010.06.25/outbox.cif.g09.slc.cpg/sg12_153_cif.got.tgz:304693.got - 2010.06.28 00:19:55.
