data_PCOD8092116
_publ_section_title
;
Structure prediction by ZEFSAII (Michael W. Deem and Ramdas Pophale) SiO2 
 PCOD8092116
Probable space group: C 2/M
;
_chemical_formula_sum "Si O2"
_cell_formula_units_Z 56
_cell_length_a 20.296122
_cell_length_b 8.999077
_cell_length_c 17.682391
_cell_angle_alpha 90.000000
_cell_angle_beta 116.214978
_cell_angle_gamma 90.000000
_cell_volume 2897.434704
_symmetry_space_group_name_H-M "C 2/M"
_symmetry_group_IT_number 12
_symmetry_cell_setting 'monoclinic'
loop_
_space_group_symop_operation_xyz
x,y,z
-x,y,-z
-x,-y,-z
x,-y,z
1/2+x,1/2+y,z
1/2-x,1/2+y,-z
1/2-x,1/2-y,-z
1/2+x,1/2-y,z
loop_
_atom_site_type_symbol
_atom_site_label
_atom_site_fract_x
_atom_site_fract_y
_atom_site_fract_z
Si Si1 0.673718 0.324702 0.443135
Si Si2 0.431506 0.173607 0.189129
Si Si3 0.418762 0.323708 0.463610
Si Si4 0.840644 0.826679 0.272837
Si Si5 0.321253 0.827462 0.003083
Si Si6 0.913184 0.175586 0.748417
Si Si7 0.671694 0.172674 0.163757
O O1 0.684198 0.500000 0.454012
O O2 0.750000 0.250000 0.500000
O O3 0.616699 0.265918 0.476928
O O4 0.643769 0.276408 0.346018
O O5 0.377581 0.231484 0.226305
O O6 0.392886 0.205749 0.089300
O O7 0.507965 0.258282 0.231333
O O8 0.445693 0.000000 0.208384
O O9 0.500000 0.254414 0.500000
O O10 0.422845 0.500000 0.465934
O O11 0.371576 0.269459 0.368327
O O12 0.754387 0.795147 0.231432
O O13 0.857670 0.000000 0.266797
O O14 0.301258 0.000000 0.990467
O O15 0.250000 0.750000 0.000000
O O16 0.338708 0.771078 0.927412
O O17 0.884307 0.235343 0.813420
O O18 0.921603 0.000000 0.756529
O O19 0.651463 0.000000 0.161974
#
# Coordination Sequence:
#
# PCOD8092116 Si02
#       7
#     8   8   8   8   8   8   8
#     4  10  21  38  60  84 113 152 194 237 286 343
#     4  11  23  38  59  86 119 155 191 240 297 347
#     4   9  17  31  53  80 109 143 186 232 276 331
#     4  10  19  34  59  85 111 150 194 236 288 348
#     4  10  21  38  61  88 116 151 193 240 291 348
#     4  11  24  40  59  86 119 156 198 241 289 346
#     4  10  21  38  60  85 115 152 195 241 292 349
#
# _framework density 19.327441
#
# number of rings (size 3 to 8) (size 9 to 14) (size 15 to 20)
#    0.000    1.857    1.429    2.571    0.000    6.857 
#    0.000    3.571    0.000    1.714    0.000    0.000 
#    0.000    0.000    0.000    0.000    0.000    0.000 
#
# Total GULP energy -347291.934361 kJ/mol
# GULP energy per Si atom -12403.283370 kJ/mol
# Density = 1.928345 g / cm^3
# Si number density = 19.327441 Si / 1000 Ang^3
#
#
#
# Elastic Constant Matrix: (Units=GPa)
#
#
# Indices 1 2 3 4 5 6 
#
# 1 66.3465 22.5796 6.8239 0.0000 -5.4493 0.0000
# 2 22.5796 50.8233 26.3654 0.0000 0.6889 0.0000
# 3 6.8239 26.3654 93.5209 0.0000 -10.1520 0.0000
# 4 0.0000 0.0000 0.0000 26.5648 0.0000 -2.7375
# 5 -5.4493 0.6889 -10.1520 0.0000 37.8316 0.0000
# 6 0.0000 0.0000 0.0000 -2.7375 0.0000 29.4614
#
#
#
# Elastic Compliance Matrix: (Units=1/GPa)
#
#
# Indices 1 2 3 4 5 6 
#
# 1 0.018218 -0.008934 0.001537 0.000000 0.003199 0.000000
# 2 -0.008934 0.027612 -0.007547 0.000000 -0.003815 0.000000
# 3 0.001537 -0.007547 0.013130 0.000000 0.003882 0.000000
# 4 0.000000 0.000000 0.000000 0.038008 0.000000 0.003532
# 5 0.003199 -0.003815 0.003882 0.000000 0.028005 0.000000
# 6 0.000000 0.000000 0.000000 0.003532 0.000000 0.034271
#
#
# Mechanical properties :
#
#
# Convention : Reuss Voigt Hill
#
# Bulk Modulus (GPa) = 34.39851 35.80318 35.10085
# Shear Modulus (GPa) = 25.14820 29.09966 27.12393
#
# Velocity S-wave (km/s) = 3.61108 3.88443 3.75025
# Velocity P-wave (km/s) = 5.93489 6.21958 6.07890
#
# Compressibility (1/GPa) = 0.02907102
#
# Stress axis : x y z
#
# Youngs Moduli (GPa) = 54.89174 36.21626 76.16383
#
# Poissons Ratio (x) = 0.32357 -0.11704
# Poissons Ratio (y) = 0.49042 0.57477
# Poissons Ratio (z) = -0.08435 0.27331
#
# Static dielectric constant tensor:
#      x y z
#    x 3.846950 0.000000 -0.309050 
#    y 0.000000 3.348970 0.000000 
#    z -0.309050 0.000000 4.156330 
# 
# 
# High freq. dielectric constant tensor:
#      x y z
#    x 1.760490 0.000000 -0.001240 
#    y 0.000000 1.732470 0.000000 
#    z -0.001240 0.000000 1.771160 
# 
# From -- ./inp_files/275607.got.cif
#   From: 2010.06.25/outbox.cif.g09.slc.cpg/sg12_138_cif.got.tgz:275607.got - 2010.06.28 00:19:55.
