data_PCOD8092717
_publ_section_title
;
Structure prediction by ZEFSAII (Michael W. Deem and Ramdas Pophale) SiO2 
 PCOD8092717
Probable space group: C 2/M
;
_chemical_formula_sum "Si O2"
_cell_formula_units_Z 56
_cell_length_a 16.712042
_cell_length_b 17.392840
_cell_length_c 25.514500
_cell_angle_alpha 90.000000
_cell_angle_beta 154.925645
_cell_angle_gamma 90.000000
_cell_volume 3142.982366
_symmetry_space_group_name_H-M "C 2/M"
_symmetry_group_IT_number 12
_symmetry_cell_setting 'monoclinic'
loop_
_space_group_symop_operation_xyz
x,y,z
-x,y,-z
-x,-y,-z
x,-y,z
1/2+x,1/2+y,z
1/2-x,1/2+y,-z
1/2-x,1/2-y,-z
1/2+x,1/2-y,z
loop_
_atom_site_type_symbol
_atom_site_label
_atom_site_fract_x
_atom_site_fract_y
_atom_site_fract_z
Si Si1 0.242085 0.090610 0.523828
Si Si2 0.931416 0.409762 0.837496
Si Si3 0.772255 0.154982 0.669350
Si Si4 0.522642 0.911970 0.435369
Si Si5 0.160024 0.909335 0.881944
Si Si6 0.352558 0.590948 0.243475
Si Si7 0.784193 0.168530 0.383250
O O1 0.411192 0.109707 0.583855
O O2 0.283208 0.135996 0.601182
O O3 0.047397 0.121749 0.383498
O O4 0.229408 0.000000 0.528134
O O5 0.899451 0.500000 0.810177
O O6 0.820514 0.380854 0.823282
O O7 0.854795 0.366209 0.741906
O O8 0.150467 0.388970 0.974346
O O9 0.653646 0.141476 0.652491
O O10 0.696636 0.098527 0.578916
O O11 0.740053 0.240663 0.630369
O O12 0.990091 0.135561 0.809769
O O13 0.457358 0.000000 0.398860
O O14 0.176786 0.877432 0.832547
O O15 0.120438 0.000000 0.859457
O O16 0.356720 0.500000 0.243274
O O17 0.000000 0.143895 0.500000
#
# Coordination Sequence:
#
# PCOD8092717 Si02
#       7
#     8   8   8   8   8   8   8
#     4  10  20  34  57  82 111 146 182 226 272 323
#     4  10  21  35  55  78 108 149 184 220 264 325
#     4  11  21  35  53  83 110 142 177 233 282 321
#     4  10  19  35  57  82 106 140 189 235 274 312
#     4  10  19  35  57  81 106 138 185 232 274 316
#     4   9  16  29  52  82 106 129 168 224 277 315
#     4  12  23  36  51  81 118 151 179 213 274 339
#
# _framework density 17.817471000000001
#
# number of rings (size 3 to 8) (size 9 to 14) (size 15 to 20)
#    0.000    1.714    4.286    2.571    0.000    3.429 
#    2.571    0.000    0.000    0.857    0.000    4.000 
#    0.000    0.000    0.000    0.000    0.000    0.000 
#
# Total GULP energy -347249.897366 kJ/mol
# GULP energy per Si atom -12401.782049 kJ/mol
# Density = 1.777692 g / cm^3
# Si number density = 17.817471 Si / 1000 Ang^3
#
#
#
# Elastic Constant Matrix: (Units=GPa)
#
#
# Indices 1 2 3 4 5 6 
#
# 1 131.2837 48.6374 61.5725 0.0060 8.5472 0.0030
# 2 48.6374 54.8222 31.0090 -0.0257 2.3339 -0.0181
# 3 61.5725 31.0090 110.6729 -0.0333 5.2797 -0.0199
# 4 0.0060 -0.0257 -0.0333 19.3079 0.0024 1.0730
# 5 8.5472 2.3339 5.2797 0.0024 26.6362 0.0017
# 6 0.0030 -0.0181 -0.0199 1.0730 0.0017 24.1045
#
#
#
# Elastic Compliance Matrix: (Units=1/GPa)
#
#
# Indices 1 2 3 4 5 6 
#
# 1 0.013384 -0.009058 -0.004786 -0.000024 -0.002552 -0.000011
# 2 -0.009058 0.027819 -0.002804 0.000034 0.001025 0.000018
# 3 -0.004786 -0.002804 0.012518 0.000019 -0.000700 0.000008
# 4 -0.000024 0.000034 0.000019 0.051921 -0.000004 -0.002311
# 5 -0.002552 0.001025 -0.000700 -0.000004 0.038411 -0.000002
# 6 -0.000011 0.000018 0.000008 -0.002311 -0.000002 0.041589
#
#
# Mechanical properties :
#
#
# Convention : Reuss Voigt Hill
#
# Bulk Modulus (GPa) = 48.96242 64.35743 56.65992
# Shear Modulus (GPa) = 22.14877 24.38038 23.26458
#
# Velocity S-wave (km/s) = 3.52958 3.70312 3.61739
# Velocity P-wave (km/s) = 6.64456 7.38126 7.02258
#
# Compressibility (1/GPa) = 0.02042383
#
# Stress axis : x y z
#
# Youngs Moduli (GPa) = 74.71692 35.94625 79.88765
#
# Poissons Ratio (x) = 0.32560 0.38237
# Poissons Ratio (y) = 0.67678 0.22401
# Poissons Ratio (z) = 0.35762 0.10080
#
# Static dielectric constant tensor:
#      x y z
#    x 3.436210 0.000000 0.089430 
#    y 0.000000 3.058490 -0.000020 
#    z 0.089430 -0.000020 3.159540 
# 
# 
# High freq. dielectric constant tensor:
#      x y z
#    x 1.697770 0.000000 0.007570 
#    y 0.000000 1.667070 0.000000 
#    z 0.007570 0.000000 1.672410 
# 
# From -- ./inp_files/157715.got.cif
#   From: 2010.06.25/outbox.cif.g09.slc.cpg/sg12_79_cif.got.tgz:157715.got - 2010.06.28 00:19:55.
