data_PCOD8092139
_publ_section_title
;
Structure prediction by ZEFSAII (Michael W. Deem and Ramdas Pophale) SiO2 
 PCOD8092139
Probable space group: C 2/M
;
_chemical_formula_sum "Si O2"
_cell_formula_units_Z 48
_cell_length_a 29.024344
_cell_length_b 10.704804
_cell_length_c 24.002514
_cell_angle_alpha 90.000000
_cell_angle_beta 19.687559
_cell_angle_gamma 90.000000
_cell_volume 2512.389936
_symmetry_space_group_name_H-M "C 2/M"
_symmetry_group_IT_number 12
_symmetry_cell_setting 'monoclinic'
loop_
_space_group_symop_operation_xyz
x,y,z
-x,y,-z
-x,-y,-z
x,-y,z
1/2+x,1/2+y,z
1/2-x,1/2+y,-z
1/2-x,1/2-y,-z
1/2+x,1/2-y,z
loop_
_atom_site_type_symbol
_atom_site_label
_atom_site_fract_x
_atom_site_fract_y
_atom_site_fract_z
Si Si1 0.965067 0.141361 0.663503
Si Si2 0.622703 0.363468 0.818057
Si Si3 0.705339 0.146998 0.899940
Si Si4 0.864810 0.142402 0.429096
Si Si5 0.073195 0.772126 0.758740
Si Si6 0.774349 0.142680 0.698008
O O1 0.821481 0.206243 0.808855
O O2 0.038080 0.206853 0.634040
O O3 0.063091 0.144098 0.497381
O O4 0.932486 0.000000 0.718435
O O5 0.694899 0.500000 0.745309
O O6 0.566466 0.364713 0.818875
O O7 0.716350 0.241295 0.718973
O O8 0.500000 0.348921 0.000000
O O9 0.733568 0.194771 0.805029
O O10 0.725913 0.000000 0.875551
O O11 0.554978 0.178676 0.092440
O O12 0.938768 0.152278 0.285207
O O13 0.715299 0.199882 0.597606
O O14 0.843191 0.000000 0.471162
O O15 0.718093 0.000000 0.752071
#
# Coordination Sequence:
#
# PCOD8092139 Si02
#       6
#     8   8   8   8   8   8
#     4   9  18  34  56  83 114 143 178 232 288 328
#     4  11  22  36  55  83 118 152 183 228 287 336
#     4  10  20  33  55  86 114 141 183 236 282 329
#     4  10  21  36  55  78 107 143 189 238 282 327
#     4  11  21  35  55  81 106 149 188 232 273 334
#     4  10  19  34  59  87 112 145 189 232 276 330
#
# _framework density 19.105315000000001
#
# number of rings (size 3 to 8) (size 9 to 14) (size 15 to 20)
#    0.000    1.833    3.333    1.500    0.000    3.667 
#    0.000    0.000    0.000    4.000    0.000    0.000 
#    0.000    0.000    0.000    0.000    0.000    0.000 
#
# Total GULP energy -297377.311855 kJ/mol
# GULP energy per Si atom -12390.721327 kJ/mol
# Density = 1.906183 g / cm^3
# Si number density = 19.105315 Si / 1000 Ang^3
#
#
#
# Elastic Constant Matrix: (Units=GPa)
#
#
# Indices 1 2 3 4 5 6 
#
# 1 124.5475 21.8820 59.6123 -0.0007 1.5811 0.0003
# 2 21.8820 63.2063 10.7863 -0.0020 -8.3791 0.0003
# 3 59.6123 10.7863 86.8284 -0.0016 4.0019 0.0007
# 4 -0.0007 -0.0020 -0.0016 12.9899 0.0011 8.3087
# 5 1.5811 -8.3791 4.0019 0.0011 33.8310 -0.0003
# 6 0.0003 0.0003 0.0007 8.3087 -0.0003 10.6343
#
#
#
# Elastic Compliance Matrix: (Units=1/GPa)
#
#
# Indices 1 2 3 4 5 6 
#
# 1 0.012468 -0.002968 -0.008175 -0.000002 -0.000351 0.000002
# 2 -0.002968 0.017506 -0.000345 0.000004 0.004515 -0.000004
# 3 -0.008175 -0.000345 0.017253 0.000005 -0.001744 -0.000005
# 4 -0.000002 0.000004 0.000005 0.153889 -0.000005 -0.120236
# 5 -0.000351 0.004515 -0.001744 -0.000005 0.030900 0.000005
# 6 0.000002 -0.000004 -0.000005 -0.120236 0.000005 0.187977
#
#
# Mechanical properties :
#
#
# Convention : Reuss Voigt Hill
#
# Bulk Modulus (GPa) = 41.23586 51.01590 46.12588
# Shear Modulus (GPa) = 11.08519 23.64448 17.36483
#
# Velocity S-wave (km/s) = 2.41138 3.52175 3.01807
# Velocity P-wave (km/s) = 5.42064 6.58008 6.02830
#
# Compressibility (1/GPa) = 0.02425073
#
# Stress axis : x y z
#
# Youngs Moduli (GPa) = 80.20738 57.12271 57.96172
#
# Poissons Ratio (x) = 0.16953 0.47383
# Poissons Ratio (y) = 0.23803 0.02001
# Poissons Ratio (z) = 0.65569 0.01973
#
# Static dielectric constant tensor:
#      x y z
#    x 3.928780 0.000000 0.087630 
#    y 0.000000 3.274200 0.000000 
#    z 0.087630 0.000000 3.450200 
# 
# 
# High freq. dielectric constant tensor:
#      x y z
#    x 1.754450 0.000000 0.010950 
#    y 0.000000 1.707020 0.000000 
#    z 0.010950 0.000000 1.740100 
# 
# From -- ./inp_files/94412.got.cif
#   From: 2010.06.25/outbox.cif.g09.slc.cpg/sg12_48_cif.got.tgz:94412.got - 2010.06.28 00:19:55.
