data_PCOD8092732
_publ_section_title
;
Structure prediction by ZEFSAII (Michael W. Deem and Ramdas Pophale) SiO2 
 PCOD8092732
Probable space group: C 2/M
;
_chemical_formula_sum "Si O2"
_cell_formula_units_Z 64
_cell_length_a 23.373873
_cell_length_b 11.772427
_cell_length_c 12.414873
_cell_angle_alpha 90.000000
_cell_angle_beta 89.333803
_cell_angle_gamma 90.000000
_cell_volume 3415.935089
_symmetry_space_group_name_H-M "C 2/M"
_symmetry_group_IT_number 12
_symmetry_cell_setting 'monoclinic'
loop_
_space_group_symop_operation_xyz
x,y,z
-x,y,-z
-x,-y,-z
x,-y,z
1/2+x,1/2+y,z
1/2-x,1/2+y,-z
1/2-x,1/2-y,-z
1/2+x,1/2-y,z
loop_
_atom_site_type_symbol
_atom_site_label
_atom_site_fract_x
_atom_site_fract_y
_atom_site_fract_z
Si Si1 0.900760 0.370145 0.044173
Si Si2 0.267128 0.132813 0.063610
Si Si3 0.537646 0.807840 0.752992
Si Si4 0.751682 0.869004 0.691915
Si Si5 0.635457 0.128899 0.592136
Si Si6 0.866362 0.763612 0.624425
Si Si7 0.415003 0.125831 0.807552
Si Si8 0.483333 0.629031 0.615494
O O1 0.923383 0.500000 0.051884
O O2 0.834668 0.364718 0.074906
O O3 0.935878 0.294927 0.128708
O O4 0.912935 0.316231 0.926031
O O5 0.239524 0.150495 0.181301
O O6 0.250705 0.000000 0.021974
O O7 0.250000 0.250000 0.000000
O O8 0.582028 0.870266 0.674206
O O9 0.478697 0.878353 0.757658
O O10 0.521376 0.684355 0.708502
O O11 0.691250 0.818801 0.650888
O O12 0.803005 0.813397 0.623861
O O13 0.752714 0.000000 0.663461
O O14 0.621392 0.198854 0.486168
O O15 0.646516 0.000000 0.556357
O O16 0.870564 0.682889 0.727748
O O17 0.915411 0.858939 0.636934
O O18 0.390994 0.000000 0.824784
O O19 0.500000 0.684007 0.500000
O O20 0.501997 0.500000 0.617408
#
# Coordination Sequence:
#
# PCOD8092732 Si02
#       8
#     8   8   8   8   8   8   8   8
#     4  10  19  35  57  81 114 151 184 225 280 341
#     4  10  20  36  59  84 115 156 196 240 288 345
#     4  11  20  35  58  83 110 145 185 228 277 340
#     4  10  21  37  57  80 110 152 196 233 282 344
#     4  11  21  35  56  84 115 146 182 233 288 340
#     4  11  21  36  56  81 110 146 187 234 277 331
#     4  10  21  33  54  86 116 146 179 223 279 336
#     4  10  21  38  56  77 107 144 186 229 276 334
#
# _framework density 18.735717999999999
#
# number of rings (size 3 to 8) (size 9 to 14) (size 15 to 20)
#    0.000    1.625    2.500    3.375    0.000    1.000 
#    0.000    3.125    0.000    9.000    0.000    0.000 
#    0.000    0.000    0.000    0.000    0.000    0.000 
#
# Total GULP energy -396588.581276 kJ/mol
# GULP energy per Si atom -12393.393165 kJ/mol
# Density = 1.869308 g / cm^3
# Si number density = 18.735718 Si / 1000 Ang^3
#
#
#
# Elastic Constant Matrix: (Units=GPa)
#
#
# Indices 1 2 3 4 5 6 
#
# 1 84.5981 16.4401 20.2445 0.0000 -1.0022 0.0000
# 2 16.4401 72.7599 35.9025 0.0000 13.6076 0.0000
# 3 20.2445 35.9025 115.1629 0.0000 7.7619 0.0000
# 4 0.0000 0.0000 0.0000 23.7141 0.0000 1.9315
# 5 -1.0022 13.6076 7.7619 0.0000 33.5962 0.0000
# 6 0.0000 0.0000 0.0000 1.9315 0.0000 13.3095
#
#
#
# Elastic Compliance Matrix: (Units=1/GPa)
#
#
# Indices 1 2 3 4 5 6 
#
# 1 0.012690 -0.002400 -0.001598 0.000000 0.001720 0.000000
# 2 -0.002400 0.017760 -0.004698 0.000000 -0.006180 0.000000
# 3 -0.001598 -0.004698 0.010467 0.000000 -0.000563 0.000000
# 4 0.000000 0.000000 0.000000 0.042673 0.000000 -0.006193
# 5 0.001720 -0.006180 -0.000563 0.000000 0.032450 0.000000
# 6 0.000000 0.000000 0.000000 -0.006193 0.000000 0.076033
#
#
# Mechanical properties :
#
#
# Convention : Reuss Voigt Hill
#
# Bulk Modulus (GPa) = 42.51140 46.41055 44.46098
# Shear Modulus (GPa) = 23.00880 27.45289 25.23084
#
# Velocity S-wave (km/s) = 3.50819 3.83204 3.67368
# Velocity P-wave (km/s) = 6.25693 6.66365 6.46349
#
# Compressibility (1/GPa) = 0.02352310
#
# Stress axis : x y z
#
# Youngs Moduli (GPa) = 78.80276 56.30551 95.53820
#
# Poissons Ratio (x) = 0.13515 0.15271
# Poissons Ratio (y) = 0.18915 0.44888
# Poissons Ratio (z) = 0.12596 0.26455
#
# Static dielectric constant tensor:
#      x y z
#    x 3.437800 0.000000 -0.013750 
#    y 0.000000 3.384930 0.000000 
#    z -0.013750 0.000000 3.586140 
# 
# 
# High freq. dielectric constant tensor:
#      x y z
#    x 1.733400 0.000000 -0.008520 
#    y 0.000000 1.703710 0.000000 
#    z -0.008520 0.000000 1.736370 
# 
# From -- ./inp_files/174641.got.cif
#   From: 2010.06.25/outbox.cif.g09.slc.cpg/sg12_88_cif.got.tgz:174641.got - 2010.06.28 00:19:55.
