data_PCOD8092185
_publ_section_title
;
Structure prediction by ZEFSAII (Michael W. Deem and Ramdas Pophale) SiO2 
 PCOD8092185
Probable space group: C 2/M
;
_chemical_formula_sum "Si O2"
_cell_formula_units_Z 64
_cell_length_a 20.396042
_cell_length_b 8.869844
_cell_length_c 33.530476
_cell_angle_alpha 90.000000
_cell_angle_beta 146.862662
_cell_angle_gamma 90.000000
_cell_volume 3315.959155
_symmetry_space_group_name_H-M "C 2/M"
_symmetry_group_IT_number 12
_symmetry_cell_setting 'monoclinic'
loop_
_space_group_symop_operation_xyz
x,y,z
-x,y,-z
-x,-y,-z
x,-y,z
1/2+x,1/2+y,z
1/2-x,1/2+y,-z
1/2-x,1/2-y,-z
1/2+x,1/2-y,z
loop_
_atom_site_type_symbol
_atom_site_label
_atom_site_fract_x
_atom_site_fract_y
_atom_site_fract_z
Si Si1 0.418527 0.177050 0.721930
Si Si2 0.889432 0.178968 0.790569
Si Si3 0.649216 0.323934 0.803324
Si Si4 0.669008 0.322968 0.721407
Si Si5 0.873674 0.825957 0.955593
Si Si6 0.566402 0.175952 0.422123
Si Si7 0.869245 0.176339 0.044845
Si Si8 0.771078 0.674913 0.569574
O O1 0.370058 0.257453 0.736595
O O2 0.549746 0.233702 0.777083
O O3 0.323394 0.217434 0.639141
O O4 0.426355 0.000000 0.733435
O O5 0.788636 0.240241 0.768701
O O6 0.017303 0.236068 0.872292
O O7 0.881543 0.000000 0.785830
O O8 0.625808 0.500000 0.797740
O O9 0.644131 0.278963 0.754464
O O10 0.777947 0.281149 0.886053
O O11 0.685416 0.500000 0.723721
O O12 0.558009 0.265498 0.638381
O O13 0.834743 0.000000 0.930643
O O14 0.887190 0.779264 0.008256
O O15 0.000000 0.793374 0.000000
O O16 0.651100 0.228053 0.501669
O O17 0.629636 0.218195 0.412663
O O18 0.539344 0.000000 0.412131
O O19 0.856212 0.000000 0.043966
O O20 0.750000 0.250000 0.000000
O O21 0.737140 0.500000 0.548765
#
# Coordination Sequence:
#
# PCOD8092185 Si02
#       8
#     8   8   8   8   8   8   8   8
#     4  11  22  39  61  87 119 155 195 238 290 348
#     4  11  24  41  61  86 119 155 197 245 295 349
#     4  11  23  37  58  88 118 150 194 245 292 343
#     4  11  23  39  59  86 121 159 197 239 293 351
#     4  10  21  38  59  82 110 148 193 240 294 351
#     4  10  19  34  59  89 119 154 194 238 289 343
#     4  10  22  39  59  83 111 149 192 238 290 348
#     4   9  19  35  57  87 120 154 192 237 289 343
#
# _framework density 19.300598999999998
#
# number of rings (size 3 to 8) (size 9 to 14) (size 15 to 20)
#    0.000    1.625    1.250    3.375    0.000    7.750 
#    0.000    0.625    0.000    3.750    0.000    0.000 
#    0.000    0.000    0.000    0.000    0.000    0.000 
#
# Total GULP energy -396993.685882 kJ/mol
# GULP energy per Si atom -12406.052684 kJ/mol
# Density = 1.925667 g / cm^3
# Si number density = 19.300599 Si / 1000 Ang^3
#
#
#
# Elastic Constant Matrix: (Units=GPa)
#
#
# Indices 1 2 3 4 5 6 
#
# 1 79.7780 32.2270 31.6902 0.0003 0.4325 -0.0006
# 2 32.2270 66.3620 44.3411 0.0003 -0.2399 -0.0012
# 3 31.6902 44.3411 120.5288 0.0000 0.9975 -0.0001
# 4 0.0003 0.0003 0.0000 36.7550 0.0000 2.4587
# 5 0.4325 -0.2399 0.9975 0.0000 24.5258 0.0001
# 6 -0.0006 -0.0012 -0.0001 2.4587 0.0001 32.4897
#
#
#
# Elastic Compliance Matrix: (Units=1/GPa)
#
#
# Indices 1 2 3 4 5 6 
#
# 1 0.015877 -0.006528 -0.001771 0.000000 -0.000272 0.000000
# 2 -0.006528 0.022670 -0.006629 0.000000 0.000606 0.000001
# 3 -0.001771 -0.006629 0.011205 0.000000 -0.000489 0.000000
# 4 0.000000 0.000000 0.000000 0.027346 0.000000 -0.002069
# 5 -0.000272 0.000606 -0.000489 0.000000 0.040804 0.000000
# 6 0.000000 0.000001 0.000000 -0.002069 0.000000 0.030936
#
#
# Mechanical properties :
#
#
# Convention : Reuss Voigt Hill
#
# Bulk Modulus (GPa) = 50.25815 53.68726 51.97270
# Shear Modulus (GPa) = 26.97972 29.31480 28.14726
#
# Velocity S-wave (km/s) = 3.74287 3.90148 3.82299
# Velocity P-wave (km/s) = 6.69141 6.94061 6.81715
#
# Compressibility (1/GPa) = 0.01989727
#
# Stress axis : x y z
#
# Youngs Moduli (GPa) = 62.98570 44.11040 89.24588
#
# Poissons Ratio (x) = 0.28795 0.15801
# Poissons Ratio (y) = 0.41117 0.59159
# Poissons Ratio (z) = 0.11152 0.29240
#
# Static dielectric constant tensor:
#      x y z
#    x 3.494280 0.000000 -0.113070 
#    y 0.000000 3.517950 0.000000 
#    z -0.113070 0.000000 3.729990 
# 
# 
# High freq. dielectric constant tensor:
#      x y z
#    x 1.745260 0.000000 -0.000030 
#    y 0.000000 1.755800 0.000000 
#    z -0.000030 0.000000 1.765030 
# 
# From -- ./inp_files/378329.got.cif
#   From: 2010.06.25/outbox.cif.g09.slc.cpg/sg12_190_cif.got.tgz:378329.got - 2010.06.28 00:19:55.
