data_PCOD8092993
_publ_section_title
;
Structure prediction by ZEFSAII (Michael W. Deem and Ramdas Pophale) SiO2 
 PCOD8092993
Probable space group: C 2/M
;
_chemical_formula_sum "Si O2"
_cell_formula_units_Z 56
_cell_length_a 30.341702
_cell_length_b 18.388392
_cell_length_c 9.562408
_cell_angle_alpha 90.000000
_cell_angle_beta 146.518608
_cell_angle_gamma 90.000000
_cell_volume 2943.250905
_symmetry_space_group_name_H-M "C 2/M"
_symmetry_group_IT_number 12
_symmetry_cell_setting 'monoclinic'
loop_
_space_group_symop_operation_xyz
x,y,z
-x,y,-z
-x,-y,-z
x,-y,z
1/2+x,1/2+y,z
1/2-x,1/2+y,-z
1/2-x,1/2-y,-z
1/2+x,1/2-y,z
loop_
_atom_site_type_symbol
_atom_site_label
_atom_site_fract_x
_atom_site_fract_y
_atom_site_fract_z
Si Si1 0.646611 0.789280 0.640130
Si Si2 0.236128 0.916103 0.097372
Si Si3 0.006799 0.200837 0.183735
Si Si4 0.876774 0.079138 0.451591
Si Si5 0.836741 0.166260 0.856870
Si Si6 0.714101 0.203196 0.107970
Si Si7 0.271435 0.580956 0.425801
O O1 0.684744 0.864591 0.681256
O O2 0.555313 0.776195 0.346147
O O3 0.697631 0.718649 0.724310
O O4 0.646919 0.789685 0.810413
O O5 0.166708 0.890308 0.021867
O O6 0.260309 0.000000 0.189938
O O7 0.201363 0.904555 0.850239
O O8 0.053421 0.136160 0.383750
O O9 0.000000 0.191721 0.000000
O O10 0.922178 0.195382 0.034113
O O11 0.852397 0.076369 0.550170
O O12 0.910751 0.000000 0.497192
O O13 0.792857 0.239178 0.786299
O O14 0.787737 0.126719 0.606602
O O15 0.707187 0.123835 0.160347
O O16 0.239314 0.500000 0.377079
#
# Coordination Sequence:
#
# PCOD8092993 Si02
#       7
#     8   8   8   8   8   8   8
#     4  10  19  35  59  80 108 149 195 235 280 332
#     4  10  21  39  61  86 111 146 196 243 284 330
#     4  12  22  37  52  81 118 156 186 223 287 348
#     4  10  20  34  56  80 109 146 186 223 270 339
#     4  11  23  34  55  84 121 151 185 233 286 336
#     4  10  19  36  57  82 107 145 194 242 275 325
#     4  11  20  35  57  84 112 144 185 229 281 335
#
# _framework density 19.026579999999999
#
# number of rings (size 3 to 8) (size 9 to 14) (size 15 to 20)
#    0.000    1.429    4.286    2.571    0.000    4.857 
#    0.000    1.429    0.000    1.286    0.000    2.000 
#    0.000    0.000    0.000    0.000    0.000    0.000 
#
# Total GULP energy -346980.674126 kJ/mol
# GULP energy per Si atom -12392.166933 kJ/mol
# Density = 1.898328 g / cm^3
# Si number density = 19.026580 Si / 1000 Ang^3
#
#
#
# Elastic Constant Matrix: (Units=GPa)
#
#
# Indices 1 2 3 4 5 6 
#
# 1 89.9287 44.9356 32.2659 0.0000 -12.2195 0.0000
# 2 44.9356 135.3788 54.9706 0.0000 1.1200 0.0000
# 3 32.2659 54.9706 78.9312 0.0000 -10.9480 0.0000
# 4 0.0000 0.0000 0.0000 28.0670 0.0000 -3.8987
# 5 -12.2195 1.1200 -10.9480 0.0000 18.0084 0.0000
# 6 0.0000 0.0000 0.0000 -3.8987 0.0000 23.4240
#
#
#
# Elastic Compliance Matrix: (Units=1/GPa)
#
#
# Indices 1 2 3 4 5 6 
#
# 1 0.015275 -0.004390 -0.001869 0.000000 0.009502 0.000000
# 2 -0.004390 0.012077 -0.007791 0.000000 -0.008466 0.000000
# 3 -0.001869 -0.007791 0.020477 0.000000 0.011665 0.000000
# 4 0.000000 0.000000 0.000000 0.036472 0.000000 0.006071
# 5 0.009502 -0.008466 0.011665 0.000000 0.069595 0.000000
# 6 0.000000 0.000000 0.000000 0.006071 0.000000 0.043702
#
#
# Mechanical properties :
#
#
# Convention : Reuss Voigt Hill
#
# Bulk Modulus (GPa) = 50.68422 63.17587 56.93005
# Shear Modulus (GPa) = 21.52619 25.37098 23.44858
#
# Velocity S-wave (km/s) = 3.36724 3.65560 3.51438
# Velocity P-wave (km/s) = 6.46639 7.14801 6.81573
#
# Compressibility (1/GPa) = 0.01973001
#
# Stress axis : x y z
#
# Youngs Moduli (GPa) = 65.46576 82.79979 48.83481
#
# Poissons Ratio (x) = 0.36348 0.09128
# Poissons Ratio (y) = 0.28739 0.38047
# Poissons Ratio (z) = 0.12236 0.64508
#
# Static dielectric constant tensor:
#      x y z
#    x 3.487160 0.000000 -0.260020 
#    y 0.000000 3.704040 0.000000 
#    z -0.260020 0.000000 3.224280 
# 
# 
# High freq. dielectric constant tensor:
#      x y z
#    x 1.732610 0.000000 -0.033370 
#    y 0.000000 1.752200 0.000000 
#    z -0.033370 0.000000 1.707040 
# 
# From -- ./inp_files/113398.got.cif
#   From: 2010.06.25/outbox.cif.g09.slc.cpg/sg12_57_cif.got.tgz:113398.got - 2010.06.28 00:19:55.
