data_PCOD8092499
_publ_section_title
;
Structure prediction by ZEFSAII (Michael W. Deem and Ramdas Pophale) SiO2 
 PCOD8092499
Probable space group: C 2/M
;
_chemical_formula_sum "Si O2"
_cell_formula_units_Z 56
_cell_length_a 24.194287
_cell_length_b 8.617667
_cell_length_c 14.258871
_cell_angle_alpha 90.000000
_cell_angle_beta 83.431429
_cell_angle_gamma 90.000000
_cell_volume 2953.435040
_symmetry_space_group_name_H-M "C 2/M"
_symmetry_group_IT_number 12
_symmetry_cell_setting 'monoclinic'
loop_
_space_group_symop_operation_xyz
x,y,z
-x,y,-z
-x,-y,-z
x,-y,z
1/2+x,1/2+y,z
1/2-x,1/2+y,-z
1/2-x,1/2-y,-z
1/2+x,1/2-y,z
loop_
_atom_site_type_symbol
_atom_site_label
_atom_site_fract_x
_atom_site_fract_y
_atom_site_fract_z
Si Si1 0.079238 0.680203 0.226731
Si Si2 0.628343 0.316111 0.550869
Si Si3 0.379567 0.318252 0.164056
Si Si4 0.561491 0.817033 0.016799
Si Si5 0.832824 0.817629 0.657036
Si Si6 0.957332 0.318458 0.302021
Si Si7 0.792577 0.316426 0.310070
O O1 0.093204 0.500000 0.229875
O O2 0.130000 0.771594 0.262081
O O3 0.022692 0.719109 0.294036
O O4 0.072899 0.733773 0.120859
O O5 0.620450 0.500000 0.555013
O O6 0.641361 0.251703 0.444566
O O7 0.571033 0.235851 0.595712
O O8 0.678942 0.269101 0.608142
O O9 0.368576 0.500000 0.172322
O O10 0.392910 0.268988 0.055477
O O11 0.431210 0.273149 0.219997
O O12 0.323944 0.229644 0.208217
O O13 0.567318 0.000000 0.000774
O O14 0.500000 0.761171 0.000000
O O15 0.770460 0.754398 0.684075
O O16 0.830205 0.000000 0.649763
O O17 0.946718 0.500000 0.286318
O O18 0.796165 0.500000 0.325200
#
# Coordination Sequence:
#
# PCOD8092499 Si02
#       7
#     8   8   8   8   8   8   8
#     4  10  22  37  57  81 109 147 186 223 269 325
#     4  10  20  35  56  84 111 142 183 231 279 319
#     4  11  21  33  55  88 114 139 178 230 278 321
#     4  10  19  37  60  82 111 144 181 224 270 326
#     4  10  23  39  55  78 113 149 183 227 278 325
#     4  10  19  35  55  81 112 146 184 225 271 326
#     4  10  20  37  59  81 107 147 188 226 272 323
#
# _framework density 18.960972999999999
#
# number of rings (size 3 to 8) (size 9 to 14) (size 15 to 20)
#    0.000    1.857    1.429    4.714    0.000    4.857 
#    0.000    3.571    0.000    0.000    0.000    0.000 
#    0.000    0.000    0.000    0.000    0.000    0.000 
#
# Total GULP energy -347275.162382 kJ/mol
# GULP energy per Si atom -12402.684371 kJ/mol
# Density = 1.891782 g / cm^3
# Si number density = 18.960973 Si / 1000 Ang^3
#
#
#
# Elastic Constant Matrix: (Units=GPa)
#
#
# Indices 1 2 3 4 5 6 
#
# 1 87.6520 9.9203 54.1081 0.0000 -2.3929 0.0000
# 2 9.9203 37.0673 14.8343 0.0000 -4.4314 0.0000
# 3 54.1081 14.8343 116.1404 0.0000 -10.9153 0.0000
# 4 0.0000 0.0000 0.0000 30.3221 0.0000 0.4609
# 5 -2.3929 -4.4314 -10.9153 0.0000 25.1502 0.0000
# 6 0.0000 0.0000 0.0000 0.4609 0.0000 27.7075
#
#
#
# Elastic Compliance Matrix: (Units=1/GPa)
#
#
# Indices 1 2 3 4 5 6 
#
# 1 0.016176 -0.001557 -0.007525 0.000000 -0.002001 0.000000
# 2 -0.001557 0.028894 -0.002607 0.000000 0.003811 0.000000
# 3 -0.007525 -0.002607 0.012863 0.000000 0.004407 0.000000
# 4 0.000000 0.000000 0.000000 0.032988 0.000000 -0.000549
# 5 -0.002001 0.003811 0.004407 0.000000 0.042155 0.000000
# 6 0.000000 0.000000 0.000000 -0.000549 0.000000 0.036100
#
#
# Mechanical properties :
#
#
# Convention : Reuss Voigt Hill
#
# Bulk Modulus (GPa) = 28.93969 44.28724 36.61347
# Shear Modulus (GPa) = 24.50114 27.43576 25.96845
#
# Velocity S-wave (km/s) = 3.59860 3.80802 3.70479
# Velocity P-wave (km/s) = 5.70635 6.53777 6.13616
#
# Compressibility (1/GPa) = 0.03455462
#
# Stress axis : x y z
#
# Youngs Moduli (GPa) = 61.82113 34.60972 77.73992
#
# Poissons Ratio (x) = 0.05388 0.58501
# Poissons Ratio (y) = 0.09624 0.20267
# Poissons Ratio (z) = 0.46522 0.09023
#
# Static dielectric constant tensor:
#      x y z
#    x 3.528640 0.000000 -0.289390 
#    y 0.000000 3.396240 0.000000 
#    z -0.289390 0.000000 3.583580 
# 
# 
# High freq. dielectric constant tensor:
#      x y z
#    x 1.731670 0.000000 -0.018950 
#    y 0.000000 1.736000 0.000000 
#    z -0.018950 0.000000 1.735940 
# 
# From -- ./inp_files/230927.got.cif
#   From: 2010.06.25/outbox.cif.g09.slc.cpg/sg12_116_cif.got.tgz:230927.got - 2010.06.28 00:19:55.
