data_PCOD8092110
_publ_section_title
;
Structure prediction by ZEFSAII (Michael W. Deem and Ramdas Pophale) SiO2 
 PCOD8092110
Probable space group: C 2/M
;
_chemical_formula_sum "Si O2"
_cell_formula_units_Z 64
_cell_length_a 16.738545
_cell_length_b 17.369779
_cell_length_c 12.100219
_cell_angle_alpha 90.000000
_cell_angle_beta 111.248854
_cell_angle_gamma 90.000000
_cell_volume 3278.900099
_symmetry_space_group_name_H-M "C 2/M"
_symmetry_group_IT_number 12
_symmetry_cell_setting 'monoclinic'
loop_
_space_group_symop_operation_xyz
x,y,z
-x,y,-z
-x,-y,-z
x,-y,z
1/2+x,1/2+y,z
1/2-x,1/2+y,-z
1/2-x,1/2-y,-z
1/2+x,1/2-y,z
loop_
_atom_site_type_symbol
_atom_site_label
_atom_site_fract_x
_atom_site_fract_y
_atom_site_fract_z
Si Si1 0.333706 0.408567 0.165996
Si Si2 0.095753 0.590396 0.286016
Si Si3 0.902819 0.091012 0.432322
Si Si4 0.747971 0.659349 0.501285
Si Si5 0.249051 0.091625 0.258748
Si Si6 0.594779 0.591704 0.026114
Si Si7 0.406631 0.909173 0.191470
Si Si8 0.642466 0.091422 0.069832
O O1 0.332596 0.500000 0.158837
O O2 0.383480 0.380550 0.299034
O O3 0.238295 0.375865 0.125108
O O4 0.378292 0.374663 0.079297
O O5 0.115878 0.500000 0.303294
O O6 0.168204 0.632431 0.391442
O O7 0.094472 0.617997 0.157215
O O8 0.001232 0.610341 0.286823
O O9 0.839586 0.131503 0.486324
O O10 0.000000 0.116822 0.500000
O O11 0.890275 0.000000 0.440501
O O12 0.750000 0.750000 0.500000
O O13 0.750577 0.627631 0.379523
O O14 0.162657 0.119052 0.152756
O O15 0.332175 0.123482 0.233698
O O16 0.251955 0.000000 0.270850
O O17 0.593224 0.500000 0.023233
O O18 0.500000 0.625069 0.000000
O O19 0.393669 0.000000 0.177035
O O20 0.399429 0.874850 0.063250
O O21 0.641588 0.000000 0.063482
#
# Coordination Sequence:
#
# PCOD8092110 Si02
#       8
#     8   8   8   8   8   8   8   8
#     4   9  15  27  51  83 115 140 170 229 292 335
#     4  10  19  34  59  85 110 145 189 231 276 330
#     4  10  21  38  63  90 112 145 201 255 293 336
#     4  12  26  42  55  77 113 155 196 238 289 347
#     4  10  20  36  58  83 115 148 187 233 281 343
#     4   9  17  28  50  85 117 144 176 229 294 344
#     4   9  17  30  54  91 118 138 172 224 285 338
#     4   9  14  26  51  85 119 138 167 222 279 332
#
# _framework density 19.518740999999999
#
# number of rings (size 3 to 8) (size 9 to 14) (size 15 to 20)
#    0.000    2.250    2.500    1.500    1.750    2.000 
#    2.250    1.875    0.000    4.500    0.000    0.000 
#    0.000    0.000    0.000    0.000    0.000    0.000 
#
# Total GULP energy -396659.434436 kJ/mol
# GULP energy per Si atom -12395.607326 kJ/mol
# Density = 1.947432 g / cm^3
# Si number density = 19.518741 Si / 1000 Ang^3
#
#
#
# Elastic Constant Matrix: (Units=GPa)
#
#
# Indices 1 2 3 4 5 6 
#
# 1 169.2341 35.4850 88.0525 0.0000 8.8466 0.0000
# 2 35.4850 37.6044 36.8038 0.0000 1.2982 0.0000
# 3 88.0525 36.8038 160.2652 0.0000 -3.2843 0.0000
# 4 0.0000 0.0000 0.0000 -2.1641 0.0000 1.6974
# 5 8.8466 1.2982 -3.2843 0.0000 37.0994 0.0000
# 6 0.0000 0.0000 0.0000 1.6974 0.0000 7.4933
#
#
#
# Elastic Compliance Matrix: (Units=1/GPa)
#
#
# Indices 1 2 3 4 5 6 
#
# 1 0.009060 -0.004578 -0.003974 0.000000 -0.002352 0.000000
# 2 -0.004578 0.036750 -0.005939 0.000000 -0.000720 0.000000
# 3 -0.003974 -0.005939 0.009829 0.000000 0.002026 0.000000
# 4 0.000000 0.000000 0.000000 -0.392368 0.000000 0.088881
# 5 -0.002352 -0.000720 0.002026 0.000000 0.027720 0.000000
# 6 0.000000 0.000000 0.000000 0.088881 0.000000 0.113319
#
#
# Mechanical properties :
#
#
# Convention : Reuss Voigt Hill
#
# Bulk Modulus (GPa) = 37.51566 76.42070 56.96818
# Shear Modulus (GPa) = -31.68128 22.26987 -4.70570
#
# Velocity S-wave (km/s) = -4.03317 3.38146 -1.55438
# Velocity P-wave (km/s) = 1.55774 7.38127 5.10179
#
# Compressibility (1/GPa) = 0.02665553
#
# Stress axis : x y z
#
# Youngs Moduli (GPa) = 110.37796 27.21089 101.74367
#
# Poissons Ratio (x) = 0.12458 0.40438
# Poissons Ratio (y) = 0.50532 0.60424
# Poissons Ratio (z) = 0.43869 0.16160
#
# Static dielectric constant tensor:
#      x y z
#    x 3.892080 0.000000 -0.040480 
#    y 0.000000 2.904860 0.000000 
#    z -0.040480 0.000000 3.768190 
# 
# 
# High freq. dielectric constant tensor:
#      x y z
#    x 1.779130 0.000000 0.001730 
#    y 0.000000 1.688080 0.000000 
#    z 0.001730 0.000000 1.773950 
# 
# From -- ./inp_files/147679.got.cif
#   From: 2010.06.25/outbox.cif.g09.slc.cpg/sg12_74_cif.got.tgz:147679.got - 2010.06.28 00:19:55.
