data_PCOD8092299
_publ_section_title
;
Structure prediction by ZEFSAII (Michael W. Deem and Ramdas Pophale) SiO2 
 PCOD8092299
Probable space group: C 2/M
;
_chemical_formula_sum "Si O2"
_cell_formula_units_Z 64
_cell_length_a 15.419888
_cell_length_b 17.379798
_cell_length_c 24.509027
_cell_angle_alpha 90.000000
_cell_angle_beta 28.663688
_cell_angle_gamma 90.000000
_cell_volume 3150.593012
_symmetry_space_group_name_H-M "C 2/M"
_symmetry_group_IT_number 12
_symmetry_cell_setting 'monoclinic'
loop_
_space_group_symop_operation_xyz
x,y,z
-x,y,-z
-x,-y,-z
x,-y,z
1/2+x,1/2+y,z
1/2-x,1/2+y,-z
1/2-x,1/2-y,-z
1/2+x,1/2-y,z
loop_
_atom_site_type_symbol
_atom_site_label
_atom_site_fract_x
_atom_site_fract_y
_atom_site_fract_z
Si Si1 0.635460 0.584535 0.760349
Si Si2 0.561917 0.408951 0.404651
Si Si3 0.023127 0.588413 0.548591
Si Si4 0.947323 0.333893 0.186040
Si Si5 0.599342 0.749767 0.999522
Si Si6 0.157675 0.826729 0.567839
Si Si7 0.798727 0.086605 0.025024
Si Si8 0.012632 0.208129 0.231018
O O1 0.657448 0.500000 0.722176
O O2 0.608821 0.639581 0.724222
O O3 0.825676 0.604268 0.686179
O O4 0.465297 0.586925 0.892795
O O5 0.500000 0.386685 0.500000
O O6 0.560725 0.500000 0.397152
O O7 0.761026 0.378194 0.280305
O O8 0.423101 0.371794 0.438870
O O9 0.073761 0.500000 0.519131
O O10 0.182812 0.625547 0.493626
O O11 0.000000 0.621607 0.500000
O O12 0.983387 0.270948 0.117631
O O13 0.109516 0.396331 0.098800
O O14 0.934298 0.288474 0.250613
O O15 0.500000 0.776408 0.000000
O O16 0.654135 0.659088 0.961879
O O17 0.781170 0.799975 0.902753
O O18 0.250000 0.750000 0.500000
O O19 0.000069 0.800723 0.696864
O O20 0.786397 0.000000 0.059194
#
# Coordination Sequence:
#
# PCOD8092299 Si02
#       8
#     8   8   8   8   8   8   8   8
#     4  10  19  34  61  91 120 155 199 257 320 378
#     4  11  26  47  67  90 128 176 218 262 314 382
#     4  10  21  37  60  87 120 159 198 253 319 371
#     4  11  21  41  66  90 124 168 213 260 321 377
#     4  11  22  37  59  92 131 168 206 258 318 384
#     4  12  26  39  63  97 125 164 217 267 318 382
#     4  10  20  38  63  90 118 161 212 255 312 376
#     4  11  21  39  62  91 125 165 208 268 321 374
#
# _framework density 20.313637
#
# number of rings (size 3 to 8) (size 9 to 14) (size 15 to 20)
#    0.000    1.250    3.750    3.000    1.750    2.250 
#    0.000    0.000    0.000    5.625    0.000    0.000 
#    0.000    0.000    0.000    0.000    0.000    0.000 
#
# Total GULP energy -396511.337226 kJ/mol
# GULP energy per Si atom -12390.979288 kJ/mol
# Density = 2.026740 g / cm^3
# Si number density = 20.313637 Si / 1000 Ang^3
#
#
#
# Elastic Constant Matrix: (Units=GPa)
#
#
# Indices 1 2 3 4 5 6 
#
# 1 134.2847 52.3928 59.8078 0.0014 -11.8444 -0.0031
# 2 52.3928 97.5089 55.0982 0.0041 -6.7588 -0.0008
# 3 59.8078 55.0982 121.8748 0.0060 -16.6700 -0.0236
# 4 0.0014 0.0041 0.0060 27.1574 -0.0019 -4.3096
# 5 -11.8444 -6.7588 -16.6700 -0.0019 35.5006 0.0050
# 6 -0.0031 -0.0008 -0.0236 -4.3096 0.0050 20.5024
#
#
#
# Elastic Compliance Matrix: (Units=1/GPa)
#
#
# Indices 1 2 3 4 5 6 
#
# 1 0.010459 -0.003666 -0.003306 0.000000 0.001239 -0.000003
# 2 -0.003666 0.015063 -0.005114 -0.000002 -0.000757 -0.000006
# 3 -0.003306 -0.005114 0.012669 0.000000 0.003872 0.000013
# 4 0.000000 -0.000002 0.000000 0.038093 0.000001 0.008007
# 5 0.001239 -0.000757 0.003872 0.000001 0.030256 -0.000003
# 6 -0.000003 -0.000006 0.000013 0.008007 -0.000003 0.050458
#
#
# Mechanical properties :
#
#
# Convention : Reuss Voigt Hill
#
# Bulk Modulus (GPa) = 71.33167 76.47399 73.90283
# Shear Modulus (GPa) = 26.90462 29.05673 27.98067
#
# Velocity S-wave (km/s) = 3.64326 3.78617 3.71540
# Velocity P-wave (km/s) = 7.27250 7.53935 7.40713
#
# Compressibility (1/GPa) = 0.01401902
#
# Stress axis : x y z
#
# Youngs Moduli (GPa) = 95.61417 66.38993 78.93250
#
# Poissons Ratio (x) = 0.24337 0.26092
# Poissons Ratio (y) = 0.35050 0.40368
# Poissons Ratio (z) = 0.31606 0.33953
#
# Static dielectric constant tensor:
#      x y z
#    x 2.330870 0.000980 -0.996950 
#    y 0.000980 4.156560 0.000730 
#    z -0.996950 0.000730 3.282900 
# 
# 
# High freq. dielectric constant tensor:
#      x y z
#    x 1.776940 0.000000 -0.017290 
#    y 0.000000 1.799600 0.000000 
#    z -0.017290 0.000000 1.810100 
# 
# From -- ./inp_files/340817.got.cif
#   From: 2010.06.25/outbox.cif.g09.slc.cpg/sg12_171_cif.got.tgz:340817.got - 2010.06.28 00:19:55.
