data_PCOD8092520
_publ_section_title
;
Structure prediction by ZEFSAII (Michael W. Deem and Ramdas Pophale) SiO2 
 PCOD8092520
Probable space group: C 2/M
;
_chemical_formula_sum "Si O2"
_cell_formula_units_Z 56
_cell_length_a 14.101479
_cell_length_b 23.454698
_cell_length_c 18.051746
_cell_angle_alpha 90.000000
_cell_angle_beta 151.547645
_cell_angle_gamma 90.000000
_cell_volume 2844.531998
_symmetry_space_group_name_H-M "C 2/M"
_symmetry_group_IT_number 12
_symmetry_cell_setting 'monoclinic'
loop_
_space_group_symop_operation_xyz
x,y,z
-x,y,-z
-x,-y,-z
x,-y,z
1/2+x,1/2+y,z
1/2-x,1/2+y,-z
1/2-x,1/2-y,-z
1/2+x,1/2-y,z
loop_
_atom_site_type_symbol
_atom_site_label
_atom_site_fract_x
_atom_site_fract_y
_atom_site_fract_z
Si Si1 0.484691 0.140353 0.691605
Si Si2 0.976792 0.753123 0.096973
Si Si3 0.050016 0.933340 0.757755
Si Si4 0.337258 0.751818 0.250461
Si Si5 0.049557 0.137744 0.447709
Si Si6 0.268088 0.847593 0.007136
Si Si7 0.887102 0.433836 0.493386
O O1 0.504875 0.199128 0.659297
O O2 0.285476 0.142371 0.603042
O O3 0.675684 0.125890 0.874499
O O4 0.487886 0.089377 0.636160
O O5 0.966709 0.690191 0.126307
O O6 0.201668 0.767342 0.228434
O O7 0.815584 0.746120 0.921473
O O8 0.917000 0.803408 0.112943
O O9 0.028767 0.914566 0.657293
O O10 0.849451 0.921008 0.667268
O O11 0.107572 0.000000 0.798821
O O12 0.223535 0.896714 0.916863
O O13 0.452893 0.694207 0.347093
O O14 0.000000 0.127067 0.500000
O O15 0.929442 0.500000 0.523428
O O16 0.000000 0.406418 0.500000
#
# Coordination Sequence:
#
# PCOD8092520 Si02
#       7
#     8   8   8   8   8   8   8
#     4  10  22  35  58  89 117 151 198 246 291 355
#     4   9  19  33  58  81 117 159 184 235 299 348
#     4  10  22  40  63  86 115 158 204 247 293 349
#     4  10  19  35  55  86 117 152 194 237 293 357
#     4  11  22  39  58  84 120 158 196 248 297 348
#     4  10  19  37  58  84 119 153 196 239 293 349
#     4   9  20  39  58  81 118 159 193 241 299 346
#
# _framework density 19.686893000000001
#
# number of rings (size 3 to 8) (size 9 to 14) (size 15 to 20)
#    0.000    2.143    1.429    1.286    2.000    1.429 
#    2.571    0.000    0.000    8.571    0.000    0.000 
#    0.000    0.000    0.000    0.000    0.000    0.000 
#
# Total GULP energy -347031.644266 kJ/mol
# GULP energy per Si atom -12393.987295 kJ/mol
# Density = 1.964209 g / cm^3
# Si number density = 19.686893 Si / 1000 Ang^3
#
#
#
# Elastic Constant Matrix: (Units=GPa)
#
#
# Indices 1 2 3 4 5 6 
#
# 1 134.5716 40.9996 29.7767 -0.0038 -0.1602 -0.0013
# 2 40.9996 87.2212 45.0203 -0.0039 -9.6244 -0.0017
# 3 29.7767 45.0203 66.1979 -0.0007 -7.4164 0.0008
# 4 -0.0038 -0.0039 -0.0007 25.8463 0.0033 -5.0380
# 5 -0.1602 -9.6244 -7.4164 0.0033 17.8591 0.0010
# 6 -0.0013 -0.0017 0.0008 -5.0380 0.0010 24.8660
#
#
#
# Elastic Compliance Matrix: (Units=1/GPa)
#
#
# Indices 1 2 3 4 5 6 
#
# 1 0.008916 -0.003479 -0.001936 0.000001 -0.002599 0.000001
# 2 -0.003479 0.019417 -0.010983 0.000002 0.005872 0.000002
# 3 -0.001936 -0.010983 0.023893 -0.000002 0.003986 -0.000002
# 4 0.000001 0.000002 -0.000002 0.040281 -0.000008 0.008161
# 5 -0.002599 0.005872 0.003986 -0.000008 0.060790 -0.000004
# 6 0.000001 0.000002 -0.000002 0.008161 -0.000004 0.041869
#
#
# Mechanical properties :
#
#
# Convention : Reuss Voigt Hill
#
# Bulk Modulus (GPa) = 51.46301 57.73152 54.59726
# Shear Modulus (GPa) = 21.32761 25.19390 23.26075
#
# Velocity S-wave (km/s) = 3.29498 3.58121 3.44108
# Velocity P-wave (km/s) = 6.37757 6.81826 6.60159
#
# Compressibility (1/GPa) = 0.01943143
#
# Stress axis : x y z
#
# Youngs Moduli (GPa) = 112.15691 51.50110 41.85360
#
# Poissons Ratio (x) = 0.17915 0.08103
# Poissons Ratio (y) = 0.39015 0.45967
# Poissons Ratio (z) = 0.21713 0.56562
#
# Static dielectric constant tensor:
#      x y z
#    x 4.003220 0.000000 -0.030440 
#    y 0.000000 3.465570 -0.000010 
#    z -0.030440 -0.000010 3.446990 
# 
# 
# High freq. dielectric constant tensor:
#      x y z
#    x 1.777570 0.000000 -0.006660 
#    y 0.000000 1.754780 0.000000 
#    z -0.006660 0.000000 1.757340 
# 
# From -- ./inp_files/272425.got.cif
#   From: 2010.06.25/outbox.cif.g09.slc.cpg/sg12_137_cif.got.tgz:272425.got - 2010.06.28 00:19:55.
