data_PCOD8092329
_publ_section_title
;
Structure prediction by ZEFSAII (Michael W. Deem and Ramdas Pophale) SiO2 
 PCOD8092329
Probable space group: C 2/M
;
_chemical_formula_sum "Si O2"
_cell_formula_units_Z 52
_cell_length_a 9.455840
_cell_length_b 21.533718
_cell_length_c 18.151062
_cell_angle_alpha 90.000000
_cell_angle_beta 135.718975
_cell_angle_gamma 90.000000
_cell_volume 2580.402639
_symmetry_space_group_name_H-M "C 2/M"
_symmetry_group_IT_number 12
_symmetry_cell_setting 'monoclinic'
loop_
_space_group_symop_operation_xyz
x,y,z
-x,y,-z
-x,-y,-z
x,-y,z
1/2+x,1/2+y,z
1/2-x,1/2+y,-z
1/2-x,1/2-y,-z
1/2+x,1/2-y,z
loop_
_atom_site_type_symbol
_atom_site_label
_atom_site_fract_x
_atom_site_fract_y
_atom_site_fract_z
Si Si1 0.283574 0.374494 0.214911
Si Si2 0.800342 0.871468 0.393326
Si Si3 0.289018 0.500000 0.469962
Si Si4 0.845991 0.369389 0.239233
Si Si5 0.997886 0.000000 0.298898
Si Si6 0.966714 0.803796 0.153181
Si Si7 0.640933 0.162731 0.917613
Si Si8 0.658610 0.000000 0.687910
O O1 0.321126 0.361797 0.314471
O O2 0.367228 0.441467 0.224511
O O3 0.398806 0.322480 0.209904
O O4 0.042875 0.372403 0.109838
O O5 0.815453 0.942641 0.424665
O O6 0.580334 0.846991 0.339215
O O7 0.000000 0.835846 0.500000
O O8 0.455363 0.500000 0.596755
O O9 0.070854 0.500000 0.426935
O O10 0.701635 0.321326 0.228494
O O11 0.795084 0.370947 0.133583
O O12 0.800619 0.438982 0.248586
O O13 0.208302 0.000000 0.334947
O O14 0.937390 0.731222 0.131768
O O15 0.831524 0.839763 0.042619
#
# Coordination Sequence:
#
# PCOD8092329 Si02
#       8
#     8   8   4   8   4   8   8   4
#     4  11  22  35  61  92 125 153 200 252 309 346
#     4  10  19  35  56  91 122 156 197 241 287 366
#     4  10  19  34  63  85 117 168 211 233 289 355
#     4  10  21  37  61  88 122 158 197 247 305 358
#     4  12  20  36  59  95 126 157 193 257 296 364
#     4  11  21  42  63  88 118 154 213 261 292 345
#     4  10  23  40  65  87 112 162 215 252 292 353
#     4  10  21  37  55  95 126 152 195 252 300 360
#
# _framework density 20.151893999999999
#
# number of rings (size 3 to 8) (size 9 to 14) (size 15 to 20)
#    0.000    1.538    3.077    2.769    0.000    4.308 
#    0.000    5.385    0.000   14.769    0.000    0.000 
#    0.000    0.000    0.000    0.000    0.000    0.000 
#
# Total GULP energy -322304.508890 kJ/mol
# GULP energy per Si atom -12396.327265 kJ/mol
# Density = 2.010603 g / cm^3
# Si number density = 20.151894 Si / 1000 Ang^3
#
#
#
# Elastic Constant Matrix: (Units=GPa)
#
#
# Indices 1 2 3 4 5 6 
#
# 1 152.3733 25.9068 42.4799 0.0001 9.5028 0.0001
# 2 25.9068 55.9790 30.7977 0.0004 3.2647 0.0004
# 3 42.4799 30.7977 96.7287 0.0003 9.6254 0.0002
# 4 0.0001 0.0004 0.0003 61.5016 0.0003 41.4440
# 5 9.5028 3.2647 9.6254 0.0003 33.8370 0.0002
# 6 0.0001 0.0004 0.0002 41.4440 0.0002 77.4762
#
#
#
# Elastic Compliance Matrix: (Units=1/GPa)
#
#
# Indices 1 2 3 4 5 6 
#
# 1 0.007718 -0.002064 -0.002610 0.000000 -0.001226 0.000000
# 2 -0.002064 0.022210 -0.006185 0.000000 0.000196 0.000000
# 3 -0.002610 -0.006185 0.013709 0.000000 -0.002570 0.000000
# 4 0.000000 0.000000 0.000000 0.025424 0.000000 -0.013600
# 5 -0.001226 0.000196 -0.002570 0.000000 0.030610 0.000000
# 6 0.000000 0.000000 0.000000 -0.013600 0.000000 0.020182
#
#
# Mechanical properties :
#
#
# Convention : Reuss Voigt Hill
#
# Bulk Modulus (GPa) = 45.62148 55.93887 50.78018
# Shear Modulus (GPa) = 33.58437 48.28941 40.93689
#
# Velocity S-wave (km/s) = 4.08678 4.90048 4.51201
# Velocity P-wave (km/s) = 6.70500 7.73554 7.23863
#
# Compressibility (1/GPa) = 0.02191950
#
# Stress axis : x y z
#
# Youngs Moduli (GPa) = 129.56794 45.02424 72.94288
#
# Poissons Ratio (x) = 0.09294 0.19040
# Poissons Ratio (y) = 0.26747 0.45112
# Poissons Ratio (z) = 0.33820 0.27845
#
# Static dielectric constant tensor:
#      x y z
#    x 3.973390 0.000000 0.303390 
#    y 0.000000 3.520120 0.000000 
#    z 0.303390 0.000000 3.853310 
# 
# 
# High freq. dielectric constant tensor:
#      x y z
#    x 1.815070 0.000000 0.010000 
#    y 0.000000 1.764030 0.000000 
#    z 0.010000 0.000000 1.781060 
# 
# From -- ./inp_files/258574.got.cif
#   From: 2010.06.25/outbox.cif.g09.slc.cpg/sg12_130_cif.got.tgz:258574.got - 2010.06.28 00:19:55.
