data_PCOD8092453
_publ_section_title
;
Structure prediction by ZEFSAII (Michael W. Deem and Ramdas Pophale) SiO2 
 PCOD8092453
Probable space group: C 2/M
;
_chemical_formula_sum "Si O2"
_cell_formula_units_Z 56
_cell_length_a 10.072018
_cell_length_b 17.741672
_cell_length_c 18.747081
_cell_angle_alpha 90.000000
_cell_angle_beta 67.351028
_cell_angle_gamma 90.000000
_cell_volume 3091.651940
_symmetry_space_group_name_H-M "C 2/M"
_symmetry_group_IT_number 12
_symmetry_cell_setting 'monoclinic'
loop_
_space_group_symop_operation_xyz
x,y,z
-x,y,-z
-x,-y,-z
x,-y,z
1/2+x,1/2+y,z
1/2-x,1/2+y,-z
1/2-x,1/2-y,-z
1/2+x,1/2-y,z
loop_
_atom_site_type_symbol
_atom_site_label
_atom_site_fract_x
_atom_site_fract_y
_atom_site_fract_z
Si Si1 0.079531 0.413924 0.197773
Si Si2 0.383125 0.413083 0.199689
Si Si3 0.083490 0.167334 0.053589
Si Si4 0.653529 0.083928 0.504075
Si Si5 0.538463 0.819725 0.650939
Si Si6 0.230941 0.823598 0.645219
Si Si7 0.595211 0.156606 0.046288
O O1 0.034908 0.500000 0.220941
O O2 0.248860 0.401786 0.174777
O O3 0.044148 0.391382 0.124425
O O4 0.988854 0.362789 0.269899
O O5 0.419702 0.500000 0.204706
O O6 0.519710 0.373030 0.136144
O O7 0.349304 0.377280 0.282764
O O8 0.075347 0.256075 0.069789
O O9 0.243734 0.138033 0.010135
O O10 0.000000 0.143741 0.000000
O O11 0.500000 0.075538 0.500000
O O12 0.638253 0.127273 0.581729
O O13 0.757646 0.130543 0.430709
O O14 0.717153 0.000000 0.504381
O O15 0.388193 0.798717 0.642425
O O16 0.629644 0.746660 0.650832
O O17 0.500000 0.130924 0.000000
#
# Coordination Sequence:
#
# PCOD8092453 Si02
#       7
#     8   8   8   8   8   8   8
#     4  10  20  35  54  77 106 139 178 221 266 314
#     4  10  20  34  55  79 103 137 182 225 262 306
#     4  10  19  35  55  77 102 136 179 217 262 318
#     4   9  17  32  57  86 112 140 179 221 260 306
#     4  10  20  35  57  82 108 142 180 219 262 313
#     4  10  20  35  56  82 111 141 178 220 263 311
#     4  10  21  35  54  78 107 137 172 219 269 322
#
# _framework density 18.113294
#
# number of rings (size 3 to 8) (size 9 to 14) (size 15 to 20)
#    0.000    2.143    1.429    2.143    0.000    4.571 
#    2.571    0.000    0.000    3.429    0.000    0.000 
#    0.000    0.000    0.000    0.000    0.000    0.000 
#
# Total GULP energy -347255.527786 kJ/mol
# GULP energy per Si atom -12401.983135 kJ/mol
# Density = 1.807207 g / cm^3
# Si number density = 18.113294 Si / 1000 Ang^3
#
#
#
# Elastic Constant Matrix: (Units=GPa)
#
#
# Indices 1 2 3 4 5 6 
#
# 1 84.1786 51.7822 54.9146 0.0000 -4.5661 0.0000
# 2 51.7822 117.0879 70.4503 0.0000 -14.0568 0.0000
# 3 54.9146 70.4503 150.0178 0.0000 -12.6669 0.0000
# 4 0.0000 0.0000 0.0000 31.6769 0.0000 6.8738
# 5 -4.5661 -14.0568 -12.6669 0.0000 18.3937 0.0000
# 6 0.0000 0.0000 0.0000 6.8738 0.0000 15.2673
#
#
#
# Elastic Compliance Matrix: (Units=1/GPa)
#
#
# Indices 1 2 3 4 5 6 
#
# 1 0.017975 -0.005833 -0.004078 0.000000 -0.002803 0.000000
# 2 -0.005833 0.014360 -0.004039 0.000000 0.006745 0.000000
# 3 -0.004078 -0.004039 0.010309 0.000000 0.003000 0.000000
# 4 0.000000 0.000000 0.000000 0.034987 0.000000 -0.015752
# 5 -0.002803 0.006745 0.003000 0.000000 0.060891 0.000000
# 6 0.000000 0.000000 0.000000 -0.015752 0.000000 0.072592
#
#
# Mechanical properties :
#
#
# Convention : Reuss Voigt Hill
#
# Bulk Modulus (GPa) = 67.81784 78.39759 73.10772
# Shear Modulus (GPa) = 20.49783 24.67671 22.58727
#
# Velocity S-wave (km/s) = 3.36764 3.69501 3.53512
# Velocity P-wave (km/s) = 7.25559 7.84729 7.55723
#
# Compressibility (1/GPa) = 0.01474538
#
# Stress axis : x y z
#
# Youngs Moduli (GPa) = 55.63131 69.63703 97.00634
#
# Poissons Ratio (x) = 0.40618 0.39555
# Poissons Ratio (y) = 0.32449 0.39182
# Poissons Ratio (z) = 0.22684 0.28127
#
# Static dielectric constant tensor:
#      x y z
#    x 3.128500 0.000000 -0.014760 
#    y 0.000000 3.354460 0.000000 
#    z -0.014760 0.000000 3.478100 
# 
# 
# High freq. dielectric constant tensor:
#      x y z
#    x 1.673960 0.000000 -0.003860 
#    y 0.000000 1.705370 0.000000 
#    z -0.003860 0.000000 1.720420 
# 
# From -- ./inp_files/257046.got.cif
#   From: 2010.06.25/outbox.cif.g09.slc.cpg/sg12_129_cif.got.tgz:257046.got - 2010.06.28 00:19:55.
