data_PCOD8092397
_publ_section_title
;
Structure prediction by ZEFSAII (Michael W. Deem and Ramdas Pophale) SiO2 
 PCOD8092397
Probable space group: C 2/M
;
_chemical_formula_sum "Si O2"
_cell_formula_units_Z 64
_cell_length_a 15.184244
_cell_length_b 11.325689
_cell_length_c 28.028552
_cell_angle_alpha 90.000000
_cell_angle_beta 39.102240
_cell_angle_gamma 90.000000
_cell_volume 3040.083634
_symmetry_space_group_name_H-M "C 2/M"
_symmetry_group_IT_number 12
_symmetry_cell_setting 'monoclinic'
loop_
_space_group_symop_operation_xyz
x,y,z
-x,y,-z
-x,-y,-z
x,-y,z
1/2+x,1/2+y,z
1/2-x,1/2+y,-z
1/2-x,1/2-y,-z
1/2+x,1/2-y,z
loop_
_atom_site_type_symbol
_atom_site_label
_atom_site_fract_x
_atom_site_fract_y
_atom_site_fract_z
Si Si1 0.280365 0.797432 0.917704
Si Si2 0.658447 0.641806 0.559560
Si Si3 0.342506 0.729835 0.333208
Si Si4 0.194504 0.287855 0.799065
Si Si5 0.076470 0.629582 0.046492
Si Si6 0.858183 0.131768 0.641908
Si Si7 0.522961 0.628576 0.808689
Si Si8 0.883216 0.369759 0.780249
O O1 0.338043 0.863986 0.939782
O O2 0.379134 0.692242 0.859069
O O3 0.288814 0.882528 0.868201
O O4 0.128927 0.736960 0.990529
O O5 0.701765 0.500000 0.532587
O O6 0.750000 0.750000 0.500000
O O7 0.659778 0.664900 0.615361
O O8 0.509082 0.667162 0.598659
O O9 0.191429 0.784178 0.381032
O O10 0.380760 0.629435 0.278835
O O11 0.454076 0.836839 0.280828
O O12 0.247829 0.363758 0.731891
O O13 0.101738 0.179251 0.821002
O O14 0.325512 0.234859 0.771652
O O15 0.091049 0.364239 0.875736
O O16 0.106649 0.500000 0.011621
O O17 0.862187 0.000000 0.619707
O O18 0.480688 0.500000 0.841892
O O19 0.878595 0.500000 0.758114
#
# Coordination Sequence:
#
# PCOD8092397 Si02
#       8
#     8   8   8   8   8   8   8   8
#     4   9  20  33  51  78 108 147 203 250 310 377
#     4  11  25  46  69 101 139 174 213 259 318 384
#     4  10  21  39  65  95 123 163 215 259 311 370
#     4  10  20  34  54  86 115 151 205 253 313 371
#     4  10  19  35  54  74 107 150 200 258 311 371
#     4  10  21  41  67  94 129 168 214 264 316 379
#     4   9  17  32  54  80 114 154 195 246 307 369
#     4  11  21  36  57  84 118 154 203 259 316 373
#
# _framework density 21.052052
#
# number of rings (size 3 to 8) (size 9 to 14) (size 15 to 20)
#    0.000    2.000    1.250    3.000    0.000    2.000 
#    0.000    8.125    0.000    0.000    0.000    0.000 
#    0.000    0.000    0.000    0.000    0.000    0.000 
#
# Total GULP energy -396433.407929 kJ/mol
# GULP energy per Si atom -12388.543998 kJ/mol
# Density = 2.100414 g / cm^3
# Si number density = 21.052052 Si / 1000 Ang^3
#
#
#
# Elastic Constant Matrix: (Units=GPa)
#
#
# Indices 1 2 3 4 5 6 
#
# 1 87.2871 25.6859 15.2331 0.0000 -10.3156 0.0000
# 2 25.6859 112.2699 26.1289 0.0000 -10.9017 0.0000
# 3 15.2331 26.1289 65.5831 0.0000 -8.1160 0.0000
# 4 0.0000 0.0000 0.0000 18.7102 0.0000 0.2047
# 5 -10.3156 -10.9017 -8.1160 0.0000 32.1212 0.0000
# 6 0.0000 0.0000 0.0000 0.2047 0.0000 18.5490
#
#
#
# Elastic Compliance Matrix: (Units=1/GPa)
#
#
# Indices 1 2 3 4 5 6 
#
# 1 0.012757 -0.002238 -0.001712 0.000000 0.002905 0.000000
# 2 -0.002238 0.010396 -0.003380 0.000000 0.001955 0.000000
# 3 -0.001712 -0.003380 0.017324 0.000000 0.002680 0.000000
# 4 0.000000 0.000000 0.000000 0.053453 0.000000 -0.000590
# 5 0.002905 0.001955 0.002680 0.000000 0.033406 0.000000
# 6 0.000000 0.000000 0.000000 -0.000590 0.000000 0.053918
#
#
# Mechanical properties :
#
#
# Convention : Reuss Voigt Hill
#
# Bulk Modulus (GPa) = 38.73490 44.35956 41.54723
# Shear Modulus (GPa) = 24.44763 27.08223 25.76493
#
# Velocity S-wave (km/s) = 3.41147 3.59059 3.50218
# Velocity P-wave (km/s) = 5.82727 6.18926 6.01099
#
# Compressibility (1/GPa) = 0.02581651
#
# Stress axis : x y z
#
# Youngs Moduli (GPa) = 78.38761 96.19395 57.72432
#
# Poissons Ratio (x) = 0.21530 0.09882
# Poissons Ratio (y) = 0.17545 0.19510
# Poissons Ratio (z) = 0.13419 0.32512
#
# Static dielectric constant tensor:
#      x y z
#    x 3.781730 0.000000 -0.022070 
#    y 0.000000 3.848190 0.000000 
#    z -0.022070 0.000000 3.836710 
# 
# 
# High freq. dielectric constant tensor:
#      x y z
#    x 1.818160 0.000000 -0.000820 
#    y 0.000000 1.824140 0.000000 
#    z -0.000820 0.000000 1.808070 
# 
# From -- ./inp_files/361041.got.cif
#   From: 2010.06.25/outbox.cif.g09.slc.cpg/sg12_181_cif.got.tgz:361041.got - 2010.06.28 00:19:55.
