data_PCOD8092307
_publ_section_title
;
Structure prediction by ZEFSAII (Michael W. Deem and Ramdas Pophale) SiO2 
 PCOD8092307
Probable space group: C 2/M
;
_chemical_formula_sum "Si O2"
_cell_formula_units_Z 48
_cell_length_a 9.473612
_cell_length_b 26.855187
_cell_length_c 13.421205
_cell_angle_alpha 90.000000
_cell_angle_beta 34.709768
_cell_angle_gamma 90.000000
_cell_volume 1944.320054
_symmetry_space_group_name_H-M "C 2/M"
_symmetry_group_IT_number 12
_symmetry_cell_setting 'monoclinic'
loop_
_space_group_symop_operation_xyz
x,y,z
-x,y,-z
-x,-y,-z
x,-y,z
1/2+x,1/2+y,z
1/2-x,1/2+y,-z
1/2-x,1/2-y,-z
1/2+x,1/2-y,z
loop_
_atom_site_type_symbol
_atom_site_label
_atom_site_fract_x
_atom_site_fract_y
_atom_site_fract_z
Si Si1 0.069569 0.413942 0.348073
Si Si2 0.242341 0.807844 0.788961
Si Si3 0.374436 0.942935 0.271048
Si Si4 0.904977 0.224214 0.821399
Si Si5 0.574979 0.555559 0.108251
Si Si6 0.272543 0.619236 0.815445
O O1 0.085333 0.355474 0.318114
O O2 0.851138 0.435917 0.404018
O O3 0.342064 0.438277 0.168945
O O4 0.000000 0.428226 0.500000
O O5 0.429812 0.766260 0.722914
O O6 0.160271 0.793274 0.723853
O O7 0.000000 0.815983 0.000000
O O8 0.199195 0.902757 0.314243
O O9 0.307769 0.000000 0.278589
O O10 0.665695 0.928995 0.091842
O O11 0.780679 0.178394 0.831532
O O12 0.750000 0.250000 0.000000
O O13 0.595086 0.500000 0.138000
O O14 0.527145 0.593052 0.228988
O O15 0.000000 0.598540 0.000000
#
# Coordination Sequence:
#
# PCOD8092307 Si02
#       6
#     8   8   8   8   8   8
#     4  12  25  40  59  86 124 169 209 249 301 362
#     4  10  21  37  63  92 120 153 201 255 308 362
#     4  10  22  38  63  94 121 157 204 257 311 358
#     4  10  20  34  61  98 122 152 194 249 310 357
#     4  10  20  38  64  90 119 155 197 256 312 359
#     4  10  19  34  61  94 126 150 192 251 309 367
#
# _framework density 24.687294000000001
#
# number of rings (size 3 to 8) (size 9 to 14) (size 15 to 20)
#    0.000    1.667    1.667    4.000    9.333    4.667 
#    0.000    1.667    0.000    2.000    0.000    0.000 
#    0.000    0.000    0.000    0.000    0.000    0.000 
#
# Total GULP energy -297339.760594 kJ/mol
# GULP energy per Si atom -12389.156691 kJ/mol
# Density = 2.463110 g / cm^3
# Si number density = 24.687294 Si / 1000 Ang^3
#
#
#
# Elastic Constant Matrix: (Units=GPa)
#
#
# Indices 1 2 3 4 5 6 
#
# 1 140.3318 42.2446 5.2703 0.0000 12.6087 0.0000
# 2 42.2446 144.8348 2.8063 0.0000 10.4751 0.0000
# 3 5.2703 2.8063 11.6723 0.0000 6.1773 0.0000
# 4 0.0000 0.0000 0.0000 1.5559 0.0000 4.1429
# 5 12.6087 10.4751 6.1773 0.0000 28.3672 0.0000
# 6 0.0000 0.0000 0.0000 4.1429 0.0000 55.0045
#
#
#
# Elastic Compliance Matrix: (Units=1/GPa)
#
#
# Indices 1 2 3 4 5 6 
#
# 1 0.008055 -0.002141 -0.001860 0.000000 -0.002385 0.000000
# 2 -0.002141 0.007664 0.000134 0.000000 -0.001908 0.000000
# 3 -0.001860 0.000134 0.097280 0.000000 -0.020406 0.000000
# 4 0.000000 0.000000 0.000000 0.803929 0.000000 -0.060551
# 5 -0.002385 -0.001908 -0.020406 0.000000 0.041460 0.000000
# 6 0.000000 0.000000 0.000000 -0.060551 0.000000 0.022741
#
#
# Mechanical properties :
#
#
# Convention : Reuss Voigt Hill
#
# Bulk Modulus (GPa) = 9.49993 44.16458 26.83226
# Shear Modulus (GPa) = 4.88304 33.42004 19.15154
#
# Velocity S-wave (km/s) = 1.40792 3.68330 2.78828
# Velocity P-wave (km/s) = 2.54940 6.00145 4.61069
#
# Compressibility (1/GPa) = 0.10526393
#
# Stress axis : x y z
#
# Youngs Moduli (GPa) = 124.15378 130.47643 10.27961
#
# Poissons Ratio (x) = 0.27932 0.01912
# Poissons Ratio (y) = 0.26579 -0.00137
# Poissons Ratio (z) = 0.23094 -0.01743
#
# Static dielectric constant tensor:
#      x y z
#    x 5.025710 0.000000 0.081060 
#    y 0.000000 4.416100 0.000000 
#    z 0.081060 0.000000 3.874570 
# 
# 
# High freq. dielectric constant tensor:
#      x y z
#    x 2.006940 0.000000 0.001200 
#    y 0.000000 1.984520 0.000000 
#    z 0.001200 0.000000 1.931260 
# 
# From -- ./inp_files/200138.got.cif
#   From: 2010.06.25/outbox.cif.g09.slc.cpg/sg12_101_cif.got.tgz:200138.got - 2010.06.28 00:19:55.
