data_PCOD8092396
_publ_section_title
;
Structure prediction by ZEFSAII (Michael W. Deem and Ramdas Pophale) SiO2 
 PCOD8092396
Probable space group: C 2/M
;
_chemical_formula_sum "Si O2"
_cell_formula_units_Z 56
_cell_length_a 9.806759
_cell_length_b 18.769579
_cell_length_c 20.308657
_cell_angle_alpha 90.000000
_cell_angle_beta 122.600839
_cell_angle_gamma 90.000000
_cell_volume 3149.216673
_symmetry_space_group_name_H-M "C 2/M"
_symmetry_group_IT_number 12
_symmetry_cell_setting 'monoclinic'
loop_
_space_group_symop_operation_xyz
x,y,z
-x,y,-z
-x,-y,-z
x,-y,z
1/2+x,1/2+y,z
1/2-x,1/2+y,-z
1/2-x,1/2-y,-z
1/2+x,1/2-y,z
loop_
_atom_site_type_symbol
_atom_site_label
_atom_site_fract_x
_atom_site_fract_y
_atom_site_fract_z
Si Si1 0.406547 0.703608 0.856093
Si Si2 0.168168 0.699693 0.673245
Si Si3 0.613339 0.419591 0.967201
Si Si4 0.155046 0.217672 0.412353
Si Si5 0.488835 0.079279 0.570209
Si Si6 0.875755 0.920163 0.524041
Si Si7 0.310290 0.198206 0.071328
O O1 0.297749 0.696515 0.764007
O O2 0.524623 0.634037 0.892286
O O3 0.503587 0.778420 0.869797
O O4 0.294885 0.711057 0.890806
O O5 0.237641 0.729946 0.623543
O O6 0.013932 0.746894 0.649404
O O7 0.107508 0.618900 0.650339
O O8 0.646466 0.500000 0.946829
O O9 0.500000 0.428306 0.000000
O O10 0.781898 0.382683 0.036628
O O11 0.250000 0.250000 0.500000
O O12 0.114208 0.134313 0.412744
O O13 0.500000 0.114902 0.500000
O O14 0.307057 0.082261 0.551763
O O15 0.557069 0.000000 0.582454
O O16 0.000000 0.895949 0.500000
O O17 0.917649 0.000000 0.560049
O O18 0.250000 0.250000 0.000000
#
# Coordination Sequence:
#
# PCOD8092396 Si02
#       7
#     8   8   8   8   8   8   8
#     4  10  20  33  52  81 111 137 169 212 267 319
#     4  12  23  34  51  78 111 139 174 226 288 309
#     4   8  15  30  55  81 103 131 169 207 243 300
#     4  12  22  36  53  74 101 143 189 232 263 319
#     4  10  19  35  54  74 100 136 186 229 266 318
#     4  10  20  35  55  74  94 129 183 233 269 314
#     4   9  17  34  57  78 103 140 174 205 245 312
#
# _framework density 17.782198999999999
#
# number of rings (size 3 to 8) (size 9 to 14) (size 15 to 20)
#    0.000    1.857    2.857    3.429    0.000    0.571 
#    0.000    0.000    0.000    7.714    0.000    0.000 
#    0.000    0.000    0.000    0.000    0.000    0.000 
#
# Total GULP energy -346939.095333 kJ/mol
# GULP energy per Si atom -12390.681976 kJ/mol
# Density = 1.774173 g / cm^3
# Si number density = 17.782199 Si / 1000 Ang^3
#
#
#
# Elastic Constant Matrix: (Units=GPa)
#
#
# Indices 1 2 3 4 5 6 
#
# 1 80.1680 19.6391 30.7240 0.0000 1.4224 0.0000
# 2 19.6391 103.3769 49.0836 0.0000 11.4414 0.0000
# 3 30.7240 49.0836 113.0031 0.0000 15.3061 0.0000
# 4 0.0000 0.0000 0.0000 21.5238 0.0000 4.2829
# 5 1.4224 11.4414 15.3061 0.0000 27.9240 0.0000
# 6 0.0000 0.0000 0.0000 4.2829 0.0000 24.9486
#
#
#
# Elastic Compliance Matrix: (Units=1/GPa)
#
#
# Indices 1 2 3 4 5 6 
#
# 1 0.014094 -0.001181 -0.003551 0.000000 0.001712 0.000000
# 2 -0.001181 0.012419 -0.004744 0.000000 -0.002428 0.000000
# 3 -0.003551 -0.004744 0.012517 0.000000 -0.004736 0.000000
# 4 0.000000 0.000000 0.000000 0.048103 0.000000 -0.008258
# 5 0.001712 -0.002428 -0.004736 0.000000 0.039315 0.000000
# 6 0.000000 0.000000 0.000000 -0.008258 0.000000 0.041500
#
#
# Mechanical properties :
#
#
# Convention : Reuss Voigt Hill
#
# Bulk Modulus (GPa) = 49.80758 55.04904 52.42831
# Shear Modulus (GPa) = 25.82741 28.01937 26.92339
#
# Velocity S-wave (km/s) = 3.81521 3.97381 3.89532
# Velocity P-wave (km/s) = 6.89046 7.21661 7.05542
#
# Compressibility (1/GPa) = 0.02007726
#
# Stress axis : x y z
#
# Youngs Moduli (GPa) = 70.95436 80.52161 79.89160
#
# Poissons Ratio (x) = 0.09510 0.28368
# Poissons Ratio (y) = 0.08380 0.37903
# Poissons Ratio (z) = 0.25194 0.38202
#
# Static dielectric constant tensor:
#      x y z
#    x 3.430630 0.000000 0.140650 
#    y 0.000000 3.893210 0.000000 
#    z 0.140650 0.000000 3.156730 
# 
# 
# High freq. dielectric constant tensor:
#      x y z
#    x 1.692300 0.000000 0.004340 
#    y 0.000000 1.694360 0.000000 
#    z 0.004340 0.000000 1.659340 
# 
# From -- ./inp_files/258243.got.cif
#   From: 2010.06.25/outbox.cif.g09.slc.cpg/sg12_130_cif.got.tgz:258243.got - 2010.06.28 00:19:55.
