data_PCOD8092522
_publ_section_title
;
Structure prediction by ZEFSAII (Michael W. Deem and Ramdas Pophale) SiO2 
 PCOD8092522
Probable space group: C 2/M
;
_chemical_formula_sum "Si O2"
_cell_formula_units_Z 56
_cell_length_a 9.332931
_cell_length_b 23.307061
_cell_length_c 19.298190
_cell_angle_alpha 90.000000
_cell_angle_beta 41.648398
_cell_angle_gamma 90.000000
_cell_volume 2789.682664
_symmetry_space_group_name_H-M "C 2/M"
_symmetry_group_IT_number 12
_symmetry_cell_setting 'monoclinic'
loop_
_space_group_symop_operation_xyz
x,y,z
-x,y,-z
-x,-y,-z
x,-y,z
1/2+x,1/2+y,z
1/2-x,1/2+y,-z
1/2-x,1/2-y,-z
1/2+x,1/2-y,z
loop_
_atom_site_type_symbol
_atom_site_label
_atom_site_fract_x
_atom_site_fract_y
_atom_site_fract_z
Si Si1 0.940708 0.669069 0.206970
Si Si2 0.409185 0.854625 0.456549
Si Si3 0.049031 0.738114 0.674213
Si Si4 0.632110 0.615804 0.890349
Si Si5 0.939400 0.758640 0.098436
Si Si6 0.513571 0.366551 0.671413
Si Si7 0.719535 0.433885 0.717180
O O1 0.822216 0.704770 0.311569
O O2 0.124523 0.628102 0.171056
O O3 0.051630 0.714101 0.111839
O O4 0.743467 0.631837 0.247180
O O5 0.500000 0.842533 0.500000
O O6 0.422687 0.795594 0.408022
O O7 0.167554 0.883575 0.550446
O O8 0.550805 0.902630 0.367228
O O9 0.809810 0.742723 0.791776
O O10 0.122544 0.803352 0.642513
O O11 0.500467 0.674011 0.916481
O O12 0.628301 0.572629 0.827623
O O13 0.500000 0.585570 0.000000
O O14 0.000000 0.735927 0.000000
O O15 0.551416 0.406095 0.724270
O O16 0.748649 0.500000 0.687553
#
# Coordination Sequence:
#
# PCOD8092522 Si02
#       7
#     8   8   8   8   8   8   8
#     4  10  20  35  58  90 125 155 195 249 301 363
#     4  10  21  37  58  88 117 161 202 242 304 362
#     4  10  19  35  55  89 130 151 194 243 307 363
#     4  10  21  38  61  88 120 158 203 249 304 361
#     4   9  18  31  54  87 125 163 188 233 300 370
#     4  10  23  35  60  88 120 162 199 249 301 358
#     4  11  23  44  63  83 119 163 214 254 291 362
#
# _framework density 20.073967
#
# number of rings (size 3 to 8) (size 9 to 14) (size 15 to 20)
#    0.000    2.000    2.857    1.286    6.000   10.857 
#    0.000    0.714    0.000    1.714    0.000    0.000 
#    0.000    0.000    0.000    0.000    0.000    0.000 
#
# Total GULP energy -346870.620205 kJ/mol
# GULP energy per Si atom -12388.236436 kJ/mol
# Density = 2.002828 g / cm^3
# Si number density = 20.073967 Si / 1000 Ang^3
#
#
#
# Elastic Constant Matrix: (Units=GPa)
#
#
# Indices 1 2 3 4 5 6 
#
# 1 57.5238 30.8663 28.3525 0.0000 0.7525 0.0000
# 2 30.8663 90.7276 21.8278 0.0000 9.2871 0.0000
# 3 28.3525 21.8278 107.9646 0.0000 20.1591 0.0002
# 4 0.0000 0.0000 0.0000 13.2367 0.0000 2.7323
# 5 0.7525 9.2871 20.1591 0.0000 31.8378 -0.0001
# 6 0.0000 0.0000 0.0002 2.7323 -0.0001 18.2451
#
#
#
# Elastic Compliance Matrix: (Units=1/GPa)
#
#
# Indices 1 2 3 4 5 6 
#
# 1 0.024133 -0.007345 -0.005836 0.000000 0.005268 0.000000
# 2 -0.007345 0.013953 -0.000186 0.000000 -0.003778 0.000000
# 3 -0.005836 -0.000186 0.012244 0.000000 -0.007561 0.000000
# 4 0.000000 0.000000 0.000000 0.077957 0.000000 -0.011675
# 5 0.005268 -0.003778 -0.007561 0.000000 0.037174 0.000000
# 6 0.000000 0.000000 0.000000 -0.011675 0.000000 0.056558
#
#
# Mechanical properties :
#
#
# Convention : Reuss Voigt Hill
#
# Bulk Modulus (GPa) = 42.38331 46.47879 44.43105
# Shear Modulus (GPa) = 19.48411 24.34189 21.91300
#
# Velocity S-wave (km/s) = 3.11885 3.48603 3.30754
# Velocity P-wave (km/s) = 5.84201 6.27752 6.06367
#
# Compressibility (1/GPa) = 0.02359420
#
# Stress axis : x y z
#
# Youngs Moduli (GPa) = 41.43682 71.67132 81.67069
#
# Poissons Ratio (x) = 0.52646 0.47664
# Poissons Ratio (y) = 0.30437 0.01522
# Poissons Ratio (z) = 0.24183 0.01336
#
# Static dielectric constant tensor:
#      x y z
#    x 3.731700 0.000000 0.336250 
#    y 0.000000 3.396150 0.000000 
#    z 0.336250 0.000000 4.314700 
# 
# 
# High freq. dielectric constant tensor:
#      x y z
#    x 1.772030 0.000000 0.005840 
#    y 0.000000 1.735930 0.000000 
#    z 0.005840 0.000000 1.809280 
# 
# From -- ./inp_files/259151.got.cif
#   From: 2010.06.25/outbox.cif.g09.slc.cpg/sg12_130_cif.got.tgz:259151.got - 2010.06.28 00:19:55.
