data_PCOD8092558
_publ_section_title
;
Structure prediction by ZEFSAII (Michael W. Deem and Ramdas Pophale) SiO2 
 PCOD8092558
Probable space group: C 2/M
;
_chemical_formula_sum "Si O2"
_cell_formula_units_Z 64
_cell_length_a 20.698019
_cell_length_b 9.392864
_cell_length_c 18.888610
_cell_angle_alpha 90.000000
_cell_angle_beta 90.000000
_cell_angle_gamma 90.000000
_cell_volume 3672.204134
_symmetry_space_group_name_H-M "C 2/M"
_symmetry_group_IT_number 12
_symmetry_cell_setting 'monoclinic'
loop_
_space_group_symop_operation_xyz
x,y,z
-x,y,-z
-x,-y,-z
x,-y,z
1/2+x,1/2+y,z
1/2-x,1/2+y,-z
1/2-x,1/2-y,-z
1/2+x,1/2-y,z
loop_
_atom_site_type_symbol
_atom_site_label
_atom_site_fract_x
_atom_site_fract_y
_atom_site_fract_z
Si Si1 0.190659 0.335890 0.030075
Si Si2 0.625924 0.162891 0.329280
Si Si3 0.125924 0.337109 0.170720
Si Si4 0.560274 0.165442 0.950512
Si Si5 0.809341 0.335890 0.530075
Si Si6 0.503326 0.335488 0.830909
Si Si7 0.939726 0.334558 0.450512
Si Si8 0.996674 0.164512 0.330909
O O1 0.206132 0.500000 0.017121
O O2 0.181904 0.302787 0.113903
O O3 0.250000 0.250000 0.000000
O O4 0.125420 0.290367 0.990327
O O5 0.653914 0.185558 0.250000
O O6 0.681904 0.197213 0.386097
O O7 0.565975 0.264715 0.343610
O O8 0.601834 0.000000 0.340240
O O9 0.101834 0.500000 0.159760
O O10 0.065975 0.235285 0.156390
O O11 0.556597 0.258105 0.879113
O O12 0.559681 0.000000 0.929917
O O13 0.500000 0.204508 0.000000
O O14 0.793869 0.500000 0.517121
O O15 0.750000 0.250000 0.500000
O O16 0.874580 0.290367 0.490327
O O17 0.497918 0.500000 0.852386
O O18 0.525723 0.317149 0.750000
O O19 0.940319 0.500000 0.429917
O O20 0.000000 0.295492 0.500000
O O21 0.943403 0.241894 0.379113
O O22 0.002082 0.000000 0.352386
#
# Coordination Sequence:
#
# PCOD8092558 Si02
#       8
#     8   8   8   8   8   8   8   8
#     4  10  21  36  54  79 108 140 177 218 265 318
#     4   9  17  33  56  77 101 138 180 218 260 316
#     4   9  17  33  56  77 101 138 180 218 260 316
#     4  10  19  35  56  78 105 139 180 218 257 316
#     4  10  21  36  54  79 108 140 177 218 265 318
#     4  10  20  32  50  81 113 138 172 222 274 315
#     4  10  19  35  56  78 105 139 180 218 257 316
#     4  10  20  32  50  81 113 138 172 222 274 315
#
# _framework density 17.428224
#
# number of rings (size 3 to 8) (size 9 to 14) (size 15 to 20)
#    0.000    2.250    2.500    0.750    0.000    4.000 
#    0.000    1.250    0.000    4.500    0.000    0.000 
#    0.000    0.000    0.000    0.000    0.000    0.000 
#
# Total GULP energy -396819.273924 kJ/mol
# GULP energy per Si atom -12400.602310 kJ/mol
# Density = 1.738856 g / cm^3
# Si number density = 17.428224 Si / 1000 Ang^3
#
#
#
# Elastic Constant Matrix: (Units=GPa)
#
#
# Indices 1 2 3 4 5 6 
#
# 1 116.9400 54.6863 72.0406 0.0000 0.0000 0.0000
# 2 54.6863 85.5157 70.1674 0.0000 0.0000 0.0000
# 3 72.0406 70.1674 138.0118 0.0000 0.0001 0.0000
# 4 0.0000 0.0000 0.0000 30.1729 0.0000 0.0000
# 5 0.0000 0.0000 0.0001 0.0000 24.3109 0.0000
# 6 0.0000 0.0000 0.0000 0.0000 0.0000 32.1163
#
#
#
# Elastic Compliance Matrix: (Units=1/GPa)
#
#
# Indices 1 2 3 4 5 6 
#
# 1 0.013738 -0.004978 -0.004640 0.000000 0.000000 0.000000
# 2 -0.004978 0.021867 -0.008519 0.000000 0.000000 0.000000
# 3 -0.004640 -0.008519 0.013999 0.000000 0.000000 0.000000
# 4 0.000000 0.000000 0.000000 0.033142 0.000000 0.000000
# 5 0.000000 0.000000 0.000000 0.000000 0.041134 0.000000
# 6 0.000000 0.000000 0.000000 0.000000 0.000000 0.031137
#
#
# Mechanical properties :
#
#
# Convention : Reuss Voigt Hill
#
# Bulk Modulus (GPa) = 75.02031 81.58398 78.30215
# Shear Modulus (GPa) = 25.54473 26.89157 26.21815
#
# Velocity S-wave (km/s) = 3.83261 3.93235 3.88280
# Velocity P-wave (km/s) = 7.91985 8.21772 8.07016
#
# Compressibility (1/GPa) = 0.01332972
#
# Stress axis : x y z
#
# Youngs Moduli (GPa) = 72.79182 45.73044 71.43242
#
# Poissons Ratio (x) = 0.22764 0.33146
# Poissons Ratio (y) = 0.36234 0.60856
# Poissons Ratio (z) = 0.33777 0.38959
#
# Static dielectric constant tensor:
#      x y z
#    x 2.968700 0.000000 0.000000 
#    y 0.000000 3.282270 0.000000 
#    z 0.000000 0.000000 3.600030 
# 
# 
# High freq. dielectric constant tensor:
#      x y z
#    x 1.639560 0.000000 0.000000 
#    y 0.000000 1.674790 0.000000 
#    z 0.000000 0.000000 1.689160 
# 
# From -- ./inp_files/281415.got.cif
#   From: 2010.06.25/outbox.cif.g09.slc.cpg/sg12_141_cif.got.tgz:281415.got - 2010.06.28 00:19:55.
