data_PCOD8092692
_publ_section_title
;
Structure prediction by ZEFSAII (Michael W. Deem and Ramdas Pophale) SiO2 
 PCOD8092692
Probable space group: C 2/M
;
_chemical_formula_sum "Si O2"
_cell_formula_units_Z 64
_cell_length_a 14.651261
_cell_length_b 9.140781
_cell_length_c 26.604955
_cell_angle_alpha 90.000000
_cell_angle_beta 106.087512
_cell_angle_gamma 90.000000
_cell_volume 3423.510937
_symmetry_space_group_name_H-M "C 2/M"
_symmetry_group_IT_number 12
_symmetry_cell_setting 'monoclinic'
loop_
_space_group_symop_operation_xyz
x,y,z
-x,y,-z
-x,-y,-z
x,-y,z
1/2+x,1/2+y,z
1/2-x,1/2+y,-z
1/2-x,1/2-y,-z
1/2+x,1/2-y,z
loop_
_atom_site_type_symbol
_atom_site_label
_atom_site_fract_x
_atom_site_fract_y
_atom_site_fract_z
Si Si1 0.193720 0.828231 0.751576
Si Si2 0.283104 0.328981 0.577585
Si Si3 0.811916 0.327142 0.862956
Si Si4 0.298024 0.674044 0.054300
Si Si5 0.674529 0.832033 0.317050
Si Si6 0.976442 0.327183 0.120432
Si Si7 0.976927 0.667449 0.236120
Si Si8 0.108151 0.171214 0.506484
O O1 0.257775 0.760030 0.806302
O O2 0.235344 0.789839 0.703329
O O3 0.088990 0.761977 0.737559
O O4 0.186435 0.000000 0.757997
O O5 0.263978 0.500000 0.578450
O O6 0.330234 0.271528 0.635611
O O7 0.180900 0.252840 0.554562
O O8 0.358925 0.292671 0.545266
O O9 0.812406 0.500000 0.857204
O O10 0.760402 0.276318 0.905642
O O11 0.920035 0.272322 0.881016
O O12 0.299646 0.500000 0.047594
O O13 0.404170 0.735459 0.075493
O O14 0.250000 0.750000 0.000000
O O15 0.584623 0.803878 0.268051
O O16 0.679325 0.000000 0.335894
O O17 0.962067 0.500000 0.109220
O O18 0.962555 0.284870 0.176445
O O19 0.948633 0.500000 0.239168
O O20 0.000000 0.226105 0.500000
O O21 0.115449 0.000000 0.519541
#
# Coordination Sequence:
#
# PCOD8092692 Si02
#       8
#     8   8   8   8   8   8   8   8
#     4  10  19  35  57  80 106 145 190 224 263 328
#     4  10  21  36  56  85 117 146 185 238 281 321
#     4   9  18  35  59  80 104 142 184 218 264 333
#     4  11  23  39  58  82 111 142 180 229 279 329
#     4  10  21  37  56  79 115 155 187 223 273 334
#     4  10  19  36  60  82 106 140 183 225 270 328
#     4  10  20  34  55  83 111 142 181 229 277 321
#     4   9  19  38  62  83 109 150 194 229 276 336
#
# _framework density 18.69426
#
# number of rings (size 3 to 8) (size 9 to 14) (size 15 to 20)
#    0.000    2.125    2.500    0.750    0.000    3.250 
#    0.000    8.125    0.000    0.000    0.000    0.000 
#    0.000    0.000    0.000    0.000    0.000    0.000 
#
# Total GULP energy -396855.981273 kJ/mol
# GULP energy per Si atom -12401.749415 kJ/mol
# Density = 1.865171 g / cm^3
# Si number density = 18.694260 Si / 1000 Ang^3
#
#
#
# Elastic Constant Matrix: (Units=GPa)
#
#
# Indices 1 2 3 4 5 6 
#
# 1 98.4480 24.8479 8.1944 0.0000 -10.1774 0.0000
# 2 24.8479 42.9598 30.8315 0.0000 -4.4205 0.0000
# 3 8.1944 30.8315 74.0405 0.0000 0.8829 0.0000
# 4 0.0000 0.0000 0.0000 33.0876 0.0000 2.8885
# 5 -10.1774 -4.4205 0.8829 0.0000 19.3905 0.0000
# 6 0.0000 0.0000 0.0000 2.8885 0.0000 31.5115
#
#
#
# Elastic Compliance Matrix: (Units=1/GPa)
#
#
# Indices 1 2 3 4 5 6 
#
# 1 0.012539 -0.008188 0.001967 0.000000 0.004625 0.000000
# 2 -0.008188 0.039903 -0.015776 0.000000 0.005518 0.000000
# 3 0.001967 -0.015776 0.019899 0.000000 -0.003470 0.000000
# 4 0.000000 0.000000 0.000000 0.030467 0.000000 -0.002793
# 5 0.004625 0.005518 -0.003470 0.000000 0.055415 0.000000
# 6 0.000000 0.000000 0.000000 -0.002793 0.000000 0.031990
#
#
# Mechanical properties :
#
#
# Convention : Reuss Voigt Hill
#
# Bulk Modulus (GPa) = 35.27725 38.13287 36.70506
# Shear Modulus (GPa) = 20.52072 26.90289 23.71181
#
# Velocity S-wave (km/s) = 3.31675 3.79766 3.56532
# Velocity P-wave (km/s) = 5.79477 6.29858 6.05192
#
# Compressibility (1/GPa) = 0.02834688
#
# Stress axis : x y z
#
# Youngs Moduli (GPa) = 79.75331 25.06060 50.25348
#
# Poissons Ratio (x) = 0.20519 -0.09883
# Poissons Ratio (y) = 0.65301 0.79279
# Poissons Ratio (z) = -0.15685 0.39535
#
# Static dielectric constant tensor:
#      x y z
#    x 3.584930 0.000000 -0.070990 
#    y 0.000000 3.244280 0.000000 
#    z -0.070990 0.000000 3.400500 
# 
# 
# High freq. dielectric constant tensor:
#      x y z
#    x 1.735680 0.000000 -0.000680 
#    y 0.000000 1.708770 0.000000 
#    z -0.000680 0.000000 1.724440 
# 
# From -- ./inp_files/359878.got.cif
#   From: 2010.06.25/outbox.cif.g09.slc.cpg/sg12_180_cif.got.tgz:359878.got - 2010.06.28 00:19:55.
