data_PCOD8092194
_publ_section_title
;
Structure prediction by ZEFSAII (Michael W. Deem and Ramdas Pophale) SiO2 
 PCOD8092194
Probable space group: C 2/M
;
_chemical_formula_sum "Si O2"
_cell_formula_units_Z 64
_cell_length_a 31.357799
_cell_length_b 8.908461
_cell_length_c 24.118674
_cell_angle_alpha 90.000000
_cell_angle_beta 28.073139
_cell_angle_gamma 90.000000
_cell_volume 3170.677095
_symmetry_space_group_name_H-M "C 2/M"
_symmetry_group_IT_number 12
_symmetry_cell_setting 'monoclinic'
loop_
_space_group_symop_operation_xyz
x,y,z
-x,y,-z
-x,-y,-z
x,-y,z
1/2+x,1/2+y,z
1/2-x,1/2+y,-z
1/2-x,1/2-y,-z
1/2+x,1/2-y,z
loop_
_atom_site_type_symbol
_atom_site_label
_atom_site_fract_x
_atom_site_fract_y
_atom_site_fract_z
Si Si1 0.743186 0.674842 0.742805
Si Si2 0.440046 0.176431 0.016919
Si Si3 0.656297 0.324770 0.088124
Si Si4 0.593576 0.824530 0.372742
Si Si5 0.646263 0.167103 0.490068
Si Si6 0.843091 0.174942 0.410695
Si Si7 0.944839 0.332046 0.703810
Si Si8 0.025647 0.821492 0.140895
O O1 0.720940 0.500000 0.780942
O O2 0.660388 0.780511 0.851184
O O3 0.821692 0.741973 0.691715
O O4 0.771843 0.696956 0.646120
O O5 0.449305 0.000000 0.997076
O O6 0.500000 0.232238 0.000000
O O7 0.468571 0.255343 0.927133
O O8 0.674643 0.500000 0.064857
O O9 0.580312 0.288036 0.220834
O O10 0.612678 0.271258 0.079094
O O11 0.750000 0.250000 0.000000
O O12 0.500000 0.747160 0.500000
O O13 0.610437 0.794728 0.288411
O O14 0.588449 0.000000 0.392598
O O15 0.644503 0.292367 0.538901
O O16 0.551106 0.176461 0.566528
O O17 0.657597 0.000000 0.503134
O O18 0.750000 0.250000 0.500000
O O19 0.930950 0.236481 0.276471
O O20 0.833798 0.000000 0.411215
O O21 0.919824 0.500000 0.753539
O O22 0.024819 0.000000 0.137941
#
# Coordination Sequence:
#
# PCOD8092194 Si02
#       8
#     8   8   8   8   8   8   8   8
#     4  10  21  38  63  92 124 164 210 253 297 364
#     4  11  27  47  65  89 122 162 209 265 323 370
#     4  11  24  42  62  89 124 164 209 255 310 370
#     4   9  16  31  56  88 122 157 196 239 285 346
#     4  10  20  36  61  94 126 162 206 251 307 368
#     4  11  24  42  65  94 124 157 199 254 315 374
#     4  10  19  34  59  89 124 161 202 250 302 361
#     4  10  24  46  68  91 123 165 212 257 307 376
#
# _framework density 20.184963
#
# number of rings (size 3 to 8) (size 9 to 14) (size 15 to 20)
#    0.000    1.750    2.500    1.125    3.500    3.500 
#    0.000    0.000    0.000    0.750    0.000    0.000 
#    0.000    0.000    0.000    0.000    0.000    0.000 
#
# Total GULP energy -396715.983120 kJ/mol
# GULP energy per Si atom -12397.374472 kJ/mol
# Density = 2.013902 g / cm^3
# Si number density = 20.184963 Si / 1000 Ang^3
#
#
#
# Elastic Constant Matrix: (Units=GPa)
#
#
# Indices 1 2 3 4 5 6 
#
# 1 150.4309 37.4421 68.5125 -0.0003 -7.1255 0.0021
# 2 37.4421 38.3628 30.6057 -0.0246 -2.9861 -0.0073
# 3 68.5125 30.6057 118.4067 -0.0187 -4.6885 -0.0009
# 4 -0.0003 -0.0246 -0.0187 31.8634 0.0071 2.3375
# 5 -7.1255 -2.9861 -4.6885 0.0071 32.3688 -0.0029
# 6 0.0021 -0.0073 -0.0009 2.3375 -0.0029 28.2987
#
#
#
# Elastic Compliance Matrix: (Units=1/GPa)
#
#
# Indices 1 2 3 4 5 6 
#
# 1 0.010239 -0.006574 -0.004184 -0.000008 0.001041 -0.000002
# 2 -0.006574 0.037166 -0.005757 0.000024 0.001148 0.000008
# 3 -0.004184 -0.005757 0.012368 0.000003 0.000339 -0.000001
# 4 -0.000008 0.000024 0.000003 0.031575 -0.000006 -0.002608
# 5 0.001041 0.001148 0.000339 -0.000006 0.031278 0.000004
# 6 -0.000002 0.000008 -0.000001 -0.002608 0.000004 0.035553
#
#
# Mechanical properties :
#
#
# Convention : Reuss Voigt Hill
#
# Bulk Modulus (GPa) = 37.39438 64.48012 50.93725
# Shear Modulus (GPa) = 24.98469 29.88219 27.43344
#
# Velocity S-wave (km/s) = 3.52204 3.85179 3.69060
# Velocity P-wave (km/s) = 5.92501 7.19693 6.59172
#
# Compressibility (1/GPa) = 0.02674199
#
# Stress axis : x y z
#
# Youngs Moduli (GPa) = 97.66908 26.90658 80.85481
#
# Poissons Ratio (x) = 0.17689 0.33828
# Poissons Ratio (y) = 0.64208 0.46550
# Poissons Ratio (z) = 0.40863 0.15491
#
# Static dielectric constant tensor:
#      x y z
#    x 4.044620 -0.000050 -0.172200 
#    y -0.000050 3.469400 0.000060 
#    z -0.172200 0.000060 3.733980 
# 
# 
# High freq. dielectric constant tensor:
#      x y z
#    x 1.801850 0.000000 -0.003750 
#    y 0.000000 1.761020 0.000000 
#    z -0.003750 0.000000 1.795040 
# 
# From -- ./inp_files/353417.got.cif
#   From: 2010.06.25/outbox.cif.g09.slc.cpg/sg12_177_cif.got.tgz:353417.got - 2010.06.28 00:19:55.
