data_PCOD8092056
_publ_section_title
;
Structure prediction by ZEFSAII (Michael W. Deem and Ramdas Pophale) SiO2 
 PCOD8092056
Probable space group: C 2/M
;
_chemical_formula_sum "Si O2"
_cell_formula_units_Z 56
_cell_length_a 7.637190
_cell_length_b 21.587705
_cell_length_c 25.920039
_cell_angle_alpha 90.000000
_cell_angle_beta 140.188839
_cell_angle_gamma 90.000000
_cell_volume 2736.097992
_symmetry_space_group_name_H-M "C 2/M"
_symmetry_group_IT_number 12
_symmetry_cell_setting 'monoclinic'
loop_
_space_group_symop_operation_xyz
x,y,z
-x,y,-z
-x,-y,-z
x,-y,z
1/2+x,1/2+y,z
1/2-x,1/2+y,-z
1/2-x,1/2-y,-z
1/2+x,1/2-y,z
loop_
_atom_site_type_symbol
_atom_site_label
_atom_site_fract_x
_atom_site_fract_y
_atom_site_fract_z
Si Si1 0.245773 0.878146 0.884410
Si Si2 0.176097 0.927715 0.981819
Si Si3 0.716807 0.571429 0.703862
Si Si4 0.518954 0.762304 0.093160
Si Si5 0.325852 0.850255 0.138042
Si Si6 0.273978 0.426792 0.410591
Si Si7 0.166759 0.928166 0.291107
O O1 0.177755 0.913957 0.921083
O O2 0.278870 0.803450 0.898925
O O3 0.017477 0.891301 0.790647
O O4 0.542644 0.902040 0.929480
O O5 0.895940 0.895737 0.940080
O O6 0.152561 0.000000 0.987026
O O7 0.810728 0.500000 0.726890
O O8 0.648813 0.592104 0.630282
O O9 0.446117 0.582237 0.676656
O O10 0.968327 0.611241 0.780957
O O11 0.481511 0.805727 0.133928
O O12 0.658228 0.696415 0.138125
O O13 0.250000 0.750000 0.000000
O O14 0.500000 0.397094 0.500000
O O15 0.273928 0.500000 0.417545
O O16 0.973985 0.401474 0.358014
O O17 0.157889 0.000000 0.273275
#
# Coordination Sequence:
#
# PCOD8092056 Si02
#       7
#     8   8   8   8   8   8   8
#     4  11  21  39  57  85 117 160 208 254 309 357
#     4  11  23  37  58  84 117 160 205 254 313 375
#     4  10  21  38  62  94 126 157 202 254 309 379
#     4  12  25  40  59  80 114 163 214 265 296 349
#     4  12  24  41  58  83 116 161 210 258 311 355
#     4   9  19  36  60  92 131 166 190 233 310 391
#     4  10  19  34  58  89 126 159 199 251 304 369
#
# _framework density 20.467103000000002
#
# number of rings (size 3 to 8) (size 9 to 14) (size 15 to 20)
#    0.000    1.286    2.857    4.286    2.000    1.714 
#    0.000    3.571    0.000    0.000    0.000    4.000 
#    0.000    0.000    0.000    0.000    0.000    0.000 
#
# Total GULP energy -347213.992535 kJ/mol
# GULP energy per Si atom -12400.499733 kJ/mol
# Density = 2.042052 g / cm^3
# Si number density = 20.467103 Si / 1000 Ang^3
#
#
#
# Elastic Constant Matrix: (Units=GPa)
#
#
# Indices 1 2 3 4 5 6 
#
# 1 73.2111 0.0818 63.2650 -0.0104 6.7519 -0.0042
# 2 0.0818 92.1554 41.8775 -0.0186 1.9177 -0.0028
# 3 63.2650 41.8775 172.3977 -0.0349 -3.1120 -0.0013
# 4 -0.0104 -0.0186 -0.0349 13.5841 -0.0160 6.2595
# 5 6.7519 1.9177 -3.1120 -0.0160 30.0715 -0.0016
# 6 -0.0042 -0.0028 -0.0013 6.2595 -0.0016 21.4154
#
#
#
# Elastic Compliance Matrix: (Units=1/GPa)
#
#
# Indices 1 2 3 4 5 6 
#
# 1 0.022326 0.004367 -0.009367 -0.000012 -0.006261 0.000007
# 2 0.004367 0.013087 -0.004823 0.000006 -0.002314 0.000000
# 3 -0.009367 -0.004823 0.010473 0.000021 0.003494 -0.000008
# 4 -0.000012 0.000006 0.000021 0.085074 0.000048 -0.024867
# 5 -0.006261 -0.002314 0.003494 0.000048 0.035169 -0.000013
# 6 0.000007 0.000000 -0.000008 -0.024867 -0.000013 0.053964
#
#
# Mechanical properties :
#
#
# Convention : Reuss Voigt Hill
#
# Bulk Modulus (GPa) = 38.11058 60.91252 49.51155
# Shear Modulus (GPa) = 20.12187 28.51684 24.31936
#
# Velocity S-wave (km/s) = 3.13890 3.73674 3.45079
# Velocity P-wave (km/s) = 5.63895 6.96013 6.33408
#
# Compressibility (1/GPa) = 0.02623943
#
# Stress axis : x y z
#
# Youngs Moduli (GPa) = 44.79109 76.40952 95.48724
#
# Poissons Ratio (x) = -0.33367 0.89440
# Poissons Ratio (y) = -0.19560 0.46057
# Poissons Ratio (z) = 0.41955 0.36855
#
# Static dielectric constant tensor:
#      x y z
#    x 4.452410 0.000020 0.184260 
#    y 0.000020 4.025620 -0.000010 
#    z 0.184260 -0.000010 3.620290 
# 
# 
# High freq. dielectric constant tensor:
#      x y z
#    x 1.836130 0.000000 0.006130 
#    y 0.000000 1.785550 0.000000 
#    z 0.006130 0.000000 1.769240 
# 
# From -- ./inp_files/373176.got.cif
#   From: 2010.06.25/outbox.cif.g09.slc.cpg/sg12_187_cif.got.tgz:373176.got - 2010.06.28 00:19:55.
