data_PCOD8092135
_publ_section_title
;
Structure prediction by ZEFSAII (Michael W. Deem and Ramdas Pophale) SiO2 
 PCOD8092135
Probable space group: C 2/M
;
_chemical_formula_sum "Si O2"
_cell_formula_units_Z 60
_cell_length_a 8.725782
_cell_length_b 18.907629
_cell_length_c 19.762868
_cell_angle_alpha 90.000000
_cell_angle_beta 106.212363
_cell_angle_gamma 90.000000
_cell_volume 3130.893087
_symmetry_space_group_name_H-M "C 2/M"
_symmetry_group_IT_number 12
_symmetry_cell_setting 'monoclinic'
loop_
_space_group_symop_operation_xyz
x,y,z
-x,y,-z
-x,-y,-z
x,-y,z
1/2+x,1/2+y,z
1/2-x,1/2+y,-z
1/2-x,1/2-y,-z
1/2+x,1/2-y,z
loop_
_atom_site_type_symbol
_atom_site_label
_atom_site_fract_x
_atom_site_fract_y
_atom_site_fract_z
Si Si1 0.846678 0.577738 0.113092
Si Si2 0.707803 0.818317 0.683870
Si Si3 0.859258 0.322485 0.663797
Si Si4 0.770086 0.180765 0.124187
Si Si5 0.007323 0.417726 0.580612
Si Si6 0.000000 0.637381 0.000000
Si Si7 0.633589 0.316842 0.162190
Si Si8 0.674452 0.079591 0.219896
O O1 0.769309 0.500000 0.103201
O O2 0.707483 0.631878 0.114863
O O3 0.983577 0.582501 0.186751
O O4 0.923960 0.590110 0.049426
O O5 0.759594 0.750140 0.645418
O O6 0.542439 0.800534 0.703123
O O7 0.675188 0.884819 0.629227
O O8 0.839353 0.841249 0.756473
O O9 0.862440 0.371057 0.595666
O O10 0.780416 0.370581 0.712098
O O11 0.718997 0.241104 0.170383
O O12 0.761580 0.106201 0.162465
O O13 0.948747 0.191810 0.119987
O O14 0.645347 0.184760 0.046567
O O15 0.994250 0.500000 0.600836
O O16 0.000000 0.409247 0.500000
O O17 0.732942 0.000000 0.241386
#
# Coordination Sequence:
#
# PCOD8092135 Si02
#       8
#     8   8   8   8   8   4   8   8
#     4  10  21  38  60  81 111 149 192 243 298 358
#     4  10  21  34  60  88 119 151 200 246 296 349
#     4  10  19  34  59  86 119 157 193 247 293 347
#     4  11  24  37  60  82 115 150 197 246 305 359
#     4   9  20  38  61  89 123 165 205 239 287 356
#     4  10  23  42  58  84 109 152 198 244 297 368
#     4  12  22  38  59  84 115 150 191 251 300 351
#     4  10  19  35  57  83 112 153 197 243 299 359
#
# _framework density 19.163861000000001
#
# number of rings (size 3 to 8) (size 9 to 14) (size 15 to 20)
#    0.800    0.933    2.667    3.000    0.000    4.800 
#    0.000    0.667    0.000    0.000    0.000    1.867 
#    0.000    0.000    0.000    0.000    0.000    0.000 
#
# Total GULP energy -371814.704093 kJ/mol
# GULP energy per Si atom -12393.823470 kJ/mol
# Density = 1.912024 g / cm^3
# Si number density = 19.163861 Si / 1000 Ang^3
#
#
#
# Elastic Constant Matrix: (Units=GPa)
#
#
# Indices 1 2 3 4 5 6 
#
# 1 87.7217 45.9586 20.5979 0.0000 -2.4777 0.0000
# 2 45.9586 119.7694 42.7622 0.0000 -8.5668 0.0000
# 3 20.5979 42.7622 89.5269 0.0000 -4.1955 0.0000
# 4 0.0000 0.0000 0.0000 25.8811 0.0000 -2.7755
# 5 -2.4777 -8.5668 -4.1955 0.0000 23.7784 0.0000
# 6 0.0000 0.0000 0.0000 -2.7755 0.0000 27.3670
#
#
#
# Elastic Compliance Matrix: (Units=1/GPa)
#
#
# Indices 1 2 3 4 5 6 
#
# 1 0.014323 -0.005243 -0.000816 0.000000 -0.000541 0.000000
# 2 -0.005243 0.012174 -0.004465 0.000000 0.003052 0.000000
# 3 -0.000816 -0.004465 0.013523 0.000000 0.000692 0.000000
# 4 0.000000 0.000000 0.000000 0.039063 0.000000 0.003962
# 5 -0.000541 0.003052 0.000692 0.000000 0.043220 0.000000
# 6 0.000000 0.000000 0.000000 0.003962 0.000000 0.036942
#
#
# Mechanical properties :
#
#
# Convention : Reuss Voigt Hill
#
# Bulk Modulus (GPa) = 52.71505 57.29504 55.00504
# Shear Modulus (GPa) = 26.79250 27.91858 27.35554
#
# Velocity S-wave (km/s) = 3.74314 3.82099 3.78227
# Velocity P-wave (km/s) = 6.80064 7.03057 6.91656
#
# Compressibility (1/GPa) = 0.01896991
#
# Stress axis : x y z
#
# Youngs Moduli (GPa) = 69.81695 82.14197 73.94813
#
# Poissons Ratio (x) = 0.43070 0.06036
# Poissons Ratio (y) = 0.36608 0.33022
# Poissons Ratio (z) = 0.05699 0.36680
#
# Static dielectric constant tensor:
#      x y z
#    x 3.273560 0.000000 -0.039790 
#    y 0.000000 3.547680 0.000000 
#    z -0.039790 0.000000 3.264020 
# 
# 
# High freq. dielectric constant tensor:
#      x y z
#    x 1.722340 0.000000 -0.013390 
#    y 0.000000 1.750930 0.000000 
#    z -0.013390 0.000000 1.730220 
# 
# From -- ./inp_files/300838.got.cif
#   From: 2010.06.25/outbox.cif.g09.slc.cpg/sg12_151_cif.got.tgz:300838.got - 2010.06.28 00:19:55.
