data_PCOD8092608
_publ_section_title
;
Structure prediction by ZEFSAII (Michael W. Deem and Ramdas Pophale) SiO2 
 PCOD8092608
Probable space group: C 2/M
;
_chemical_formula_sum "Si O2"
_cell_formula_units_Z 40
_cell_length_a 19.980963
_cell_length_b 21.285267
_cell_length_c 8.857782
_cell_angle_alpha 90.000000
_cell_angle_beta 31.821463
_cell_angle_gamma 90.000000
_cell_volume 1986.355457
_symmetry_space_group_name_H-M "C 2/M"
_symmetry_group_IT_number 12
_symmetry_cell_setting 'monoclinic'
loop_
_space_group_symop_operation_xyz
x,y,z
-x,y,-z
-x,-y,-z
x,-y,z
1/2+x,1/2+y,z
1/2-x,1/2+y,-z
1/2-x,1/2-y,-z
1/2+x,1/2-y,z
loop_
_atom_site_type_symbol
_atom_site_label
_atom_site_fract_x
_atom_site_fract_y
_atom_site_fract_z
Si Si1 0.874529 0.000000 0.838328
Si Si2 0.447048 0.368628 0.768873
Si Si3 0.722461 0.178796 0.367529
Si Si4 0.537135 0.929902 0.763124
Si Si5 0.610717 0.302857 0.678201
Si Si6 0.888223 0.500000 0.835195
O O1 0.883256 0.063071 0.920363
O O2 0.000000 0.000000 0.500000
O O3 0.750342 0.000000 0.970756
O O4 0.500000 0.357808 0.500000
O O5 0.563227 0.359492 0.662394
O O6 0.334983 0.319888 0.026992
O O7 0.629649 0.120746 0.510088
O O8 0.651430 0.245328 0.492160
O O9 0.774957 0.170971 0.438281
O O10 0.602827 0.000000 0.645977
O O11 0.411619 0.937928 0.896424
O O12 0.500000 0.905803 0.000000
O O13 0.500000 0.277685 0.000000
O O14 0.000000 0.500000 0.500000
#
# Coordination Sequence:
#
# PCOD8092608 Si02
#       6
#     4   8   8   8   8   4
#     4  10  22  39  57  81 125 163 187 240 304 360
#     4  10  22  39  56  87 118 154 204 239 292 359
#     4  10  19  37  63  81 117 158 187 252 300 350
#     4   9  20  35  55  89 113 141 198 255 287 347
#     4   9  20  38  58  86 116 154 198 235 301 361
#     4  10  19  35  56  81 116 153 196 240 299 352
#
# _framework density 20.137384000000001
#
# number of rings (size 3 to 8) (size 9 to 14) (size 15 to 20)
#    0.600    1.800    0.000    1.800    1.400    4.000 
#    1.800    4.500    0.000    0.000    0.000    0.000 
#    0.000    0.000    0.000    0.000    0.000    0.000 
#
# Total GULP energy -247809.107732 kJ/mol
# GULP energy per Si atom -12390.455387 kJ/mol
# Density = 2.009155 g / cm^3
# Si number density = 20.137384 Si / 1000 Ang^3
#
#
#
# Elastic Constant Matrix: (Units=GPa)
#
#
# Indices 1 2 3 4 5 6 
#
# 1 118.7709 57.5514 42.6865 0.0000 -16.3553 0.0001
# 2 57.5514 98.2916 36.4739 -0.0001 -10.9226 0.0001
# 3 42.6865 36.4739 84.1298 0.0000 1.1622 0.0001
# 4 0.0000 -0.0001 0.0000 28.6958 0.0001 -7.7412
# 5 -16.3553 -10.9226 1.1622 0.0001 38.2493 -0.0001
# 6 0.0001 0.0001 0.0001 -7.7412 -0.0001 27.9924
#
#
#
# Elastic Compliance Matrix: (Units=1/GPa)
#
#
# Indices 1 2 3 4 5 6 
#
# 1 0.013334 -0.005731 -0.004339 0.000000 0.004197 0.000000
# 2 -0.005731 0.015111 -0.003671 0.000000 0.001976 0.000000
# 3 -0.004339 -0.003671 0.015726 0.000000 -0.003381 0.000000
# 4 0.000000 0.000000 0.000000 0.037658 0.000000 0.010414
# 5 0.004197 0.001976 -0.003381 0.000000 0.028606 0.000000
# 6 0.000000 0.000000 0.000000 0.010414 0.000000 0.038604
#
#
# Mechanical properties :
#
#
# Convention : Reuss Voigt Hill
#
# Bulk Modulus (GPa) = 59.91631 63.84623 61.88127
# Shear Modulus (GPa) = 27.46006 29.95286 28.70646
#
# Velocity S-wave (km/s) = 3.69675 3.86090 3.77972
# Velocity P-wave (km/s) = 6.93106 7.18676 7.06007
#
# Compressibility (1/GPa) = 0.01668995
#
# Stress axis : x y z
#
# Youngs Moduli (GPa) = 74.99772 66.17682 63.58867
#
# Poissons Ratio (x) = 0.37924 0.27590
# Poissons Ratio (y) = 0.42979 0.23343
# Poissons Ratio (z) = 0.32540 0.24293
#
# Static dielectric constant tensor:
#      x y z
#    x 3.589820 0.000000 -0.030320 
#    y 0.000000 3.883240 0.000000 
#    z -0.030320 0.000000 3.587210 
# 
# 
# High freq. dielectric constant tensor:
#      x y z
#    x 1.774580 0.000000 -0.002500 
#    y 0.000000 1.771790 0.000000 
#    z -0.002500 0.000000 1.787990 
# 
# From -- ./inp_files/90577.got.cif
#   From: 2010.06.25/outbox.cif.g09.slc.cpg/sg12_46_cif.got.tgz:90577.got - 2010.06.28 00:19:55.
