data_PCOD8092108
_publ_section_title
;
Structure prediction by ZEFSAII (Michael W. Deem and Ramdas Pophale) SiO2 
 PCOD8092108
Probable space group: C 2/M
;
_chemical_formula_sum "Si O2"
_cell_formula_units_Z 64
_cell_length_a 20.315513
_cell_length_b 8.855292
_cell_length_c 21.658719
_cell_angle_alpha 90.000000
_cell_angle_beta 61.459153
_cell_angle_gamma 90.000000
_cell_volume 3422.895983
_symmetry_space_group_name_H-M "C 2/M"
_symmetry_group_IT_number 12
_symmetry_cell_setting 'monoclinic'
loop_
_space_group_symop_operation_xyz
x,y,z
-x,y,-z
-x,-y,-z
x,-y,z
1/2+x,1/2+y,z
1/2-x,1/2+y,-z
1/2-x,1/2-y,-z
1/2+x,1/2-y,z
loop_
_atom_site_type_symbol
_atom_site_label
_atom_site_fract_x
_atom_site_fract_y
_atom_site_fract_z
Si Si1 0.222255 0.680776 0.948971
Si Si2 0.698046 0.672502 0.206398
Si Si3 0.585051 0.676674 0.945497
Si Si4 0.350998 0.177634 0.571194
Si Si5 0.353525 0.173357 0.199563
Si Si6 0.401578 0.675356 0.424192
Si Si7 0.072787 0.177116 0.349852
Si Si8 0.318833 0.322840 0.336839
O O1 0.221037 0.500000 0.952656
O O2 0.279384 0.742404 0.870208
O O3 0.138828 0.736167 0.969460
O O4 0.250000 0.750000 0.000000
O O5 0.678912 0.500000 0.201992
O O6 0.766387 0.692044 0.222748
O O7 0.625384 0.747676 0.271696
O O8 0.602599 0.500000 0.942668
O O9 0.596912 0.731320 0.870227
O O10 0.500000 0.714939 0.000000
O O11 0.371809 0.225545 0.493237
O O12 0.409138 0.250462 0.592447
O O13 0.267062 0.231450 0.624246
O O14 0.358046 0.000000 0.573102
O O15 0.365081 0.236884 0.263057
O O16 0.379320 0.000000 0.184558
O O17 0.391032 0.500000 0.445726
O O18 0.487743 0.713099 0.370868
O O19 0.354590 0.722931 0.385729
O O20 0.088746 0.000000 0.348999
O O21 0.325987 0.500000 0.321162
#
# Coordination Sequence:
#
# PCOD8092108 Si02
#       8
#     8   8   8   8   8   8   8   8
#     4  10  20  36  58  86 119 152 190 234 280 334
#     4   8  16  32  55  80 104 138 183 223 263 318
#     4  10  21  38  60  86 116 151 190 234 281 332
#     4  11  22  35  55  79 107 141 178 228 276 326
#     4  10  19  34  59  85 110 144 184 229 275 329
#     4  10  22  37  54  77 107 143 181 226 273 326
#     4  10  19  36  58  78 103 139 184 227 268 324
#     4  10  21  37  54  79 110 142 184 226 272 327
#
# _framework density 18.697617000000001
#
# number of rings (size 3 to 8) (size 9 to 14) (size 15 to 20)
#    0.000    2.125    1.250    3.000    0.000    4.000 
#    2.250    0.625    0.000    0.000    0.000    0.000 
#    0.000    0.000    0.000    0.000    0.000    0.000 
#
# Total GULP energy -396813.311315 kJ/mol
# GULP energy per Si atom -12400.415979 kJ/mol
# Density = 1.865506 g / cm^3
# Si number density = 18.697617 Si / 1000 Ang^3
#
#
#
# Elastic Constant Matrix: (Units=GPa)
#
#
# Indices 1 2 3 4 5 6 
#
# 1 67.1940 36.6392 40.0398 0.0003 3.1253 -0.0006
# 2 36.6392 59.8463 41.6938 0.0004 -2.8560 -0.0011
# 3 40.0398 41.6938 122.0160 0.0000 3.1419 0.0001
# 4 0.0003 0.0004 0.0000 31.5504 0.0001 1.6580
# 5 3.1253 -2.8560 3.1419 0.0001 29.6471 0.0002
# 6 -0.0006 -0.0011 0.0001 1.6580 0.0002 23.9585
#
#
#
# Elastic Compliance Matrix: (Units=1/GPa)
#
#
# Indices 1 2 3 4 5 6 
#
# 1 0.023850 -0.012294 -0.003540 0.000000 -0.003323 0.000000
# 2 -0.012294 0.028521 -0.005832 0.000000 0.004662 0.000001
# 3 -0.003540 -0.005832 0.011386 0.000000 -0.001395 0.000000
# 4 0.000000 0.000000 0.000000 0.031811 0.000000 -0.002201
# 5 -0.003323 0.004662 -0.001395 0.000000 0.034677 0.000000
# 6 0.000000 0.000001 0.000000 -0.002201 0.000000 0.041891
#
#
# Mechanical properties :
#
#
# Convention : Reuss Voigt Hill
#
# Bulk Modulus (GPa) = 48.95678 53.97800 51.46739
# Shear Modulus (GPa) = 22.49455 25.74342 24.11899
#
# Velocity S-wave (km/s) = 3.47229 3.71459 3.59548
# Velocity P-wave (km/s) = 6.50508 6.87962 6.69497
#
# Compressibility (1/GPa) = 0.02042618
#
# Stress axis : x y z
#
# Youngs Moduli (GPa) = 41.92928 35.06152 87.82744
#
# Poissons Ratio (x) = 0.43104 0.31090
# Poissons Ratio (y) = 0.51547 0.51219
# Poissons Ratio (z) = 0.14843 0.20447
#
# Static dielectric constant tensor:
#      x y z
#    x 3.363270 0.000000 -0.068500 
#    y 0.000000 3.328030 0.000000 
#    z -0.068500 0.000000 3.663350 
# 
# 
# High freq. dielectric constant tensor:
#      x y z
#    x 1.716290 0.000000 -0.000390 
#    y 0.000000 1.716710 0.000000 
#    z -0.000390 0.000000 1.739570 
# 
# From -- ./inp_files/319927.got.cif
#   From: 2010.06.25/outbox.cif.g09.slc.cpg/sg12_160_cif.got.tgz:319927.got - 2010.06.28 00:19:55.
