data_PCOD8092217
_publ_section_title
;
Structure prediction by ZEFSAII (Michael W. Deem and Ramdas Pophale) SiO2 
 PCOD8092217
Probable space group: C 2/M
;
_chemical_formula_sum "Si O2"
_cell_formula_units_Z 48
_cell_length_a 5.143025
_cell_length_b 25.078083
_cell_length_c 17.993054
_cell_angle_alpha 90.000000
_cell_angle_beta 105.719925
_cell_angle_gamma 90.000000
_cell_volume 2233.894310
_symmetry_space_group_name_H-M "C 2/M"
_symmetry_group_IT_number 12
_symmetry_cell_setting 'monoclinic'
loop_
_space_group_symop_operation_xyz
x,y,z
-x,y,-z
-x,-y,-z
x,-y,z
1/2+x,1/2+y,z
1/2-x,1/2+y,-z
1/2-x,1/2-y,-z
1/2+x,1/2-y,z
loop_
_atom_site_type_symbol
_atom_site_label
_atom_site_fract_x
_atom_site_fract_y
_atom_site_fract_z
Si Si1 0.409506 0.897898 0.334134
Si Si2 0.458654 0.270934 0.156557
Si Si3 0.913744 0.894770 0.835148
Si Si4 0.991580 0.562019 0.913793
Si Si5 0.984174 0.061311 0.414208
Si Si6 0.459108 0.775626 0.673548
O O1 0.252428 0.916138 0.248180
O O2 0.202953 0.904231 0.386243
O O3 0.508453 0.837631 0.336979
O O4 0.678072 0.933247 0.361453
O O5 0.645870 0.240244 0.110451
O O6 0.521990 0.332739 0.169177
O O7 0.459211 0.239973 0.236138
O O8 0.729401 0.904646 0.892948
O O9 0.195392 0.926182 0.858711
O O10 0.058423 0.500000 0.908384
O O11 0.000000 0.579226 0.000000
O O12 0.000000 0.081370 0.500000
O O13 0.072516 0.000000 0.414168
O O14 0.654130 0.742609 0.633103
#
# Coordination Sequence:
#
# PCOD8092217 Si02
#       6
#     8   8   8   8   8   8
#     4  12  23  38  71 103 121 163 223 273 304 371
#     4  10  19  34  59  95 125 164 196 253 319 389
#     4  12  23  38  71 103 121 163 223 273 304 371
#     4  11  26  46  64  88 134 181 208 253 332 392
#     4  11  26  46  64  88 134 181 208 253 332 392
#     4  10  19  34  59  95 125 164 196 253 319 389
#
# _framework density 21.487138999999999
#
# number of rings (size 3 to 8) (size 9 to 14) (size 15 to 20)
#    0.000    1.000    3.333    5.000    4.667    6.667 
#    0.000    0.000    0.000   20.000    0.000    0.000 
#    0.000    0.000    0.000    0.000    0.000    0.000 
#
# Total GULP energy -297556.543175 kJ/mol
# GULP energy per Si atom -12398.189299 kJ/mol
# Density = 2.143823 g / cm^3
# Si number density = 21.487139 Si / 1000 Ang^3
#
#
#
# Elastic Constant Matrix: (Units=GPa)
#
#
# Indices 1 2 3 4 5 6 
#
# 1 175.3094 32.4714 20.6330 0.0000 -10.5286 0.0000
# 2 32.4714 80.5187 38.4248 0.0000 -12.9681 0.0000
# 3 20.6330 38.4248 57.4555 0.0000 -8.0625 0.0000
# 4 0.0000 0.0000 0.0000 6.0719 0.0000 -15.8440
# 5 -10.5286 -12.9681 -8.0625 0.0000 34.2297 0.0000
# 6 0.0000 0.0000 0.0000 -15.8440 0.0000 36.2784
#
#
#
# Elastic Compliance Matrix: (Units=1/GPa)
#
#
# Indices 1 2 3 4 5 6 
#
# 1 0.006221 -0.001983 -0.000770 0.000000 0.000981 0.000000
# 2 -0.001983 0.019469 -0.011747 0.000000 0.003999 0.000000
# 3 -0.000770 -0.011747 0.025730 0.000000 0.001373 0.000000
# 4 0.000000 0.000000 0.000000 -1.179576 0.000000 -0.515161
# 5 0.000981 0.003999 0.001373 0.000000 0.031355 0.000000
# 6 0.000000 0.000000 0.000000 -0.515161 0.000000 -0.197424
#
#
# Mechanical properties :
#
#
# Convention : Reuss Voigt Hill
#
# Bulk Modulus (GPa) = 44.60407 55.14912 49.87659
# Shear Modulus (GPa) = -3.97535 30.09963 13.06214
#
# Velocity S-wave (km/s) = -1.36166 3.74681 2.46825
# Velocity P-wave (km/s) = 4.28152 6.66633 5.60229
#
# Compressibility (1/GPa) = 0.02241948
#
# Stress axis : x y z
#
# Youngs Moduli (GPa) = 160.74318 51.36280 38.86486
#
# Poissons Ratio (x) = 0.10187 0.02993
# Poissons Ratio (y) = 0.31882 0.45655
# Poissons Ratio (z) = 0.12377 0.60337
#
# Static dielectric constant tensor:
#      x y z
#    x 5.018870 0.000000 0.068050 
#    y 0.000000 3.774000 0.000000 
#    z 0.068050 0.000000 3.706980 
# 
# 
# High freq. dielectric constant tensor:
#      x y z
#    x 1.883470 0.000000 -0.001420 
#    y 0.000000 1.848010 0.000000 
#    z -0.001420 0.000000 1.805840 
# 
# From -- ./inp_files/253246.got.cif
#   From: 2010.06.25/outbox.cif.g09.slc.cpg/sg12_127_cif.got.tgz:253246.got - 2010.06.28 00:19:55.
