data_PCOD8092763
_publ_section_title
;
Structure prediction by ZEFSAII (Michael W. Deem and Ramdas Pophale) SiO2 
 PCOD8092763
Probable space group: C 2/M
;
_chemical_formula_sum "Si O2"
_cell_formula_units_Z 64
_cell_length_a 25.448981
_cell_length_b 9.039727
_cell_length_c 14.515322
_cell_angle_alpha 90.000000
_cell_angle_beta 79.487734
_cell_angle_gamma 90.000000
_cell_volume 3283.229698
_symmetry_space_group_name_H-M "C 2/M"
_symmetry_group_IT_number 12
_symmetry_cell_setting 'monoclinic'
loop_
_space_group_symop_operation_xyz
x,y,z
-x,y,-z
-x,-y,-z
x,-y,z
1/2+x,1/2+y,z
1/2-x,1/2+y,-z
1/2-x,1/2-y,-z
1/2+x,1/2-y,z
loop_
_atom_site_type_symbol
_atom_site_label
_atom_site_fract_x
_atom_site_fract_y
_atom_site_fract_z
Si Si1 0.211132 0.173923 0.292727
Si Si2 0.231332 0.327761 0.914545
Si Si3 0.497934 0.830994 0.293104
Si Si4 0.100771 0.325319 0.375514
Si Si5 0.638753 0.665617 0.861284
Si Si6 0.094210 0.175480 0.569374
Si Si7 0.967450 0.333548 0.101982
Si Si8 0.305096 0.333523 0.349993
O O1 0.231880 0.216213 0.184317
O O2 0.155298 0.254542 0.322549
O O3 0.253622 0.227453 0.356850
O O4 0.203363 0.000000 0.308452
O O5 0.232012 0.500000 0.932072
O O6 0.171123 0.276255 0.916070
O O7 0.250000 0.250000 0.000000
O O8 0.554409 0.783295 0.318304
O O9 0.449642 0.729079 0.343519
O O10 0.504091 0.812585 0.180937
O O11 0.484419 0.000000 0.324674
O O12 0.108577 0.500000 0.382926
O O13 0.082754 0.257029 0.477833
O O14 0.644399 0.500000 0.898718
O O15 0.577901 0.711893 0.881146
O O16 0.659021 0.675065 0.751530
O O17 0.154919 0.216787 0.581090
O O18 0.088687 0.000000 0.559503
O O19 0.943480 0.500000 0.108730
O O20 0.000000 0.301952 0.000000
O O21 0.284050 0.500000 0.373423
#
# Coordination Sequence:
#
# PCOD8092763 Si02
#       8
#     8   8   8   8   8   8   8   8
#     4  10  22  39  59  86 118 153 196 244 295 348
#     4  10  21  37  59  87 116 152 197 242 293 353
#     4  10  22  40  60  83 117 157 199 243 293 356
#     4  11  24  40  58  84 120 163 200 240 297 357
#     4  10  19  35  57  83 114 149 191 241 294 349
#     4  11  22  38  62  90 116 151 199 248 298 352
#     4  10  21  37  58  86 117 152 195 242 296 355
#     4   9  19  36  59  85 114 149 190 237 294 354
#
# _framework density 19.493001
#
# number of rings (size 3 to 8) (size 9 to 14) (size 15 to 20)
#    0.000    1.875    1.250    2.250    0.000    7.250 
#    0.000    1.250    0.000    0.000    0.000    0.000 
#    0.000    0.000    0.000    0.000    0.000    0.000 
#
# Total GULP energy -396849.924700 kJ/mol
# GULP energy per Si atom -12401.560147 kJ/mol
# Density = 1.944863 g / cm^3
# Si number density = 19.493001 Si / 1000 Ang^3
#
#
#
# Elastic Constant Matrix: (Units=GPa)
#
#
# Indices 1 2 3 4 5 6 
#
# 1 120.1427 51.3863 52.1024 0.0000 9.2868 0.0000
# 2 51.3863 84.5033 46.0337 0.0000 -0.8964 0.0000
# 3 52.1024 46.0337 99.2182 0.0000 19.2449 0.0000
# 4 0.0000 0.0000 0.0000 30.2615 0.0000 -0.7619
# 5 9.2868 -0.8964 19.2449 0.0000 26.0412 0.0000
# 6 0.0000 0.0000 0.0000 -0.7619 0.0000 36.8477
#
#
#
# Elastic Compliance Matrix: (Units=1/GPa)
#
#
# Indices 1 2 3 4 5 6 
#
# 1 0.012423 -0.005672 -0.003496 0.000000 -0.002042 0.000000
# 2 -0.005672 0.019591 -0.007744 0.000000 0.008420 0.000000
# 3 -0.003496 -0.007744 0.017881 0.000000 -0.012234 0.000000
# 4 0.000000 0.000000 0.000000 0.033063 0.000000 0.000684
# 5 -0.002042 0.008420 -0.012234 0.000000 0.048460 0.000000
# 6 0.000000 0.000000 0.000000 0.000684 0.000000 0.027153
#
#
# Mechanical properties :
#
#
# Convention : Reuss Voigt Hill
#
# Bulk Modulus (GPa) = 62.22619 66.98990 64.60805
# Shear Modulus (GPa) = 25.28419 28.91952 27.10185
#
# Velocity S-wave (km/s) = 3.60542 3.85591 3.73277
# Velocity P-wave (km/s) = 7.02308 7.36647 7.19682
#
# Compressibility (1/GPa) = 0.01607040
#
# Stress axis : x y z
#
# Youngs Moduli (GPa) = 80.49354 51.04421 55.92533
#
# Poissons Ratio (x) = 0.28950 0.19554
# Poissons Ratio (y) = 0.45652 0.43311
# Poissons Ratio (z) = 0.28144 0.39531
#
# Static dielectric constant tensor:
#      x y z
#    x 3.651270 0.000000 0.233950 
#    y 0.000000 3.784310 0.000000 
#    z 0.233950 0.000000 3.759190 
# 
# 
# High freq. dielectric constant tensor:
#      x y z
#    x 1.760480 0.000000 0.010750 
#    y 0.000000 1.766810 0.000000 
#    z 0.010750 0.000000 1.759560 
# 
# From -- ./inp_files/238643.got.cif
#   From: 2010.06.25/outbox.cif.g09.slc.cpg/sg12_120_cif.got.tgz:238643.got - 2010.06.28 00:19:55.
