data_PCOD8092452
_publ_section_title
;
Structure prediction by ZEFSAII (Michael W. Deem and Ramdas Pophale) SiO2 
 PCOD8092452
Probable space group: C 2/M
;
_chemical_formula_sum "Si O2"
_cell_formula_units_Z 64
_cell_length_a 30.138156
_cell_length_b 8.834788
_cell_length_c 14.906843
_cell_angle_alpha 90.000000
_cell_angle_beta 120.382699
_cell_angle_gamma 90.000000
_cell_volume 3424.060152
_symmetry_space_group_name_H-M "C 2/M"
_symmetry_group_IT_number 12
_symmetry_cell_setting 'monoclinic'
loop_
_space_group_symop_operation_xyz
x,y,z
-x,y,-z
-x,-y,-z
x,-y,z
1/2+x,1/2+y,z
1/2-x,1/2+y,-z
1/2-x,1/2-y,-z
1/2+x,1/2-y,z
loop_
_atom_site_type_symbol
_atom_site_label
_atom_site_fract_x
_atom_site_fract_y
_atom_site_fract_z
Si Si1 0.222402 0.678978 0.054842
Si Si2 0.473624 0.820236 0.225040
Si Si3 0.549109 0.322060 0.609611
Si Si4 0.887183 0.679098 0.003035
Si Si5 0.134511 0.179717 0.558193
Si Si6 0.356467 0.820711 0.776132
Si Si7 0.083764 0.179187 0.324259
Si Si8 0.254966 0.320839 0.279633
O O1 0.224580 0.500000 0.049422
O O2 0.251211 0.735975 0.173675
O O3 0.250000 0.750000 0.000000
O O4 0.163739 0.737973 0.998212
O O5 0.452022 0.765308 0.298026
O O6 0.436564 0.759959 0.107270
O O7 0.528606 0.753935 0.257366
O O8 0.476541 0.000000 0.229263
O O9 0.500000 0.276525 0.500000
O O10 0.548516 0.500000 0.629510
O O11 0.600204 0.270634 0.608419
O O12 0.886180 0.500000 0.002977
O O13 0.885789 0.730114 0.897436
O O14 0.109341 0.242544 0.441501
O O15 0.192399 0.247351 0.624946
O O16 0.136067 0.000000 0.555342
O O17 0.380471 0.725763 0.720955
O O18 0.296215 0.772692 0.718477
O O19 0.362583 0.000000 0.765889
O O20 0.076972 0.000000 0.320639
O O21 0.258054 0.500000 0.283202
#
# Coordination Sequence:
#
# PCOD8092452 Si02
#       8
#     8   8   8   8   8   8   8   8
#     4   9  17  31  51  76 104 135 172 213 255 306
#     4  11  22  36  55  79 106 141 183 220 258 311
#     4  10  19  35  55  76 108 147 177 212 265 316
#     4   8  18  36  54  74 107 143 172 211 268 315
#     4   9  18  33  53  77 108 144 175 206 260 322
#     4   9  18  37  60  78 101 137 180 221 259 313
#     4  11  22  37  55  78 108 139 173 221 274 316
#     4   8  16  32  54  77 102 138 179 210 249 316
#
# _framework density 18.691261000000001
#
# number of rings (size 3 to 8) (size 9 to 14) (size 15 to 20)
#    0.000    2.625    1.250    2.250    1.750    1.250 
#    0.000    6.875    0.000    3.000    0.000    0.000 
#    0.000    0.000    0.000    0.000    0.000    0.000 
#
# Total GULP energy -396681.141555 kJ/mol
# GULP energy per Si atom -12396.285674 kJ/mol
# Density = 1.864872 g / cm^3
# Si number density = 18.691261 Si / 1000 Ang^3
#
#
#
# Elastic Constant Matrix: (Units=GPa)
#
#
# Indices 1 2 3 4 5 6 
#
# 1 141.2787 21.4788 72.7215 0.0000 7.3368 0.0000
# 2 21.4788 32.0108 20.0599 0.0000 3.4133 0.0000
# 3 72.7215 20.0599 91.6372 0.0000 26.9290 0.0000
# 4 0.0000 0.0000 0.0000 21.5928 0.0000 -8.1825
# 5 7.3368 3.4133 26.9290 0.0000 37.0210 0.0000
# 6 0.0000 0.0000 0.0000 -8.1825 0.0000 30.2664
#
#
#
# Elastic Compliance Matrix: (Units=1/GPa)
#
#
# Indices 1 2 3 4 5 6 
#
# 1 0.013139 -0.002092 -0.011778 0.000000 0.006156 0.000000
# 2 -0.002092 0.036819 -0.007026 0.000000 0.002131 0.000000
# 3 -0.011778 -0.007026 0.026609 0.000000 -0.016374 0.000000
# 4 0.000000 0.000000 0.000000 0.051598 0.000000 0.013949
# 5 0.006156 0.002131 -0.016374 0.000000 0.037505 0.000000
# 6 0.000000 0.000000 0.000000 0.013949 0.000000 0.036811
#
#
# Mechanical properties :
#
#
# Convention : Reuss Voigt Hill
#
# Bulk Modulus (GPa) = 28.75615 54.82744 41.79180
# Shear Modulus (GPa) = 19.54153 27.82048 23.68100
#
# Velocity S-wave (km/s) = 3.23691 3.86219 3.56329
# Velocity P-wave (km/s) = 5.42110 7.02037 6.27192
#
# Compressibility (1/GPa) = 0.03477516
#
# Stress axis : x y z
#
# Youngs Moduli (GPa) = 76.10776 27.16014 37.58079
#
# Poissons Ratio (x) = 0.05681 0.44264
# Poissons Ratio (y) = 0.15919 0.26404
# Poissons Ratio (z) = 0.89642 0.19083
#
# Static dielectric constant tensor:
#      x y z
#    x -1.858080 0.000000 2.504540 
#    y 0.000000 3.030640 0.000000 
#    z 2.504540 0.000000 2.951820 
# 
# 
# High freq. dielectric constant tensor:
#      x y z
#    x 1.737320 0.000000 0.003720 
#    y 0.000000 1.686320 0.000000 
#    z 0.003720 0.000000 1.734880 
# 
# From -- ./inp_files/249253.got.cif
#   From: 2010.06.25/outbox.cif.g09.slc.cpg/sg12_125_cif.got.tgz:249253.got - 2010.06.28 00:19:55.
