data_PCOD8092797
_publ_section_title
;
Structure prediction by ZEFSAII (Michael W. Deem and Ramdas Pophale) SiO2 
 PCOD8092797
Probable space group: C 2/M
;
_chemical_formula_sum "Si O2"
_cell_formula_units_Z 56
_cell_length_a 20.461579
_cell_length_b 8.695763
_cell_length_c 32.552226
_cell_angle_alpha 90.000000
_cell_angle_beta 150.839990
_cell_angle_gamma 90.000000
_cell_volume 2822.146972
_symmetry_space_group_name_H-M "C 2/M"
_symmetry_group_IT_number 12
_symmetry_cell_setting 'monoclinic'
loop_
_space_group_symop_operation_xyz
x,y,z
-x,y,-z
-x,-y,-z
x,-y,z
1/2+x,1/2+y,z
1/2-x,1/2+y,-z
1/2-x,1/2-y,-z
1/2+x,1/2-y,z
loop_
_atom_site_type_symbol
_atom_site_label
_atom_site_fract_x
_atom_site_fract_y
_atom_site_fract_z
Si Si1 0.136795 0.318169 0.785670
Si Si2 0.115089 0.181072 0.943955
Si Si3 0.131172 0.180266 0.694862
Si Si4 0.883883 0.318137 0.967235
Si Si5 0.631542 0.180892 0.236164
Si Si6 0.852934 0.318108 0.662795
Si Si7 0.663755 0.318147 0.488939
O O1 0.147816 0.500000 0.795789
O O2 0.168104 0.269425 0.756464
O O3 0.241633 0.243478 0.874240
O O4 0.990871 0.254894 0.718784
O O5 0.995960 0.223032 0.847904
O O6 0.131372 0.000000 0.956541
O O7 0.250000 0.250000 0.000000
O O8 0.080109 0.249967 0.968941
O O9 0.241572 0.222519 0.721919
O O10 0.989334 0.237880 0.598807
O O11 0.129132 0.000000 0.703773
O O12 0.877641 0.500000 0.967449
O O13 0.000000 0.264256 0.000000
O O14 0.665871 0.237671 0.300948
O O15 0.597541 0.000000 0.215792
O O16 0.858677 0.500000 0.664677
O O17 0.726679 0.258924 0.566561
O O18 0.672348 0.500000 0.490810
O O19 0.750000 0.250000 0.500000
#
# Coordination Sequence:
#
# PCOD8092797 Si02
#       7
#     8   8   8   8   8   8   8
#     4  11  21  35  58  85 114 152 196 243 292 349
#     4  12  25  42  64  89 119 159 203 248 300 360
#     4  10  21  35  57  86 118 155 194 242 300 354
#     4  11  24  41  61  87 120 156 197 248 302 357
#     4  10  21  39  59  84 118 154 194 244 298 353
#     4   9  19  35  57  83 112 148 192 238 285 342
#     4  10  19  35  57  85 116 151 194 240 292 349
#
# _framework density 19.843049000000001
#
# number of rings (size 3 to 8) (size 9 to 14) (size 15 to 20)
#    0.000    1.571    1.429    3.857    0.000    6.857 
#    0.000    4.286    0.000    0.000    0.000    3.000 
#    0.000    0.000    0.000    0.000    0.000    0.000 
#
# Total GULP energy -347308.644491 kJ/mol
# GULP energy per Si atom -12403.880160 kJ/mol
# Density = 1.979789 g / cm^3
# Si number density = 19.843049 Si / 1000 Ang^3
#
#
#
# Elastic Constant Matrix: (Units=GPa)
#
#
# Indices 1 2 3 4 5 6 
#
# 1 124.2049 21.8965 29.5249 0.0002 -9.5284 -0.0006
# 2 21.8965 45.2130 8.1069 0.0005 1.1954 -0.0011
# 3 29.5249 8.1069 110.1552 0.0001 -7.9685 0.0000
# 4 0.0002 0.0005 0.0001 26.5341 0.0000 1.0222
# 5 -9.5284 1.1954 -7.9685 0.0000 43.1964 0.0001
# 6 -0.0006 -0.0011 0.0000 1.0222 0.0001 27.1149
#
#
#
# Elastic Compliance Matrix: (Units=1/GPa)
#
#
# Indices 1 2 3 4 5 6 
#
# 1 0.009434 -0.004243 -0.002085 0.000000 0.001814 0.000000
# 2 -0.004243 0.024359 -0.000782 0.000000 -0.001754 0.000001
# 3 -0.002085 -0.000782 0.009794 0.000000 0.001368 0.000000
# 4 0.000000 0.000000 0.000000 0.037742 0.000000 -0.001423
# 5 0.001814 -0.001754 0.001368 0.000000 0.023851 0.000000
# 6 0.000000 0.000001 0.000000 -0.001423 0.000000 0.036934
#
#
# Mechanical properties :
#
#
# Convention : Reuss Voigt Hill
#
# Bulk Modulus (GPa) = 34.05335 44.29218 39.17277
# Shear Modulus (GPa) = 30.09816 34.03872 32.06844
#
# Velocity S-wave (km/s) = 3.89885 4.14623 4.02444
# Velocity P-wave (km/s) = 6.12100 6.72988 6.43265
#
# Compressibility (1/GPa) = 0.02936569
#
# Stress axis : x y z
#
# Youngs Moduli (GPa) = 105.99940 41.05252 102.10803
#
# Poissons Ratio (x) = 0.17418 0.21291
# Poissons Ratio (y) = 0.44975 0.07989
# Poissons Ratio (z) = 0.22102 0.03212
#
# Static dielectric constant tensor:
#      x y z
#    x 3.744630 0.000000 -0.042600 
#    y 0.000000 3.435650 0.000010 
#    z -0.042600 0.000010 1.221280 
# 
# 
# High freq. dielectric constant tensor:
#      x y z
#    x 1.783510 0.000000 -0.002660 
#    y 0.000000 1.756930 0.000000 
#    z -0.002660 0.000000 1.792600 
# 
# From -- ./inp_files/275522.got.cif
#   From: 2010.06.25/outbox.cif.g09.slc.cpg/sg12_138_cif.got.tgz:275522.got - 2010.06.28 00:19:55.
