data_PCOD8092014
_publ_section_title
;
Structure prediction by ZEFSAII (Michael W. Deem and Ramdas Pophale) SiO2 
 PCOD8092014
Probable space group: C 2/M
;
_chemical_formula_sum "Si O2"
_cell_formula_units_Z 32
_cell_length_a 8.541783
_cell_length_b 24.570327
_cell_length_c 14.387812
_cell_angle_alpha 90.000000
_cell_angle_beta 30.839390
_cell_angle_gamma 90.000000
_cell_volume 1547.964548
_symmetry_space_group_name_H-M "C 2/M"
_symmetry_group_IT_number 12
_symmetry_cell_setting 'monoclinic'
loop_
_space_group_symop_operation_xyz
x,y,z
-x,y,-z
-x,-y,-z
x,-y,z
1/2+x,1/2+y,z
1/2-x,1/2+y,-z
1/2-x,1/2-y,-z
1/2+x,1/2-y,z
loop_
_atom_site_type_symbol
_atom_site_label
_atom_site_fract_x
_atom_site_fract_y
_atom_site_fract_z
Si Si1 0.359343 0.105429 0.799029
Si Si2 0.355013 0.500000 0.806983
Si Si3 0.731311 0.108569 0.798739
Si Si4 0.856877 0.500000 0.678091
Si Si5 0.811342 0.809894 0.503203
O O1 0.540841 0.100083 0.802356
O O2 0.436473 0.052952 0.697257
O O3 0.489306 0.158694 0.679953
O O4 0.000000 0.112879 0.000000
O O5 0.441301 0.554518 0.706438
O O6 0.495411 0.500000 0.839545
O O7 0.000000 0.500000 0.000000
O O8 0.969531 0.158085 0.679626
O O9 0.500000 0.119286 0.000000
O O10 0.000000 0.500000 0.500000
O O11 0.750000 0.750000 0.500000
O O12 0.000000 0.805937 0.500000
#
# Coordination Sequence:
#
# PCOD8092014 Si02
#       5
#     8   4   8   4   8
#     4  11  23  40  62  92 124 159 201 248 300 361
#     4  10  19  34  58  87 116 151 187 233 292 350
#     4  10  21  40  63  89 121 159 198 246 303 359
#     4  12  24  38  61  93 125 161 198 245 301 358
#     4  10  24  42  61  85 118 159 205 251 299 354
#
# _framework density 20.672308000000001
#
# number of rings (size 3 to 8) (size 9 to 14) (size 15 to 20)
#    0.000    1.500    0.000    5.625    0.000    6.000 
#    0.000   10.000    0.000    0.000    0.000    0.000 
#    0.000    0.000    0.000    0.000    0.000    0.000 
#
# Total GULP energy -198304.101128 kJ/mol
# GULP energy per Si atom -12394.006321 kJ/mol
# Density = 2.062526 g / cm^3
# Si number density = 20.672308 Si / 1000 Ang^3
#
#
#
# Elastic Constant Matrix: (Units=GPa)
#
#
# Indices 1 2 3 4 5 6 
#
# 1 98.5954 58.4384 42.3686 0.0000 2.0092 0.0000
# 2 58.4384 218.2126 86.7495 0.0000 6.2050 0.0000
# 3 42.3686 86.7495 142.5865 0.0000 10.6697 0.0000
# 4 0.0000 0.0000 0.0000 30.0621 0.0000 3.4952
# 5 2.0092 6.2050 10.6697 0.0000 30.7845 0.0000
# 6 0.0000 0.0000 0.0000 3.4952 0.0000 17.7253
#
#
#
# Elastic Compliance Matrix: (Units=1/GPa)
#
#
# Indices 1 2 3 4 5 6 
#
# 1 0.012576 -0.002482 -0.002261 0.000000 0.000463 0.000000
# 2 -0.002482 0.006535 -0.003236 0.000000 -0.000034 0.000000
# 3 -0.002261 -0.003236 0.009849 0.000000 -0.002614 0.000000
# 4 0.000000 0.000000 0.000000 0.034045 0.000000 -0.006713
# 5 0.000463 -0.000034 -0.002614 0.000000 0.033366 0.000000
# 6 0.000000 0.000000 0.000000 -0.006713 0.000000 0.057740
#
#
# Mechanical properties :
#
#
# Convention : Reuss Voigt Hill
#
# Bulk Modulus (GPa) = 76.91265 92.72306 84.81786
# Shear Modulus (GPa) = 28.66907 33.83692 31.25300
#
# Velocity S-wave (km/s) = 3.72806 4.05016 3.89244
# Velocity P-wave (km/s) = 7.47112 8.17452 7.83073
#
# Compressibility (1/GPa) = 0.01300176
#
# Stress axis : x y z
#
# Youngs Moduli (GPa) = 79.51693 153.03004 101.52888
#
# Poissons Ratio (x) = 0.37983 0.22960
# Poissons Ratio (y) = 0.19736 0.32851
# Poissons Ratio (z) = 0.17982 0.49515
#
# Static dielectric constant tensor:
#      x y z
#    x 5.141730 0.000000 0.000480 
#    y 0.000000 4.014620 0.000000 
#    z 0.000480 0.000000 4.090910 
# 
# 
# High freq. dielectric constant tensor:
#      x y z
#    x 1.820880 0.000000 -0.006520 
#    y 0.000000 1.811990 0.000000 
#    z -0.006520 0.000000 1.820600 
# 
# From -- ./inp_files/65661.got.cif
#   From: 2010.06.25/outbox.cif.g09.slc.cpg/sg12_33_cif.got.tgz:65661.got - 2010.06.28 00:19:55.
