data_PCOD8092729
_publ_section_title
;
Structure prediction by ZEFSAII (Michael W. Deem and Ramdas Pophale) SiO2 
 PCOD8092729
Probable space group: C 2/M
;
_chemical_formula_sum "Si O2"
_cell_formula_units_Z 48
_cell_length_a 8.699156
_cell_length_b 17.104363
_cell_length_c 28.700355
_cell_angle_alpha 90.000000
_cell_angle_beta 145.293226
_cell_angle_gamma 90.000000
_cell_volume 2431.481665
_symmetry_space_group_name_H-M "C 2/M"
_symmetry_group_IT_number 12
_symmetry_cell_setting 'monoclinic'
loop_
_space_group_symop_operation_xyz
x,y,z
-x,y,-z
-x,-y,-z
x,-y,z
1/2+x,1/2+y,z
1/2-x,1/2+y,-z
1/2-x,1/2-y,-z
1/2+x,1/2-y,z
loop_
_atom_site_type_symbol
_atom_site_label
_atom_site_fract_x
_atom_site_fract_y
_atom_site_fract_z
Si Si1 0.241462 0.630858 0.914533
Si Si2 0.743100 0.643333 0.591796
Si Si3 0.067425 0.500000 0.704579
Si Si4 0.915481 0.500000 0.054633
Si Si5 0.674974 0.334231 0.754177
Si Si6 0.434003 0.500000 0.231611
Si Si7 0.327759 0.252949 0.341066
Si Si8 0.393271 0.500000 0.880482
O O1 0.177280 0.575511 0.941318
O O2 0.294754 0.578810 0.881791
O O3 0.986901 0.688370 0.843143
O O4 0.500000 0.678761 0.000000
O O5 0.500000 0.609316 0.500000
O O6 0.618731 0.707000 0.596004
O O7 0.878374 0.575767 0.656327
O O8 0.964622 0.681652 0.612994
O O9 0.255700 0.500000 0.705815
O O10 0.259312 0.500000 0.796828
O O11 0.244443 0.500000 0.137108
O O12 0.728375 0.500000 0.960788
O O13 0.628509 0.425914 0.751340
O O14 0.625738 0.316379 0.687708
O O15 0.477235 0.281815 0.736712
#
# Coordination Sequence:
#
# PCOD8092729 Si02
#       8
#     8   8   4   4   8   4   8   4
#     4   8  14  28  51  78 110 149 185 221 267 319
#     4  11  23  41  60  84 113 143 182 229 283 337
#     4  12  22  34  57  87 115 140 178 240 287 313
#     4   7  14  27  49  76 109 145 185 226 260 314
#     4  10  19  36  57  83 111 144 193 226 270 330
#     4  10  19  35  57  81 112 148 187 233 270 312
#     4  10  22  38  61  82 107 151 186 220 275 342
#     4   9  16  28  49  84 113 143 186 221 272 331
#
# _framework density 19.741050000000001
#
# number of rings (size 3 to 8) (size 9 to 14) (size 15 to 20)
#    0.000    2.333    1.667    3.250    0.000    1.000 
#    0.000    0.833    0.000    3.000    0.000    0.000 
#    0.000    0.000    0.000    0.000    0.000    0.000 
#
# Total GULP energy -297352.813020 kJ/mol
# GULP energy per Si atom -12389.700542 kJ/mol
# Density = 1.969612 g / cm^3
# Si number density = 19.741050 Si / 1000 Ang^3
#
#
#
# Elastic Constant Matrix: (Units=GPa)
#
#
# Indices 1 2 3 4 5 6 
#
# 1 66.9240 24.1818 31.4056 -0.0009 5.2782 -0.0007
# 2 24.1818 66.8407 30.9692 0.0008 -2.7386 0.0001
# 3 31.4056 30.9692 128.6198 0.0032 2.1745 0.0003
# 4 -0.0009 0.0008 0.0032 20.3853 -0.0012 0.9587
# 5 5.2782 -2.7386 2.1745 -0.0012 25.8367 -0.0010
# 6 -0.0007 0.0001 0.0003 0.9587 -0.0010 23.5526
#
#
#
# Elastic Compliance Matrix: (Units=1/GPa)
#
#
# Indices 1 2 3 4 5 6 
#
# 1 0.018743 -0.005473 -0.003189 0.000001 -0.004141 0.000000
# 2 -0.005473 0.018556 -0.003188 0.000000 0.003353 0.000000
# 3 -0.003189 -0.003188 0.009329 -0.000002 -0.000472 0.000000
# 4 0.000001 0.000000 -0.000002 0.049149 0.000002 -0.002001
# 5 -0.004141 0.003353 -0.000472 0.000002 0.039946 0.000001
# 6 0.000000 0.000000 0.000000 -0.002001 0.000001 0.042540
#
#
# Mechanical properties :
#
#
# Convention : Reuss Voigt Hill
#
# Bulk Modulus (GPa) = 43.61543 48.38863 46.00203
# Shear Modulus (GPa) = 23.85449 25.67678 24.76563
#
# Velocity S-wave (km/s) = 3.47993 3.61041 3.54577
# Velocity P-wave (km/s) = 6.18775 6.47649 6.33377
#
# Compressibility (1/GPa) = 0.02292767
#
# Stress axis : x y z
#
# Youngs Moduli (GPa) = 53.35365 53.89226 107.19188
#
# Poissons Ratio (x) = 0.29496 0.34180
# Poissons Ratio (y) = 0.29201 0.34174
# Poissons Ratio (z) = 0.17013 0.17182
#
# Static dielectric constant tensor:
#      x y z
#    x 3.487760 0.000000 0.348170 
#    y 0.000000 3.269260 -0.000010 
#    z 0.348170 -0.000010 3.910560 
# 
# 
# High freq. dielectric constant tensor:
#      x y z
#    x 1.760030 0.000000 0.015490 
#    y 0.000000 1.740580 0.000000 
#    z 0.015490 0.000000 1.779180 
# 
# From -- ./inp_files/196974.got.cif
#   From: 2010.06.25/outbox.cif.g09.slc.cpg/sg12_99_cif.got.tgz:196974.got - 2010.06.28 00:19:55.
