data_PCOD8092059
_publ_section_title
;
Structure prediction by ZEFSAII (Michael W. Deem and Ramdas Pophale) SiO2 
 PCOD8092059
Probable space group: C 2/M
;
_chemical_formula_sum "Si O2"
_cell_formula_units_Z 36
_cell_length_a 5.229050
_cell_length_b 34.669485
_cell_length_c 10.710599
_cell_angle_alpha 90.000000
_cell_angle_beta 112.305373
_cell_angle_gamma 90.000000
_cell_volume 1796.418113
_symmetry_space_group_name_H-M "C 2/M"
_symmetry_group_IT_number 12
_symmetry_cell_setting 'monoclinic'
loop_
_space_group_symop_operation_xyz
x,y,z
-x,y,-z
-x,-y,-z
x,-y,z
1/2+x,1/2+y,z
1/2-x,1/2+y,-z
1/2-x,1/2-y,-z
1/2+x,1/2-y,z
loop_
_atom_site_type_symbol
_atom_site_label
_atom_site_fract_x
_atom_site_fract_y
_atom_site_fract_z
Si Si1 0.126074 0.773332 0.157830
Si Si2 0.500000 0.402444 0.000000
Si Si3 0.775038 0.357662 0.244731
Si Si4 0.752742 0.043273 0.141140
Si Si5 0.665165 0.395967 0.652406
O O1 0.381323 0.743620 0.197871
O O2 0.243900 0.811876 0.241605
O O3 0.000000 0.783103 0.000000
O O4 0.257189 0.374159 0.904628
O O5 0.526563 0.430502 0.887170
O O6 0.536949 0.373983 0.290483
O O7 0.084388 0.368285 0.345126
O O8 0.698728 0.065187 0.261857
O O9 0.861686 0.000000 0.187981
O O10 0.500000 0.041938 0.000000
O O11 0.500000 0.409251 0.500000
#
# Coordination Sequence:
#
# PCOD8092059 Si02
#       5
#     8   4   8   8   8
#     4  10  20  34  56  92 126 151 187 246 307 353
#     4  10  19  34  58  90 116 156 194 248 290 354
#     4  11  21  38  63  85 122 156 200 244 296 351
#     4  10  20  36  59  87 121 154 196 249 300 354
#     4  11  24  40  60  87 120 162 205 243 293 353
#
# _framework density 20.039877000000001
#
# number of rings (size 3 to 8) (size 9 to 14) (size 15 to 20)
#    0.000    1.556    3.333    2.333    0.000    0.444 
#    0.000    0.000    0.000   17.333    0.000    0.000 
#    0.000    0.000    0.000    0.000    0.000    0.000 
#
# Total GULP energy -223032.346168 kJ/mol
# GULP energy per Si atom -12390.685898 kJ/mol
# Density = 1.999426 g / cm^3
# Si number density = 20.039877 Si / 1000 Ang^3
#
#
#
# Elastic Constant Matrix: (Units=GPa)
#
#
# Indices 1 2 3 4 5 6 
#
# 1 98.4968 31.8516 12.0428 0.0000 15.2221 0.0000
# 2 31.8516 136.0700 48.0451 0.0000 3.3513 0.0000
# 3 12.0428 48.0451 82.8661 0.0000 14.3944 0.0000
# 4 0.0000 0.0000 0.0000 22.4972 0.0000 5.7673
# 5 15.2221 3.3513 14.3944 0.0000 24.0373 0.0000
# 6 0.0000 0.0000 0.0000 5.7673 0.0000 23.9488
#
#
#
# Elastic Compliance Matrix: (Units=1/GPa)
#
#
# Indices 1 2 3 4 5 6 
#
# 1 0.012275 -0.003201 0.001501 0.000000 -0.008226 0.000000
# 2 -0.003201 0.010176 -0.006183 0.000000 0.004311 0.000000
# 3 0.001501 -0.006183 0.017244 0.000000 -0.010414 0.000000
# 4 0.000000 0.000000 0.000000 0.047375 0.000000 -0.011409
# 5 -0.008226 0.004311 -0.010414 0.000000 0.052447 0.000000
# 6 0.000000 0.000000 0.000000 -0.011409 0.000000 0.044503
#
#
# Mechanical properties :
#
#
# Convention : Reuss Voigt Hill
#
# Bulk Modulus (GPa) = 41.79225 55.70131 48.74678
# Shear Modulus (GPa) = 24.06598 29.12956 26.59777
#
# Velocity S-wave (km/s) = 3.46917 3.81672 3.64709
# Velocity P-wave (km/s) = 6.07837 6.87595 6.48943
#
# Compressibility (1/GPa) = 0.02392788
#
# Stress axis : x y z
#
# Youngs Moduli (GPa) = 81.46319 98.27501 57.99215
#
# Poissons Ratio (x) = 0.31456 -0.08703
# Poissons Ratio (y) = 0.26075 0.35859
# Poissons Ratio (z) = -0.12226 0.60767
#
# Static dielectric constant tensor:
#      x y z
#    x 3.784570 0.000000 -0.137220 
#    y 0.000000 3.804100 0.000000 
#    z -0.137220 0.000000 3.715440 
# 
# 
# High freq. dielectric constant tensor:
#      x y z
#    x 1.774570 0.000000 0.007560 
#    y 0.000000 1.790130 0.000000 
#    z 0.007560 0.000000 1.762110 
# 
# From -- ./inp_files/115807.got.cif
#   From: 2010.06.25/outbox.cif.g09.slc.cpg/sg12_58_cif.got.tgz:115807.got - 2010.06.28 00:19:55.
