data_PCOD8092739
_publ_section_title
;
Structure prediction by ZEFSAII (Michael W. Deem and Ramdas Pophale) SiO2 
 PCOD8092739
Probable space group: C 2/M
;
_chemical_formula_sum "Si O2"
_cell_formula_units_Z 56
_cell_length_a 23.481026
_cell_length_b 8.975786
_cell_length_c 15.651894
_cell_angle_alpha 90.000000
_cell_angle_beta 56.851679
_cell_angle_gamma 90.000000
_cell_volume 2761.949218
_symmetry_space_group_name_H-M "C 2/M"
_symmetry_group_IT_number 12
_symmetry_cell_setting 'monoclinic'
loop_
_space_group_symop_operation_xyz
x,y,z
-x,y,-z
-x,-y,-z
x,-y,z
1/2+x,1/2+y,z
1/2-x,1/2+y,-z
1/2-x,1/2-y,-z
1/2+x,1/2-y,z
loop_
_atom_site_type_symbol
_atom_site_label
_atom_site_fract_x
_atom_site_fract_y
_atom_site_fract_z
Si Si1 0.576528 0.169795 0.449403
Si Si2 0.068666 0.677259 0.986604
Si Si3 0.796846 0.176150 0.390233
Si Si4 0.340627 0.329581 0.759171
Si Si5 0.204323 0.672437 0.783507
Si Si6 0.076271 0.669994 0.646026
Si Si7 0.572342 0.175615 0.175808
O O1 0.500000 0.226308 0.500000
O O2 0.624835 0.274621 0.355957
O O3 0.598308 0.182584 0.529754
O O4 0.582846 0.000000 0.410767
O O5 0.066456 0.500000 0.991169
O O6 0.132907 0.732179 0.878959
O O7 0.074377 0.739772 0.078135
O O8 0.000000 0.740745 0.000000
O O9 0.750000 0.250000 0.500000
O O10 0.773573 0.229713 0.315895
O O11 0.875092 0.224904 0.338569
O O12 0.789126 0.000000 0.403215
O O13 0.360411 0.500000 0.756674
O O14 0.259852 0.307927 0.813105
O O15 0.365044 0.241519 0.822363
O O16 0.199334 0.500000 0.759245
O O17 0.084139 0.500000 0.672461
O O18 0.998660 0.722918 0.721830
O O19 0.581287 0.000000 0.169033
#
# Coordination Sequence:
#
# PCOD8092739 Si02
#       7
#     8   8   8   8   8   8   8
#     4  10  19  35  57  82 112 151 198 242 284 341
#     4   9  18  36  65  91 111 146 200 251 292 341
#     4  12  25  40  60  87 118 155 196 240 293 352
#     4  11  23  36  54  84 123 159 192 241 299 354
#     4  10  22  41  61  86 120 157 198 244 294 349
#     4  10  20  36  60  87 117 152 194 247 296 344
#     4  10  20  37  62  89 115 152 200 244 287 346
#
# _framework density 20.275535000000001
#
# number of rings (size 3 to 8) (size 9 to 14) (size 15 to 20)
#    0.000    1.714    1.429    3.429    0.000    7.714 
#    0.000    0.714    0.000    1.714    0.000    0.000 
#    0.000    0.000    0.000    0.000    0.000    0.000 
#
# Total GULP energy -347317.602872 kJ/mol
# GULP energy per Si atom -12404.200103 kJ/mol
# Density = 2.022939 g / cm^3
# Si number density = 20.275535 Si / 1000 Ang^3
#
#
#
# Elastic Constant Matrix: (Units=GPa)
#
#
# Indices 1 2 3 4 5 6 
#
# 1 129.0940 46.1669 52.9684 0.0000 4.3115 0.0000
# 2 46.1669 78.8343 38.1389 0.0000 1.5642 0.0001
# 3 52.9684 38.1389 124.1842 0.0000 7.7320 0.0000
# 4 0.0000 0.0000 0.0000 18.5746 0.0000 5.3487
# 5 4.3115 1.5642 7.7320 0.0000 36.7210 0.0000
# 6 0.0000 0.0001 0.0000 5.3487 0.0000 32.1665
#
#
#
# Elastic Compliance Matrix: (Units=1/GPa)
#
#
# Indices 1 2 3 4 5 6 
#
# 1 0.010738 -0.004788 -0.003084 0.000000 -0.000407 0.000000
# 2 -0.004788 0.017037 -0.003222 0.000000 0.000515 0.000000
# 3 -0.003084 -0.003222 0.010464 0.000000 -0.001704 0.000000
# 4 0.000000 0.000000 0.000000 0.056544 0.000000 -0.009402
# 5 -0.000407 0.000515 -0.001704 0.000000 0.027617 0.000000
# 6 0.000000 0.000000 0.000000 -0.009402 0.000000 0.032652
#
#
# Mechanical properties :
#
#
# Convention : Reuss Voigt Hill
#
# Bulk Modulus (GPa) = 62.30532 67.40677 64.85604
# Shear Modulus (GPa) = 27.38363 30.48164 28.93264
#
# Velocity S-wave (km/s) = 3.67900 3.88154 3.78163
# Velocity P-wave (km/s) = 6.98876 7.30794 7.15013
#
# Compressibility (1/GPa) = 0.01604999
#
# Stress axis : x y z
#
# Youngs Moduli (GPa) = 93.13026 58.69414 95.56845
#
# Poissons Ratio (x) = 0.28103 0.29474
# Poissons Ratio (y) = 0.44591 0.30795
# Poissons Ratio (z) = 0.28722 0.18913
#
# Static dielectric constant tensor:
#      x y z
#    x 3.849160 0.000000 0.005190 
#    y 0.000000 3.401820 0.000000 
#    z 0.005190 0.000000 3.672500 
# 
# 
# High freq. dielectric constant tensor:
#      x y z
#    x 1.808620 0.000000 0.003060 
#    y 0.000000 1.761840 0.000000 
#    z 0.003060 0.000000 1.791480 
# 
# From -- ./inp_files/238261.got.cif
#   From: 2010.06.25/outbox.cif.g09.slc.cpg/sg12_120_cif.got.tgz:238261.got - 2010.06.28 00:19:55.
