data_PCOD8092070
_publ_section_title
;
Structure prediction by ZEFSAII (Michael W. Deem and Ramdas Pophale) SiO2 
 PCOD8092070
Probable space group: C 2/M
;
_chemical_formula_sum "Si O2"
_cell_formula_units_Z 56
_cell_length_a 20.184589
_cell_length_b 17.964693
_cell_length_c 22.822034
_cell_angle_alpha 90.000000
_cell_angle_beta 157.801880
_cell_angle_gamma 90.000000
_cell_volume 3126.568694
_symmetry_space_group_name_H-M "C 2/M"
_symmetry_group_IT_number 12
_symmetry_cell_setting 'monoclinic'
loop_
_space_group_symop_operation_xyz
x,y,z
-x,y,-z
-x,-y,-z
x,-y,z
1/2+x,1/2+y,z
1/2-x,1/2+y,-z
1/2-x,1/2-y,-z
1/2+x,1/2-y,z
loop_
_atom_site_type_symbol
_atom_site_label
_atom_site_fract_x
_atom_site_fract_y
_atom_site_fract_z
Si Si1 0.552738 0.802819 0.104365
Si Si2 0.249095 0.191742 0.121584
Si Si3 0.588200 0.232087 0.628730
Si Si4 0.012257 0.794661 0.265923
Si Si5 0.799671 0.185515 0.462864
Si Si6 0.452315 0.917489 0.799121
Si Si7 0.689789 0.584299 0.975410
O O1 0.754684 0.779772 0.270071
O O2 0.507393 0.863799 0.114571
O O3 0.500000 0.840560 0.000000
O O4 0.436182 0.729605 0.018080
O O5 0.349510 0.178769 0.266419
O O6 0.359806 0.242628 0.167250
O O7 0.207503 0.113150 0.056894
O O8 0.500000 0.189603 0.500000
O O9 0.451746 0.290660 0.543469
O O10 0.127438 0.828695 0.412577
O O11 0.141595 0.746060 0.331148
O O12 0.936270 0.862051 0.165391
O O13 0.721285 0.107209 0.377892
O O14 0.419065 0.000000 0.796214
O O15 0.616404 0.915349 0.890866
O O16 0.613118 0.500000 0.913045
#
# Coordination Sequence:
#
# PCOD8092070 Si02
#       7
#     8   8   8   8   8   8   8
#     4  10  20  35  55  79 106 143 188 228 259 314
#     4  10  19  35  58  82 105 137 184 234 269 310
#     4  10  20  33  56  83 104 136 185 230 266 316
#     4  10  19  34  59  81 105 140 181 229 274 314
#     4  10  20  34  54  82 109 139 180 228 267 319
#     4  11  21  34  52  77 115 150 177 220 272 323
#     4  11  22  35  55  83 115 144 177 223 278 330
#
# _framework density 17.911010000000001
#
# number of rings (size 3 to 8) (size 9 to 14) (size 15 to 20)
#    0.000    1.714    4.286    1.286    0.000    0.857 
#    0.000    1.429    0.000    4.286    0.000    0.000 
#    0.000    0.000    0.000    0.000    0.000    0.000 
#
# Total GULP energy -347091.966442 kJ/mol
# GULP energy per Si atom -12396.141659 kJ/mol
# Density = 1.787024 g / cm^3
# Si number density = 17.911010 Si / 1000 Ang^3
#
#
#
# Elastic Constant Matrix: (Units=GPa)
#
#
# Indices 1 2 3 4 5 6 
#
# 1 87.7128 42.1938 42.1891 0.0265 -11.0321 -0.0166
# 2 42.1938 83.4886 38.8359 0.0017 -15.1173 -0.0483
# 3 42.1891 38.8359 98.2827 0.0620 -7.7382 -0.0367
# 4 0.0265 0.0017 0.0620 17.4418 0.0224 6.5133
# 5 -11.0321 -15.1173 -7.7382 0.0224 46.6946 -0.0175
# 6 -0.0166 -0.0483 -0.0367 6.5133 -0.0175 5.7830
#
#
#
# Elastic Compliance Matrix: (Units=1/GPa)
#
#
# Indices 1 2 3 4 5 6 
#
# 1 0.016719 -0.006047 -0.004692 0.000002 0.001215 -0.000031
# 2 -0.006047 0.017575 -0.004066 -0.000044 0.003587 0.000164
# 3 -0.004692 -0.004066 0.013785 -0.000097 -0.000140 0.000149
# 4 0.000002 -0.000044 -0.000097 0.098952 -0.000119 -0.111450
# 5 0.001215 0.003587 -0.000140 -0.000119 0.022841 0.000236
# 6 -0.000031 0.000164 0.000149 -0.111450 0.000236 0.298448
#
#
# Mechanical properties :
#
#
# Convention : Reuss Voigt Hill
#
# Bulk Modulus (GPa) = 54.14704 57.32462 55.73583
# Shear Modulus (GPa) = 9.91891 23.73490 16.82691
#
# Velocity S-wave (km/s) = 2.35582 3.64422 3.06841
# Velocity P-wave (km/s) = 6.13976 7.05562 6.61357
#
# Compressibility (1/GPa) = 0.01846823
#
# Stress axis : x y z
#
# Youngs Moduli (GPa) = 59.81094 56.89891 72.54486
#
# Poissons Ratio (x) = 0.34408 0.34037
# Poissons Ratio (y) = 0.36169 0.29499
# Poissons Ratio (z) = 0.28062 0.23137
#
# Static dielectric constant tensor:
#      x y z
#    x 3.545930 -0.000020 -0.114380 
#    y -0.000020 3.109520 -0.000120 
#    z -0.114380 -0.000120 3.572720 
# 
# 
# High freq. dielectric constant tensor:
#      x y z
#    x 1.707930 0.000000 -0.004690 
#    y 0.000000 1.647270 -0.000010 
#    z -0.004690 -0.000010 1.712280 
# 
# From -- ./inp_files/76806.got.cif
#   From: 2010.06.25/outbox.cif.g09.slc.cpg/sg12_39_cif.got.tgz:76806.got - 2010.06.28 00:19:55.
