data_PCOD8092976
_publ_section_title
;
Structure prediction by ZEFSAII (Michael W. Deem and Ramdas Pophale) SiO2 
 PCOD8092976
Probable space group: C 2/M
;
_chemical_formula_sum "Si O2"
_cell_formula_units_Z 56
_cell_length_a 22.162898
_cell_length_b 24.065060
_cell_length_c 16.386018
_cell_angle_alpha 90.000000
_cell_angle_beta 18.996889
_cell_angle_gamma 90.000000
_cell_volume 2844.856415
_symmetry_space_group_name_H-M "C 2/M"
_symmetry_group_IT_number 12
_symmetry_cell_setting 'monoclinic'
loop_
_space_group_symop_operation_xyz
x,y,z
-x,y,-z
-x,-y,-z
x,-y,z
1/2+x,1/2+y,z
1/2-x,1/2+y,-z
1/2-x,1/2-y,-z
1/2+x,1/2-y,z
loop_
_atom_site_type_symbol
_atom_site_label
_atom_site_fract_x
_atom_site_fract_y
_atom_site_fract_z
Si Si1 0.546276 0.360637 0.852150
Si Si2 0.987508 0.937465 0.780805
Si Si3 0.260012 0.659999 0.996634
Si Si4 0.335177 0.893934 0.261140
Si Si5 0.312093 0.732274 0.079273
Si Si6 0.936672 0.670346 0.294103
Si Si7 0.586772 0.678975 0.465703
O O1 0.534726 0.414253 0.809361
O O2 0.741973 0.328992 0.590577
O O3 0.500000 0.384367 0.000000
O O4 0.387689 0.316240 0.038902
O O5 0.178497 0.938196 0.484775
O O6 0.837837 0.898684 0.928706
O O7 0.910328 0.000000 0.885271
O O8 0.414077 0.692644 0.745715
O O9 0.209854 0.702337 0.133554
O O10 0.084481 0.642792 0.166700
O O11 0.418738 0.864113 0.233678
O O12 0.249623 0.848832 0.308342
O O13 0.500000 0.923865 0.000000
O O14 0.166859 0.766040 0.319431
O O15 0.488328 0.768147 0.822207
O O16 0.500000 0.642955 0.500000
#
# Coordination Sequence:
#
# PCOD8092976 Si02
#       7
#     8   8   8   8   8   8   8
#     4  10  24  37  58  89 116 150 202 242 284 348
#     4   9  21  42  63  81 112 155 196 248 300 337
#     4  10  22  39  56  85 119 154 201 236 284 349
#     4  10  19  35  58  89 117 153 189 241 284 348
#     4  11  22  34  55  83 120 165 186 229 281 353
#     4  11  21  38  57  83 126 154 189 240 285 348
#     4  11  21  34  56  83 121 163 190 222 285 345
#
# _framework density 19.684649
#
# number of rings (size 3 to 8) (size 9 to 14) (size 15 to 20)
#    0.000    1.714    2.857    1.714    4.000    0.571 
#    0.000    5.000    0.000   15.429    0.000    0.000 
#    0.000    0.000    0.000    0.000    0.000    0.000 
#
# Total GULP energy -347004.921814 kJ/mol
# GULP energy per Si atom -12393.032922 kJ/mol
# Density = 1.963985 g / cm^3
# Si number density = 19.684649 Si / 1000 Ang^3
#
#
#
# Elastic Constant Matrix: (Units=GPa)
#
#
# Indices 1 2 3 4 5 6 
#
# 1 136.3159 46.5971 49.9857 0.0373 -3.9615 -0.0065
# 2 46.5971 103.2615 21.7012 0.0655 2.2928 -0.0450
# 3 49.9857 21.7012 77.7151 -0.0303 9.1673 -0.0833
# 4 0.0373 0.0655 -0.0303 15.0328 -0.0046 1.7787
# 5 -3.9615 2.2928 9.1673 -0.0046 35.2500 0.0171
# 6 -0.0065 -0.0450 -0.0833 1.7787 0.0171 11.2602
#
#
#
# Elastic Compliance Matrix: (Units=1/GPa)
#
#
# Indices 1 2 3 4 5 6 
#
# 1 0.011060 -0.003705 -0.006452 -0.000016 0.003162 -0.000058
# 2 -0.003705 0.011529 -0.000721 -0.000048 -0.000979 0.000048
# 3 -0.006452 -0.000721 0.017847 0.000038 -0.005320 0.000127
# 4 -0.000016 -0.000048 0.000038 0.067788 0.000005 -0.010708
# 5 0.003162 -0.000979 -0.005320 0.000005 0.030171 -0.000088
# 6 -0.000058 0.000048 0.000127 -0.010708 -0.000088 0.090501
#
#
# Mechanical properties :
#
#
# Convention : Reuss Voigt Hill
#
# Bulk Modulus (GPa) = 53.53448 61.54007 57.53728
# Shear Modulus (GPa) = 19.46430 25.57582 22.52006
#
# Velocity S-wave (km/s) = 3.14794 3.60846 3.38604
# Velocity P-wave (km/s) = 6.36143 6.97798 6.67682
#
# Compressibility (1/GPa) = 0.01867955
#
# Stress axis : x y z
#
# Youngs Moduli (GPa) = 90.41270 86.73461 56.03320
#
# Poissons Ratio (x) = 0.32137 0.36155
# Poissons Ratio (y) = 0.33500 0.04039
# Poissons Ratio (z) = 0.58338 0.06252
#
# Static dielectric constant tensor:
#      x y z
#    x 3.989990 -0.000250 -0.054140 
#    y -0.000250 3.080900 0.000520 
#    z -0.054140 0.000520 3.738380 
# 
# 
# High freq. dielectric constant tensor:
#      x y z
#    x 1.792410 -0.000020 0.000370 
#    y -0.000020 1.718370 0.000050 
#    z 0.000370 0.000050 1.775020 
# 
# From -- ./inp_files/290814.got.cif
#   From: 2010.06.25/outbox.cif.g09.slc.cpg/sg12_146_cif.got.tgz:290814.got - 2010.06.28 00:19:55.
