data_PCOD8092353
_publ_section_title
;
Structure prediction by ZEFSAII (Michael W. Deem and Ramdas Pophale) SiO2 
 PCOD8092353
Probable space group: C 2/M
;
_chemical_formula_sum "Si O2"
_cell_formula_units_Z 64
_cell_length_a 34.227984
_cell_length_b 8.684917
_cell_length_c 14.601427
_cell_angle_alpha 90.000000
_cell_angle_beta 127.720717
_cell_angle_gamma 90.000000
_cell_volume 3433.365797
_symmetry_space_group_name_H-M "C 2/M"
_symmetry_group_IT_number 12
_symmetry_cell_setting 'monoclinic'
loop_
_space_group_symop_operation_xyz
x,y,z
-x,y,-z
-x,-y,-z
x,-y,z
1/2+x,1/2+y,z
1/2-x,1/2+y,-z
1/2-x,1/2-y,-z
1/2+x,1/2-y,z
loop_
_atom_site_type_symbol
_atom_site_label
_atom_site_fract_x
_atom_site_fract_y
_atom_site_fract_z
Si Si1 0.852948 0.328329 0.267291
Si Si2 0.299472 0.319763 0.674562
Si Si3 0.896720 0.822469 0.496869
Si Si4 0.661296 0.181247 0.090638
Si Si5 0.002813 0.317491 0.398769
Si Si6 0.594681 0.180302 0.836766
Si Si7 0.757466 0.825472 0.913463
Si Si8 0.812823 0.679400 0.501214
O O1 0.875683 0.500000 0.317355
O O2 0.880560 0.205795 0.369516
O O3 0.862069 0.281344 0.174681
O O4 0.795735 0.330954 0.211242
O O5 0.304400 0.500000 0.661191
O O6 0.334899 0.274034 0.809381
O O7 0.242213 0.276581 0.613301
O O8 0.318606 0.226072 0.615011
O O9 0.948581 0.736168 0.585700
O O10 0.854405 0.765560 0.503914
O O11 0.905874 0.000000 0.527982
O O12 0.709467 0.215106 0.100073
O O13 0.658730 0.000000 0.107619
O O14 0.613501 0.240904 0.963286
O O15 0.000532 0.500000 0.396729
O O16 0.000000 0.255707 0.500000
O O17 0.956773 0.248707 0.273680
O O18 0.588153 0.000000 0.838195
O O19 0.778828 0.000000 0.951026
O O20 0.750000 0.750000 0.000000
O O21 0.822672 0.500000 0.504243
#
# Coordination Sequence:
#
# PCOD8092353 Si02
#       8
#     8   8   8   8   8   8   8   8
#     4  10  19  35  52  71 104 148 191 224 263 325
#     4  10  21  38  60  88 117 145 182 230 279 329
#     4  12  24  35  53  84 116 142 178 235 291 333
#     4  11  21  35  54  79 112 150 189 226 271 332
#     4  10  19  36  60  78 102 147 196 235 278 331
#     4   9  18  34  54  76 103 144 192 230 264 320
#     4  11  21  32  48  72 106 145 184 225 268 319
#     4  10  21  39  62  85 111 148 188 226 273 335
#
# _framework density 18.640599999999999
#
# number of rings (size 3 to 8) (size 9 to 14) (size 15 to 20)
#    0.000    1.625    2.500    3.375    0.000    5.750 
#    0.000    1.250    0.000    0.750    0.000    5.250 
#    0.000    0.000    0.000    0.000    0.000    0.000 
#
# Total GULP energy -396712.813526 kJ/mol
# GULP energy per Si atom -12397.275423 kJ/mol
# Density = 1.859817 g / cm^3
# Si number density = 18.640600 Si / 1000 Ang^3
#
#
#
# Elastic Constant Matrix: (Units=GPa)
#
#
# Indices 1 2 3 4 5 6 
#
# 1 60.7264 7.6558 31.3049 0.0000 8.1262 0.0000
# 2 7.6558 31.5890 12.2956 0.0000 4.7060 0.0000
# 3 31.3049 12.2956 128.8148 0.0000 5.3260 0.0000
# 4 0.0000 0.0000 0.0000 25.0638 0.0000 -3.7450
# 5 8.1262 4.7060 5.3260 0.0000 25.6028 0.0000
# 6 0.0000 0.0000 0.0000 -3.7450 0.0000 28.2775
#
#
#
# Elastic Compliance Matrix: (Units=1/GPa)
#
#
# Indices 1 2 3 4 5 6 
#
# 1 0.019662 -0.002341 -0.004352 0.000000 -0.004905 0.000000
# 2 -0.002341 0.033925 -0.002463 0.000000 -0.004980 0.000000
# 3 -0.004352 -0.002463 0.009058 0.000000 -0.000050 0.000000
# 4 0.000000 0.000000 0.000000 0.040704 0.000000 0.005391
# 5 -0.004905 -0.004980 -0.000050 0.000000 0.041541 0.000000
# 6 0.000000 0.000000 0.000000 0.005391 0.000000 0.036078
#
#
# Mechanical properties :
#
#
# Convention : Reuss Voigt Hill
#
# Bulk Modulus (GPa) = 22.55672 35.96030 29.25851
# Shear Modulus (GPa) = 23.35825 27.11375 25.23600
#
# Velocity S-wave (km/s) = 3.54373 3.81800 3.68342
# Velocity P-wave (km/s) = 5.37319 6.22651 5.81552
#
# Compressibility (1/GPa) = 0.04433268
#
# Stress axis : x y z
#
# Youngs Moduli (GPa) = 50.85867 29.47706 110.40005
#
# Poissons Ratio (x) = 0.06899 0.48048
# Poissons Ratio (y) = 0.11904 0.27196
# Poissons Ratio (z) = 0.22135 0.07262
#
# Static dielectric constant tensor:
#      x y z
#    x 3.437020 0.000000 0.074830 
#    y 0.000000 3.318150 0.000000 
#    z 0.074830 0.000000 3.736680 
# 
# 
# High freq. dielectric constant tensor:
#      x y z
#    x 1.702950 0.000000 0.003680 
#    y 0.000000 1.714220 0.000000 
#    z 0.003680 0.000000 1.725460 
# 
# From -- ./inp_files/249251.got.cif
#   From: 2010.06.25/outbox.cif.g09.slc.cpg/sg12_125_cif.got.tgz:249251.got - 2010.06.28 00:19:55.
