data_PCOD8092842
_publ_section_title
;
Structure prediction by ZEFSAII (Michael W. Deem and Ramdas Pophale) SiO2 
 PCOD8092842
Probable space group: C 2/M
;
_chemical_formula_sum "Si O2"
_cell_formula_units_Z 64
_cell_length_a 20.291735
_cell_length_b 8.974141
_cell_length_c 18.828323
_cell_angle_alpha 90.000000
_cell_angle_beta 89.780695
_cell_angle_gamma 90.000000
_cell_volume 3428.629279
_symmetry_space_group_name_H-M "C 2/M"
_symmetry_group_IT_number 12
_symmetry_cell_setting 'monoclinic'
loop_
_space_group_symop_operation_xyz
x,y,z
-x,y,-z
-x,-y,-z
x,-y,z
1/2+x,1/2+y,z
1/2-x,1/2+y,-z
1/2-x,1/2-y,-z
1/2+x,1/2-y,z
loop_
_atom_site_type_symbol
_atom_site_label
_atom_site_fract_x
_atom_site_fract_y
_atom_site_fract_z
Si Si1 0.136628 0.677131 0.927424
Si Si2 0.625399 0.827212 0.086629
Si Si3 0.259531 0.675408 0.836198
Si Si4 0.452807 0.325987 0.296505
Si Si5 0.301197 0.669118 0.290690
Si Si6 0.988074 0.673081 0.159129
Si Si7 0.805990 0.825967 0.453693
Si Si8 0.556055 0.174205 0.557324
O O1 0.132720 0.500000 0.929377
O O2 0.202887 0.735487 0.889520
O O3 0.074131 0.737919 0.883940
O O4 0.135118 0.739522 0.007617
O O5 0.671018 0.741746 0.141639
O O6 0.550562 0.800327 0.109254
O O7 0.644533 0.000000 0.088802
O O8 0.263965 0.500000 0.839025
O O9 0.243945 0.723406 0.755972
O O10 0.466463 0.500000 0.307977
O O11 0.377357 0.293856 0.276152
O O12 0.497349 0.262598 0.232568
O O13 0.470616 0.241982 0.368994
O O14 0.285188 0.500000 0.269288
O O15 0.284528 0.698500 0.372605
O O16 0.978527 0.500000 0.178248
O O17 0.750000 0.750000 0.500000
O O18 0.876723 0.752239 0.468731
O O19 0.811679 0.000000 0.472150
O O20 0.500000 0.204932 0.500000
O O21 0.570194 0.000000 0.567393
#
# Coordination Sequence:
#
# PCOD8092842 Si02
#       8
#     8   8   8   8   8   8   8   8
#     4   9  18  34  57  82 104 139 190 231 272 331
#     4  10  21  36  54  78 112 148 180 227 284 334
#     4  11  21  34  55  81 110 142 183 233 277 327
#     4  10  20  35  58  85 113 146 184 232 280 331
#     4   9  19  36  57  81 109 145 186 225 271 330
#     4  10  19  35  58  81 107 144 188 231 274 330
#     4  10  21  38  61  89 119 151 189 234 282 335
#     4  10  21  38  61  88 117 151 190 232 277 334
#
# _framework density 18.666352
#
# number of rings (size 3 to 8) (size 9 to 14) (size 15 to 20)
#    0.000    2.125    1.250    3.000    0.000    5.500 
#    2.250    1.250    0.000    1.500    0.000    0.000 
#    0.000    0.000    0.000    0.000    0.000    0.000 
#
# Total GULP energy -396907.610433 kJ/mol
# GULP energy per Si atom -12403.362826 kJ/mol
# Density = 1.862387 g / cm^3
# Si number density = 18.666352 Si / 1000 Ang^3
#
#
#
# Elastic Constant Matrix: (Units=GPa)
#
#
# Indices 1 2 3 4 5 6 
#
# 1 67.9643 40.8277 36.0836 0.0000 8.8726 0.0000
# 2 40.8277 85.3458 49.2664 0.0000 6.2632 0.0000
# 3 36.0836 49.2664 104.9745 0.0000 5.5535 0.0000
# 4 0.0000 0.0000 0.0000 27.9168 0.0000 -1.0463
# 5 8.8726 6.2632 5.5535 0.0000 29.7925 0.0000
# 6 0.0000 0.0000 0.0000 -1.0463 0.0000 29.2431
#
#
#
# Elastic Compliance Matrix: (Units=1/GPa)
#
#
# Indices 1 2 3 4 5 6 
#
# 1 0.022060 -0.008225 -0.003501 0.000000 -0.004188 0.000000
# 2 -0.008225 0.019255 -0.006186 0.000000 -0.000445 0.000000
# 3 -0.003501 -0.006186 0.013644 0.000000 -0.000200 0.000000
# 4 0.000000 0.000000 0.000000 0.035869 0.000000 0.001283
# 5 -0.004188 -0.000445 -0.000200 0.000000 0.034944 0.000000
# 6 0.000000 0.000000 0.000000 0.001283 0.000000 0.034242
#
#
# Mechanical properties :
#
#
# Convention : Reuss Voigt Hill
#
# Bulk Modulus (GPa) = 52.26136 56.73780 54.49958
# Shear Modulus (GPa) = 24.72610 26.19760 25.46185
#
# Velocity S-wave (km/s) = 3.64350 3.75035 3.69731
# Velocity P-wave (km/s) = 6.76451 7.01536 6.89107
#
# Compressibility (1/GPa) = 0.01913460
#
# Stress axis : x y z
#
# Youngs Moduli (GPa) = 45.33098 51.93408 73.29483
#
# Poissons Ratio (x) = 0.42713 0.25663
# Poissons Ratio (y) = 0.37283 0.45341
# Poissons Ratio (z) = 0.15872 0.32127
#
# Static dielectric constant tensor:
#      x y z
#    x 3.307330 0.000000 -0.028630 
#    y 0.000000 3.331490 0.000000 
#    z -0.028630 0.000000 3.508200 
# 
# 
# High freq. dielectric constant tensor:
#      x y z
#    x 1.716150 0.000000 -0.000520 
#    y 0.000000 1.717820 0.000000 
#    z -0.000520 0.000000 1.733790 
# 
# From -- ./inp_files/281321.got.cif
#   From: 2010.06.25/outbox.cif.g09.slc.cpg/sg12_141_cif.got.tgz:281321.got - 2010.06.28 00:19:55.
