data_PCOD8092578
_publ_section_title
;
Structure prediction by ZEFSAII (Michael W. Deem and Ramdas Pophale) SiO2 
 PCOD8092578
Probable space group: C 2/M
;
_chemical_formula_sum "Si O2"
_cell_formula_units_Z 48
_cell_length_a 18.016124
_cell_length_b 18.149612
_cell_length_c 8.070695
_cell_angle_alpha 90.000000
_cell_angle_beta 75.172835
_cell_angle_gamma 90.000000
_cell_volume 2551.128505
_symmetry_space_group_name_H-M "C 2/M"
_symmetry_group_IT_number 12
_symmetry_cell_setting 'monoclinic'
loop_
_space_group_symop_operation_xyz
x,y,z
-x,y,-z
-x,-y,-z
x,-y,z
1/2+x,1/2+y,z
1/2-x,1/2+y,-z
1/2-x,1/2-y,-z
1/2+x,1/2-y,z
loop_
_atom_site_type_symbol
_atom_site_label
_atom_site_fract_x
_atom_site_fract_y
_atom_site_fract_z
Si Si1 0.159928 0.415163 0.774421
Si Si2 0.506283 0.920894 0.686605
Si Si3 0.910121 0.146757 0.883118
Si Si4 0.077858 0.686796 0.059143
Si Si5 0.078773 0.086949 0.774595
Si Si6 0.830871 0.914479 0.602525
O O1 0.159595 0.500000 0.837983
O O2 0.240795 0.396874 0.641711
O O3 0.093582 0.399027 0.679459
O O4 0.146253 0.358308 0.932249
O O5 0.500000 0.933135 0.500000
O O6 0.444166 0.859324 0.766239
O O7 0.487501 0.000000 0.785919
O O8 0.892675 0.233032 0.910615
O O9 0.864024 0.121869 0.748839
O O10 0.999766 0.131389 0.802691
O O11 0.882467 0.106721 0.069565
O O12 0.000000 0.691313 0.000000
O O13 0.131286 0.113982 0.590983
O O14 0.062350 0.000000 0.777427
O O15 0.848823 0.000000 0.609287
#
# Coordination Sequence:
#
# PCOD8092578 Si02
#       6
#     8   8   8   8   8   8
#     4   9  19  37  57  80 112 145 181 226 275 333
#     4   9  18  34  58  84 107 140 188 232 273 326
#     4  11  20  35  57  82 113 146 188 229 274 327
#     4  10  19  35  56  79 111 145 185 226 274 325
#     4  10  20  36  57  81 108 146 192 237 269 319
#     4  10  21  37  57  83 114 148 185 227 280 329
#
# _framework density 18.815203
#
# number of rings (size 3 to 8) (size 9 to 14) (size 15 to 20)
#    0.000    2.167    1.667    3.000    0.000    5.333 
#    3.000    0.833    0.000    0.000    0.000    0.000 
#    0.000    0.000    0.000    0.000    0.000    0.000 
#
# Total GULP energy -297459.641704 kJ/mol
# GULP energy per Si atom -12394.151738 kJ/mol
# Density = 1.877238 g / cm^3
# Si number density = 18.815203 Si / 1000 Ang^3
#
#
#
# Elastic Constant Matrix: (Units=GPa)
#
#
# Indices 1 2 3 4 5 6 
#
# 1 62.8353 33.4425 62.6651 0.0000 -5.5250 0.0000
# 2 33.4425 97.6313 59.0517 0.0000 -7.9778 0.0000
# 3 62.6651 59.0517 147.5987 0.0000 -2.7256 0.0000
# 4 0.0000 0.0000 0.0000 107.7004 0.0000 18.4910
# 5 -5.5250 -7.9778 -2.7256 0.0000 26.3647 0.0000
# 6 0.0000 0.0000 0.0000 18.4910 0.0000 15.4856
#
#
#
# Elastic Compliance Matrix: (Units=1/GPa)
#
#
# Indices 1 2 3 4 5 6 
#
# 1 0.028751 -0.002878 -0.010981 0.000000 0.004019 0.000000
# 2 -0.002878 0.014138 -0.004375 0.000000 0.003223 0.000000
# 3 -0.010981 -0.004375 0.013146 0.000000 -0.002266 0.000000
# 4 0.000000 0.000000 0.000000 0.011679 0.000000 -0.013946
# 5 0.004019 0.003223 -0.002266 0.000000 0.039513 0.000000
# 6 0.000000 0.000000 0.000000 -0.013946 0.000000 0.081229
#
#
# Mechanical properties :
#
#
# Convention : Reuss Voigt Hill
#
# Bulk Modulus (GPa) = 51.10716 68.70933 59.90824
# Shear Modulus (GPa) = 21.60329 40.10385 30.85357
#
# Velocity S-wave (km/s) = 3.39216 4.62178 4.05386
# Velocity P-wave (km/s) = 6.52411 8.06712 7.33629
#
# Compressibility (1/GPa) = 0.01956673
#
# Stress axis : x y z
#
# Youngs Moduli (GPa) = 34.78130 70.73156 76.07042
#
# Poissons Ratio (x) = 0.20358 0.83533
# Poissons Ratio (y) = 0.10011 0.33280
# Poissons Ratio (z) = 0.38193 0.30944
#
# Static dielectric constant tensor:
#      x y z
#    x 3.272190 0.000000 -0.017740 
#    y 0.000000 3.728830 0.000000 
#    z -0.017740 0.000000 3.600760 
# 
# 
# High freq. dielectric constant tensor:
#      x y z
#    x 1.710400 0.000000 0.000900 
#    y 0.000000 1.734330 0.000000 
#    z 0.000900 0.000000 1.734070 
# 
# From -- ./inp_files/75046.got.cif
#   From: 2010.06.25/outbox.cif.g09.slc.cpg/sg12_38_cif.got.tgz:75046.got - 2010.06.28 00:19:55.
