data_PCOD8092197
_publ_section_title
;
Structure prediction by ZEFSAII (Michael W. Deem and Ramdas Pophale) SiO2 
 PCOD8092197
Probable space group: C 2/M
;
_chemical_formula_sum "Si O2"
_cell_formula_units_Z 48
_cell_length_a 11.096512
_cell_length_b 18.739317
_cell_length_c 12.334782
_cell_angle_alpha 90.000000
_cell_angle_beta 72.280088
_cell_angle_gamma 90.000000
_cell_volume 2443.217511
_symmetry_space_group_name_H-M "C 2/M"
_symmetry_group_IT_number 12
_symmetry_cell_setting 'monoclinic'
loop_
_space_group_symop_operation_xyz
x,y,z
-x,y,-z
-x,-y,-z
x,-y,z
1/2+x,1/2+y,z
1/2-x,1/2+y,-z
1/2-x,1/2-y,-z
1/2+x,1/2-y,z
loop_
_atom_site_type_symbol
_atom_site_label
_atom_site_fract_x
_atom_site_fract_y
_atom_site_fract_z
Si Si1 0.449713 0.845394 0.899770
Si Si2 0.355927 0.306772 0.510413
Si Si3 0.789710 0.080411 0.099192
Si Si4 0.131414 0.156605 0.724514
Si Si5 0.208012 0.309502 0.750625
Si Si6 0.371775 0.688653 0.902812
O O1 0.358565 0.905233 0.876206
O O2 0.562948 0.835347 0.781768
O O3 0.372633 0.771127 0.942015
O O4 0.500000 0.873988 0.000000
O O5 0.500000 0.278098 0.500000
O O6 0.250000 0.250000 0.500000
O O7 0.366761 0.360827 0.404863
O O8 0.295588 0.345451 0.632877
O O9 0.820897 0.089660 0.218103
O O10 0.823021 0.000000 0.054711
O O11 0.872640 0.136141 0.005959
O O12 0.220322 0.224137 0.730617
O O13 0.989886 0.175766 0.794249
O O14 0.252205 0.329261 0.859662
#
# Coordination Sequence:
#
# PCOD8092197 Si02
#       6
#     8   8   8   8   8   8
#     4  11  21  36  60  86 118 157 197 246 300 363
#     4  10  20  34  58  94 126 156 196 253 309 359
#     4  12  25  39  57  85 121 159 201 249 305 364
#     4  10  21  35  58  84 123 153 196 242 299 359
#     4  10  19  34  59  90 117 151 193 245 299 351
#     4  11  19  36  60  87 118 151 195 245 296 357
#
# _framework density 19.646225000000001
#
# number of rings (size 3 to 8) (size 9 to 14) (size 15 to 20)
#    0.000    1.333    5.000    3.000    0.000    1.667 
#    0.000    0.000    0.000    3.500    0.000    0.000 
#    0.000    0.000    0.000    0.000    0.000    0.000 
#
# Total GULP energy -297436.453467 kJ/mol
# GULP energy per Si atom -12393.185561 kJ/mol
# Density = 1.960151 g / cm^3
# Si number density = 19.646225 Si / 1000 Ang^3
#
#
#
# Elastic Constant Matrix: (Units=GPa)
#
#
# Indices 1 2 3 4 5 6 
#
# 1 87.0136 9.1134 33.8404 0.0000 9.3627 0.0000
# 2 9.1134 66.6571 23.7954 0.0000 6.0046 0.0000
# 3 33.8404 23.7954 129.7829 0.0000 3.1823 0.0000
# 4 0.0000 0.0000 0.0000 12.2676 0.0000 5.2114
# 5 9.3627 6.0046 3.1823 0.0000 29.3511 0.0000
# 6 0.0000 0.0000 0.0000 5.2114 0.0000 11.0802
#
#
#
# Elastic Compliance Matrix: (Units=1/GPa)
#
#
# Indices 1 2 3 4 5 6 
#
# 1 0.013215 -0.000286 -0.003300 0.000000 -0.003799 0.000000
# 2 -0.000286 0.016322 -0.002846 0.000000 -0.002939 0.000000
# 3 -0.003300 -0.002846 0.009071 0.000000 0.000651 0.000000
# 4 0.000000 0.000000 0.000000 0.101869 0.000000 -0.047912
# 5 -0.003799 -0.002939 0.000651 0.000000 0.035813 0.000000
# 6 0.000000 0.000000 0.000000 -0.047912 0.000000 0.112786
#
#
# Mechanical properties :
#
#
# Convention : Reuss Voigt Hill
#
# Bulk Modulus (GPa) = 38.84478 46.32801 42.58640
# Shear Modulus (GPa) = 16.10195 24.98673 20.54434
#
# Velocity S-wave (km/s) = 2.86596 3.57015 3.23726
# Velocity P-wave (km/s) = 5.54678 6.37392 5.97468
#
# Compressibility (1/GPa) = 0.02574348
#
# Stress axis : x y z
#
# Youngs Moduli (GPa) = 75.67373 61.26704 110.23595
#
# Poissons Ratio (x) = 0.01755 0.36378
# Poissons Ratio (y) = 0.02168 0.31371
# Poissons Ratio (z) = 0.24972 0.17436
#
# Static dielectric constant tensor:
#      x y z
#    x 3.827470 0.000000 -0.028700 
#    y 0.000000 2.936170 0.000000 
#    z -0.028700 0.000000 3.974650 
# 
# 
# High freq. dielectric constant tensor:
#      x y z
#    x 1.792610 0.000000 -0.003860 
#    y 0.000000 1.682970 0.000000 
#    z -0.003860 0.000000 1.781130 
# 
# From -- ./inp_files/131016.got.cif
#   From: 2010.06.25/outbox.cif.g09.slc.cpg/sg12_66_cif.got.tgz:131016.got - 2010.06.28 00:19:55.
