data_PCOD8092283
_publ_section_title
;
Structure prediction by ZEFSAII (Michael W. Deem and Ramdas Pophale) SiO2 
 PCOD8092283
Probable space group: C 2/M
;
_chemical_formula_sum "Si O2"
_cell_formula_units_Z 64
_cell_length_a 19.327909
_cell_length_b 18.010185
_cell_length_c 9.980274
_cell_angle_alpha 90.000000
_cell_angle_beta 89.499221
_cell_angle_gamma 90.000000
_cell_volume 3473.992866
_symmetry_space_group_name_H-M "C 2/M"
_symmetry_group_IT_number 12
_symmetry_cell_setting 'monoclinic'
loop_
_space_group_symop_operation_xyz
x,y,z
-x,y,-z
-x,-y,-z
x,-y,z
1/2+x,1/2+y,z
1/2-x,1/2+y,-z
1/2-x,1/2-y,-z
1/2+x,1/2-y,z
loop_
_atom_site_type_symbol
_atom_site_label
_atom_site_fract_x
_atom_site_fract_y
_atom_site_fract_z
Si Si1 0.786103 0.413838 0.156945
Si Si2 0.690834 0.803163 0.059882
Si Si3 0.243258 0.331130 0.341142
Si Si4 0.129922 0.913942 0.740797
Si Si5 0.037499 0.784111 0.638199
Si Si6 0.328337 0.186571 0.390503
Si Si7 0.634900 0.415841 0.052914
Si Si8 0.947772 0.782666 0.885160
O O1 0.804651 0.500000 0.145046
O O2 0.814317 0.384453 0.297987
O O3 0.704151 0.399741 0.137156
O O4 0.826704 0.369592 0.041223
O O5 0.708129 0.841718 0.199241
O O6 0.623392 0.755723 0.080543
O O7 0.750000 0.750000 0.000000
O O8 0.303568 0.392966 0.351380
O O9 0.274078 0.248667 0.346919
O O10 0.186573 0.341245 0.458429
O O11 0.067562 0.861404 0.694376
O O12 0.110585 0.000000 0.717571
O O13 0.147556 0.896450 0.895872
O O14 0.094240 0.719008 0.622163
O O15 0.000000 0.800547 0.500000
O O16 0.979102 0.756951 0.743201
O O17 0.611421 0.500000 0.068903
O O18 0.570465 0.370269 0.114157
O O19 0.000000 0.760823 0.000000
#
# Coordination Sequence:
#
# PCOD8092283 Si02
#       8
#     8   8   8   8   8   8   8   8
#     4  11  22  37  61  90 122 152 193 256 319 360
#     4  12  20  36  62  88 118 155 205 262 303 352
#     4  10  19  34  61  85 112 160 205 246 299 352
#     4  10  20  36  57  88 127 160 194 244 299 363
#     4  11  24  40  57  83 121 163 207 247 296 361
#     4  10  21  38  56  85 120 153 203 262 300 345
#     4  10  20  35  56  88 125 158 193 239 296 367
#     4  12  22  35  59  87 114 162 206 242 297 361
#
# _framework density 18.422605000000001
#
# number of rings (size 3 to 8) (size 9 to 14) (size 15 to 20)
#    0.000    1.250    5.000    1.500    0.000    3.500 
#    0.000    1.250    0.000    3.750    0.000    0.000 
#    0.000    0.000    0.000    0.000    0.000    0.000 
#
# Total GULP energy -396821.689666 kJ/mol
# GULP energy per Si atom -12400.677802 kJ/mol
# Density = 1.838067 g / cm^3
# Si number density = 18.422605 Si / 1000 Ang^3
#
#
#
# Elastic Constant Matrix: (Units=GPa)
#
#
# Indices 1 2 3 4 5 6 
#
# 1 103.8333 39.1165 50.2392 0.0000 -13.4699 0.0000
# 2 39.1165 85.7105 45.3002 0.0000 -3.4938 0.0000
# 3 50.2392 45.3002 130.0648 0.0000 -10.4564 0.0000
# 4 0.0000 0.0000 0.0000 14.0981 0.0000 -4.3957
# 5 -13.4699 -3.4938 -10.4564 0.0000 36.4567 0.0000
# 6 0.0000 0.0000 0.0000 -4.3957 0.0000 14.4410
#
#
#
# Elastic Compliance Matrix: (Units=1/GPa)
#
#
# Indices 1 2 3 4 5 6 
#
# 1 0.013294 -0.004117 -0.003417 0.000000 0.003537 0.000000
# 2 -0.004117 0.015575 -0.003927 0.000000 -0.001155 0.000000
# 3 -0.003417 -0.003927 0.010486 0.000000 0.001369 0.000000
# 4 0.000000 0.000000 0.000000 0.078369 0.000000 0.023855
# 5 0.003537 -0.001155 0.001369 0.000000 0.029019 0.000000
# 6 0.000000 0.000000 0.000000 0.023855 0.000000 0.076508
#
#
# Mechanical properties :
#
#
# Convention : Reuss Voigt Hill
#
# Bulk Modulus (GPa) = 60.85333 65.43558 63.14446
# Shear Modulus (GPa) = 19.86889 25.32935 22.59912
#
# Velocity S-wave (km/s) = 3.28762 3.71199 3.50624
# Velocity P-wave (km/s) = 6.89310 7.34630 7.12331
#
# Compressibility (1/GPa) = 0.01643295
#
# Stress axis : x y z
#
# Youngs Moduli (GPa) = 75.22302 64.20717 95.36551
#
# Poissons Ratio (x) = 0.26434 0.32583
# Poissons Ratio (y) = 0.30970 0.37450
# Poissons Ratio (z) = 0.25701 0.25214
#
# Static dielectric constant tensor:
#      x y z
#    x -1.540010 0.000000 1.246840 
#    y 0.000000 3.427390 0.000000 
#    z 1.246840 0.000000 3.196590 
# 
# 
# High freq. dielectric constant tensor:
#      x y z
#    x 1.705550 0.000000 -0.000510 
#    y 0.000000 1.701140 0.000000 
#    z -0.000510 0.000000 1.722090 
# 
# From -- ./inp_files/87946.got.cif
#   From: 2010.06.25/outbox.cif.g09.slc.cpg/sg12_44_cif.got.tgz:87946.got - 2010.06.28 00:19:55.
