data_PCOD8092383
_publ_section_title
;
Structure prediction by ZEFSAII (Michael W. Deem and Ramdas Pophale) SiO2 
 PCOD8092383
Probable space group: C 2/M
;
_chemical_formula_sum "Si O2"
_cell_formula_units_Z 64
_cell_length_a 19.829639
_cell_length_b 13.566936
_cell_length_c 13.788418
_cell_angle_alpha 90.000000
_cell_angle_beta 126.935553
_cell_angle_gamma 90.000000
_cell_volume 2965.017916
_symmetry_space_group_name_H-M "C 2/M"
_symmetry_group_IT_number 12
_symmetry_cell_setting 'monoclinic'
loop_
_space_group_symop_operation_xyz
x,y,z
-x,y,-z
-x,-y,-z
x,-y,z
1/2+x,1/2+y,z
1/2-x,1/2+y,-z
1/2-x,1/2-y,-z
1/2+x,1/2-y,z
loop_
_atom_site_type_symbol
_atom_site_label
_atom_site_fract_x
_atom_site_fract_y
_atom_site_fract_z
Si Si1 0.412779 0.612353 0.462079
Si Si2 0.418378 0.887505 0.607294
Si Si3 0.239215 0.708469 0.595404
Si Si4 0.368984 0.109514 0.977459
Si Si5 0.826978 0.888639 0.191497
Si Si6 0.896010 0.886908 0.665771
Si Si7 0.176076 0.390089 0.270591
Si Si8 0.543687 0.751073 0.800496
O O1 0.500000 0.663529 0.500000
O O2 0.435144 0.500000 0.503088
O O3 0.341328 0.625494 0.318987
O O4 0.381969 0.653951 0.541270
O O5 0.352204 0.843917 0.469891
O O6 0.379043 0.877378 0.680840
O O7 0.505189 0.825513 0.685475
O O8 0.438112 0.000000 0.596450
O O9 0.250000 0.750000 0.500000
O O10 0.314314 0.626822 0.664134
O O11 0.255252 0.801296 0.680948
O O12 0.270746 0.129108 0.914791
O O13 0.384902 0.116224 0.875392
O O14 0.394123 0.000000 0.035911
O O15 0.425501 0.189047 0.079834
O O16 0.879134 0.808671 0.177494
O O17 0.854088 0.000000 0.184765
O O18 0.972669 0.824493 0.776639
O O19 0.922113 0.000000 0.689036
O O20 0.220694 0.500000 0.311179
#
# Coordination Sequence:
#
# PCOD8092383 Si02
#       8
#     8   8   8   8   8   8   8   8
#     4   9  17  30  52  85 115 137 169 228 293 336
#     4  10  21  36  56  85 118 148 185 229 279 340
#     4  10  19  35  53  87 117 151 179 217 288 350
#     4  10  23  39  59  83 111 149 193 242 286 327
#     4  10  21  37  58  87 115 144 187 237 289 338
#     4  11  21  34  56  84 118 150 184 231 284 337
#     4   9  19  37  59  87 116 143 183 236 283 331
#     4  12  21  36  54  83 116 152 193 230 283 332
#
# _framework density 21.58503
#
# number of rings (size 3 to 8) (size 9 to 14) (size 15 to 20)
#    0.000    1.875    3.750    1.500    3.500    1.000 
#    0.000    1.875    0.000    3.750    0.000   20.125 
#    0.000    0.000    0.000    0.000    0.000    0.000 
#
# Total GULP energy -396521.517213 kJ/mol
# GULP energy per Si atom -12391.297413 kJ/mol
# Density = 2.153590 g / cm^3
# Si number density = 21.585030 Si / 1000 Ang^3
#
#
#
# Elastic Constant Matrix: (Units=GPa)
#
#
# Indices 1 2 3 4 5 6 
#
# 1 47.4667 16.9495 14.4733 0.0000 -0.0569 0.0000
# 2 16.9495 125.0451 59.5178 0.0000 2.5358 0.0000
# 3 14.4733 59.5178 108.0348 0.0000 9.1669 0.0000
# 4 0.0000 0.0000 0.0000 43.4418 0.0000 5.4677
# 5 -0.0569 2.5358 9.1669 0.0000 20.7900 0.0000
# 6 0.0000 0.0000 0.0000 5.4677 0.0000 22.8434
#
#
#
# Elastic Compliance Matrix: (Units=1/GPa)
#
#
# Indices 1 2 3 4 5 6 
#
# 1 0.022421 -0.002150 -0.001919 0.000000 0.001170 0.000000
# 2 -0.002150 0.011083 -0.005924 0.000000 0.001254 0.000000
# 3 -0.001919 -0.005924 0.013210 0.000000 -0.005108 0.000000
# 4 0.000000 0.000000 0.000000 0.023734 0.000000 -0.005681
# 5 0.001170 0.001254 -0.005108 0.000000 0.050202 0.000000
# 6 0.000000 0.000000 0.000000 -0.005681 0.000000 0.045136
#
#
# Mechanical properties :
#
#
# Convention : Reuss Voigt Hill
#
# Bulk Modulus (GPa) = 37.41166 51.38087 44.39627
# Shear Modulus (GPa) = 25.68292 30.05545 27.86918
#
# Velocity S-wave (km/s) = 3.45316 3.73556 3.59713
# Velocity P-wave (km/s) = 5.76792 6.51625 6.15347
#
# Compressibility (1/GPa) = 0.02672963
#
# Stress axis : x y z
#
# Youngs Moduli (GPa) = 44.60015 90.23037 75.69800
#
# Poissons Ratio (x) = 0.19396 0.14525
# Poissons Ratio (y) = 0.09587 0.44844
# Poissons Ratio (z) = 0.08558 0.53453
#
# Static dielectric constant tensor:
#      x y z
#    x 1.308600 0.000000 1.592770 
#    y 0.000000 2.939190 0.000000 
#    z 1.592770 0.000000 3.699320 
# 
# 
# High freq. dielectric constant tensor:
#      x y z
#    x 1.826130 0.000000 0.033020 
#    y 0.000000 1.858270 0.000000 
#    z 0.033020 0.000000 1.824730 
# 
# From -- ./inp_files/240711.got.cif
#   From: 2010.06.25/outbox.cif.g09.slc.cpg/sg12_121_cif.got.tgz:240711.got - 2010.06.28 00:19:55.
