data_PCOD8092707
_publ_section_title
;
Structure prediction by ZEFSAII (Michael W. Deem and Ramdas Pophale) SiO2 
 PCOD8092707
Probable space group: C 2/M
;
_chemical_formula_sum "Si O2"
_cell_formula_units_Z 56
_cell_length_a 18.532710
_cell_length_b 8.971722
_cell_length_c 27.070946
_cell_angle_alpha 90.000000
_cell_angle_beta 141.023448
_cell_angle_gamma 90.000000
_cell_volume 2831.199030
_symmetry_space_group_name_H-M "C 2/M"
_symmetry_group_IT_number 12
_symmetry_cell_setting 'monoclinic'
loop_
_space_group_symop_operation_xyz
x,y,z
-x,y,-z
-x,-y,-z
x,-y,z
1/2+x,1/2+y,z
1/2-x,1/2+y,-z
1/2-x,1/2-y,-z
1/2+x,1/2-y,z
loop_
_atom_site_type_symbol
_atom_site_label
_atom_site_fract_x
_atom_site_fract_y
_atom_site_fract_z
Si Si1 0.334323 0.673319 0.505622
Si Si2 0.718324 0.177821 0.625048
Si Si3 0.834156 0.824156 0.203983
Si Si4 0.900752 0.171979 0.346690
Si Si5 0.116089 0.831571 0.042355
Si Si6 0.476113 0.676561 0.769789
Si Si7 0.367205 0.666186 0.061421
O O1 0.300351 0.500000 0.483072
O O2 0.250000 0.750000 0.500000
O O3 0.330231 0.751499 0.450483
O O4 0.464720 0.691813 0.593019
O O5 0.641487 0.227826 0.630483
O O6 0.847620 0.240711 0.699830
O O7 0.712718 0.000000 0.617924
O O8 0.836273 0.774303 0.262351
O O9 0.726515 0.759155 0.117538
O O10 0.950932 0.770268 0.239028
O O11 0.825077 0.000000 0.195348
O O12 0.873067 0.000000 0.344316
O O13 0.131693 0.000000 0.070621
O O14 0.088950 0.831529 0.970346
O O15 0.000000 0.755637 0.000000
O O16 0.465981 0.500000 0.766307
O O17 0.538336 0.739953 0.852159
O O18 0.343419 0.500000 0.068362
O O19 0.250000 0.750000 0.000000
#
# Coordination Sequence:
#
# PCOD8092707 Si02
#       7
#     8   8   8   8   8   8   8
#     4  11  23  42  67  91 122 158 196 239 290 348
#     4  11  23  39  63  92 121 156 197 240 291 350
#     4  10  20  38  60  80 109 151 197 239 286 348
#     4  10  23  41  60  86 121 159 194 239 297 350
#     4  10  22  36  54  81 115 149 188 239 296 348
#     4   9  19  36  58  82 112 152 194 237 291 350
#     4  10  19  35  57  80 109 149 193 238 289 345
#
# _framework density 19.779605
#
# number of rings (size 3 to 8) (size 9 to 14) (size 15 to 20)
#    0.000    1.857    1.429    2.143    2.000    6.000 
#    0.000    4.286    0.000    0.000    0.000    0.000 
#    0.000    0.000    0.000    0.000    0.000    0.000 
#
# Total GULP energy -347142.216821 kJ/mol
# GULP energy per Si atom -12397.936315 kJ/mol
# Density = 1.973459 g / cm^3
# Si number density = 19.779605 Si / 1000 Ang^3
#
#
#
# Elastic Constant Matrix: (Units=GPa)
#
#
# Indices 1 2 3 4 5 6 
#
# 1 117.3349 39.1658 28.2267 0.0000 -3.2249 0.0000
# 2 39.1658 63.8229 27.5747 0.0000 -5.2147 0.0000
# 3 28.2267 27.5747 90.2246 0.0000 -11.8782 0.0000
# 4 0.0000 0.0000 0.0000 27.5448 0.0000 1.1297
# 5 -3.2249 -5.2147 -11.8782 0.0000 41.1404 0.0000
# 6 0.0000 0.0000 0.0000 1.1297 0.0000 29.9249
#
#
#
# Elastic Compliance Matrix: (Units=1/GPa)
#
#
# Indices 1 2 3 4 5 6 
#
# 1 0.010915 -0.006028 -0.001622 0.000000 -0.000377 0.000000
# 2 -0.006028 0.021402 -0.004532 0.000000 0.000932 0.000000
# 3 -0.001622 -0.004532 0.013393 0.000000 0.003165 0.000000
# 4 0.000000 0.000000 0.000000 0.036361 0.000000 -0.001373
# 5 -0.000377 0.000932 0.003165 0.000000 0.025309 0.000000
# 6 0.000000 0.000000 0.000000 -0.001373 0.000000 0.033469
#
#
# Mechanical properties :
#
#
# Convention : Reuss Voigt Hill
#
# Bulk Modulus (GPa) = 46.85017 51.25743 49.05380
# Shear Modulus (GPa) = 29.01453 31.48303 30.24878
#
# Velocity S-wave (km/s) = 3.83416 3.99393 3.91486
# Velocity P-wave (km/s) = 6.58320 6.87308 6.72970
#
# Compressibility (1/GPa) = 0.02134464
#
# Stress axis : x y z
#
# Youngs Moduli (GPa) = 91.62104 46.72507 74.66708
#
# Poissons Ratio (x) = 0.28165 0.12111
# Poissons Ratio (y) = 0.55228 0.33842
# Poissons Ratio (z) = 0.14861 0.21178
#
# Static dielectric constant tensor:
#      x y z
#    x 3.990760 0.000000 0.003470 
#    y 0.000000 3.548990 0.000000 
#    z 0.003470 0.000000 3.492460 
# 
# 
# High freq. dielectric constant tensor:
#      x y z
#    x 1.783670 0.000000 -0.004320 
#    y 0.000000 1.750010 0.000000 
#    z -0.004320 0.000000 1.786150 
# 
# From -- ./inp_files/363228.got.cif
#   From: 2010.06.25/outbox.cif.g09.slc.cpg/sg12_182_cif.got.tgz:363228.got - 2010.06.28 00:19:55.
