data_PCOD8092155
_publ_section_title
;
Structure prediction by ZEFSAII (Michael W. Deem and Ramdas Pophale) SiO2 
 PCOD8092155
Probable space group: C 2/M
;
_chemical_formula_sum "Si O2"
_cell_formula_units_Z 56
_cell_length_a 19.630664
_cell_length_b 30.638118
_cell_length_c 8.309587
_cell_angle_alpha 90.000000
_cell_angle_beta 149.417495
_cell_angle_gamma 90.000000
_cell_volume 2542.759716
_symmetry_space_group_name_H-M "C 2/M"
_symmetry_group_IT_number 12
_symmetry_cell_setting 'monoclinic'
loop_
_space_group_symop_operation_xyz
x,y,z
-x,y,-z
-x,-y,-z
x,-y,z
1/2+x,1/2+y,z
1/2-x,1/2+y,-z
1/2-x,1/2-y,-z
1/2+x,1/2-y,z
loop_
_atom_site_type_symbol
_atom_site_label
_atom_site_fract_x
_atom_site_fract_y
_atom_site_fract_z
Si Si1 0.373335 0.668736 0.848015
Si Si2 0.249579 0.591742 0.776710
Si Si3 0.258359 0.609732 0.171464
Si Si4 0.520350 0.048868 0.730744
Si Si5 0.739528 0.794910 0.282280
Si Si6 0.500896 0.739858 0.690621
Si Si7 0.511163 0.547031 0.333954
O O1 0.274808 0.631356 0.707503
O O2 0.277274 0.699971 0.546531
O O3 0.500000 0.651914 0.000000
O O4 0.432122 0.694124 0.121731
O O5 0.110253 0.568875 0.449818
O O6 0.252823 0.608543 0.967132
O O7 0.363518 0.556521 0.968454
O O8 0.254173 0.659317 0.219105
O O9 0.392308 0.587204 0.513896
O O10 0.140176 0.581857 0.012295
O O11 0.500000 0.045559 0.500000
O O12 0.549367 0.000000 0.856921
O O13 0.845256 0.759480 0.426709
O O14 0.587223 0.778399 0.950040
O O15 0.500000 0.746337 0.500000
O O16 0.500000 0.542695 0.500000
O O17 0.560884 0.500000 0.365461
#
# Coordination Sequence:
#
# PCOD8092155 Si02
#       7
#     8   8   8   8   8   8   8
#     4  10  22  40  61  87 123 160 199 245 301 361
#     4  10  19  34  59  87 117 155 200 245 290 348
#     4  10  20  35  57  87 119 153 196 244 298 355
#     4   9  18  33  56  88 122 154 196 250 297 342
#     4  11  24  41  61  87 120 156 196 244 304 365
#     4  11  23  41  64  89 117 150 197 251 302 359
#     4   9  16  28  52  84 115 150 194 241 285 332
#
# _framework density 22.023315
#
# number of rings (size 3 to 8) (size 9 to 14) (size 15 to 20)
#    0.000    2.000    0.000    4.286    0.000    7.429 
#    0.000    2.143    0.000   10.286    0.000    0.000 
#    0.000    0.000    0.000    0.000    0.000    0.000 
#
# Total GULP energy -347105.233887 kJ/mol
# GULP energy per Si atom -12396.615496 kJ/mol
# Density = 2.197319 g / cm^3
# Si number density = 22.023315 Si / 1000 Ang^3
#
#
#
# Elastic Constant Matrix: (Units=GPa)
#
#
# Indices 1 2 3 4 5 6 
#
# 1 52.9047 29.4755 39.7629 0.0000 18.7019 0.0000
# 2 29.4755 105.8432 34.0992 0.0000 30.3306 0.0000
# 3 39.7629 34.0992 99.6820 0.0000 25.9906 0.0000
# 4 0.0000 0.0000 0.0000 37.5999 0.0000 13.3148
# 5 18.7019 30.3306 25.9906 0.0000 42.2181 0.0000
# 6 0.0000 0.0000 0.0000 13.3148 0.0000 23.8646
#
#
#
# Elastic Compliance Matrix: (Units=1/GPa)
#
#
# Indices 1 2 3 4 5 6 
#
# 1 0.029728 -0.003965 -0.009305 0.000000 -0.004592 0.000000
# 2 -0.003965 0.012843 -0.001029 0.000000 -0.006837 0.000000
# 3 -0.009305 -0.001029 0.015281 0.000000 -0.004546 0.000000
# 4 0.000000 0.000000 0.000000 0.033144 0.000000 -0.018492
# 5 -0.004592 -0.006837 -0.004546 0.000000 0.033431 0.000000
# 6 0.000000 0.000000 0.000000 -0.018492 0.000000 0.052220
#
#
# Mechanical properties :
#
#
# Convention : Reuss Voigt Hill
#
# Bulk Modulus (GPa) = 34.18355 51.67832 42.93094
# Shear Modulus (GPa) = 23.25630 31.07602 27.16616
#
# Velocity S-wave (km/s) = 3.25312 3.76047 3.51596
# Velocity P-wave (km/s) = 5.44661 6.50931 6.00153
#
# Compressibility (1/GPa) = 0.02925384
#
# Stress axis : x y z
#
# Youngs Moduli (GPa) = 33.63882 77.86479 65.44145
#
# Poissons Ratio (x) = 0.30874 0.60890
# Poissons Ratio (y) = 0.13338 0.06734
# Poissons Ratio (z) = 0.31299 0.08013
#
# Static dielectric constant tensor:
#      x y z
#    x 3.788850 0.000000 0.252460 
#    y 0.000000 4.018740 0.000000 
#    z 0.252460 0.000000 4.240280 
# 
# 
# High freq. dielectric constant tensor:
#      x y z
#    x 1.844660 0.000000 0.015010 
#    y 0.000000 1.869350 0.000000 
#    z 0.015010 0.000000 1.866480 
# 
# From -- ./inp_files/91648.got.cif
#   From: 2010.06.25/outbox.cif.g09.slc.cpg/sg12_46_cif.got.tgz:91648.got - 2010.06.28 00:19:55.
