data_PCOD8092179
_publ_section_title
;
Structure prediction by ZEFSAII (Michael W. Deem and Ramdas Pophale) SiO2 
 PCOD8092179
Probable space group: C 2/M
;
_chemical_formula_sum "Si O2"
_cell_formula_units_Z 48
_cell_length_a 15.309863
_cell_length_b 17.510537
_cell_length_c 17.509091
_cell_angle_alpha 90.000000
_cell_angle_beta 30.957729
_cell_angle_gamma 90.000000
_cell_volume 2414.571164
_symmetry_space_group_name_H-M "C 2/M"
_symmetry_group_IT_number 12
_symmetry_cell_setting 'monoclinic'
loop_
_space_group_symop_operation_xyz
x,y,z
-x,y,-z
-x,-y,-z
x,-y,z
1/2+x,1/2+y,z
1/2-x,1/2+y,-z
1/2-x,1/2-y,-z
1/2+x,1/2-y,z
loop_
_atom_site_type_symbol
_atom_site_label
_atom_site_fract_x
_atom_site_fract_y
_atom_site_fract_z
Si Si1 0.346264 0.914555 0.565927
Si Si2 0.191572 0.085281 0.377980
Si Si3 0.296878 0.206340 0.889851
Si Si4 0.830214 0.290423 0.159178
Si Si5 0.326482 0.168657 0.421757
Si Si6 0.467043 0.367986 0.107704
O O1 0.500000 0.875522 0.500000
O O2 0.327828 0.874599 0.499884
O O3 0.163328 0.917562 0.745313
O O4 0.404451 0.000000 0.505012
O O5 0.251343 0.144662 0.269658
O O6 0.213016 0.122821 0.445627
O O7 0.000000 0.071791 0.500000
O O8 0.278698 0.000000 0.310339
O O9 0.289151 0.261056 0.820713
O O10 0.485384 0.173073 0.754521
O O11 0.250000 0.250000 0.000000
O O12 0.159218 0.137589 0.994888
O O13 0.883871 0.216521 0.168245
O O14 0.000000 0.329283 0.000000
O O15 0.250000 0.250000 0.500000
O O16 0.500000 0.404608 0.000000
#
# Coordination Sequence:
#
# PCOD8092179 Si02
#       6
#     8   8   8   8   8   8
#     4  11  23  39  60  90 126 159 196 245 308 377
#     4  11  24  40  56  80 118 158 197 244 298 356
#     4  10  19  34  59  89 116 145 196 255 301 350
#     4   9  18  35  58  83 112 146 192 239 286 349
#     4  12  23  38  64  89 116 156 205 257 305 362
#     4   9  19  36  57  83 116 152 192 242 296 359
#
# _framework density 19.879307000000001
#
# number of rings (size 3 to 8) (size 9 to 14) (size 15 to 20)
#    0.000    2.000    0.000    7.500    0.000    2.000 
#    0.000    1.667    0.000    0.000    0.000    0.000 
#    0.000    0.000    0.000    0.000    0.000    0.000 
#
# Total GULP energy -297356.022340 kJ/mol
# GULP energy per Si atom -12389.834264 kJ/mol
# Density = 1.983406 g / cm^3
# Si number density = 19.879307 Si / 1000 Ang^3
#
#
#
# Elastic Constant Matrix: (Units=GPa)
#
#
# Indices 1 2 3 4 5 6 
#
# 1 129.5195 39.3217 35.8554 -0.0395 1.0519 -0.0319
# 2 39.3217 90.8140 20.7717 -0.0238 8.5421 -0.0072
# 3 35.8554 20.7717 105.0250 0.0159 -1.1296 0.0489
# 4 -0.0395 -0.0238 0.0159 295.1205 -0.0366 301.5593
# 5 1.0519 8.5421 -1.1296 -0.0366 36.2328 -0.0471
# 6 -0.0319 -0.0072 0.0489 301.5593 -0.0471 344.8915
#
#
#
# Elastic Compliance Matrix: (Units=1/GPa)
#
#
# Indices 1 2 3 4 5 6 
#
# 1 0.009505 -0.003583 -0.002531 -0.000001 0.000490 0.000002
# 2 -0.003583 0.013173 -0.001415 0.000005 -0.003046 -0.000005
# 3 -0.002531 -0.001415 0.010673 0.000007 0.000740 -0.000008
# 4 -0.000001 0.000005 0.000007 0.031797 -0.000005 -0.027802
# 5 0.000490 -0.003046 0.000740 -0.000005 0.028326 0.000008
# 6 0.000002 -0.000005 -0.000008 -0.027802 0.000008 0.027209
#
#
# Mechanical properties :
#
#
# Convention : Reuss Voigt Hill
#
# Bulk Modulus (GPa) = 54.66320 57.47288 56.06804
# Shear Modulus (GPa) = 35.25101 150.54294 92.89698
#
# Velocity S-wave (km/s) = 4.21557 8.71165 6.84339
# Velocity P-wave (km/s) = 7.15904 11.40895 9.52408
#
# Compressibility (1/GPa) = 0.01829384
#
# Stress axis : x y z
#
# Youngs Moduli (GPa) = 105.20405 75.91300 93.69004
#
# Poissons Ratio (x) = 0.27198 0.23715
# Poissons Ratio (y) = 0.37693 0.13256
# Poissons Ratio (z) = 0.26630 0.10741
#
# Static dielectric constant tensor:
#      x y z
#    x 3.845790 -0.000040 -0.118090 
#    y -0.000040 3.535000 0.000040 
#    z -0.118090 0.000040 3.824240 
# 
# 
# High freq. dielectric constant tensor:
#      x y z
#    x 1.787900 0.000000 -0.001010 
#    y 0.000000 1.757430 0.000010 
#    z -0.001010 0.000010 1.782630 
# 
# From -- ./inp_files/271579.got.cif
#   From: 2010.06.25/outbox.cif.g09.slc.cpg/sg12_136_cif.got.tgz:271579.got - 2010.06.28 00:19:55.
