data_PCOD8092333
_publ_section_title
;
Structure prediction by ZEFSAII (Michael W. Deem and Ramdas Pophale) SiO2 
 PCOD8092333
Probable space group: C 2/M
;
_chemical_formula_sum "Si O2"
_cell_formula_units_Z 44
_cell_length_a 14.326462
_cell_length_b 23.232939
_cell_length_c 11.468069
_cell_angle_alpha 90.000000
_cell_angle_beta 148.721222
_cell_angle_gamma 90.000000
_cell_volume 1981.847585
_symmetry_space_group_name_H-M "C 2/M"
_symmetry_group_IT_number 12
_symmetry_cell_setting 'monoclinic'
loop_
_space_group_symop_operation_xyz
x,y,z
-x,y,-z
-x,-y,-z
x,-y,z
1/2+x,1/2+y,z
1/2-x,1/2+y,-z
1/2-x,1/2-y,-z
1/2+x,1/2-y,z
loop_
_atom_site_type_symbol
_atom_site_label
_atom_site_fract_x
_atom_site_fract_y
_atom_site_fract_z
Si Si1 0.997319 0.500000 0.773645
Si Si2 0.110022 0.874787 0.844328
Si Si3 0.123173 0.000000 0.910718
Si Si4 0.764065 0.816835 0.539455
Si Si5 0.696395 0.500000 0.268827
Si Si6 0.046443 0.377110 0.920610
Si Si7 0.789799 0.375121 0.282173
O O1 0.803406 0.500000 0.505641
O O2 0.018668 0.445246 0.879461
O O3 0.157663 0.500000 0.847072
O O4 0.059628 0.942446 0.777190
O O5 0.927954 0.839207 0.634343
O O6 0.248930 0.858640 0.889943
O O7 0.198855 0.859052 0.063151
O O8 0.020975 0.000000 0.928711
O O9 0.750000 0.750000 0.500000
O O10 0.579454 0.846255 0.306534
O O11 0.797629 0.835096 0.710054
O O12 0.753132 0.442517 0.261840
O O13 0.000000 0.355911 0.000000
O O14 0.000000 0.362469 0.500000
#
# Coordination Sequence:
#
# PCOD8092333 Si02
#       7
#     4   8   4   8   4   8   8
#     4  10  19  40  65  96 135 178 212 266 335 401
#     4  11  23  43  69 101 137 171 214 282 345 402
#     4  10  19  34  64 102 134 163 205 259 345 418
#     4  12  27  46  66  95 129 183 231 271 332 389
#     4  12  20  36  68 105 144 167 199 273 353 419
#     4  11  24  45  67  96 132 176 229 276 327 398
#     4  12  22  42  70 105 140 170 212 279 351 408
#
# _framework density 22.201505000000001
#
# number of rings (size 3 to 8) (size 9 to 14) (size 15 to 20)
#    0.000    0.727    5.455    2.727    0.000    3.636 
#    3.273    0.000    0.000    6.545    0.000    0.000 
#    0.000    0.000    0.000    0.000    0.000    0.000 
#
# Total GULP energy -272849.257275 kJ/mol
# GULP energy per Si atom -12402.238967 kJ/mol
# Density = 2.215097 g / cm^3
# Si number density = 22.201505 Si / 1000 Ang^3
#
#
#
# Elastic Constant Matrix: (Units=GPa)
#
#
# Indices 1 2 3 4 5 6 
#
# 1 149.7778 38.8878 21.3196 0.0000 17.9070 0.0000
# 2 38.8878 134.5714 26.4172 0.0000 16.4508 0.0000
# 3 21.3196 26.4172 51.1856 0.0000 24.2745 0.0000
# 4 0.0000 0.0000 0.0000 8.1888 0.0000 -6.0770
# 5 17.9070 16.4508 24.2745 0.0000 43.6906 0.0000
# 6 0.0000 0.0000 0.0000 -6.0770 0.0000 2.3817
#
#
#
# Elastic Compliance Matrix: (Units=1/GPa)
#
#
# Indices 1 2 3 4 5 6 
#
# 1 0.007520 -0.001681 -0.001497 0.000000 -0.001617 0.000000
# 2 -0.001681 0.008678 -0.003470 0.000000 -0.000650 0.000000
# 3 -0.001497 -0.003470 0.028568 0.000000 -0.013952 0.000000
# 4 0.000000 0.000000 0.000000 -0.136675 0.000000 -0.348726
# 5 -0.001617 -0.000650 -0.013952 0.000000 0.031548 0.000000
# 6 0.000000 0.000000 0.000000 -0.348726 0.000000 -0.469912
#
#
# Mechanical properties :
#
#
# Convention : Reuss Voigt Hill
#
# Bulk Modulus (GPa) = 31.77841 56.53154 44.15498
# Shear Modulus (GPa) = -9.87190 27.44623 8.78716
#
# Velocity S-wave (km/s) = -2.11096 3.51982 1.99161
# Velocity P-wave (km/s) = 2.89882 6.48360 5.02196
#
# Compressibility (1/GPa) = 0.03146790
#
# Stress axis : x y z
#
# Youngs Moduli (GPa) = 132.98655 115.24043 35.00427
#
# Poissons Ratio (x) = 0.19376 0.05242
# Poissons Ratio (y) = 0.22360 0.12146
# Poissons Ratio (z) = 0.19914 0.39985
#
# Static dielectric constant tensor:
#      x y z
#    x 4.169440 0.000000 0.340170 
#    y 0.000000 3.675300 0.000000 
#    z 0.340170 0.000000 4.024230 
# 
# 
# High freq. dielectric constant tensor:
#      x y z
#    x 1.884280 0.000000 0.024190 
#    y 0.000000 1.853490 0.000000 
#    z 0.024190 0.000000 1.873610 
# 
# From -- ./inp_files/149566.got.cif
#   From: 2010.06.25/outbox.cif.g09.slc.cpg/sg12_75_cif.got.tgz:149566.got - 2010.06.28 00:19:55.
