data_PCOD8092220
_publ_section_title
;
Structure prediction by ZEFSAII (Michael W. Deem and Ramdas Pophale) SiO2 
 PCOD8092220
Probable space group: C 2/M
;
_chemical_formula_sum "Si O2"
_cell_formula_units_Z 44
_cell_length_a 14.730339
_cell_length_b 18.386727
_cell_length_c 11.217578
_cell_angle_alpha 90.000000
_cell_angle_beta 51.636958
_cell_angle_gamma 90.000000
_cell_volume 2382.233762
_symmetry_space_group_name_H-M "C 2/M"
_symmetry_group_IT_number 12
_symmetry_cell_setting 'monoclinic'
loop_
_space_group_symop_operation_xyz
x,y,z
-x,y,-z
-x,-y,-z
x,-y,z
1/2+x,1/2+y,z
1/2-x,1/2+y,-z
1/2-x,1/2-y,-z
1/2+x,1/2-y,z
loop_
_atom_site_type_symbol
_atom_site_label
_atom_site_fract_x
_atom_site_fract_y
_atom_site_fract_z
Si Si1 0.662468 0.580783 0.098074
Si Si2 0.058390 0.868588 0.833945
Si Si3 0.211646 0.585122 0.234001
Si Si4 0.635388 0.712211 0.555130
Si Si5 0.500000 0.179771 0.500000
Si Si6 0.864012 0.081912 0.617437
O O1 0.706382 0.500000 0.083595
O O2 0.532116 0.574985 0.151169
O O3 0.668666 0.616405 0.225305
O O4 0.747993 0.616016 0.929154
O O5 0.182928 0.905075 0.758084
O O6 0.068283 0.804434 0.731168
O O7 0.000000 0.835357 0.000000
O O8 0.180433 0.500000 0.254264
O O9 0.098921 0.629351 0.363497
O O10 0.750000 0.750000 0.500000
O O11 0.553266 0.767303 0.553843
O O12 0.674354 0.639767 0.450778
O O13 0.000000 0.074134 0.500000
O O14 0.811204 0.000000 0.638967
#
# Coordination Sequence:
#
# PCOD8092220 Si02
#       6
#     8   8   8   8   4   8
#     4   9  17  33  58  88 114 141 189 249 288 325
#     4  10  19  35  56  84 111 147 190 240 293 331
#     4  10  21  36  57  84 116 154 193 233 283 342
#     4  12  23  40  55  83 120 151 189 233 281 341
#     4  12  23  40  57  80 118 162 192 228 283 350
#     4  10  19  34  60  84 106 141 185 236 288 331
#
# _framework density 18.47006
#
# number of rings (size 3 to 8) (size 9 to 14) (size 15 to 20)
#    0.000    1.636    4.545    0.818    0.000    2.909 
#    3.273    2.727    0.000    0.000    0.000    3.818 
#    0.000    0.000    0.000    0.000    0.000    0.000 
#
# Total GULP energy -272542.569943 kJ/mol
# GULP energy per Si atom -12388.298634 kJ/mol
# Density = 1.842802 g / cm^3
# Si number density = 18.470060 Si / 1000 Ang^3
#
#
#
# Elastic Constant Matrix: (Units=GPa)
#
#
# Indices 1 2 3 4 5 6 
#
# 1 91.4993 53.5909 53.2354 0.0000 7.3552 0.0000
# 2 53.5909 103.0938 61.8183 0.0000 7.3083 0.0000
# 3 53.2354 61.8183 142.0393 0.0000 14.8235 0.0000
# 4 0.0000 0.0000 0.0000 28.0224 0.0000 -25.3647
# 5 7.3552 7.3083 14.8235 0.0000 33.5025 0.0000
# 6 0.0000 0.0000 0.0000 -25.3647 0.0000 101.7433
#
#
#
# Elastic Compliance Matrix: (Units=1/GPa)
#
#
# Indices 1 2 3 4 5 6 
#
# 1 0.016854 -0.006721 -0.003311 0.000000 -0.000769 0.000000
# 2 -0.006721 0.015809 -0.004357 0.000000 -0.000045 0.000000
# 3 -0.003311 -0.004357 0.010487 0.000000 -0.002963 0.000000
# 4 0.000000 0.000000 0.000000 0.046085 0.000000 0.011489
# 5 -0.000769 -0.000045 -0.002963 0.000000 0.031338 0.000000
# 6 0.000000 0.000000 0.000000 0.011489 0.000000 0.012693
#
#
# Mechanical properties :
#
#
# Convention : Reuss Voigt Hill
#
# Bulk Modulus (GPa) = 69.58163 74.88019 72.23091
# Shear Modulus (GPa) = 29.96969 43.85282 36.91126
#
# Velocity S-wave (km/s) = 4.03253 4.87793 4.47524
# Velocity P-wave (km/s) = 7.70949 8.50617 8.11761
#
# Compressibility (1/GPa) = 0.01437161
#
# Stress axis : x y z
#
# Youngs Moduli (GPa) = 59.33329 63.25356 95.35838
#
# Poissons Ratio (x) = 0.42513 0.31577
# Poissons Ratio (y) = 0.39878 0.41546
# Poissons Ratio (z) = 0.19648 0.27559
#
# Static dielectric constant tensor:
#      x y z
#    x 3.341370 0.000000 0.323830 
#    y 0.000000 3.521940 0.000000 
#    z 0.323830 0.000000 3.547160 
# 
# 
# High freq. dielectric constant tensor:
#      x y z
#    x 1.700880 0.000000 0.021280 
#    y 0.000000 1.700300 0.000000 
#    z 0.021280 0.000000 1.729480 
# 
# From -- ./inp_files/145329.got.cif
#   From: 2010.06.25/outbox.cif.g09.slc.cpg/sg12_73_cif.got.tgz:145329.got - 2010.06.28 00:19:55.
