data_PCOD8092837
_publ_section_title
;
Structure prediction by ZEFSAII (Michael W. Deem and Ramdas Pophale) SiO2 
 PCOD8092837
Probable space group: C 2/M
;
_chemical_formula_sum "Si O2"
_cell_formula_units_Z 48
_cell_length_a 15.678358
_cell_length_b 10.691230
_cell_length_c 14.891077
_cell_angle_alpha 90.000000
_cell_angle_beta 98.368816
_cell_angle_gamma 90.000000
_cell_volume 2469.477426
_symmetry_space_group_name_H-M "C 2/M"
_symmetry_group_IT_number 12
_symmetry_cell_setting 'monoclinic'
loop_
_space_group_symop_operation_xyz
x,y,z
-x,y,-z
-x,-y,-z
x,-y,z
1/2+x,1/2+y,z
1/2-x,1/2+y,-z
1/2-x,1/2-y,-z
1/2+x,1/2-y,z
loop_
_atom_site_type_symbol
_atom_site_label
_atom_site_fract_x
_atom_site_fract_y
_atom_site_fract_z
Si Si1 0.215078 0.360471 0.193568
Si Si2 0.465830 0.142981 0.339940
Si Si3 0.191189 0.364786 0.574319
Si Si4 0.094679 0.353259 0.012290
Si Si5 0.154373 0.303098 0.373008
Si Si6 0.159174 0.643476 0.833063
O O1 0.252467 0.500000 0.174257
O O2 0.144602 0.317051 0.110059
O O3 0.171614 0.378555 0.284286
O O4 0.282874 0.247360 0.207856
O O5 0.392415 0.204108 0.394630
O O6 0.552171 0.226926 0.362260
O O7 0.432312 0.145004 0.232375
O O8 0.490390 0.000000 0.371760
O O9 0.186568 0.500000 0.619460
O O10 0.183748 0.377885 0.466057
O O11 0.285264 0.318378 0.617874
O O12 0.083222 0.500000 0.999905
O O13 0.146540 0.306820 0.932510
O O14 0.000000 0.289893 0.000000
O O15 0.197012 0.500000 0.836122
#
# Coordination Sequence:
#
# PCOD8092837 Si02
#       6
#     8   8   8   8   8   8
#     4  11  21  34  54  83 114 144 181 231 284 329
#     4  10  19  35  58  81 106 143 192 233 269 327
#     4  10  21  37  56  80 111 145 188 236 284 335
#     4   9  18  33  55  82 109 140 184 232 273 323
#     4  11  21  34  58  82 111 145 188 233 284 331
#     4  10  20  36  57  81 110 147 187 226 273 334
#
# _framework density 19.437311000000001
#
# number of rings (size 3 to 8) (size 9 to 14) (size 15 to 20)
#    0.000    1.833    1.667    3.500    0.000    4.000 
#    0.000    0.833    0.000    6.000    0.000    0.000 
#    0.000    0.000    0.000    0.000    0.000    0.000 
#
# Total GULP energy -297328.104785 kJ/mol
# GULP energy per Si atom -12388.671033 kJ/mol
# Density = 1.939307 g / cm^3
# Si number density = 19.437311 Si / 1000 Ang^3
#
#
#
# Elastic Constant Matrix: (Units=GPa)
#
#
# Indices 1 2 3 4 5 6 
#
# 1 148.7295 52.6302 40.3154 0.0000 1.7698 0.0000
# 2 52.6302 65.6165 14.1264 0.0000 1.9335 0.0000
# 3 40.3154 14.1264 130.6889 0.0000 -0.4689 0.0000
# 4 0.0000 0.0000 0.0000 8.7441 0.0000 -6.8794
# 5 1.7698 1.9335 -0.4689 0.0000 31.6019 0.0000
# 6 0.0000 0.0000 0.0000 -6.8794 0.0000 17.0709
#
#
#
# Elastic Compliance Matrix: (Units=1/GPa)
#
#
# Indices 1 2 3 4 5 6 
#
# 1 0.010007 -0.007533 -0.002273 0.000000 -0.000133 0.000000
# 2 -0.007533 0.021305 0.000018 0.000000 -0.000881 0.000000
# 3 -0.002273 0.000018 0.008352 0.000000 0.000250 0.000000
# 4 0.000000 0.000000 0.000000 0.167454 0.000000 0.067482
# 5 -0.000133 -0.000881 0.000250 0.000000 0.031709 0.000000
# 6 0.000000 0.000000 0.000000 0.067482 0.000000 0.085774
#
#
# Mechanical properties :
#
#
# Convention : Reuss Voigt Hill
#
# Bulk Modulus (GPa) = 49.78495 62.13101 55.95798
# Shear Modulus (GPa) = 14.25016 27.34759 20.79888
#
# Velocity S-wave (km/s) = 2.71058 3.75502 3.27471
# Velocity P-wave (km/s) = 5.95525 7.12983 6.56885
#
# Compressibility (1/GPa) = 0.02008639
#
# Stress axis : x y z
#
# Youngs Moduli (GPa) = 99.92842 46.93838 119.73208
#
# Poissons Ratio (x) = 0.35360 0.27218
# Poissons Ratio (y) = 0.75279 -0.00214
# Poissons Ratio (z) = 0.22716 -0.00084
#
# Static dielectric constant tensor:
#      x y z
#    x 3.535790 0.000000 -0.043540 
#    y 0.000000 3.172640 0.000000 
#    z -0.043540 0.000000 3.783140 
# 
# 
# High freq. dielectric constant tensor:
#      x y z
#    x 1.751180 0.000000 -0.000380 
#    y 0.000000 1.706910 0.000000 
#    z -0.000380 0.000000 1.784910 
# 
# From -- ./inp_files/212747.got.cif
#   From: 2010.06.25/outbox.cif.g09.slc.cpg/sg12_107_cif.got.tgz:212747.got - 2010.06.28 00:19:55.
