data_PCOD8092064
_publ_section_title
;
Structure prediction by ZEFSAII (Michael W. Deem and Ramdas Pophale) SiO2 
 PCOD8092064
Probable space group: C 2/M
;
_chemical_formula_sum "Si O2"
_cell_formula_units_Z 56
_cell_length_a 20.233129
_cell_length_b 8.581040
_cell_length_c 29.765692
_cell_angle_alpha 90.000000
_cell_angle_beta 146.368414
_cell_angle_gamma 90.000000
_cell_volume 2862.276735
_symmetry_space_group_name_H-M "C 2/M"
_symmetry_group_IT_number 12
_symmetry_cell_setting 'monoclinic'
loop_
_space_group_symop_operation_xyz
x,y,z
-x,y,-z
-x,-y,-z
x,-y,z
1/2+x,1/2+y,z
1/2-x,1/2+y,-z
1/2-x,1/2-y,-z
1/2+x,1/2-y,z
loop_
_atom_site_type_symbol
_atom_site_label
_atom_site_fract_x
_atom_site_fract_y
_atom_site_fract_z
Si Si1 0.673981 0.819777 0.738880
Si Si2 0.305619 0.318983 0.152739
Si Si3 0.451688 0.319103 0.759587
Si Si4 0.063204 0.818874 0.989513
Si Si5 0.782051 0.180699 0.583604
Si Si6 0.600749 0.820189 0.176466
Si Si7 0.567653 0.319114 0.417526
O O1 0.684920 0.715666 0.789320
O O2 0.784264 0.784826 0.768680
O O3 0.552917 0.778851 0.643893
O O4 0.676551 0.000000 0.754095
O O5 0.275394 0.500000 0.129553
O O6 0.428677 0.272863 0.198851
O O7 0.202963 0.217655 0.071397
O O8 0.453543 0.500000 0.774431
O O9 0.338968 0.282194 0.663950
O O10 0.442948 0.212574 0.798092
O O11 0.007171 0.719111 0.917928
O O12 0.043223 0.000000 0.967842
O O13 0.000000 0.769663 0.000000
O O14 0.659976 0.278011 0.509639
O O15 0.875572 0.230247 0.598010
O O16 0.750524 0.000000 0.560149
O O17 0.635262 0.000000 0.190954
O O18 0.535039 0.500000 0.400682
#
# Coordination Sequence:
#
# PCOD8092064 Si02
#       7
#     8   8   8   8   8   8   8
#     4  12  23  38  61  90 122 160 203 250 301 359
#     4  11  22  39  65  93 121 158 201 251 300 354
#     4  10  22  42  63  88 126 163 199 245 303 363
#     4  11  23  40  63  92 122 158 201 249 300 358
#     4   9  18  35  58  88 123 161 197 243 302 356
#     4  12  26  42  63  89 121 161 203 250 304 361
#     4  10  19  34  58  91 123 156 201 252 297 351
#
# _framework density 19.564844999999998
#
# number of rings (size 3 to 8) (size 9 to 14) (size 15 to 20)
#    0.000    1.286    2.857    3.857    0.000    3.429 
#    0.000    0.714    0.000    4.286    0.000    0.000 
#    0.000    0.000    0.000    0.000    0.000    0.000 
#
# Total GULP energy -347394.718023 kJ/mol
# GULP energy per Si atom -12406.954215 kJ/mol
# Density = 1.952031 g / cm^3
# Si number density = 19.564845 Si / 1000 Ang^3
#
#
#
# Elastic Constant Matrix: (Units=GPa)
#
#
# Indices 1 2 3 4 5 6 
#
# 1 75.4932 23.8565 31.4427 0.0001 -3.0763 -0.0002
# 2 23.8565 65.6144 30.5611 0.0002 -1.9930 -0.0008
# 3 31.4427 30.5611 117.0560 0.0000 5.5457 -0.0001
# 4 0.0001 0.0002 0.0000 36.6893 0.0000 0.9551
# 5 -3.0763 -1.9930 5.5457 0.0000 31.3958 0.0000
# 6 -0.0002 -0.0008 -0.0001 0.9551 0.0000 25.9705
#
#
#
# Elastic Compliance Matrix: (Units=1/GPa)
#
#
# Indices 1 2 3 4 5 6 
#
# 1 0.016033 -0.004240 -0.003289 0.000000 0.001883 0.000000
# 2 -0.004240 0.018587 -0.003782 0.000000 0.001432 0.000001
# 3 -0.003289 -0.003782 0.010528 0.000000 -0.002422 0.000000
# 4 0.000000 0.000000 0.000000 0.027282 0.000000 -0.001003
# 5 0.001883 0.001432 -0.002422 0.000000 0.032555 0.000000
# 6 0.000000 0.000001 0.000000 -0.001003 0.000000 0.038542
#
#
# Mechanical properties :
#
#
# Convention : Reuss Voigt Hill
#
# Bulk Modulus (GPa) = 44.39134 47.76493 46.07813
# Shear Modulus (GPa) = 28.79236 30.29800 29.54518
#
# Velocity S-wave (km/s) = 3.84035 3.93949 3.89024
# Velocity P-wave (km/s) = 6.51176 6.72007 6.61674
#
# Compressibility (1/GPa) = 0.02252692
#
# Stress axis : x y z
#
# Youngs Moduli (GPa) = 62.37273 53.80062 94.98155
#
# Poissons Ratio (x) = 0.22813 0.31237
# Poissons Ratio (y) = 0.26448 0.35918
# Poissons Ratio (z) = 0.20513 0.20345
#
# Static dielectric constant tensor:
#      x y z
#    x 3.369300 0.000000 0.101850 
#    y 0.000000 3.508180 0.000000 
#    z 0.101850 0.000000 3.702330 
# 
# 
# High freq. dielectric constant tensor:
#      x y z
#    x 1.741120 0.000000 0.007620 
#    y 0.000000 1.766810 0.000000 
#    z 0.007620 0.000000 1.776140 
# 
# From -- ./inp_files/320240.got.cif
#   From: 2010.06.25/outbox.cif.g09.slc.cpg/sg12_161_cif.got.tgz:320240.got - 2010.06.28 00:19:55.
