data_PCOD8092060
_publ_section_title
;
Structure prediction by ZEFSAII (Michael W. Deem and Ramdas Pophale) SiO2 
 PCOD8092060
Probable space group: C 2/M
;
_chemical_formula_sum "Si O2"
_cell_formula_units_Z 56
_cell_length_a 13.050816
_cell_length_b 13.403293
_cell_length_c 17.505304
_cell_angle_alpha 90.000000
_cell_angle_beta 114.863136
_cell_angle_gamma 90.000000
_cell_volume 2778.284988
_symmetry_space_group_name_H-M "C 2/M"
_symmetry_group_IT_number 12
_symmetry_cell_setting 'monoclinic'
loop_
_space_group_symop_operation_xyz
x,y,z
-x,y,-z
-x,-y,-z
x,-y,z
1/2+x,1/2+y,z
1/2-x,1/2+y,-z
1/2-x,1/2-y,-z
1/2+x,1/2-y,z
loop_
_atom_site_type_symbol
_atom_site_label
_atom_site_fract_x
_atom_site_fract_y
_atom_site_fract_z
Si Si1 0.112261 0.616365 0.994963
Si Si2 0.683934 0.387817 0.828396
Si Si3 0.571144 0.192588 0.821732
Si Si4 0.265779 0.703614 0.606924
Si Si5 0.823097 0.385048 0.719974
Si Si6 0.561407 0.256670 0.448113
Si Si7 0.876057 0.613354 0.318114
O O1 0.095219 0.500000 0.973728
O O2 0.132430 0.669505 0.920457
O O3 0.218182 0.638891 0.081376
O O4 0.000000 0.659766 0.000000
O O5 0.638677 0.500000 0.827432
O O6 0.580760 0.311229 0.807963
O O7 0.731990 0.376403 0.758378
O O8 0.441592 0.159459 0.785829
O O9 0.638833 0.133614 0.776488
O O10 0.278349 0.820332 0.634861
O O11 0.381926 0.671375 0.598718
O O12 0.162542 0.690700 0.515660
O O13 0.241751 0.636908 0.674451
O O14 0.839446 0.500000 0.699576
O O15 0.500000 0.314470 0.500000
O O16 0.475267 0.182888 0.380431
O O17 0.910625 0.500000 0.343383
#
# Coordination Sequence:
#
# PCOD8092060 Si02
#       7
#     8   8   8   8   8   8   8
#     4  10  19  34  58  90 120 152 200 245 282 338
#     4  10  22  39  59  85 120 159 195 236 294 349
#     4  12  21  35  62  90 119 152 199 246 289 340
#     4  10  20  37  56  85 119 147 187 247 292 344
#     4  11  21  37  62  87 113 154 202 245 287 346
#     4   9  20  36  58  80 114 152 190 233 289 349
#     4  11  22  36  60  91 117 151 195 245 297 345
#
# _framework density 20.156319
#
# number of rings (size 3 to 8) (size 9 to 14) (size 15 to 20)
#    0.000    1.571    4.286    1.714    0.000    2.571 
#    0.000    4.286    0.000    9.000    0.000    0.000 
#    0.000    0.000    0.000    0.000    0.000    0.000 
#
# Total GULP energy -347052.411737 kJ/mol
# GULP energy per Si atom -12394.728991 kJ/mol
# Density = 2.011044 g / cm^3
# Si number density = 20.156319 Si / 1000 Ang^3
#
#
#
# Elastic Constant Matrix: (Units=GPa)
#
#
# Indices 1 2 3 4 5 6 
#
# 1 92.3789 26.0288 26.4061 0.0000 -28.9205 0.0000
# 2 26.0288 67.7447 16.5603 0.0000 0.9426 0.0000
# 3 26.4061 16.5603 87.0610 0.0000 -24.6492 0.0000
# 4 0.0000 0.0000 0.0000 11.9535 0.0000 -1.0961
# 5 -28.9205 0.9426 -24.6492 0.0000 33.1531 0.0000
# 6 0.0000 0.0000 0.0000 -1.0961 0.0000 27.3165
#
#
#
# Elastic Compliance Matrix: (Units=1/GPa)
#
#
# Indices 1 2 3 4 5 6 
#
# 1 0.017716 -0.007161 0.000534 0.000000 0.016055 0.000000
# 2 -0.007161 0.018672 -0.004178 0.000000 -0.009884 0.000000
# 3 0.000534 -0.004178 0.015560 0.000000 0.012154 0.000000
# 4 0.000000 0.000000 0.000000 0.083966 0.000000 0.003369
# 5 0.016055 -0.009884 0.012154 0.000000 0.053486 0.000000
# 6 0.000000 0.000000 0.000000 0.003369 0.000000 0.036743
#
#
# Mechanical properties :
#
#
# Convention : Reuss Voigt Hill
#
# Bulk Modulus (GPa) = 32.96155 42.79723 37.87939
# Shear Modulus (GPa) = 19.39000 26.36392 22.87696
#
# Velocity S-wave (km/s) = 3.10495 3.62051 3.37260
# Velocity P-wave (km/s) = 5.40765 6.22545 5.83091
#
# Compressibility (1/GPa) = 0.03033838
#
# Stress axis : x y z
#
# Youngs Moduli (GPa) = 56.44540 53.55754 64.26794
#
# Poissons Ratio (x) = 0.38352 -0.03434
# Poissons Ratio (y) = 0.40420 0.26851
# Poissons Ratio (z) = -0.03016 0.22377
#
# Static dielectric constant tensor:
#      x y z
#    x 3.972810 0.000000 -0.380320 
#    y 0.000000 3.476900 0.000000 
#    z -0.380320 0.000000 3.848310 
# 
# 
# High freq. dielectric constant tensor:
#      x y z
#    x 1.788450 0.000000 -0.019920 
#    y 0.000000 1.751750 0.000000 
#    z -0.019920 0.000000 1.799610 
# 
# From -- ./inp_files/268849.got.cif
#   From: 2010.06.25/outbox.cif.g09.slc.cpg/sg12_135_cif.got.tgz:268849.got - 2010.06.28 00:19:55.
