data_PCOD8092228
_publ_section_title
;
Structure prediction by ZEFSAII (Michael W. Deem and Ramdas Pophale) SiO2 
 PCOD8092228
Probable space group: C 2/M
;
_chemical_formula_sum "Si O2"
_cell_formula_units_Z 64
_cell_length_a 11.307690
_cell_length_b 18.457453
_cell_length_c 21.368441
_cell_angle_alpha 90.000000
_cell_angle_beta 50.984580
_cell_angle_gamma 90.000000
_cell_volume 3465.184975
_symmetry_space_group_name_H-M "C 2/M"
_symmetry_group_IT_number 12
_symmetry_cell_setting 'monoclinic'
loop_
_space_group_symop_operation_xyz
x,y,z
-x,y,-z
-x,-y,-z
x,-y,z
1/2+x,1/2+y,z
1/2-x,1/2+y,-z
1/2-x,1/2-y,-z
1/2+x,1/2-y,z
loop_
_atom_site_type_symbol
_atom_site_label
_atom_site_fract_x
_atom_site_fract_y
_atom_site_fract_z
Si Si1 0.607460 0.309369 0.837408
Si Si2 0.725744 0.666541 0.022565
Si Si3 0.975847 0.415422 0.411644
Si Si4 0.060247 0.345461 0.259190
Si Si5 0.552484 0.083799 0.132889
Si Si6 0.746210 0.085718 0.409240
Si Si7 0.986896 0.815738 0.270063
Si Si8 0.318503 0.155754 0.129118
O O1 0.454223 0.350352 0.911035
O O2 0.756630 0.357320 0.802318
O O3 0.601396 0.300536 0.764869
O O4 0.615451 0.232624 0.869891
O O5 0.823200 0.649585 0.052456
O O6 0.750000 0.750000 0.000000
O O7 0.789905 0.617628 0.945118
O O8 0.992350 0.500000 0.406111
O O9 0.972528 0.388724 0.342001
O O10 0.123328 0.386613 0.399425
O O11 0.819901 0.395122 0.499903
O O12 0.000006 0.373814 0.212764
O O13 0.020918 0.262576 0.287630
O O14 0.419951 0.092641 0.125588
O O15 0.578680 0.000000 0.139460
O O16 0.895326 0.133992 0.348817
O O17 0.783737 0.000000 0.390321
O O18 0.145310 0.856818 0.207302
#
# Coordination Sequence:
#
# PCOD8092228 Si02
#       8
#     8   8   8   8   8   8   8   8
#     4  10  19  36  57  85 106 139 191 243 279 321
#     4  11  21  37  61  80 104 149 194 237 283 329
#     4   9  18  34  57  82 112 150 184 229 287 337
#     4  11  21  36  59  81 116 150 188 233 281 337
#     4  12  25  39  54  83 118 152 190 228 281 346
#     4   9  18  34  57  86 113 141 186 234 283 335
#     4  10  19  34  60  85 113 144 187 234 282 332
#     4  10  21  36  56  81 111 148 186 228 282 333
#
# _framework density 18.469432999999999
#
# number of rings (size 3 to 8) (size 9 to 14) (size 15 to 20)
#    0.000    1.750    3.750    3.000    0.000    3.500 
#    0.000    3.750    0.000    0.750    0.000    2.625 
#    0.000    0.000    0.000    0.000    0.000    0.000 
#
# Total GULP energy -396751.062992 kJ/mol
# GULP energy per Si atom -12398.470718 kJ/mol
# Density = 1.842740 g / cm^3
# Si number density = 18.469433 Si / 1000 Ang^3
#
#
#
# Elastic Constant Matrix: (Units=GPa)
#
#
# Indices 1 2 3 4 5 6 
#
# 1 71.9788 19.2348 37.2380 0.0001 2.1933 -0.0001
# 2 19.2348 47.8085 39.2420 0.0000 -13.1866 0.0000
# 3 37.2380 39.2420 125.2829 0.0001 7.7427 -0.0001
# 4 0.0001 0.0000 0.0001 33.9480 -0.0002 -2.0159
# 5 2.1933 -13.1866 7.7427 -0.0002 22.3030 0.0002
# 6 -0.0001 0.0000 -0.0001 -2.0159 0.0002 21.6974
#
#
#
# Elastic Compliance Matrix: (Units=1/GPa)
#
#
# Indices 1 2 3 4 5 6 
#
# 1 0.017064 -0.005251 -0.003200 0.000000 -0.003672 0.000000
# 2 -0.005251 0.042685 -0.013695 0.000000 0.030509 0.000000
# 3 -0.003200 -0.013695 0.014004 0.000000 -0.012644 0.000000
# 4 0.000000 0.000000 0.000000 0.029620 0.000000 0.002752
# 5 -0.003672 0.030509 -0.012644 0.000000 0.067626 -0.000001
# 6 0.000000 0.000000 0.000000 0.002752 -0.000001 0.046344
#
#
# Mechanical properties :
#
#
# Convention : Reuss Voigt Hill
#
# Bulk Modulus (GPa) = 33.94355 48.49997 41.22176
# Shear Modulus (GPa) = 18.41916 25.54671 21.98293
#
# Velocity S-wave (km/s) = 3.16140 3.72316 3.45372
# Velocity P-wave (km/s) = 5.63418 6.69322 6.18640
#
# Compressibility (1/GPa) = 0.02946068
#
# Stress axis : x y z
#
# Youngs Moduli (GPa) = 58.60380 23.42717 71.40762
#
# Poissons Ratio (x) = 0.12303 0.22851
# Poissons Ratio (y) = 0.30775 0.97792
# Poissons Ratio (z) = 0.18753 0.32083
#
# Static dielectric constant tensor:
#      x y z
#    x 3.119080 0.000000 -0.549480 
#    y 0.000000 3.100560 0.000000 
#    z -0.549480 0.000000 2.925920 
# 
# 
# High freq. dielectric constant tensor:
#      x y z
#    x 1.711710 0.000000 0.000000 
#    y 0.000000 1.691550 0.000000 
#    z 0.000000 0.000000 1.724040 
# 
# From -- ./inp_files/306200.got.cif
#   From: 2010.06.25/outbox.cif.g09.slc.cpg/sg12_154_cif.got.tgz:306200.got - 2010.06.28 00:19:55.
