data_PCOD8092844
_publ_section_title
;
Structure prediction by ZEFSAII (Michael W. Deem and Ramdas Pophale) SiO2 
 PCOD8092844
Probable space group: C 2/M
;
_chemical_formula_sum "Si O2"
_cell_formula_units_Z 64
_cell_length_a 20.128626
_cell_length_b 8.976425
_cell_length_c 21.579356
_cell_angle_alpha 90.000000
_cell_angle_beta 118.360093
_cell_angle_gamma 90.000000
_cell_volume 3431.062576
_symmetry_space_group_name_H-M "C 2/M"
_symmetry_group_IT_number 12
_symmetry_cell_setting 'monoclinic'
loop_
_space_group_symop_operation_xyz
x,y,z
-x,y,-z
-x,-y,-z
x,-y,z
1/2+x,1/2+y,z
1/2-x,1/2+y,-z
1/2-x,1/2-y,-z
1/2+x,1/2-y,z
loop_
_atom_site_type_symbol
_atom_site_label
_atom_site_fract_x
_atom_site_fract_y
_atom_site_fract_z
Si Si1 0.651181 0.827382 0.704523
Si Si2 0.304339 0.326501 0.703208
Si Si3 0.158532 0.175994 0.836149
Si Si4 0.582131 0.171863 0.913027
Si Si5 0.232469 0.825181 0.557198
Si Si6 0.672044 0.823318 0.071045
Si Si7 0.582040 0.672587 0.561359
Si Si8 0.406550 0.828077 0.840413
O O1 0.736168 0.794813 0.720310
O O2 0.634356 0.739677 0.759519
O O3 0.593141 0.770839 0.627210
O O4 0.636504 0.000000 0.709931
O O5 0.313654 0.500000 0.692239
O O6 0.290409 0.240938 0.633004
O O7 0.379958 0.264182 0.768583
O O8 0.099485 0.233390 0.860073
O O9 0.241813 0.232171 0.892361
O O10 0.155453 0.000000 0.830768
O O11 0.494890 0.191271 0.890025
O O12 0.603111 0.000000 0.909996
O O13 0.629678 0.238780 0.991591
O O14 0.250000 0.750000 0.500000
O O15 0.146053 0.789634 0.538604
O O16 0.246927 0.000000 0.558089
O O17 0.633069 0.761005 0.115897
O O18 0.664951 0.000000 0.068311
O O19 0.500000 0.715344 0.500000
O O20 0.587125 0.500000 0.582492
O O21 0.384023 0.000000 0.819923
#
# Coordination Sequence:
#
# PCOD8092844 Si02
#       8
#     8   8   8   8   8   8   8   8
#     4  10  20  35  57  83 110 144 186 229 270 319
#     4  10  20  35  57  83 111 144 185 230 273 322
#     4  11  21  35  56  80 110 146 184 228 275 328
#     4  10  21  36  54  80 113 144 179 229 281 330
#     4  10  20  36  59  85 114 146 182 223 270 325
#     4   9  18  34  58  82 104 141 188 227 272 331
#     4   9  19  37  60  85 112 143 180 222 271 323
#     4  10  19  35  58  81 108 143 185 228 275 329
#
# _framework density 18.653113000000001
#
# number of rings (size 3 to 8) (size 9 to 14) (size 15 to 20)
#    0.000    2.125    1.250    2.250    0.000    3.750 
#    2.250    1.250    0.000    1.500    0.000    0.000 
#    0.000    0.000    0.000    0.000    0.000    0.000 
#
# Total GULP energy -396928.777140 kJ/mol
# GULP energy per Si atom -12404.024286 kJ/mol
# Density = 1.861066 g / cm^3
# Si number density = 18.653113 Si / 1000 Ang^3
#
#
#
# Elastic Constant Matrix: (Units=GPa)
#
#
# Indices 1 2 3 4 5 6 
#
# 1 62.8620 31.6559 40.0490 0.0000 -9.0204 0.0000
# 2 31.6559 76.9293 50.9736 0.0000 -7.3158 0.0000
# 3 40.0490 50.9736 120.6225 0.0000 -11.2761 0.0000
# 4 0.0000 0.0000 0.0000 30.0792 0.0000 -2.3861
# 5 -9.0204 -7.3158 -11.2761 0.0000 33.8643 0.0000
# 6 0.0000 0.0000 0.0000 -2.3861 0.0000 25.3433
#
#
#
# Elastic Compliance Matrix: (Units=1/GPa)
#
#
# Indices 1 2 3 4 5 6 
#
# 1 0.022222 -0.005766 -0.004649 0.000000 0.003125 0.000000
# 2 -0.005766 0.019616 -0.006319 0.000000 0.000598 0.000000
# 3 -0.004649 -0.006319 0.012655 0.000000 0.001610 0.000000
# 4 0.000000 0.000000 0.000000 0.033496 0.000000 0.003154
# 5 0.003125 0.000598 0.001610 0.000000 0.031027 0.000000
# 6 0.000000 0.000000 0.000000 0.003154 0.000000 0.039755
#
#
# Mechanical properties :
#
#
# Convention : Reuss Voigt Hill
#
# Bulk Modulus (GPa) = 47.56594 56.19673 51.88134
# Shear Modulus (GPa) = 25.09442 27.03972 26.06707
#
# Velocity S-wave (km/s) = 3.67184 3.81150 3.74232
# Velocity P-wave (km/s) = 6.59789 7.04008 6.82257
#
# Compressibility (1/GPa) = 0.02102345
#
# Stress axis : x y z
#
# Youngs Moduli (GPa) = 45.00008 50.98001 79.02176
#
# Poissons Ratio (x) = 0.29398 0.36739
# Poissons Ratio (y) = 0.25949 0.49933
# Poissons Ratio (z) = 0.20921 0.32213
#
# Static dielectric constant tensor:
#      x y z
#    x 3.323550 0.000000 -0.001350 
#    y 0.000000 3.311860 0.000000 
#    z -0.001350 0.000000 3.487910 
# 
# 
# High freq. dielectric constant tensor:
#      x y z
#    x 1.714630 0.000000 -0.001650 
#    y 0.000000 1.715890 0.000000 
#    z -0.001650 0.000000 1.734300 
# 
# From -- ./inp_files/319767.got.cif
#   From: 2010.06.25/outbox.cif.g09.slc.cpg/sg12_160_cif.got.tgz:319767.got - 2010.06.28 00:19:55.
