data_PCOD8092167
_publ_section_title
;
Structure prediction by ZEFSAII (Michael W. Deem and Ramdas Pophale) SiO2 
 PCOD8092167
Probable space group: C 2/M
;
_chemical_formula_sum "Si O2"
_cell_formula_units_Z 56
_cell_length_a 8.213258
_cell_length_b 18.442126
_cell_length_c 22.096700
_cell_angle_alpha 90.000000
_cell_angle_beta 125.207574
_cell_angle_gamma 90.000000
_cell_volume 2734.717309
_symmetry_space_group_name_H-M "C 2/M"
_symmetry_group_IT_number 12
_symmetry_cell_setting 'monoclinic'
loop_
_space_group_symop_operation_xyz
x,y,z
-x,y,-z
-x,-y,-z
x,-y,z
1/2+x,1/2+y,z
1/2-x,1/2+y,-z
1/2-x,1/2-y,-z
1/2+x,1/2-y,z
loop_
_atom_site_type_symbol
_atom_site_label
_atom_site_fract_x
_atom_site_fract_y
_atom_site_fract_z
Si Si1 0.585688 0.147828 0.580056
Si Si2 0.811919 0.583018 0.001242
Si Si3 0.513614 0.341685 0.137521
Si Si4 0.131293 0.688079 0.875511
Si Si5 0.278674 0.329066 0.275398
Si Si6 0.878338 0.721465 0.637923
Si Si7 0.580590 0.581524 0.276102
O O1 0.500000 0.112737 0.500000
O O2 0.723410 0.215166 0.590438
O O3 0.403803 0.174907 0.582753
O O4 0.709154 0.088713 0.644446
O O5 0.820959 0.500000 0.026129
O O6 0.608909 0.593371 0.919737
O O7 0.805187 0.636803 0.056201
O O8 0.000000 0.601637 0.000000
O O9 0.717742 0.325740 0.146696
O O10 0.364711 0.272533 0.104841
O O11 0.570750 0.362656 0.218298
O O12 0.905426 0.671112 0.809339
O O13 0.203535 0.332640 0.328236
O O14 0.411891 0.256371 0.294712
O O15 0.406707 0.400152 0.286916
O O16 0.554803 0.500000 0.246966
#
# Coordination Sequence:
#
# PCOD8092167 Si02
#       7
#     8   8   8   8   8   8   8
#     4  10  19  34  59  88 119 150 188 240 294 351
#     4  11  25  43  61  85 121 160 195 237 291 346
#     4  12  24  41  63  88 118 151 197 246 289 345
#     4  12  23  38  64  92 116 149 193 245 296 339
#     4  10  19  35  58  84 116 147 188 239 288 345
#     4   9  18  34  58  90 117 146 188 239 295 346
#     4  11  24  40  58  81 115 159 198 238 293 351
#
# _framework density 20.477436000000001
#
# number of rings (size 3 to 8) (size 9 to 14) (size 15 to 20)
#    0.000    1.286    0.000    8.571    0.000    3.714 
#    0.000    2.143    0.000    0.857    0.000    0.000 
#    0.000    0.000    0.000    0.000    0.000    0.000 
#
# Total GULP energy -347289.250559 kJ/mol
# GULP energy per Si atom -12403.187520 kJ/mol
# Density = 2.043083 g / cm^3
# Si number density = 20.477436 Si / 1000 Ang^3
#
#
#
# Elastic Constant Matrix: (Units=GPa)
#
#
# Indices 1 2 3 4 5 6 
#
# 1 125.7319 36.5958 37.0787 0.0000 -16.7587 0.0000
# 2 36.5958 96.8887 33.6020 0.0000 -14.8319 0.0000
# 3 37.0787 33.6020 127.5303 0.0000 -7.7504 0.0000
# 4 0.0000 0.0000 0.0000 19.6924 0.0000 -0.4139
# 5 -16.7587 -14.8319 -7.7504 0.0000 28.7516 0.0000
# 6 0.0000 0.0000 0.0000 -0.4139 0.0000 18.1447
#
#
#
# Elastic Compliance Matrix: (Units=1/GPa)
#
#
# Indices 1 2 3 4 5 6 
#
# 1 0.009754 -0.002403 -0.001965 0.000000 0.003916 0.000000
# 2 -0.002403 0.012750 -0.002385 0.000000 0.004533 0.000000
# 3 -0.001965 -0.002385 0.009045 0.000000 0.000063 0.000000
# 4 0.000000 0.000000 0.000000 0.050805 0.000000 0.001159
# 5 0.003916 0.004533 0.000063 0.000000 0.039419 0.000000
# 6 0.000000 0.000000 0.000000 0.001159 0.000000 0.055139
#
#
# Mechanical properties :
#
#
# Convention : Reuss Voigt Hill
#
# Bulk Modulus (GPa) = 55.42448 62.74487 59.08468
# Shear Modulus (GPa) = 25.45393 29.50936 27.48164
#
# Velocity S-wave (km/s) = 3.52948 3.80026 3.66737
# Velocity P-wave (km/s) = 6.61321 7.06848 6.84463
#
# Compressibility (1/GPa) = 0.01804257
#
# Stress axis : x y z
#
# Youngs Moduli (GPa) = 102.51808 78.43083 110.56131
#
# Poissons Ratio (x) = 0.18850 0.21723
# Poissons Ratio (y) = 0.24639 0.26370
# Poissons Ratio (z) = 0.20142 0.18707
#
# Static dielectric constant tensor:
#      x y z
#    x 3.977610 0.000000 0.001890 
#    y 0.000000 3.455590 0.000000 
#    z 0.001890 0.000000 3.621920 
# 
# 
# High freq. dielectric constant tensor:
#      x y z
#    x 1.816590 0.000000 -0.002370 
#    y 0.000000 1.772960 0.000000 
#    z -0.002370 0.000000 1.802520 
# 
# From -- ./inp_files/300870.got.cif
#   From: 2010.06.25/outbox.cif.g09.slc.cpg/sg12_151_cif.got.tgz:300870.got - 2010.06.28 00:19:55.
