data_PCOD8092836
_publ_section_title
;
Structure prediction by ZEFSAII (Michael W. Deem and Ramdas Pophale) SiO2 
 PCOD8092836
Probable space group: C 2/M
;
_chemical_formula_sum "Si O2"
_cell_formula_units_Z 56
_cell_length_a 20.579188
_cell_length_b 8.890350
_cell_length_c 17.789911
_cell_angle_alpha 90.000000
_cell_angle_beta 63.852189
_cell_angle_gamma 90.000000
_cell_volume 2921.681130
_symmetry_space_group_name_H-M "C 2/M"
_symmetry_group_IT_number 12
_symmetry_cell_setting 'monoclinic'
loop_
_space_group_symop_operation_xyz
x,y,z
-x,y,-z
-x,-y,-z
x,-y,z
1/2+x,1/2+y,z
1/2-x,1/2+y,-z
1/2-x,1/2-y,-z
1/2+x,1/2-y,z
loop_
_atom_site_type_symbol
_atom_site_label
_atom_site_fract_x
_atom_site_fract_y
_atom_site_fract_z
Si Si1 0.554770 0.678281 0.664709
Si Si2 0.075837 0.677928 0.497857
Si Si3 0.083069 0.823101 0.946798
Si Si4 0.851878 0.178608 0.243589
Si Si5 0.902603 0.323695 0.774211
Si Si6 0.309542 0.178007 0.681613
Si Si7 0.172196 0.676808 0.033138
O O1 0.555811 0.500000 0.660612
O O2 0.587119 0.743169 0.571636
O O3 0.604994 0.740225 0.706439
O O4 0.473857 0.731697 0.719735
O O5 0.078366 0.500000 0.508361
O O6 0.139540 0.737821 0.411334
O O7 0.000000 0.727068 0.500000
O O8 0.106581 0.768586 0.852324
O O9 0.095395 0.000000 0.952415
O O10 0.131916 0.735810 0.980708
O O11 0.000000 0.777526 0.000000
O O12 0.770761 0.247064 0.285701
O O13 0.848464 0.000000 0.247192
O O14 0.920202 0.500000 0.757403
O O15 0.841442 0.273853 0.745916
O O16 0.875195 0.279068 0.870370
O O17 0.305888 0.000000 0.678556
O O18 0.182887 0.500000 0.022178
O O19 0.250000 0.750000 0.000000
#
# Coordination Sequence:
#
# PCOD8092836 Si02
#       7
#     8   8   8   8   8   8   8
#     4  11  22  35  56  85 115 141 177 231 282 332
#     4  10  19  35  58  81 106 143 189 228 270 332
#     4  10  20  37  60  82 113 155 197 238 287 347
#     4   9  19  35  54  80 111 148 186 223 279 341
#     4  10  20  37  59  81 106 147 193 228 270 333
#     4   9  17  33  57  77 102 144 190 226 262 326
#     4  11  23  37  58  86 117 150 191 242 291 343
#
# _framework density 19.167047
#
# number of rings (size 3 to 8) (size 9 to 14) (size 15 to 20)
#    0.000    2.000    1.429    2.571    0.000    5.714 
#    0.000    1.429    0.000    3.429    0.000    0.000 
#    0.000    0.000    0.000    0.000    0.000    0.000 
#
# Total GULP energy -347276.754698 kJ/mol
# GULP energy per Si atom -12402.741239 kJ/mol
# Density = 1.912342 g / cm^3
# Si number density = 19.167047 Si / 1000 Ang^3
#
#
#
# Elastic Constant Matrix: (Units=GPa)
#
#
# Indices 1 2 3 4 5 6 
#
# 1 129.7172 20.7093 71.3850 0.0000 5.8805 0.0000
# 2 20.7093 31.7574 29.3013 0.0000 4.3706 -0.0001
# 3 71.3850 29.3013 156.3381 0.0000 9.5603 0.0000
# 4 0.0000 0.0000 0.0000 24.0506 0.0000 6.0963
# 5 5.8805 4.3706 9.5603 0.0000 43.5725 0.0000
# 6 0.0000 -0.0001 0.0000 6.0963 0.0000 27.2406
#
#
#
# Elastic Compliance Matrix: (Units=1/GPa)
#
#
# Indices 1 2 3 4 5 6 
#
# 1 0.010519 -0.002917 -0.004245 0.000000 -0.000196 0.000000
# 2 -0.002917 0.039107 -0.005861 0.000000 -0.002243 0.000000
# 3 -0.004245 -0.005861 0.009489 0.000000 -0.000921 0.000000
# 4 0.000000 0.000000 0.000000 0.044080 0.000000 -0.009865
# 5 -0.000196 -0.002243 -0.000921 0.000000 0.023404 0.000000
# 6 0.000000 0.000000 0.000000 -0.009865 0.000000 0.038918
#
#
# Mechanical properties :
#
#
# Convention : Reuss Voigt Hill
#
# Bulk Modulus (GPa) = 30.23720 62.28933 46.26327
# Shear Modulus (GPa) = 24.68113 32.06721 28.37417
#
# Velocity S-wave (km/s) = 3.59233 4.09472 3.85172
# Velocity P-wave (km/s) = 5.74598 7.41109 6.63101
#
# Compressibility (1/GPa) = 0.03307184
#
# Stress axis : x y z
#
# Youngs Moduli (GPa) = 95.06187 25.57111 105.38204
#
# Poissons Ratio (x) = 0.07458 0.44731
# Poissons Ratio (y) = 0.27725 0.61760
# Poissons Ratio (z) = 0.40351 0.14986
#
# Static dielectric constant tensor:
#      x y z
#    x 3.768560 0.000000 0.047180 
#    y 0.000000 3.250650 0.000000 
#    z 0.047180 0.000000 3.809870 
# 
# 
# High freq. dielectric constant tensor:
#      x y z
#    x 1.757870 0.000000 0.001210 
#    y 0.000000 1.712360 0.000000 
#    z 0.001210 0.000000 1.765020 
# 
# From -- ./inp_files/280884.got.cif
#   From: 2010.06.25/outbox.cif.g09.slc.cpg/sg12_141_cif.got.tgz:280884.got - 2010.06.28 00:19:55.
