data_PCOD8092140
_publ_section_title
;
Structure prediction by ZEFSAII (Michael W. Deem and Ramdas Pophale) SiO2 
 PCOD8092140
Probable space group: C 2/M
;
_chemical_formula_sum "Si O2"
_cell_formula_units_Z 48
_cell_length_a 23.733227
_cell_length_b 20.197994
_cell_length_c 9.855960
_cell_angle_alpha 90.000000
_cell_angle_beta 145.918524
_cell_angle_gamma 90.000000
_cell_volume 2647.523413
_symmetry_space_group_name_H-M "C 2/M"
_symmetry_group_IT_number 12
_symmetry_cell_setting 'monoclinic'
loop_
_space_group_symop_operation_xyz
x,y,z
-x,y,-z
-x,-y,-z
x,-y,z
1/2+x,1/2+y,z
1/2-x,1/2+y,-z
1/2-x,1/2-y,-z
1/2+x,1/2-y,z
loop_
_atom_site_type_symbol
_atom_site_label
_atom_site_fract_x
_atom_site_fract_y
_atom_site_fract_z
Si Si1 0.692564 0.853144 0.126839
Si Si2 0.110522 0.783566 0.058277
Si Si3 0.616974 0.713537 0.389869
Si Si4 0.388097 0.076124 0.793085
Si Si5 0.618383 0.922756 0.721786
Si Si6 0.697223 0.851321 0.619725
O O1 0.625540 0.788574 0.023211
O O2 0.809567 0.840447 0.395567
O O3 0.649666 0.913867 0.129449
O O4 0.680706 0.876457 0.948824
O O5 0.139108 0.779046 0.274127
O O6 0.184014 0.835147 0.128370
O O7 0.997261 0.808841 0.810673
O O8 0.634770 0.783307 0.499630
O O9 0.313307 0.114770 0.546609
O O10 0.387518 0.000000 0.751737
O O11 0.500000 0.105742 0.000000
O O12 0.500000 0.909284 0.500000
O O13 0.656119 0.901685 0.649214
O O14 0.642916 0.000000 0.793389
#
# Coordination Sequence:
#
# PCOD8092140 Si02
#       6
#     8   8   8   8   8   8
#     4  11  20  36  55  82 112 145 181 224 276 325
#     4  10  19  34  59  87 113 140 177 232 283 323
#     4  10  19  34  59  87 113 140 177 232 283 323
#     4  11  20  31  53  79 103 139 187 228 266 321
#     4  11  24  39  55  79 115 151 181 224 276 325
#     4  11  20  36  55  82 112 145 181 224 276 325
#
# _framework density 18.130151999999999
#
# number of rings (size 3 to 8) (size 9 to 14) (size 15 to 20)
#    0.000    1.333    3.333    5.000    0.000    5.333 
#    0.000    2.500    0.000    6.000    0.000    0.000 
#    0.000    0.000    0.000    0.000    0.000    0.000 
#
# Total GULP energy -297647.910364 kJ/mol
# GULP energy per Si atom -12401.996265 kJ/mol
# Density = 1.808889 g / cm^3
# Si number density = 18.130152 Si / 1000 Ang^3
#
#
#
# Elastic Constant Matrix: (Units=GPa)
#
#
# Indices 1 2 3 4 5 6 
#
# 1 70.4828 24.9234 27.9354 0.0000 15.6029 0.0000
# 2 24.9234 70.6804 35.8042 0.0000 9.5371 0.0000
# 3 27.9354 35.8042 93.8774 0.0000 18.8557 0.0000
# 4 0.0000 0.0000 0.0000 25.1828 0.0000 0.0674
# 5 15.6029 9.5371 18.8557 0.0000 34.8412 0.0000
# 6 0.0000 0.0000 0.0000 0.0674 0.0000 17.2933
#
#
#
# Elastic Compliance Matrix: (Units=1/GPa)
#
#
# Indices 1 2 3 4 5 6 
#
# 1 0.017940 -0.004265 -0.002617 0.000000 -0.005450 0.000000
# 2 -0.004265 0.018605 -0.005820 0.000000 -0.000033 0.000000
# 3 -0.002617 -0.005820 0.014692 0.000000 -0.005186 0.000000
# 4 0.000000 0.000000 0.000000 0.039710 0.000000 -0.000155
# 5 -0.005450 -0.000033 -0.005186 0.000000 0.033958 0.000000
# 6 0.000000 0.000000 0.000000 -0.000155 0.000000 0.057826
#
#
# Mechanical properties :
#
#
# Convention : Reuss Voigt Hill
#
# Bulk Modulus (GPa) = 38.71015 45.81850 42.26432
# Shear Modulus (GPa) = 23.06845 25.22196 24.14521
#
# Velocity S-wave (km/s) = 3.57091 3.73387 3.65330
# Velocity P-wave (km/s) = 6.19673 6.62691 6.41543
#
# Compressibility (1/GPa) = 0.02583302
#
# Stress axis : x y z
#
# Youngs Moduli (GPa) = 55.74220 53.74984 68.06266
#
# Poissons Ratio (x) = 0.22923 0.17813
# Poissons Ratio (y) = 0.23773 0.39612
# Poissons Ratio (z) = 0.14588 0.31282
#
# Static dielectric constant tensor:
#      x y z
#    x 3.263060 0.000000 0.104430 
#    y 0.000000 3.176460 0.000000 
#    z 0.104430 0.000000 3.356650 
# 
# 
# High freq. dielectric constant tensor:
#      x y z
#    x 1.698000 0.000000 0.004010 
#    y 0.000000 1.690490 0.000000 
#    z 0.004010 0.000000 1.701270 
# 
# From -- ./inp_files/62769.got.cif
#   From: 2010.06.25/outbox.cif.g09.slc.cpg/sg12_32_cif.got.tgz:62769.got - 2010.06.28 00:19:55.
