data_PCOD8092126
_publ_section_title
;
Structure prediction by ZEFSAII (Michael W. Deem and Ramdas Pophale) SiO2 
 PCOD8092126
Probable space group: C 2/M
;
_chemical_formula_sum "Si O2"
_cell_formula_units_Z 56
_cell_length_a 22.327880
_cell_length_b 9.557579
_cell_length_c 15.005322
_cell_angle_alpha 90.000000
_cell_angle_beta 118.939671
_cell_angle_gamma 90.000000
_cell_volume 2802.290323
_symmetry_space_group_name_H-M "C 2/M"
_symmetry_group_IT_number 12
_symmetry_cell_setting 'monoclinic'
loop_
_space_group_symop_operation_xyz
x,y,z
-x,y,-z
-x,-y,-z
x,-y,z
1/2+x,1/2+y,z
1/2-x,1/2+y,-z
1/2-x,1/2-y,-z
1/2+x,1/2-y,z
loop_
_atom_site_type_symbol
_atom_site_label
_atom_site_fract_x
_atom_site_fract_y
_atom_site_fract_z
Si Si1 0.096761 0.833611 0.301631
Si Si2 0.344697 0.651963 0.054770
Si Si3 0.861745 0.839014 0.469984
Si Si4 0.106214 0.345554 0.665610
Si Si5 0.712803 0.155785 0.303587
Si Si6 0.962590 0.665216 0.202849
Si Si7 0.759853 0.246418 0.154364
O O1 0.111488 0.794786 0.414412
O O2 0.157841 0.774941 0.285212
O O3 0.029121 0.751952 0.222395
O O4 0.089624 0.000000 0.281439
O O5 0.381395 0.500000 0.080090
O O6 0.400022 0.776346 0.098407
O O7 0.294244 0.650922 0.103467
O O8 0.300765 0.663888 0.933052
O O9 0.903897 0.757154 0.424745
O O10 0.781222 0.804711 0.407488
O O11 0.875583 0.000000 0.459516
O O12 0.090577 0.500000 0.618524
O O13 0.052607 0.304192 0.704207
O O14 0.182714 0.346198 0.761094
O O15 0.728284 0.151076 0.209434
O O16 0.687231 0.000000 0.312907
O O17 0.971198 0.500000 0.189591
#
# Coordination Sequence:
#
# PCOD8092126 Si02
#       7
#     8   8   8   8   8   8   8
#     4  11  23  38  55  76 106 145 186 224 265 315
#     4  10  19  34  59  86 112 142 177 219 267 320
#     4   9  20  36  55  81 109 139 176 221 272 321
#     4   9  18  33  55  82 110 140 176 220 266 317
#     4  10  20  36  57  81 110 142 177 218 266 318
#     4  10  22  38  54  77 110 145 182 223 270 321
#     4   9  19  33  56  87 115 139 172 217 270 320
#
# _framework density 19.983651999999999
#
# number of rings (size 3 to 8) (size 9 to 14) (size 15 to 20)
#    0.000    2.286    0.000    2.143    0.000   12.571 
#    0.000    3.571    0.000    3.429    0.000    0.000 
#    0.000    0.000    0.000    0.000    0.000    0.000 
#
# Total GULP energy -347175.958448 kJ/mol
# GULP energy per Si atom -12399.141373 kJ/mol
# Density = 1.993817 g / cm^3
# Si number density = 19.983652 Si / 1000 Ang^3
#
#
#
# Elastic Constant Matrix: (Units=GPa)
#
#
# Indices 1 2 3 4 5 6 
#
# 1 46.4287 29.9510 3.5720 0.0000 11.9024 0.0000
# 2 29.9510 103.7984 14.0474 0.0000 9.0473 0.0000
# 3 3.5720 14.0474 60.6014 0.0000 5.5941 0.0000
# 4 0.0000 0.0000 0.0000 23.1730 0.0000 1.7904
# 5 11.9024 9.0473 5.5941 0.0000 17.5401 0.0000
# 6 0.0000 0.0000 0.0000 1.7904 0.0000 29.8760
#
#
#
# Elastic Compliance Matrix: (Units=1/GPa)
#
#
# Indices 1 2 3 4 5 6 
#
# 1 0.030783 -0.007569 0.001554 0.000000 -0.017480 0.000000
# 2 -0.007569 0.012169 -0.002338 0.000000 -0.000395 0.000000
# 3 0.001554 -0.002338 0.017451 0.000000 -0.005414 0.000000
# 4 0.000000 0.000000 0.000000 0.043354 0.000000 -0.002598
# 5 -0.017480 -0.000395 -0.005414 0.000000 0.070804 0.000000
# 6 0.000000 0.000000 0.000000 -0.002598 0.000000 0.033627
#
#
# Mechanical properties :
#
#
# Convention : Reuss Voigt Hill
#
# Bulk Modulus (GPa) = 22.88535 33.99659 28.44097
# Shear Modulus (GPa) = 20.88018 25.00169 22.94094
#
# Velocity S-wave (km/s) = 3.23594 3.54094 3.39187
# Velocity P-wave (km/s) = 5.04367 5.81092 5.44084
#
# Compressibility (1/GPa) = 0.04369608
#
# Stress axis : x y z
#
# Youngs Moduli (GPa) = 32.48570 82.17636 57.30182
#
# Poissons Ratio (x) = 0.62200 -0.08903
# Poissons Ratio (y) = 0.24589 0.13398
# Poissons Ratio (z) = -0.05047 0.19214
#
# Static dielectric constant tensor:
#      x y z
#    x 3.437030 0.000000 0.029360 
#    y 0.000000 3.581420 0.000000 
#    z 0.029360 0.000000 3.571690 
# 
# 
# High freq. dielectric constant tensor:
#      x y z
#    x 1.762750 0.000000 0.004110 
#    y 0.000000 1.782950 0.000000 
#    z 0.004110 0.000000 1.772180 
# 
# From -- ./inp_files/238896.got.cif
#   From: 2010.06.25/outbox.cif.g09.slc.cpg/sg12_120_cif.got.tgz:238896.got - 2010.06.28 00:19:55.
