data_PCOD8092510
_publ_section_title
;
Structure prediction by ZEFSAII (Michael W. Deem and Ramdas Pophale) SiO2 
 PCOD8092510
Probable space group: C 2/M
;
_chemical_formula_sum "Si O2"
_cell_formula_units_Z 56
_cell_length_a 16.294258
_cell_length_b 14.733089
_cell_length_c 11.769108
_cell_angle_alpha 90.000000
_cell_angle_beta 96.528578
_cell_angle_gamma 90.000000
_cell_volume 2807.026386
_symmetry_space_group_name_H-M "C 2/M"
_symmetry_group_IT_number 12
_symmetry_cell_setting 'monoclinic'
loop_
_space_group_symop_operation_xyz
x,y,z
-x,y,-z
-x,-y,-z
x,-y,z
1/2+x,1/2+y,z
1/2-x,1/2+y,-z
1/2-x,1/2-y,-z
1/2+x,1/2-y,z
loop_
_atom_site_type_symbol
_atom_site_label
_atom_site_fract_x
_atom_site_fract_y
_atom_site_fract_z
Si Si1 0.026484 0.762040 0.282978
Si Si2 0.540652 0.895363 0.884094
Si Si3 0.264946 0.598943 0.497045
Si Si4 0.856080 0.218406 0.326352
Si Si5 0.215990 0.306919 0.890597
Si Si6 0.335775 0.395342 0.749939
Si Si7 0.087502 0.647356 0.492038
O O1 0.084888 0.830991 0.224766
O O2 0.070094 0.732506 0.406935
O O3 0.009287 0.670596 0.208170
O O4 0.943844 0.821673 0.296560
O O5 0.634361 0.861670 0.911212
O O6 0.537823 0.000000 0.838834
O O7 0.500000 0.888976 0.000000
O O8 0.303200 0.500000 0.483827
O O9 0.308103 0.662564 0.413175
O O10 0.284402 0.632302 0.628080
O O11 0.165737 0.590631 0.458912
O O12 0.797069 0.232200 0.209939
O O13 0.882925 0.315762 0.381288
O O14 0.281420 0.380058 0.854036
O O15 0.250000 0.250000 0.000000
O O16 0.363392 0.500000 0.749692
O O17 0.000000 0.593199 0.500000
#
# Coordination Sequence:
#
# PCOD8092510 Si02
#       7
#     8   8   8   8   8   8   8
#     4  10  21  36  62  89 121 165 203 248 311 365
#     4  10  22  41  63  89 123 159 207 262 312 372
#     4  11  22  35  56  87 123 159 199 250 309 368
#     4  10  20  38  59  84 120 159 205 251 301 361
#     4  11  22  39  64  87 115 166 212 251 313 377
#     4  11  22  37  60  91 124 159 204 252 303 370
#     4  10  19  35  55  82 115 154 198 245 303 363
#
# _framework density 19.949938
#
# number of rings (size 3 to 8) (size 9 to 14) (size 15 to 20)
#    0.000    1.571    2.857    2.571    0.000    1.429 
#    0.000    4.286    0.000    9.000    0.000    0.000 
#    0.000    0.000    0.000    0.000    0.000    0.000 
#
# Total GULP energy -347004.164661 kJ/mol
# GULP energy per Si atom -12393.005881 kJ/mol
# Density = 1.990453 g / cm^3
# Si number density = 19.949938 Si / 1000 Ang^3
#
#
#
# Elastic Constant Matrix: (Units=GPa)
#
#
# Indices 1 2 3 4 5 6 
#
# 1 135.6736 66.9196 43.5386 0.0000 -15.1866 0.0000
# 2 66.9196 101.2473 50.7846 0.0000 -3.6487 0.0000
# 3 43.5386 50.7846 111.0895 0.0000 -0.0270 0.0000
# 4 0.0000 0.0000 0.0000 13.2448 0.0000 11.4597
# 5 -15.1866 -3.6487 -0.0270 0.0000 35.9193 0.0000
# 6 0.0000 0.0000 0.0000 11.4597 0.0000 13.6542
#
#
#
# Elastic Compliance Matrix: (Units=1/GPa)
#
#
# Indices 1 2 3 4 5 6 
#
# 1 0.011687 -0.006844 -0.001451 0.000000 0.004245 0.000000
# 2 -0.006844 0.016884 -0.005036 0.000000 -0.001182 0.000000
# 3 -0.001451 -0.005036 0.011872 0.000000 -0.001116 0.000000
# 4 0.000000 0.000000 0.000000 0.275717 0.000000 -0.231403
# 5 0.004245 -0.001182 -0.001116 0.000000 0.029514 0.000000
# 6 0.000000 0.000000 0.000000 -0.231403 0.000000 0.267450
#
#
# Mechanical properties :
#
#
# Convention : Reuss Voigt Hill
#
# Bulk Modulus (GPa) = 72.56245 74.49956 73.53101
# Shear Modulus (GPa) = 7.75940 25.01483 16.38711
#
# Velocity S-wave (km/s) = 1.97430 3.54486 2.86914
# Velocity P-wave (km/s) = 6.45356 7.36064 6.92197
#
# Compressibility (1/GPa) = 0.01378123
#
# Stress axis : x y z
#
# Youngs Moduli (GPa) = 85.56492 59.22775 84.22843
#
# Poissons Ratio (x) = 0.40535 0.12219
# Poissons Ratio (y) = 0.58560 0.42422
# Poissons Ratio (z) = 0.12413 0.29830
#
# Static dielectric constant tensor:
#      x y z
#    x 3.977330 0.000000 -0.105010 
#    y 0.000000 3.349120 0.000000 
#    z -0.105010 0.000000 3.559820 
# 
# 
# High freq. dielectric constant tensor:
#      x y z
#    x 1.798390 0.000000 -0.012360 
#    y 0.000000 1.753500 0.000000 
#    z -0.012360 0.000000 1.773050 
# 
# From -- ./inp_files/143760.got.cif
#   From: 2010.06.25/outbox.cif.g09.slc.cpg/sg12_72_cif.got.tgz:143760.got - 2010.06.28 00:19:55.
