data_PCOD8092883
_publ_section_title
;
Structure prediction by ZEFSAII (Michael W. Deem and Ramdas Pophale) SiO2 
 PCOD8092883
Probable space group: C 2/M
;
_chemical_formula_sum "Si O2"
_cell_formula_units_Z 56
_cell_length_a 27.917450
_cell_length_b 9.156023
_cell_length_c 19.589816
_cell_angle_alpha 90.000000
_cell_angle_beta 142.397154
_cell_angle_gamma 90.000000
_cell_volume 3055.442836
_symmetry_space_group_name_H-M "C 2/M"
_symmetry_group_IT_number 12
_symmetry_cell_setting 'monoclinic'
loop_
_space_group_symop_operation_xyz
x,y,z
-x,y,-z
-x,-y,-z
x,-y,z
1/2+x,1/2+y,z
1/2-x,1/2+y,-z
1/2-x,1/2-y,-z
1/2+x,1/2-y,z
loop_
_atom_site_type_symbol
_atom_site_label
_atom_site_fract_x
_atom_site_fract_y
_atom_site_fract_z
Si Si1 0.951401 0.670014 0.379431
Si Si2 0.370024 0.828820 0.938892
Si Si3 0.124224 0.168599 0.193701
Si Si4 0.698067 0.833663 0.602549
Si Si5 0.190040 0.170046 0.730212
Si Si6 0.998678 0.827915 0.164539
Si Si7 0.951582 0.332606 0.646010
O O1 0.933087 0.500000 0.365436
O O2 0.868279 0.753738 0.281986
O O3 0.000000 0.725358 0.500000
O O4 0.999027 0.706727 0.365265
O O5 0.395574 0.763563 0.894931
O O6 0.279237 0.794818 0.852289
O O7 0.387709 0.000000 0.957692
O O8 0.418615 0.752370 0.053638
O O9 0.212756 0.197130 0.320010
O O10 0.066986 0.218058 0.189305
O O11 0.111140 0.000000 0.158924
O O12 0.672890 0.729472 0.635424
O O13 0.640588 0.805697 0.473828
O O14 0.687888 0.000000 0.617296
O O15 0.172792 0.000000 0.710571
O O16 0.023218 0.777000 0.266873
O O17 0.984376 0.000000 0.148978
O O18 0.966212 0.500000 0.685127
#
# Coordination Sequence:
#
# PCOD8092883 Si02
#       7
#     8   8   8   8   8   8   8
#     4  10  19  35  58  83 108 140 181 216 261 327
#     4  10  21  37  57  81 108 141 184 226 266 318
#     4   9  19  35  57  82 108 141 182 225 268 317
#     4   9  17  34  56  78 108 145 180 216 265 322
#     4  10  20  33  54  85 112 135 173 227 275 312
#     4  11  23  37  53  78 111 146 183 224 271 318
#     4  10  21  36  55  79 109 145 182 217 261 324
#
# _framework density 18.327949
#
# number of rings (size 3 to 8) (size 9 to 14) (size 15 to 20)
#    0.000    2.143    1.429    1.714    0.000    6.571 
#    0.000    0.714    0.000    0.000    0.000    0.000 
#    0.000    0.000    0.000    0.000    0.000    0.000 
#
# Total GULP energy -347289.732904 kJ/mol
# GULP energy per Si atom -12403.204747 kJ/mol
# Density = 1.828623 g / cm^3
# Si number density = 18.327949 Si / 1000 Ang^3
#
#
#
# Elastic Constant Matrix: (Units=GPa)
#
#
# Indices 1 2 3 4 5 6 
#
# 1 65.1025 35.3352 44.3385 0.0000 9.8123 0.0000
# 2 35.3352 70.7735 51.2261 0.0000 6.0347 0.0000
# 3 44.3385 51.2261 118.1862 0.0000 1.1977 0.0000
# 4 0.0000 0.0000 0.0000 32.7573 0.0000 -2.6741
# 5 9.8123 6.0347 1.1977 0.0000 22.1575 0.0000
# 6 0.0000 0.0000 0.0000 -2.6741 0.0000 28.6636
#
#
#
# Elastic Compliance Matrix: (Units=1/GPa)
#
#
# Indices 1 2 3 4 5 6 
#
# 1 0.024701 -0.007215 -0.006052 0.000000 -0.008647 0.000000
# 2 -0.007215 0.023295 -0.007362 0.000000 -0.002752 0.000000
# 3 -0.006052 -0.007362 0.013883 0.000000 0.003935 0.000000
# 4 0.000000 0.000000 0.000000 0.030762 0.000000 0.002870
# 5 -0.008647 -0.002752 0.003935 0.000000 0.049497 0.000000
# 6 0.000000 0.000000 0.000000 0.002870 0.000000 0.035155
#
#
# Mechanical properties :
#
#
# Convention : Reuss Voigt Hill
#
# Bulk Modulus (GPa) = 48.49449 57.31796 52.90622
# Shear Modulus (GPa) = 22.18017 24.92651 23.55334
#
# Velocity S-wave (km/s) = 3.48254 3.69186 3.58873
# Velocity P-wave (km/s) = 6.53357 7.03665 6.78977
#
# Compressibility (1/GPa) = 0.02062090
#
# Stress axis : x y z
#
# Youngs Moduli (GPa) = 40.48347 42.92705 72.03062
#
# Poissons Ratio (x) = 0.30971 0.43594
# Poissons Ratio (y) = 0.29208 0.53032
# Poissons Ratio (z) = 0.24501 0.31605
#
# Static dielectric constant tensor:
#      x y z
#    x 3.340650 0.000000 0.261670 
#    y 0.000000 3.380110 0.000000 
#    z 0.261670 0.000000 3.406440 
# 
# 
# High freq. dielectric constant tensor:
#      x y z
#    x 1.702740 0.000000 0.019630 
#    y 0.000000 1.712540 0.000000 
#    z 0.019630 0.000000 1.708700 
# 
# From -- ./inp_files/288177.got.cif
#   From: 2010.06.25/outbox.cif.g09.slc.cpg/sg12_145_cif.got.tgz:288177.got - 2010.06.28 00:19:55.
