data_PCOD8092247
_publ_section_title
;
Structure prediction by ZEFSAII (Michael W. Deem and Ramdas Pophale) SiO2 
 PCOD8092247
Probable space group: C 2/M
;
_chemical_formula_sum "Si O2"
_cell_formula_units_Z 56
_cell_length_a 12.623564
_cell_length_b 28.000368
_cell_length_c 13.820820
_cell_angle_alpha 90.000000
_cell_angle_beta 146.974107
_cell_angle_gamma 90.000000
_cell_volume 2662.504643
_symmetry_space_group_name_H-M "C 2/M"
_symmetry_group_IT_number 12
_symmetry_cell_setting 'monoclinic'
loop_
_space_group_symop_operation_xyz
x,y,z
-x,y,-z
-x,-y,-z
x,-y,z
1/2+x,1/2+y,z
1/2-x,1/2+y,-z
1/2-x,1/2-y,-z
1/2+x,1/2-y,z
loop_
_atom_site_type_symbol
_atom_site_label
_atom_site_fract_x
_atom_site_fract_y
_atom_site_fract_z
Si Si1 0.228494 0.552955 0.164480
Si Si2 0.524321 0.300356 0.290015
Si Si3 0.193110 0.880668 0.298013
Si Si4 0.661864 0.554333 0.972406
Si Si5 0.314610 0.344453 0.296108
Si Si6 0.590016 0.802235 0.288462
Si Si7 0.063957 0.381638 0.700977
O O1 0.306156 0.500000 0.258139
O O2 0.291153 0.562308 0.103262
O O3 0.307296 0.597610 0.286601
O O4 0.000000 0.552989 0.000000
O O5 0.563978 0.336328 0.233011
O O6 0.337597 0.319567 0.208089
O O7 0.483870 0.249146 0.209390
O O8 0.707754 0.298082 0.500858
O O9 0.348505 0.896727 0.499274
O O10 0.305062 0.864303 0.287943
O O11 0.046894 0.923357 0.161854
O O12 0.643345 0.500000 0.987441
O O13 0.839384 0.573878 0.171926
O O14 0.500000 0.330349 0.500000
O O15 0.127126 0.322117 0.207669
O O16 0.445230 0.838114 0.231353
#
# Coordination Sequence:
#
# PCOD8092247 Si02
#       7
#     8   8   8   8   8   8   8
#     4  10  21  38  59  83 116 158 199 248 309 359
#     4   9  18  34  56  86 120 156 198 244 296 357
#     4  10  21  39  61  88 122 158 199 250 296 357
#     4  11  23  41  63  87 120 158 200 253 306 361
#     4  10  19  34  60  87 117 153 197 248 297 357
#     4   9  19  33  57  88 119 157 199 241 301 355
#     4  10  22  38  61  89 121 159 201 245 299 359
#
# _framework density 21.032826
#
# number of rings (size 3 to 8) (size 9 to 14) (size 15 to 20)
#    0.000    2.143    1.429    1.286    2.000    2.000 
#    0.000    2.143    0.000    0.000    0.000    0.000 
#    0.000    0.000    0.000    0.000    0.000    0.000 
#
# Total GULP energy -347122.539460 kJ/mol
# GULP energy per Si atom -12397.233552 kJ/mol
# Density = 2.098495 g / cm^3
# Si number density = 21.032826 Si / 1000 Ang^3
#
#
#
# Elastic Constant Matrix: (Units=GPa)
#
#
# Indices 1 2 3 4 5 6 
#
# 1 144.7453 78.2479 22.9211 0.0000 10.5019 0.0000
# 2 78.2479 182.2994 40.7039 0.0000 -1.3346 0.0000
# 3 22.9211 40.7039 51.7843 0.0000 10.3986 0.0000
# 4 0.0000 0.0000 0.0000 14.7882 0.0000 3.0601
# 5 10.5019 -1.3346 10.3986 0.0000 21.3588 0.0000
# 6 0.0000 0.0000 0.0000 3.0601 0.0000 31.5629
#
#
#
# Elastic Compliance Matrix: (Units=1/GPa)
#
#
# Indices 1 2 3 4 5 6 
#
# 1 0.009486 -0.004114 0.000025 0.000000 -0.004934 0.000000
# 2 -0.004114 0.008651 -0.006089 0.000000 0.005528 0.000000
# 3 0.000025 -0.006089 0.026783 0.000000 -0.013432 0.000000
# 4 0.000000 0.000000 0.000000 0.069006 0.000000 -0.006690
# 5 -0.004934 0.005528 -0.013432 0.000000 0.056130 0.000000
# 6 0.000000 0.000000 0.000000 -0.006690 0.000000 0.032331
#
#
# Mechanical properties :
#
#
# Convention : Reuss Voigt Hill
#
# Bulk Modulus (GPa) = 40.70736 73.61943 57.16339
# Shear Modulus (GPa) = 21.65134 29.33904 25.49519
#
# Velocity S-wave (km/s) = 3.21192 3.73891 3.48539
# Velocity P-wave (km/s) = 5.75773 7.32922 6.59048
#
# Compressibility (1/GPa) = 0.02456558
#
# Stress axis : x y z
#
# Youngs Moduli (GPa) = 105.41379 115.59028 37.33645
#
# Poissons Ratio (x) = 0.47549 -0.00094
# Poissons Ratio (y) = 0.43363 0.22736
# Poissons Ratio (z) = -0.00265 0.70387
#
# Static dielectric constant tensor:
#      x y z
#    x 4.077820 0.000000 0.053240 
#    y 0.000000 4.024940 0.000000 
#    z 0.053240 0.000000 3.470650 
# 
# 
# High freq. dielectric constant tensor:
#      x y z
#    x 1.842480 0.000000 0.007040 
#    y 0.000000 1.824210 0.000000 
#    z 0.007040 0.000000 1.798330 
# 
# From -- ./inp_files/209164.got.cif
#   From: 2010.06.25/outbox.cif.g09.slc.cpg/sg12_105_cif.got.tgz:209164.got - 2010.06.28 00:19:55.
