data_PCOD8092192
_publ_section_title
;
Structure prediction by ZEFSAII (Michael W. Deem and Ramdas Pophale) SiO2 
 PCOD8092192
Probable space group: C 2/M
;
_chemical_formula_sum "Si O2"
_cell_formula_units_Z 64
_cell_length_a 15.216035
_cell_length_b 8.801673
_cell_length_c 23.790999
_cell_angle_alpha 90.000000
_cell_angle_beta 96.744482
_cell_angle_gamma 90.000000
_cell_volume 3164.197206
_symmetry_space_group_name_H-M "C 2/M"
_symmetry_group_IT_number 12
_symmetry_cell_setting 'monoclinic'
loop_
_space_group_symop_operation_xyz
x,y,z
-x,y,-z
-x,-y,-z
x,-y,z
1/2+x,1/2+y,z
1/2-x,1/2+y,-z
1/2-x,1/2-y,-z
1/2+x,1/2-y,z
loop_
_atom_site_type_symbol
_atom_site_label
_atom_site_fract_x
_atom_site_fract_y
_atom_site_fract_z
Si Si1 0.854451 0.821044 0.362288
Si Si2 0.132822 0.826183 0.940683
Si Si3 0.195404 0.820712 0.766176
Si Si4 0.372247 0.675707 0.816109
Si Si5 0.014735 0.679042 0.437804
Si Si6 0.286572 0.821015 0.558989
Si Si7 0.947757 0.321943 0.165519
Si Si8 0.813979 0.827047 0.935055
O O1 0.838683 0.770067 0.297382
O O2 0.771914 0.761512 0.393287
O O3 0.945816 0.751212 0.389906
O O4 0.861831 0.000000 0.368073
O O5 0.065176 0.720889 0.901054
O O6 0.233380 0.789813 0.930678
O O7 0.112634 0.000000 0.922923
O O8 0.121353 0.798469 0.006724
O O9 0.297052 0.771601 0.779318
O O10 0.139216 0.731681 0.808204
O O11 0.186507 0.000000 0.775116
O O12 0.362600 0.500000 0.798620
O O13 0.466619 0.738445 0.802378
O O14 0.369224 0.700419 0.882940
O O15 0.000901 0.500000 0.435530
O O16 0.111895 0.728277 0.423920
O O17 0.000000 0.740864 0.500000
O O18 0.250000 0.750000 0.500000
O O19 0.280146 0.000000 0.551613
O O20 0.960689 0.500000 0.173119
O O21 0.776645 0.000000 0.934479
#
# Coordination Sequence:
#
# PCOD8092192 Si02
#       8
#     8   8   8   8   8   8   8   8
#     4  10  23  40  61  89 121 157 198 246 300 354
#     4  10  19  34  59  89 122 159 199 252 309 367
#     4  11  24  44  64  88 122 160 209 262 310 364
#     4  11  23  41  65  92 122 160 205 255 311 372
#     4  10  20  35  58  90 125 159 197 236 284 349
#     4  10  20  36  58  87 122 157 192 236 287 347
#     4  12  25  41  62  89 121 163 210 257 311 369
#     4   9  19  35  58  89 123 157 198 248 310 374
#
# _framework density 20.226298
#
# number of rings (size 3 to 8) (size 9 to 14) (size 15 to 20)
#    0.000    1.625    2.500    2.250    0.000    4.250 
#    0.000    3.750    0.000    0.000    0.000    0.000 
#    0.000    0.000    0.000    0.000    0.000    0.000 
#
# Total GULP energy -396910.482918 kJ/mol
# GULP energy per Si atom -12403.452591 kJ/mol
# Density = 2.018026 g / cm^3
# Si number density = 20.226298 Si / 1000 Ang^3
#
#
#
# Elastic Constant Matrix: (Units=GPa)
#
#
# Indices 1 2 3 4 5 6 
#
# 1 111.0504 19.6921 37.1742 0.0000 19.6489 0.0000
# 2 19.6921 56.3750 35.3043 0.0000 4.4647 0.0000
# 3 37.1742 35.3043 101.6857 0.0000 22.9170 0.0000
# 4 0.0000 0.0000 0.0000 27.7755 0.0000 7.1294
# 5 19.6489 4.4647 22.9170 0.0000 26.1576 0.0000
# 6 0.0000 0.0000 0.0000 7.1294 0.0000 35.1562
#
#
#
# Elastic Compliance Matrix: (Units=1/GPa)
#
#
# Indices 1 2 3 4 5 6 
#
# 1 0.011150 -0.002218 -0.001874 0.000000 -0.006355 0.000000
# 2 -0.002218 0.023410 -0.008463 0.000000 0.005085 0.000000
# 3 -0.001874 -0.008463 0.015968 0.000000 -0.011137 0.000000
# 4 0.000000 0.000000 0.000000 0.037980 0.000000 -0.007702
# 5 -0.006355 0.005085 -0.011137 0.000000 0.051893 0.000000
# 6 0.000000 0.000000 0.000000 -0.007702 0.000000 0.030006
#
#
# Mechanical properties :
#
#
# Convention : Reuss Voigt Hill
#
# Bulk Modulus (GPa) = 39.34177 50.38359 44.86268
# Shear Modulus (GPa) = 24.51105 29.61389 27.06247
#
# Velocity S-wave (km/s) = 3.48493 3.83054 3.66182
# Velocity P-wave (km/s) = 5.97377 6.67294 6.33301
#
# Compressibility (1/GPa) = 0.02541828
#
# Stress axis : x y z
#
# Youngs Moduli (GPa) = 89.68622 42.71634 62.62717
#
# Poissons Ratio (x) = 0.09474 0.11735
# Poissons Ratio (y) = 0.19892 0.53001
# Poissons Ratio (z) = 0.16806 0.36151
#
# Static dielectric constant tensor:
#      x y z
#    x 3.854440 0.000000 0.003310 
#    y 0.000000 3.598640 0.000000 
#    z 0.003310 0.000000 3.776510 
# 
# 
# High freq. dielectric constant tensor:
#      x y z
#    x 1.792690 0.000000 0.005790 
#    y 0.000000 1.786450 0.000000 
#    z 0.005790 0.000000 1.788070 
# 
# From -- ./inp_files/338662.got.cif
#   From: 2010.06.25/outbox.cif.g09.slc.cpg/sg12_170_cif.got.tgz:338662.got - 2010.06.28 00:19:55.
