data_PCOD8092776
_publ_section_title
;
Structure prediction by ZEFSAII (Michael W. Deem and Ramdas Pophale) SiO2 
 PCOD8092776
Probable space group: C 2/M
;
_chemical_formula_sum "Si O2"
_cell_formula_units_Z 44
_cell_length_a 18.504439
_cell_length_b 11.999801
_cell_length_c 13.491624
_cell_angle_alpha 90.000000
_cell_angle_beta 51.011888
_cell_angle_gamma 90.000000
_cell_volume 2328.572394
_symmetry_space_group_name_H-M "C 2/M"
_symmetry_group_IT_number 12
_symmetry_cell_setting 'monoclinic'
loop_
_space_group_symop_operation_xyz
x,y,z
-x,y,-z
-x,-y,-z
x,-y,z
1/2+x,1/2+y,z
1/2-x,1/2+y,-z
1/2-x,1/2-y,-z
1/2+x,1/2-y,z
loop_
_atom_site_type_symbol
_atom_site_label
_atom_site_fract_x
_atom_site_fract_y
_atom_site_fract_z
Si Si1 0.826428 0.000000 0.614193
Si Si2 0.971726 0.805815 0.265737
Si Si3 0.416858 0.206533 0.002452
Si Si4 0.680152 0.738834 0.472239
Si Si5 0.413722 0.500000 0.737988
Si Si6 0.709187 0.000000 0.891957
Si Si7 0.822066 0.870972 0.234037
O O1 0.830786 0.890924 0.543921
O O2 0.911379 0.000000 0.619863
O O3 0.728077 0.000000 0.757192
O O4 0.920500 0.727656 0.393587
O O5 0.894019 0.863403 0.262881
O O6 0.032754 0.893223 0.271593
O O7 0.042384 0.736685 0.139030
O O8 0.346318 0.110349 0.034792
O O9 0.364985 0.309959 0.100647
O O10 0.500000 0.161320 0.000000
O O11 0.750000 0.750000 0.500000
O O12 0.721013 0.814609 0.347479
O O13 0.306406 0.500000 0.869446
O O14 0.805132 0.000000 0.221637
#
# Coordination Sequence:
#
# PCOD8092776 Si02
#       7
#     4   8   8   8   4   4   8
#     4  10  21  39  60  84 114 149 194 227 296 343
#     4  10  21  34  54  90 113 149 195 240 284 336
#     4  10  21  37  59  85 116 152 191 248 295 338
#     4  10  21  36  56  86 117 146 185 241 289 342
#     4  10  21  37  61  84 115 157 191 246 270 346
#     4  10  21  40  57  84 112 157 192 228 297 346
#     4  10  19  35  57  83 121 149 187 238 300 344
#
# _framework density 18.895699
#
# number of rings (size 3 to 8) (size 9 to 14) (size 15 to 20)
#    0.545    1.455    2.727    0.818    5.091    3.273 
#    1.636    0.000    0.000    0.000    0.000    2.545 
#    0.000    0.000    0.000    0.000    0.000    0.000 
#
# Total GULP energy -272553.665868 kJ/mol
# GULP energy per Si atom -12388.802994 kJ/mol
# Density = 1.885269 g / cm^3
# Si number density = 18.895699 Si / 1000 Ang^3
#
#
#
# Elastic Constant Matrix: (Units=GPa)
#
#
# Indices 1 2 3 4 5 6 
#
# 1 80.7809 44.6734 38.4197 0.0000 -9.1790 0.0000
# 2 44.6734 114.5109 64.6868 0.0000 -12.6576 0.0000
# 3 38.4197 64.6868 177.1359 0.0000 -22.7208 0.0000
# 4 0.0000 0.0000 0.0000 26.7034 0.0000 -12.2414
# 5 -9.1790 -12.6576 -22.7208 0.0000 26.2970 0.0000
# 6 0.0000 0.0000 0.0000 -12.2414 0.0000 12.9210
#
#
#
# Elastic Compliance Matrix: (Units=1/GPa)
#
#
# Indices 1 2 3 4 5 6 
#
# 1 0.016186 -0.005364 -0.001303 0.000000 0.001942 0.000000
# 2 -0.005364 0.012879 -0.003357 0.000000 0.001427 0.000000
# 3 -0.001303 -0.003357 0.007747 0.000000 0.004623 0.000000
# 4 0.000000 0.000000 0.000000 0.066200 0.000000 0.062718
# 5 0.001942 0.001427 0.004623 0.000000 0.043386 0.000000
# 6 0.000000 0.000000 0.000000 0.062718 0.000000 0.136813
#
#
# Mechanical properties :
#
#
# Convention : Reuss Voigt Hill
#
# Bulk Modulus (GPa) = 59.64828 74.22084 66.93456
# Shear Modulus (GPa) = 16.18932 28.16081 22.17506
#
# Velocity S-wave (km/s) = 2.93024 3.86467 3.42943
# Velocity P-wave (km/s) = 6.56385 7.69927 7.15412
#
# Compressibility (1/GPa) = 0.01676494
#
# Stress axis : x y z
#
# Youngs Moduli (GPa) = 61.78280 77.64355 129.08615
#
# Poissons Ratio (x) = 0.41647 0.16815
# Poissons Ratio (y) = 0.33139 0.43333
# Poissons Ratio (z) = 0.08048 0.26064
#
# Static dielectric constant tensor:
#      x y z
#    x 3.216340 0.000000 -0.227240 
#    y 0.000000 3.359370 0.000000 
#    z -0.227240 0.000000 4.149190 
# 
# 
# High freq. dielectric constant tensor:
#      x y z
#    x 1.704680 0.000000 -0.009270 
#    y 0.000000 1.716140 0.000000 
#    z -0.009270 0.000000 1.761510 
# 
# From -- ./inp_files/222998.got.cif
#   From: 2010.06.25/outbox.cif.g09.slc.cpg/sg12_112_cif.got.tgz:222998.got - 2010.06.28 00:19:55.
