data_PCOD8092148
_publ_section_title
;
Structure prediction by ZEFSAII (Michael W. Deem and Ramdas Pophale) SiO2 
 PCOD8092148
Probable space group: C 2/M
;
_chemical_formula_sum "Si O2"
_cell_formula_units_Z 56
_cell_length_a 18.849646
_cell_length_b 8.681569
_cell_length_c 26.598871
_cell_angle_alpha 90.000000
_cell_angle_beta 42.376706
_cell_angle_gamma 90.000000
_cell_volume 2933.768746
_symmetry_space_group_name_H-M "C 2/M"
_symmetry_group_IT_number 12
_symmetry_cell_setting 'monoclinic'
loop_
_space_group_symop_operation_xyz
x,y,z
-x,y,-z
-x,-y,-z
x,-y,z
1/2+x,1/2+y,z
1/2-x,1/2+y,-z
1/2-x,1/2-y,-z
1/2+x,1/2-y,z
loop_
_atom_site_type_symbol
_atom_site_label
_atom_site_fract_x
_atom_site_fract_y
_atom_site_fract_z
Si Si1 0.813250 0.324313 0.300751
Si Si2 0.283310 0.819108 0.928887
Si Si3 0.273836 0.166618 0.212246
Si Si4 0.019058 0.820594 0.234224
Si Si5 0.430024 0.825125 0.689077
Si Si6 0.613824 0.827482 0.948121
Si Si7 0.585834 0.818543 0.414789
O O1 0.821774 0.500000 0.315570
O O2 0.840900 0.308325 0.227532
O O3 0.694426 0.265635 0.371938
O O4 0.900098 0.221934 0.282688
O O5 0.393262 0.758953 0.847404
O O6 0.188784 0.782291 0.940543
O O7 0.295804 0.000000 0.928785
O O8 0.250000 0.750000 0.000000
O O9 0.195875 0.308646 0.244067
O O10 0.352885 0.158099 0.126129
O O11 0.213232 0.000000 0.248392
O O12 0.024887 0.780141 0.290273
O O13 0.039036 0.000000 0.217088
O O14 0.461531 0.773854 0.615657
O O15 0.463121 0.000000 0.682985
O O16 0.609838 0.000000 0.974564
O O17 0.500000 0.751270 0.000000
O O18 0.500000 0.764777 0.500000
O O19 0.607595 0.000000 0.405453
#
# Coordination Sequence:
#
# PCOD8092148 Si02
#       7
#     8   8   8   8   8   8   8
#     4  10  21  36  58  89 120 154 197 242 291 349
#     4  12  26  43  61  85 117 156 200 248 301 352
#     4   9  18  34  55  80 111 147 187 236 289 342
#     4  12  24  40  60  85 119 158 199 245 295 349
#     4  10  19  34  59  87 114 150 192 236 286 346
#     4  10  21  37  58  84 114 149 191 240 294 347
#     4   9  19  38  63  91 123 156 193 240 293 350
#
# _framework density 19.088075
#
# number of rings (size 3 to 8) (size 9 to 14) (size 15 to 20)
#    0.000    1.714    1.429    3.429    2.000    1.714 
#    0.000    0.714    0.000    0.000    0.000    0.000 
#    0.000    0.000    0.000    0.000    0.000    0.000 
#
# Total GULP energy -346964.363637 kJ/mol
# GULP energy per Si atom -12391.584416 kJ/mol
# Density = 1.904463 g / cm^3
# Si number density = 19.088075 Si / 1000 Ang^3
#
#
#
# Elastic Constant Matrix: (Units=GPa)
#
#
# Indices 1 2 3 4 5 6 
#
# 1 114.9349 47.8772 66.3966 -0.0001 3.6014 -0.0003
# 2 47.8772 107.2336 46.9838 -0.0001 1.5862 -0.0010
# 3 66.3966 46.9838 114.1032 0.0000 11.8110 0.0000
# 4 -0.0001 -0.0001 0.0000 24.3428 0.0000 0.5346
# 5 3.6014 1.5862 11.8110 0.0000 24.9922 0.0000
# 6 -0.0003 -0.0010 0.0000 0.5346 0.0000 23.4044
#
#
#
# Elastic Compliance Matrix: (Units=1/GPa)
#
#
# Indices 1 2 3 4 5 6 
#
# 1 0.014038 -0.003225 -0.006995 0.000000 0.001487 0.000000
# 2 -0.003225 0.012178 -0.003266 0.000000 0.001235 0.000000
# 3 -0.006995 -0.003266 0.014776 0.000000 -0.005768 0.000000
# 4 0.000000 0.000000 0.000000 0.041101 0.000000 -0.000939
# 5 0.001487 0.001235 -0.005768 0.000000 0.042446 0.000000
# 6 0.000000 0.000000 0.000000 -0.000939 0.000000 0.042748
#
#
# Mechanical properties :
#
#
# Convention : Reuss Voigt Hill
#
# Bulk Modulus (GPa) = 71.32112 73.19857 72.25984
# Shear Modulus (GPa) = 25.13431 26.21548 25.67490
#
# Velocity S-wave (km/s) = 3.63265 3.70996 3.67151
# Velocity P-wave (km/s) = 7.41891 7.53543 7.47740
#
# Compressibility (1/GPa) = 0.01402109
#
# Stress axis : x y z
#
# Youngs Moduli (GPa) = 71.23414 82.11611 67.67724
#
# Poissons Ratio (x) = 0.26482 0.47339
# Poissons Ratio (y) = 0.22973 0.22101
# Poissons Ratio (z) = 0.49827 0.26816
#
# Static dielectric constant tensor:
#      x y z
#    x 3.579890 0.000000 0.259220 
#    y 0.000000 3.709880 0.000000 
#    z 0.259220 0.000000 3.518830 
# 
# 
# High freq. dielectric constant tensor:
#      x y z
#    x 1.746330 0.000000 0.011990 
#    y 0.000000 1.746110 0.000000 
#    z 0.011990 0.000000 1.732460 
# 
# From -- ./inp_files/342285.got.cif
#   From: 2010.06.25/outbox.cif.g09.slc.cpg/sg12_172_cif.got.tgz:342285.got - 2010.06.28 00:19:55.
