data_PCOD8092437
_publ_section_title
;
Structure prediction by ZEFSAII (Michael W. Deem and Ramdas Pophale) SiO2 
 PCOD8092437
Probable space group: C 2/M
;
_chemical_formula_sum "Si O2"
_cell_formula_units_Z 48
_cell_length_a 26.532560
_cell_length_b 8.862946
_cell_length_c 11.902455
_cell_angle_alpha 90.000000
_cell_angle_beta 107.210585
_cell_angle_gamma 90.000000
_cell_volume 2673.615207
_symmetry_space_group_name_H-M "C 2/M"
_symmetry_group_IT_number 12
_symmetry_cell_setting 'monoclinic'
loop_
_space_group_symop_operation_xyz
x,y,z
-x,y,-z
-x,-y,-z
x,-y,z
1/2+x,1/2+y,z
1/2-x,1/2+y,-z
1/2-x,1/2-y,-z
1/2+x,1/2-y,z
loop_
_atom_site_type_symbol
_atom_site_label
_atom_site_fract_x
_atom_site_fract_y
_atom_site_fract_z
Si Si1 0.880795 0.325548 0.402957
Si Si2 0.556828 0.177212 0.993856
Si Si3 0.806924 0.822432 0.535568
Si Si4 0.072518 0.175788 0.767307
Si Si5 0.471626 0.832313 0.630707
Si Si6 0.381033 0.830048 0.749097
O O1 0.864153 0.500000 0.388379
O O2 0.837978 0.238535 0.448238
O O3 0.882609 0.256511 0.279078
O O4 0.939102 0.305032 0.495093
O O5 0.602674 0.214540 0.113997
O O6 0.552693 0.000000 0.965976
O O7 0.500000 0.236643 0.000000
O O8 0.574675 0.261418 0.894003
O O9 0.750000 0.750000 0.500000
O O10 0.836834 0.781476 0.671303
O O11 0.801876 0.000000 0.522572
O O12 0.015803 0.206044 0.673893
O O13 0.084382 0.000000 0.776728
O O14 0.433877 0.819930 0.712094
O O15 0.497667 0.000000 0.645892
O O16 0.358225 0.000000 0.728556
#
# Coordination Sequence:
#
# PCOD8092437 Si02
#       6
#     8   8   8   8   8   8
#     4  10  21  37  55  75 103 141 184 224 270 325
#     4  10  19  35  55  74 105 153 195 221 256 316
#     4  11  22  38  61  86 111 136 172 223 279 328
#     4  12  23  31  46  76 113 147 181 224 270 316
#     4   9  17  32  51  72 102 144 185 221 262 320
#     4   9  18  34  56  80 107 142 187 227 265 315
#
# _framework density 17.953219000000001
#
# number of rings (size 3 to 8) (size 9 to 14) (size 15 to 20)
#    0.000    1.833    1.667    5.000    0.000    6.333 
#    0.000    0.000    0.000    1.000    0.000    0.000 
#    0.000    0.000    0.000    0.000    0.000    0.000 
#
# Total GULP energy -297618.979380 kJ/mol
# GULP energy per Si atom -12400.790807 kJ/mol
# Density = 1.791236 g / cm^3
# Si number density = 17.953219 Si / 1000 Ang^3
#
#
#
# Elastic Constant Matrix: (Units=GPa)
#
#
# Indices 1 2 3 4 5 6 
#
# 1 69.6721 52.5677 57.7908 0.0000 4.1848 0.0000
# 2 52.5677 133.1466 65.9904 0.0000 -5.4214 0.0000
# 3 57.7908 65.9904 114.0455 0.0000 -23.6779 0.0000
# 4 0.0000 0.0000 0.0000 28.7077 0.0000 -0.8212
# 5 4.1848 -5.4214 -23.6779 0.0000 18.4461 0.0000
# 6 0.0000 0.0000 0.0000 -0.8212 0.0000 28.6127
#
#
#
# Elastic Compliance Matrix: (Units=1/GPa)
#
#
# Indices 1 2 3 4 5 6 
#
# 1 0.049791 -0.005109 -0.033990 0.000000 -0.056428 0.000000
# 2 -0.005109 0.011648 -0.004362 0.000000 -0.001016 0.000000
# 3 -0.033990 -0.004362 0.040697 0.000000 0.058669 0.000000
# 4 0.000000 0.000000 0.000000 0.034863 0.000000 0.001001
# 5 -0.056428 -0.001016 0.058669 0.000000 0.142025 0.000000
# 6 0.000000 0.000000 0.000000 0.001001 0.000000 0.034978
#
#
# Mechanical properties :
#
#
# Convention : Reuss Voigt Hill
#
# Bulk Modulus (GPa) = 65.73001 74.39576 70.06289
# Shear Modulus (GPa) = 12.31543 24.52098 18.41820
#
# Velocity S-wave (km/s) = 2.62195 3.69972 3.20644
# Velocity P-wave (km/s) = 6.77181 7.73170 7.26762
#
# Compressibility (1/GPa) = 0.01521375
#
# Stress axis : x y z
#
# Youngs Moduli (GPa) = 20.08403 85.84952 24.57188
#
# Poissons Ratio (x) = 0.43865 0.83519
# Poissons Ratio (y) = 0.10262 0.10718
# Poissons Ratio (z) = 0.68265 0.37447
#
# Static dielectric constant tensor:
#      x y z
#    x 3.182620 0.000000 -0.145060 
#    y 0.000000 3.257480 0.000000 
#    z -0.145060 0.000000 3.498320 
# 
# 
# High freq. dielectric constant tensor:
#      x y z
#    x 1.668050 0.000000 -0.018510 
#    y 0.000000 1.693680 0.000000 
#    z -0.018510 0.000000 1.697750 
# 
# From -- ./inp_files/185958.got.cif
#   From: 2010.06.25/outbox.cif.g09.slc.cpg/sg12_93_cif.got.tgz:185958.got - 2010.06.28 00:19:55.
