data_PCOD8092528
_publ_section_title
;
Structure prediction by ZEFSAII (Michael W. Deem and Ramdas Pophale) SiO2 
 PCOD8092528
Probable space group: C 2/M
;
_chemical_formula_sum "Si O2"
_cell_formula_units_Z 64
_cell_length_a 14.961145
_cell_length_b 9.038180
_cell_length_c 28.535186
_cell_angle_alpha 90.000000
_cell_angle_beta 122.802135
_cell_angle_gamma 90.000000
_cell_volume 3243.308255
_symmetry_space_group_name_H-M "C 2/M"
_symmetry_group_IT_number 12
_symmetry_cell_setting 'monoclinic'
loop_
_space_group_symop_operation_xyz
x,y,z
-x,y,-z
-x,-y,-z
x,-y,z
1/2+x,1/2+y,z
1/2-x,1/2+y,-z
1/2-x,1/2-y,-z
1/2+x,1/2-y,z
loop_
_atom_site_type_symbol
_atom_site_label
_atom_site_fract_x
_atom_site_fract_y
_atom_site_fract_z
Si Si1 0.388241 0.328077 0.492902
Si Si2 0.971647 0.334350 0.122942
Si Si3 0.312048 0.828368 0.219703
Si Si4 0.627600 0.329131 0.232502
Si Si5 0.251349 0.837204 0.105566
Si Si6 0.951810 0.323822 0.700188
Si Si7 0.169119 0.827649 0.417045
Si Si8 0.898737 0.334090 0.003551
O O1 0.500000 0.276511 0.500000
O O2 0.368924 0.500000 0.475596
O O3 0.288673 0.235316 0.445033
O O4 0.386599 0.301251 0.548371
O O5 0.020285 0.500000 0.128476
O O6 0.876052 0.348003 0.131811
O O7 0.931161 0.262737 0.062489
O O8 0.055972 0.223505 0.168971
O O9 0.248644 0.806724 0.249896
O O10 0.247087 0.760732 0.156234
O O11 0.428877 0.759926 0.259803
O O12 0.325486 0.000000 0.210682
O O13 0.602348 0.500000 0.236871
O O14 0.616620 0.228881 0.275028
O O15 0.198111 0.000000 0.090359
O O16 0.197788 0.746457 0.048959
O O17 0.947812 0.500000 0.695530
O O18 0.906230 0.256173 0.640092
O O19 0.175014 0.000000 0.406462
O O20 0.859150 0.500000 0.001989
O O21 0.000000 0.327940 0.000000
#
# Coordination Sequence:
#
# PCOD8092528 Si02
#       8
#     8   8   8   8   8   8   8   8
#     4   9  19  38  63  91 126 165 201 238 285 338
#     4  10  20  36  55  75 107 147 182 224 287 357
#     4   9  20  38  58  80 110 148 188 235 290 349
#     4  11  22  37  59  86 111 141 191 246 290 341
#     4  10  19  35  56  75 101 141 187 227 279 350
#     4  11  22  41  62  81 117 161 196 234 290 346
#     4  10  21  37  59  91 126 157 200 247 284 331
#     4  10  21  34  49  76 109 137 176 231 286 341
#
# _framework density 19.732938000000001
#
# number of rings (size 3 to 8) (size 9 to 14) (size 15 to 20)
#    0.000    2.000    1.250    2.250    0.000    3.000 
#    0.000    5.625    0.000    0.000    0.000    0.000 
#    0.000    0.000    0.000    0.000    0.000    0.000 
#
# Total GULP energy -396690.577780 kJ/mol
# GULP energy per Si atom -12396.580556 kJ/mol
# Density = 1.968802 g / cm^3
# Si number density = 19.732938 Si / 1000 Ang^3
#
#
#
# Elastic Constant Matrix: (Units=GPa)
#
#
# Indices 1 2 3 4 5 6 
#
# 1 95.2035 26.7864 31.5549 0.0000 -11.9938 0.0000
# 2 26.7864 72.2084 44.2745 0.0000 -2.4623 0.0000
# 3 31.5549 44.2745 120.9644 0.0000 -10.5805 0.0000
# 4 0.0000 0.0000 0.0000 38.0685 0.0000 1.6182
# 5 -11.9938 -2.4623 -10.5805 0.0000 17.9888 0.0000
# 6 0.0000 0.0000 0.0000 1.6182 0.0000 33.9949
#
#
#
# Elastic Compliance Matrix: (Units=1/GPa)
#
#
# Indices 1 2 3 4 5 6 
#
# 1 0.012921 -0.003699 -0.001378 0.000000 0.007298 0.000000
# 2 -0.003699 0.018952 -0.006284 0.000000 -0.003568 0.000000
# 3 -0.001378 -0.006284 0.011355 0.000000 0.004900 0.000000
# 4 0.000000 0.000000 0.000000 0.026322 0.000000 -0.001253
# 5 0.007298 -0.003568 0.004900 0.000000 0.062849 0.000000
# 6 0.000000 0.000000 0.000000 -0.001253 0.000000 0.029476
#
#
# Mechanical properties :
#
#
# Convention : Reuss Voigt Hill
#
# Bulk Modulus (GPa) = 48.76758 54.84532 51.80645
# Shear Modulus (GPa) = 26.11883 30.39449 28.25666
#
# Velocity S-wave (km/s) = 3.64210 3.92891 3.78822
# Velocity P-wave (km/s) = 6.51567 6.95959 6.74129
#
# Compressibility (1/GPa) = 0.02050543
#
# Stress axis : x y z
#
# Youngs Moduli (GPa) = 77.39450 52.76394 88.06712
#
# Poissons Ratio (x) = 0.19518 0.12138
# Poissons Ratio (y) = 0.28629 0.55341
# Poissons Ratio (z) = 0.10667 0.33156
#
# Static dielectric constant tensor:
#      x y z
#    x 3.650530 0.000000 -0.082840 
#    y 0.000000 3.530050 0.000000 
#    z -0.082840 0.000000 3.633010 
# 
# 
# High freq. dielectric constant tensor:
#      x y z
#    x 1.774960 0.000000 -0.009400 
#    y 0.000000 1.754250 0.000000 
#    z -0.009400 0.000000 1.771680 
# 
# From -- ./inp_files/375086.got.cif
#   From: 2010.06.25/outbox.cif.g09.slc.cpg/sg12_188_cif.got.tgz:375086.got - 2010.06.28 00:19:55.
