data_PCOD8092646
_publ_section_title
;
Structure prediction by ZEFSAII (Michael W. Deem and Ramdas Pophale) SiO2 
 PCOD8092646
Probable space group: C 2/M
;
_chemical_formula_sum "Si O2"
_cell_formula_units_Z 64
_cell_length_a 20.354321
_cell_length_b 8.944802
_cell_length_c 21.785847
_cell_angle_alpha 90.000000
_cell_angle_beta 62.379764
_cell_angle_gamma 90.000000
_cell_volume 3514.431453
_symmetry_space_group_name_H-M "C 2/M"
_symmetry_group_IT_number 12
_symmetry_cell_setting 'monoclinic'
loop_
_space_group_symop_operation_xyz
x,y,z
-x,y,-z
-x,-y,-z
x,-y,z
1/2+x,1/2+y,z
1/2-x,1/2+y,-z
1/2-x,1/2-y,-z
1/2+x,1/2-y,z
loop_
_atom_site_type_symbol
_atom_site_label
_atom_site_fract_x
_atom_site_fract_y
_atom_site_fract_z
Si Si1 0.432846 0.177154 0.652804
Si Si2 0.921520 0.822247 0.055527
Si Si3 0.694527 0.674896 0.645863
Si Si4 0.772530 0.823530 0.053408
Si Si5 0.158016 0.175961 0.793095
Si Si6 0.696470 0.177021 0.207092
Si Si7 0.913384 0.174340 0.415941
Si Si8 0.647503 0.675764 0.424785
O O1 0.381489 0.234373 0.731696
O O2 0.514901 0.230860 0.632253
O O3 0.405403 0.246272 0.601137
O O4 0.430655 0.000000 0.647091
O O5 0.854710 0.771420 0.039353
O O6 0.904699 0.763004 0.132492
O O7 0.927014 0.000000 0.052290
O O8 0.000000 0.751698 0.000000
O O9 0.715374 0.500000 0.637445
O O10 0.644426 0.716550 0.727600
O O11 0.649617 0.720234 0.605149
O O12 0.769064 0.768570 0.616003
O O13 0.711712 0.771021 0.130557
O O14 0.771087 0.000000 0.045547
O O15 0.750000 0.750000 0.000000
O O16 0.238283 0.241115 0.777683
O O17 0.160132 0.000000 0.801889
O O18 0.698120 0.000000 0.208684
O O19 0.884259 0.219007 0.495165
O O20 0.933012 0.000000 0.402672
O O21 0.645378 0.500000 0.414431
#
# Coordination Sequence:
#
# PCOD8092646 Si02
#       8
#     8   8   8   8   8   8   8   8
#     4  11  21  36  58  78  99 137 186 220 253 313
#     4   8  14  26  47  75 102 128 164 206 248 293
#     4  10  19  35  57  77 101 137 180 213 252 315
#     4   9  17  31  51  75 104 134 165 206 253 300
#     4   8  13  26  50  73  95 128 169 211 246 290
#     4   8  15  30  52  74  97 132 174 211 248 294
#     4  10  23  38  50  76 114 140 162 215 280 314
#     4  11  22  36  55  77 106 138 170 216 271 316
#
# _framework density 18.210626999999999
#
# number of rings (size 3 to 8) (size 9 to 14) (size 15 to 20)
#    0.000    2.625    1.250    3.000    0.000    3.000 
#    2.250    1.250    0.000    0.375    0.000    0.000 
#    0.000    0.000    0.000    0.000    0.000    0.000 
#
# Total GULP energy -396611.751379 kJ/mol
# GULP energy per Si atom -12394.117231 kJ/mol
# Density = 1.816918 g / cm^3
# Si number density = 18.210627 Si / 1000 Ang^3
#
#
#
# Elastic Constant Matrix: (Units=GPa)
#
#
# Indices 1 2 3 4 5 6 
#
# 1 58.5355 14.2545 34.5097 0.0003 -2.4511 0.0001
# 2 14.2545 27.6198 20.1306 0.0004 0.1947 0.0005
# 3 34.5097 20.1306 123.6726 0.0001 -4.9124 0.0003
# 4 0.0003 0.0004 0.0001 18.0740 0.0000 1.4860
# 5 -2.4511 0.1947 -4.9124 0.0000 34.6840 0.0002
# 6 0.0001 0.0005 0.0003 1.4860 0.0002 27.7595
#
#
#
# Elastic Compliance Matrix: (Units=1/GPa)
#
#
# Indices 1 2 3 4 5 6 
#
# 1 0.021843 -0.007787 -0.004791 0.000000 0.000909 0.000000
# 2 -0.007787 0.043904 -0.005033 -0.000001 -0.001510 -0.000001
# 3 -0.004791 -0.005033 0.010288 0.000000 0.001147 0.000000
# 4 0.000000 -0.000001 0.000000 0.055573 0.000000 -0.002975
# 5 0.000909 -0.001510 0.001147 0.000000 0.029067 0.000000
# 6 0.000000 -0.000001 0.000000 -0.002975 0.000000 0.036183
#
#
# Mechanical properties :
#
#
# Convention : Reuss Voigt Hill
#
# Bulk Modulus (GPa) = 24.50346 38.62417 31.56382
# Shear Modulus (GPa) = 20.35126 25.49903 22.92514
#
# Velocity S-wave (km/s) = 3.34660 3.74602 3.55193
# Velocity P-wave (km/s) = 5.33083 6.32186 5.84738
#
# Compressibility (1/GPa) = 0.04081056
#
# Stress axis : x y z
#
# Youngs Moduli (GPa) = 45.78165 22.77685 97.20337
#
# Poissons Ratio (x) = 0.17737 0.46574
# Poissons Ratio (y) = 0.35651 0.48927
# Poissons Ratio (z) = 0.21936 0.11465
#
# Static dielectric constant tensor:
#      x y z
#    x 3.341070 0.000000 -0.053860 
#    y 0.000000 2.989610 0.000000 
#    z -0.053860 0.000000 3.886210 
# 
# 
# High freq. dielectric constant tensor:
#      x y z
#    x 1.695680 0.000000 0.000220 
#    y 0.000000 1.666680 0.000000 
#    z 0.000220 0.000000 1.725800 
# 
# From -- ./inp_files/345522.got.cif
#   From: 2010.06.25/outbox.cif.g09.slc.cpg/sg12_173_cif.got.tgz:345522.got - 2010.06.28 00:19:55.
