data_PCOD8092623
_publ_section_title
;
Structure prediction by ZEFSAII (Michael W. Deem and Ramdas Pophale) SiO2 
 PCOD8092623
Probable space group: C 2/M
;
_chemical_formula_sum "Si O2"
_cell_formula_units_Z 56
_cell_length_a 17.264547
_cell_length_b 17.839329
_cell_length_c 15.101671
_cell_angle_alpha 90.000000
_cell_angle_beta 141.294322
_cell_angle_gamma 90.000000
_cell_volume 2908.446115
_symmetry_space_group_name_H-M "C 2/M"
_symmetry_group_IT_number 12
_symmetry_cell_setting 'monoclinic'
loop_
_space_group_symop_operation_xyz
x,y,z
-x,y,-z
-x,-y,-z
x,-y,z
1/2+x,1/2+y,z
1/2-x,1/2+y,-z
1/2-x,1/2-y,-z
1/2+x,1/2-y,z
loop_
_atom_site_type_symbol
_atom_site_label
_atom_site_fract_x
_atom_site_fract_y
_atom_site_fract_z
Si Si1 0.479908 0.228235 0.840886
Si Si2 0.427757 0.085604 0.168702
Si Si3 0.458923 0.416769 0.561467
Si Si4 0.724896 0.582252 0.852264
Si Si5 0.120305 0.780113 0.417673
Si Si6 0.552689 0.171189 0.637512
Si Si7 0.298121 0.769054 0.834050
O O1 0.485590 0.142111 0.810347
O O2 0.469892 0.284009 0.748330
O O3 0.356588 0.237932 0.789205
O O4 0.601703 0.253591 0.002185
O O5 0.424900 0.107032 0.269671
O O6 0.476241 0.000000 0.202583
O O7 0.288852 0.094076 0.005051
O O8 0.500000 0.390949 0.500000
O O9 0.400458 0.500000 0.505629
O O10 0.577337 0.413740 0.732290
O O11 0.360120 0.360437 0.517325
O O12 0.762002 0.500000 0.847067
O O13 0.765858 0.643662 0.817364
O O14 0.250000 0.750000 0.500000
O O15 0.056658 0.727153 0.432725
O O16 0.500000 0.134061 0.500000
O O17 0.680095 0.216056 0.737301
#
# Coordination Sequence:
#
# PCOD8092623 Si02
#       7
#     8   8   8   8   8   8   8
#     4   9  21  34  55  84 112 149 183 231 282 330
#     4   9  20  37  55  82 113 147 189 230 282 334
#     4  10  21  36  56  84 114 148 187 229 282 337
#     4   9  18  32  56  83 111 145 183 228 277 333
#     4  11  22  35  55  81 115 147 188 231 282 334
#     4  11  22  35  58  80 110 151 190 236 278 332
#     4  10  19  35  56  83 115 145 187 228 278 340
#
# _framework density 19.254268
#
# number of rings (size 3 to 8) (size 9 to 14) (size 15 to 20)
#    0.000    2.143    1.429    1.286    4.000    2.571 
#    0.000    5.714    0.000    2.571    0.000    2.000 
#    0.000    0.000    0.000    0.000    0.000    0.000 
#
# Total GULP energy -347036.532409 kJ/mol
# GULP energy per Si atom -12394.161872 kJ/mol
# Density = 1.921044 g / cm^3
# Si number density = 19.254268 Si / 1000 Ang^3
#
#
#
# Elastic Constant Matrix: (Units=GPa)
#
#
# Indices 1 2 3 4 5 6 
#
# 1 99.5531 45.6887 39.4684 0.0000 -0.4173 0.0000
# 2 45.6887 93.4093 30.5871 0.0000 -6.1987 0.0000
# 3 39.4684 30.5871 80.8469 0.0000 -11.9248 0.0000
# 4 0.0000 0.0000 0.0000 22.5688 0.0000 -1.5616
# 5 -0.4173 -6.1987 -11.9248 0.0000 37.9085 0.0000
# 6 0.0000 0.0000 0.0000 -1.5616 0.0000 25.4077
#
#
#
# Elastic Compliance Matrix: (Units=1/GPa)
#
#
# Indices 1 2 3 4 5 6 
#
# 1 0.014767 -0.005601 -0.005454 0.000000 -0.002469 0.000000
# 2 -0.005601 0.014355 -0.002475 0.000000 0.001507 0.000000
# 3 -0.005454 -0.002475 0.016673 0.000000 0.004780 0.000000
# 4 0.000000 0.000000 0.000000 0.044498 0.000000 0.002735
# 5 -0.002469 0.001507 0.004780 0.000000 0.028102 0.000000
# 6 0.000000 0.000000 0.000000 0.002735 0.000000 0.039526
#
#
# Mechanical properties :
#
#
# Convention : Reuss Voigt Hill
#
# Bulk Modulus (GPa) = 53.37253 56.14419 54.75836
# Shear Modulus (GPa) = 26.14681 27.71467 26.93074
#
# Velocity S-wave (km/s) = 3.68907 3.79806 3.74396
# Velocity P-wave (km/s) = 6.77685 6.96106 6.86957
#
# Compressibility (1/GPa) = 0.01873623
#
# Stress axis : x y z
#
# Youngs Moduli (GPa) = 67.71650 69.66009 59.97678
#
# Poissons Ratio (x) = 0.39016 0.32714
# Poissons Ratio (y) = 0.37927 0.14841
# Poissons Ratio (z) = 0.36936 0.17238
#
# Static dielectric constant tensor:
#      x y z
#    x 3.356780 0.000000 -0.149580 
#    y 0.000000 3.464720 0.000000 
#    z -0.149580 0.000000 3.916620 
# 
# 
# High freq. dielectric constant tensor:
#      x y z
#    x 1.727560 0.000000 -0.008550 
#    y 0.000000 1.728470 0.000000 
#    z -0.008550 0.000000 1.773480 
# 
# From -- ./inp_files/226579.got.cif
#   From: 2010.06.25/outbox.cif.g09.slc.cpg/sg12_114_cif.got.tgz:226579.got - 2010.06.28 00:19:55.
