data_PCOD8092183
_publ_section_title
;
Structure prediction by ZEFSAII (Michael W. Deem and Ramdas Pophale) SiO2 
 PCOD8092183
Probable space group: C 2/M
;
_chemical_formula_sum "Si O2"
_cell_formula_units_Z 64
_cell_length_a 32.505955
_cell_length_b 8.843169
_cell_length_c 15.260864
_cell_angle_alpha 90.000000
_cell_angle_beta 133.167468
_cell_angle_gamma 90.000000
_cell_volume 3199.559898
_symmetry_space_group_name_H-M "C 2/M"
_symmetry_group_IT_number 12
_symmetry_cell_setting 'monoclinic'
loop_
_space_group_symop_operation_xyz
x,y,z
-x,y,-z
-x,-y,-z
x,-y,z
1/2+x,1/2+y,z
1/2-x,1/2+y,-z
1/2-x,1/2-y,-z
1/2+x,1/2-y,z
loop_
_atom_site_type_symbol
_atom_site_label
_atom_site_fract_x
_atom_site_fract_y
_atom_site_fract_z
Si Si1 0.546354 0.823240 0.898451
Si Si2 0.373963 0.824508 0.486319
Si Si3 0.221122 0.321889 0.040944
Si Si4 0.752245 0.175557 0.742862
Si Si5 0.360971 0.820569 0.823620
Si Si6 0.063430 0.822355 0.585094
Si Si7 0.605701 0.323271 0.836809
Si Si8 0.419764 0.822176 0.735457
O O1 0.552516 0.725953 0.818261
O O2 0.485111 0.782938 0.847936
O O3 0.550600 0.000000 0.881573
O O4 0.593424 0.773805 0.036861
O O5 0.306969 0.797830 0.391681
O O6 0.402803 0.746892 0.445776
O O7 0.398598 0.753583 0.612145
O O8 0.389005 0.000000 0.500587
O O9 0.227529 0.500000 0.045781
O O10 0.252172 0.263164 0.172221
O O11 0.250000 0.250000 0.000000
O O12 0.156211 0.275516 0.949544
O O13 0.801527 0.241231 0.754164
O O14 0.763893 0.000000 0.778429
O O15 0.383269 0.757905 0.762997
O O16 0.352098 0.000000 0.811057
O O17 0.095850 0.780812 0.721623
O O18 0.000000 0.756631 0.500000
O O19 0.060626 0.000000 0.565912
O O20 0.618586 0.500000 0.866388
O O21 0.410348 0.000000 0.719113
#
# Coordination Sequence:
#
# PCOD8092183 Si02
#       8
#     8   8   8   8   8   8   8   8
#     4  10  19  34  59  89 118 152 195 243 293 352
#     4  10  22  39  59  84 115 156 201 244 289 342
#     4  12  24  39  59  84 113 149 192 237 290 347
#     4  11  23  39  58  84 120 156 195 245 293 344
#     4  10  20  36  60  88 117 155 198 243 296 353
#     4  10  22  39  58  84 119 157 194 235 289 347
#     4  11  22  36  57  85 118 154 189 235 290 345
#     4   9  19  37  60  86 117 153 199 248 295 348
#
# _framework density 20.002749000000001
#
# number of rings (size 3 to 8) (size 9 to 14) (size 15 to 20)
#    0.000    1.625    1.250    3.750    0.000    6.250 
#    0.000    1.250    0.000    1.500    0.000    0.000 
#    0.000    0.000    0.000    0.000    0.000    0.000 
#
# Total GULP energy -396895.447088 kJ/mol
# GULP energy per Si atom -12402.982722 kJ/mol
# Density = 1.995722 g / cm^3
# Si number density = 20.002749 Si / 1000 Ang^3
#
#
#
# Elastic Constant Matrix: (Units=GPa)
#
#
# Indices 1 2 3 4 5 6 
#
# 1 153.7027 37.6199 51.3604 0.0000 -15.6681 0.0000
# 2 37.6199 66.9828 35.4531 0.0000 -5.7721 0.0000
# 3 51.3604 35.4531 102.2982 0.0000 -6.1023 0.0000
# 4 0.0000 0.0000 0.0000 18.0372 0.0000 2.4899
# 5 -15.6681 -5.7721 -6.1023 0.0000 38.2211 0.0000
# 6 0.0000 0.0000 0.0000 2.4899 0.0000 32.1752
#
#
#
# Elastic Compliance Matrix: (Units=1/GPa)
#
#
# Indices 1 2 3 4 5 6 
#
# 1 0.008521 -0.002917 -0.003115 0.000000 0.002555 0.000000
# 2 -0.002917 0.019400 -0.005205 0.000000 0.000903 0.000000
# 3 -0.003115 -0.005205 0.013145 0.000000 0.000036 0.000000
# 4 0.000000 0.000000 0.000000 0.056040 0.000000 -0.004337
# 5 0.002555 0.000903 0.000036 0.000000 0.027353 0.000000
# 6 0.000000 0.000000 0.000000 -0.004337 0.000000 0.031415
#
#
# Mechanical properties :
#
#
# Convention : Reuss Voigt Hill
#
# Bulk Modulus (GPa) = 53.78394 63.53894 58.66144
# Shear Modulus (GPa) = 27.09336 30.92337 29.00837
#
# Velocity S-wave (km/s) = 3.68432 3.93613 3.81231
# Velocity P-wave (km/s) = 6.71160 7.24511 6.98345
#
# Compressibility (1/GPa) = 0.01859291
#
# Stress axis : x y z
#
# Youngs Moduli (GPa) = 117.35175 51.54557 76.07290
#
# Poissons Ratio (x) = 0.15036 0.23696
# Poissons Ratio (y) = 0.34232 0.39597
# Poissons Ratio (z) = 0.36554 0.26830
#
# Static dielectric constant tensor:
#      x y z
#    x 3.852140 0.000000 -0.018940 
#    y 0.000000 3.458840 0.000000 
#    z -0.018940 0.000000 3.799790 
# 
# 
# High freq. dielectric constant tensor:
#      x y z
#    x 1.796970 0.000000 0.000280 
#    y 0.000000 1.761630 0.000000 
#    z 0.000280 0.000000 1.787270 
# 
# From -- ./inp_files/250063.got.cif
#   From: 2010.06.25/outbox.cif.g09.slc.cpg/sg12_126_cif.got.tgz:250063.got - 2010.06.28 00:19:55.
