data_PCOD8092846
_publ_section_title
;
Structure prediction by ZEFSAII (Michael W. Deem and Ramdas Pophale) SiO2 
 PCOD8092846
Probable space group: C 2/M
;
_chemical_formula_sum "Si O2"
_cell_formula_units_Z 64
_cell_length_a 29.953032
_cell_length_b 8.671521
_cell_length_c 14.801401
_cell_angle_alpha 90.000000
_cell_angle_beta 60.607737
_cell_angle_gamma 90.000000
_cell_volume 3349.628837
_symmetry_space_group_name_H-M "C 2/M"
_symmetry_group_IT_number 12
_symmetry_cell_setting 'monoclinic'
loop_
_space_group_symop_operation_xyz
x,y,z
-x,y,-z
-x,-y,-z
x,-y,z
1/2+x,1/2+y,z
1/2-x,1/2+y,-z
1/2-x,1/2-y,-z
1/2+x,1/2-y,z
loop_
_atom_site_type_symbol
_atom_site_label
_atom_site_fract_x
_atom_site_fract_y
_atom_site_fract_z
Si Si1 0.139337 0.817909 0.442261
Si Si2 0.883725 0.816325 0.731966
Si Si3 0.247233 0.818133 0.403700
Si Si4 0.356400 0.180924 0.224219
Si Si5 0.964600 0.181077 0.792786
Si Si6 0.920629 0.183339 0.321404
Si Si7 0.121518 0.180764 0.985241
Si Si8 0.805809 0.318339 0.945253
O O1 0.116928 0.753356 0.370026
O O2 0.196568 0.752720 0.403968
O O3 0.100778 0.768701 0.559533
O O4 0.142915 0.000000 0.431914
O O5 0.934897 0.757191 0.732893
O O6 0.834333 0.750327 0.830651
O O7 0.880605 0.000000 0.739730
O O8 0.250000 0.750000 0.500000
O O9 0.297017 0.770826 0.296106
O O10 0.243946 0.000000 0.418498
O O11 0.387264 0.227923 0.281797
O O12 0.380732 0.272861 0.116729
O O13 0.361944 0.000000 0.201162
O O14 0.021600 0.249965 0.742169
O O15 0.970725 0.000000 0.777444
O O16 0.932639 0.225447 0.914288
O O17 0.916876 0.000000 0.308540
O O18 0.131919 0.000000 0.986022
O O19 0.167096 0.272267 0.988109
O O20 0.803543 0.500000 0.939802
O O21 0.750000 0.250000 0.000000
#
# Coordination Sequence:
#
# PCOD8092846 Si02
#       8
#     8   8   8   8   8   8   8   8
#     4   9  18  32  55  83 109 142 183 227 276 330
#     4   9  18  35  56  81 113 145 181 229 281 330
#     4  10  20  35  53  77 109 145 181 226 277 325
#     4  11  23  36  53  82 115 147 185 230 279 332
#     4   8  17  34  57  83 109 139 181 236 283 324
#     4  10  19  35  58  81 108 146 190 230 275 331
#     4  10  21  39  59  82 111 144 184 231 283 331
#     4  11  22  37  56  82 112 147 188 229 274 328
#
# _framework density 19.106594000000001
#
# number of rings (size 3 to 8) (size 9 to 14) (size 15 to 20)
#    0.000    2.250    1.250    2.625    1.750    1.500 
#    0.000    9.375    0.000    0.000    0.000    4.375 
#    0.000    0.000    0.000    0.000    0.000    0.000 
#
# Total GULP energy -396777.088823 kJ/mol
# GULP energy per Si atom -12399.284026 kJ/mol
# Density = 1.906311 g / cm^3
# Si number density = 19.106594 Si / 1000 Ang^3
#
#
#
# Elastic Constant Matrix: (Units=GPa)
#
#
# Indices 1 2 3 4 5 6 
#
# 1 66.0771 12.1814 44.5481 0.0000 -26.0060 0.0000
# 2 12.1814 23.0535 17.0224 0.0000 -4.7186 0.0000
# 3 44.5481 17.0224 120.0383 0.0000 -0.4008 0.0000
# 4 0.0000 0.0000 0.0000 23.6121 0.0000 2.8425
# 5 -26.0060 -4.7186 -0.4008 0.0000 38.9091 0.0000
# 6 0.0000 0.0000 0.0000 2.8425 0.0000 24.7690
#
#
#
# Elastic Compliance Matrix: (Units=1/GPa)
#
#
# Indices 1 2 3 4 5 6 
#
# 1 0.031270 -0.004307 -0.010926 0.000000 0.020265 0.000000
# 2 -0.004307 0.050391 -0.005537 0.000000 0.003175 0.000000
# 3 -0.010926 -0.005537 0.013145 0.000000 -0.007839 0.000000
# 4 0.000000 0.000000 0.000000 0.042944 0.000000 -0.004928
# 5 0.020265 0.003175 -0.007839 0.000000 0.039550 0.000000
# 6 0.000000 0.000000 0.000000 -0.004928 0.000000 0.040939
#
#
# Mechanical properties :
#
#
# Convention : Reuss Voigt Hill
#
# Bulk Modulus (GPa) = 18.77389 39.63031 29.20210
# Shear Modulus (GPa) = 18.01572 26.48584 22.25078
#
# Velocity S-wave (km/s) = 3.07401 3.72723 3.41627
# Velocity P-wave (km/s) = 4.73778 6.26975 5.55681
#
# Compressibility (1/GPa) = 0.05326546
#
# Stress axis : x y z
#
# Youngs Moduli (GPa) = 31.97948 19.84462 76.07665
#
# Poissons Ratio (x) = 0.08547 0.83124
# Poissons Ratio (y) = 0.13774 0.42123
# Poissons Ratio (z) = 0.34942 0.10988
#
# Static dielectric constant tensor:
#      x y z
#    x 3.871340 0.000000 0.015780 
#    y 0.000000 3.259000 0.000000 
#    z 0.015780 0.000000 3.792690 
# 
# 
# High freq. dielectric constant tensor:
#      x y z
#    x 1.751090 0.000000 -0.000320 
#    y 0.000000 1.716240 0.000000 
#    z -0.000320 0.000000 1.750800 
# 
# From -- ./inp_files/249058.got.cif
#   From: 2010.06.25/outbox.cif.g09.slc.cpg/sg12_125_cif.got.tgz:249058.got - 2010.06.28 00:19:55.
