data_PCOD8092896
_publ_section_title
;
Structure prediction by ZEFSAII (Michael W. Deem and Ramdas Pophale) SiO2 
 PCOD8092896
Probable space group: C 2/M
;
_chemical_formula_sum "Si O2"
_cell_formula_units_Z 56
_cell_length_a 9.487047
_cell_length_b 18.225408
_cell_length_c 16.278585
_cell_angle_alpha 90.000000
_cell_angle_beta 71.379157
_cell_angle_gamma 90.000000
_cell_volume 2667.313062
_symmetry_space_group_name_H-M "C 2/M"
_symmetry_group_IT_number 12
_symmetry_cell_setting 'monoclinic'
loop_
_space_group_symop_operation_xyz
x,y,z
-x,y,-z
-x,-y,-z
x,-y,z
1/2+x,1/2+y,z
1/2-x,1/2+y,-z
1/2-x,1/2-y,-z
1/2+x,1/2-y,z
loop_
_atom_site_type_symbol
_atom_site_label
_atom_site_fract_x
_atom_site_fract_y
_atom_site_fract_z
Si Si1 0.442994 0.183436 0.723904
Si Si2 0.761596 0.083535 0.326797
Si Si3 0.964426 0.916555 0.130030
Si Si4 0.258604 0.172773 0.090377
Si Si5 0.001055 0.086713 0.408084
Si Si6 0.245188 0.171957 0.271585
Si Si7 0.215358 0.342950 0.088463
O O1 0.388044 0.130901 0.660088
O O2 0.621092 0.193774 0.691457
O O3 0.363452 0.260676 0.727092
O O4 0.406155 0.144467 0.818134
O O5 0.873580 0.093334 0.230695
O O6 0.849992 0.112440 0.390621
O O7 0.709871 0.000000 0.347584
O O8 0.854001 0.898447 0.075067
O O9 0.090781 0.855236 0.108486
O O10 0.024856 0.000000 0.110285
O O11 0.311411 0.144466 0.170512
O O12 0.273785 0.260099 0.086014
O O13 0.349277 0.143612 0.992394
O O14 0.000000 0.120535 0.500000
O O15 0.149512 0.109400 0.332351
O O16 0.005626 0.000000 0.409873
#
# Coordination Sequence:
#
# PCOD8092896 Si02
#       7
#     8   8   8   8   8   8   8
#     4  10  22  37  58  85 120 160 199 241 290 349
#     4   9  18  37  61  85 116 153 192 239 298 356
#     4  10  19  35  58  83 114 156 207 252 298 359
#     4  10  20  32  53  82 118 155 203 251 294 352
#     4  10  21  40  66  92 116 146 190 243 301 366
#     4  11  22  37  59  85 118 157 198 245 296 353
#     4   9  21  33  50  83 118 158 201 250 295 342
#
# _framework density 20.994910999999998
#
# number of rings (size 3 to 8) (size 9 to 14) (size 15 to 20)
#    0.000    2.143    1.429    1.286   10.000    2.286 
#    0.000    3.571    0.000    2.571    0.000    6.000 
#    0.000    0.000    0.000    0.000    0.000    0.000 
#
# Total GULP energy -346945.240659 kJ/mol
# GULP energy per Si atom -12390.901452 kJ/mol
# Density = 2.094713 g / cm^3
# Si number density = 20.994911 Si / 1000 Ang^3
#
#
#
# Elastic Constant Matrix: (Units=GPa)
#
#
# Indices 1 2 3 4 5 6 
#
# 1 125.2919 30.3476 38.6848 0.0000 26.2743 0.0000
# 2 30.3476 48.4397 20.6113 0.0000 8.5597 0.0000
# 3 38.6848 20.6113 88.7207 0.0000 36.2373 0.0000
# 4 0.0000 0.0000 0.0000 21.8716 0.0000 2.8619
# 5 26.2743 8.5597 36.2373 0.0000 30.3069 0.0000
# 6 0.0000 0.0000 0.0000 2.8619 0.0000 32.4774
#
#
#
# Elastic Compliance Matrix: (Units=1/GPa)
#
#
# Indices 1 2 3 4 5 6 
#
# 1 0.010990 -0.005354 -0.000536 0.000000 -0.007375 0.000000
# 2 -0.005354 0.025518 -0.004976 0.000000 0.003384 0.000000
# 3 -0.000536 -0.004976 0.023253 0.000000 -0.025933 0.000000
# 4 0.000000 0.000000 0.000000 0.046255 0.000000 -0.004076
# 5 -0.007375 0.003384 -0.025933 0.000000 0.069441 0.000000
# 6 0.000000 0.000000 0.000000 -0.004076 0.000000 0.031150
#
#
# Mechanical properties :
#
#
# Convention : Reuss Voigt Hill
#
# Bulk Modulus (GPa) = 26.29553 49.08220 37.68887
# Shear Modulus (GPa) = 20.74550 28.45176 24.59863
#
# Velocity S-wave (km/s) = 3.14685 3.68526 3.42665
# Velocity P-wave (km/s) = 5.07498 6.44493 5.80054
#
# Compressibility (1/GPa) = 0.03802927
#
# Stress axis : x y z
#
# Youngs Moduli (GPa) = 90.98984 39.18823 43.00454
#
# Poissons Ratio (x) = 0.20982 0.02305
# Poissons Ratio (y) = 0.48717 0.21399
# Poissons Ratio (z) = 0.04877 0.19500
#
# Static dielectric constant tensor:
#      x y z
#    x 3.785860 0.000000 0.440610 
#    y 0.000000 3.631000 0.000000 
#    z 0.440610 0.000000 4.179470 
# 
# 
# High freq. dielectric constant tensor:
#      x y z
#    x 1.813100 0.000000 0.025050 
#    y 0.000000 1.801070 0.000000 
#    z 0.025050 0.000000 1.811210 
# 
# From -- ./inp_files/256998.got.cif
#   From: 2010.06.25/outbox.cif.g09.slc.cpg/sg12_129_cif.got.tgz:256998.got - 2010.06.28 00:19:55.
