data_PCOD8092229
_publ_section_title
;
Structure prediction by ZEFSAII (Michael W. Deem and Ramdas Pophale) SiO2 
 PCOD8092229
Probable space group: C 2/M
;
_chemical_formula_sum "Si O2"
_cell_formula_units_Z 40
_cell_length_a 20.558609
_cell_length_b 19.073284
_cell_length_c 12.876462
_cell_angle_alpha 90.000000
_cell_angle_beta 156.741390
_cell_angle_gamma 90.000000
_cell_volume 1993.806483
_symmetry_space_group_name_H-M "C 2/M"
_symmetry_group_IT_number 12
_symmetry_cell_setting 'monoclinic'
loop_
_space_group_symop_operation_xyz
x,y,z
-x,y,-z
-x,-y,-z
x,-y,z
1/2+x,1/2+y,z
1/2-x,1/2+y,-z
1/2-x,1/2-y,-z
1/2+x,1/2-y,z
loop_
_atom_site_type_symbol
_atom_site_label
_atom_site_fract_x
_atom_site_fract_y
_atom_site_fract_z
Si Si1 0.056829 0.331687 0.466504
Si Si2 0.677408 0.080316 0.309544
Si Si3 0.188454 0.080630 0.267328
Si Si4 0.611461 0.321894 0.517125
Si Si5 0.268588 0.324418 0.084148
O O1 0.218364 0.379836 0.690759
O O2 0.088616 0.259223 0.450087
O O3 0.000000 0.313110 0.500000
O O4 0.895079 0.370081 0.180749
O O5 0.698102 0.091183 0.463689
O O6 0.811150 0.132517 0.459561
O O7 0.720024 0.000000 0.342985
O O8 0.500000 0.099723 0.000000
O O9 0.178333 0.000000 0.219965
O O10 0.000000 0.109534 0.000000
O O11 0.436712 0.358923 0.288230
O O12 0.729753 0.318668 0.789853
O O13 0.250000 0.250000 0.000000
#
# Coordination Sequence:
#
# PCOD8092229 Si02
#       5
#     8   8   8   8   8
#     4  11  21  35  61  85 116 151 189 241 292 348
#     4  10  22  40  59  81 118 158 196 244 292 344
#     4  10  24  42  58  83 119 156 198 245 292 345
#     4  10  19  34  60  85 113 152 190 239 291 348
#     4   9  17  34  52  85 118 146 177 238 290 341
#
# _framework density 20.062128000000001
#
# number of rings (size 3 to 8) (size 9 to 14) (size 15 to 20)
#    0.000    2.000    4.000    1.200    2.800    2.000 
#    0.000    3.000    0.000    0.000    0.000    0.000 
#    0.000    0.000    0.000    0.000    0.000    0.000 
#
# Total GULP energy -247766.003543 kJ/mol
# GULP energy per Si atom -12388.300177 kJ/mol
# Density = 2.001647 g / cm^3
# Si number density = 20.062128 Si / 1000 Ang^3
#
#
#
# Elastic Constant Matrix: (Units=GPa)
#
#
# Indices 1 2 3 4 5 6 
#
# 1 73.0201 41.2359 18.3331 0.0000 20.6855 0.0000
# 2 41.2359 62.6297 19.9826 0.0000 22.5122 0.0000
# 3 18.3331 19.9826 127.2350 0.0000 13.9943 0.0000
# 4 0.0000 0.0000 0.0000 21.2940 0.0000 -0.3299
# 5 20.6855 22.5122 13.9943 0.0000 34.3423 0.0000
# 6 0.0000 0.0000 0.0000 -0.3299 0.0000 10.3244
#
#
#
# Elastic Compliance Matrix: (Units=1/GPa)
#
#
# Indices 1 2 3 4 5 6 
#
# 1 0.022498 -0.012851 -0.000690 0.000000 -0.004846 0.000000
# 2 -0.012851 0.028657 -0.001502 0.000000 -0.010433 0.000000
# 3 -0.000690 -0.001502 0.008418 0.000000 -0.002030 0.000000
# 4 0.000000 0.000000 0.000000 0.046985 0.000000 0.001501
# 5 -0.004846 -0.010433 -0.002030 0.000000 0.039704 0.000000
# 6 0.000000 0.000000 0.000000 0.001501 0.000000 0.096906
#
#
# Mechanical properties :
#
#
# Convention : Reuss Voigt Hill
#
# Bulk Modulus (GPa) = 33.91222 46.88756 40.39989
# Shear Modulus (GPa) = 17.66265 25.41433 21.53849
#
# Velocity S-wave (km/s) = 2.97037 3.56305 3.28012
# Velocity P-wave (km/s) = 5.35765 6.35209 5.87594
#
# Compressibility (1/GPa) = 0.02948790
#
# Stress axis : x y z
#
# Youngs Moduli (GPa) = 44.44823 34.89526 118.79202
#
# Poissons Ratio (x) = 0.44843 0.08202
# Poissons Ratio (y) = 0.57119 0.17837
# Poissons Ratio (z) = 0.03069 0.05240
#
# Static dielectric constant tensor:
#      x y z
#    x 3.454710 0.000000 0.074830 
#    y 0.000000 3.292600 0.000000 
#    z 0.074830 0.000000 4.407040 
# 
# 
# High freq. dielectric constant tensor:
#      x y z
#    x 1.769330 0.000000 0.000860 
#    y 0.000000 1.742540 0.000000 
#    z 0.000860 0.000000 1.812710 
# 
# From -- ./inp_files/48716.got.cif
#   From: 2010.06.25/outbox.cif.g09.slc.cpg/sg12_25_cif.got.tgz:48716.got - 2010.06.28 00:19:55.
