data_PCOD8092062
_publ_section_title
;
Structure prediction by ZEFSAII (Michael W. Deem and Ramdas Pophale) SiO2 
 PCOD8092062
Probable space group: C 2/M
;
_chemical_formula_sum "Si O2"
_cell_formula_units_Z 48
_cell_length_a 26.942400
_cell_length_b 8.769574
_cell_length_c 11.445410
_cell_angle_alpha 90.000000
_cell_angle_beta 58.074524
_cell_angle_gamma 90.000000
_cell_volume 2295.192319
_symmetry_space_group_name_H-M "C 2/M"
_symmetry_group_IT_number 12
_symmetry_cell_setting 'monoclinic'
loop_
_space_group_symop_operation_xyz
x,y,z
-x,y,-z
-x,-y,-z
x,-y,z
1/2+x,1/2+y,z
1/2-x,1/2+y,-z
1/2-x,1/2-y,-z
1/2+x,1/2-y,z
loop_
_atom_site_type_symbol
_atom_site_label
_atom_site_fract_x
_atom_site_fract_y
_atom_site_fract_z
Si Si1 0.266292 0.177099 0.663189
Si Si2 0.086912 0.680496 0.123723
Si Si3 0.522970 0.820229 0.599352
Si Si4 0.195522 0.324641 0.128184
Si Si5 0.860456 0.680764 0.184920
Si Si6 0.870646 0.180061 0.411154
O O1 0.303391 0.199331 0.734904
O O2 0.205455 0.263653 0.752041
O O3 0.305902 0.251094 0.512891
O O4 0.254294 0.000000 0.649688
O O5 0.087273 0.500000 0.134235
O O6 0.136214 0.748089 0.149710
O O7 0.023816 0.738550 0.245959
O O8 0.100340 0.731921 0.974712
O O9 0.500000 0.775403 0.500000
O O10 0.583658 0.735325 0.548372
O O11 0.534792 0.000000 0.592728
O O12 0.198392 0.500000 0.089763
O O13 0.250000 0.250000 0.000000
O O14 0.860872 0.500000 0.200520
O O15 0.890263 0.759606 0.259632
O O16 0.866343 0.000000 0.417688
#
# Coordination Sequence:
#
# PCOD8092062 Si02
#       6
#     8   8   8   8   8   8
#     4  11  22  38  62  91 124 161 204 251 304 361
#     4   9  19  36  61  91 122 158 199 243 296 357
#     4  10  21  42  69  92 119 156 200 247 298 363
#     4  10  19  34  58  90 123 154 193 240 293 354
#     4  11  22  39  62  88 123 161 204 251 302 363
#     4  12  26  42  60  86 122 161 206 253 304 361
#
# _framework density 20.913278999999999
#
# number of rings (size 3 to 8) (size 9 to 14) (size 15 to 20)
#    0.000    1.500    1.667    4.000    0.000    4.333 
#    0.000    5.833    0.000    0.000    0.000    0.000 
#    0.000    0.000    0.000    0.000    0.000    0.000 
#
# Total GULP energy -297658.995198 kJ/mol
# GULP energy per Si atom -12402.458133 kJ/mol
# Density = 2.086568 g / cm^3
# Si number density = 20.913279 Si / 1000 Ang^3
#
#
#
# Elastic Constant Matrix: (Units=GPa)
#
#
# Indices 1 2 3 4 5 6 
#
# 1 79.6118 26.8100 25.7303 0.0000 -1.5327 0.0000
# 2 26.8100 63.3886 31.1311 0.0000 5.6504 0.0000
# 3 25.7303 31.1311 122.8107 0.0000 -7.1250 0.0000
# 4 0.0000 0.0000 0.0000 21.9869 0.0000 -0.3476
# 5 -1.5327 5.6504 -7.1250 0.0000 36.2444 0.0000
# 6 0.0000 0.0000 0.0000 -0.3476 0.0000 33.3536
#
#
#
# Elastic Compliance Matrix: (Units=1/GPa)
#
#
# Indices 1 2 3 4 5 6 
#
# 1 0.015018 -0.005650 -0.001645 0.000000 0.001193 0.000000
# 2 -0.005650 0.020663 -0.004304 0.000000 -0.004306 0.000000
# 3 -0.001645 -0.004304 0.009724 0.000000 0.002513 0.000000
# 4 0.000000 0.000000 0.000000 0.045489 0.000000 0.000474
# 5 0.001193 -0.004306 0.002513 0.000000 0.028806 0.000000
# 6 0.000000 0.000000 0.000000 0.000474 0.000000 0.029987
#
#
# Mechanical properties :
#
#
# Convention : Reuss Voigt Hill
#
# Bulk Modulus (GPa) = 45.03098 48.12823 46.57960
# Shear Modulus (GPa) = 27.73335 30.45964 29.09649
#
# Velocity S-wave (km/s) = 3.64553 3.82052 3.73405
# Velocity P-wave (km/s) = 6.26888 6.52112 6.39624
#
# Compressibility (1/GPa) = 0.02220693
#
# Stress axis : x y z
#
# Youngs Moduli (GPa) = 66.58501 48.39552 102.83792
#
# Poissons Ratio (x) = 0.27345 0.16917
# Poissons Ratio (y) = 0.37623 0.44260
# Poissons Ratio (z) = 0.10953 0.20829
#
# Static dielectric constant tensor:
#      x y z
#    x 3.857880 0.000000 0.021010 
#    y 0.000000 3.550220 0.000000 
#    z 0.021010 0.000000 3.959780 
# 
# 
# High freq. dielectric constant tensor:
#      x y z
#    x 1.825740 0.000000 0.005710 
#    y 0.000000 1.795330 0.000000 
#    z 0.005710 0.000000 1.832690 
# 
# From -- ./inp_files/179733.got.cif
#   From: 2010.06.25/outbox.cif.g09.slc.cpg/sg12_90_cif.got.tgz:179733.got - 2010.06.28 00:19:55.
