data_PCOD8092411
_publ_section_title
;
Structure prediction by ZEFSAII (Michael W. Deem and Ramdas Pophale) SiO2 
 PCOD8092411
Probable space group: C 2/M
;
_chemical_formula_sum "Si O2"
_cell_formula_units_Z 64
_cell_length_a 25.689690
_cell_length_b 13.232839
_cell_length_c 19.815289
_cell_angle_alpha 90.000000
_cell_angle_beta 149.403253
_cell_angle_gamma 90.000000
_cell_volume 3428.654508
_symmetry_space_group_name_H-M "C 2/M"
_symmetry_group_IT_number 12
_symmetry_cell_setting 'monoclinic'
loop_
_space_group_symop_operation_xyz
x,y,z
-x,y,-z
-x,-y,-z
x,-y,z
1/2+x,1/2+y,z
1/2-x,1/2+y,-z
1/2-x,1/2-y,-z
1/2+x,1/2-y,z
loop_
_atom_site_type_symbol
_atom_site_label
_atom_site_fract_x
_atom_site_fract_y
_atom_site_fract_z
Si Si1 0.271825 0.886606 0.730184
Si Si2 0.364294 0.283498 0.051179
Si Si3 0.696639 0.619026 0.880087
Si Si4 0.748739 0.115162 0.801835
Si Si5 0.110615 0.192714 0.150008
Si Si6 0.401334 0.280488 0.709797
Si Si7 0.612738 0.300544 0.654142
Si Si8 0.759418 0.113658 0.455833
O O1 0.367254 0.810245 0.843770
O O2 0.188748 0.867966 0.694765
O O3 0.217121 0.869447 0.597057
O O4 0.315285 0.000000 0.786005
O O5 0.352169 0.353928 0.102728
O O6 0.481372 0.253413 0.171498
O O7 0.303291 0.178373 0.989399
O O8 0.327917 0.347729 0.946643
O O9 0.718717 0.500000 0.900269
O O10 0.616132 0.654899 0.733451
O O11 0.803788 0.123876 0.790565
O O12 0.646555 0.183103 0.690424
O O13 0.715707 0.000000 0.778059
O O14 0.116968 0.172426 0.236690
O O15 0.000000 0.161855 0.000000
O O16 0.336975 0.178688 0.627244
O O17 0.362707 0.360925 0.611686
O O18 0.500000 0.310551 0.500000
O O19 0.727214 0.000000 0.435344
#
# Coordination Sequence:
#
# PCOD8092411 Si02
#       8
#     8   8   8   8   8   8   8   8
#     4   9  19  35  55  80 109 140 175 217 267 321
#     4  10  21  38  58  81 110 142 180 228 269 314
#     4  10  22  38  57  82 110 142 181 224 272 321
#     4  10  21  38  58  80 108 142 181 223 269 322
#     4  10  19  35  54  80 113 140 172 218 266 317
#     4  10  20  36  56  79 111 142 176 223 266 313
#     4  10  22  38  56  80 111 141 178 228 270 316
#     4   9  20  36  55  80 108 142 181 218 263 320
#
# _framework density 18.666214
#
# number of rings (size 3 to 8) (size 9 to 14) (size 15 to 20)
#    0.000    2.250    1.250    0.750    1.750    3.750 
#    0.000    0.000    0.000    0.000    0.000    0.000 
#    0.000    0.000    0.000    0.000    0.000    0.000 
#
# Total GULP energy -396858.071113 kJ/mol
# GULP energy per Si atom -12401.814722 kJ/mol
# Density = 1.862373 g / cm^3
# Si number density = 18.666214 Si / 1000 Ang^3
#
#
#
# Elastic Constant Matrix: (Units=GPa)
#
#
# Indices 1 2 3 4 5 6 
#
# 1 81.0970 17.8885 24.6736 0.0000 -7.8715 0.0000
# 2 17.8885 105.2735 13.0043 0.0000 -6.5594 0.0000
# 3 24.6736 13.0043 80.5605 0.0000 -5.7449 0.0000
# 4 0.0000 0.0000 0.0000 15.8884 0.0000 -5.4936
# 5 -7.8715 -6.5594 -5.7449 0.0000 25.5037 0.0000
# 6 0.0000 0.0000 0.0000 -5.4936 0.0000 18.1170
#
#
#
# Elastic Compliance Matrix: (Units=1/GPa)
#
#
# Indices 1 2 3 4 5 6 
#
# 1 0.014182 -0.001744 -0.003844 0.000000 0.003063 0.000000
# 2 -0.001744 0.010027 -0.000954 0.000000 0.001826 0.000000
# 3 -0.003844 -0.000954 0.013865 0.000000 0.001691 0.000000
# 4 0.000000 0.000000 0.000000 0.070310 0.000000 0.021320
# 5 0.003063 0.001826 0.001691 0.000000 0.041006 0.000000
# 6 0.000000 0.000000 0.000000 0.021320 0.000000 0.061662
#
#
# Mechanical properties :
#
#
# Convention : Reuss Voigt Hill
#
# Bulk Modulus (GPa) = 40.01599 42.00709 41.01154
# Shear Modulus (GPa) = 21.50847 25.99281 23.75064
#
# Velocity S-wave (km/s) = 3.39819 3.73568 3.57092
# Velocity P-wave (km/s) = 6.07298 6.41563 6.24665
#
# Compressibility (1/GPa) = 0.02499001
#
# Stress axis : x y z
#
# Youngs Moduli (GPa) = 70.50994 99.72993 72.12452
#
# Poissons Ratio (x) = 0.17396 0.27723
# Poissons Ratio (y) = 0.12299 0.06882
# Poissons Ratio (z) = 0.27102 0.09516
#
# Static dielectric constant tensor:
#      x y z
#    x 3.544780 0.000000 -0.238580 
#    y 0.000000 3.406880 0.000000 
#    z -0.238580 0.000000 3.397250 
# 
# 
# High freq. dielectric constant tensor:
#      x y z
#    x 1.732390 0.000000 -0.016820 
#    y 0.000000 1.721720 0.000000 
#    z -0.016820 0.000000 1.717690 
# 
# From -- ./inp_files/327836.got.cif
#   From: 2010.06.25/outbox.cif.g09.slc.cpg/sg12_164_cif.got.tgz:327836.got - 2010.06.28 00:19:55.
