data_PCOD8092724
_publ_section_title
;
Structure prediction by ZEFSAII (Michael W. Deem and Ramdas Pophale) SiO2 
 PCOD8092724
Probable space group: C 2/M
;
_chemical_formula_sum "Si O2"
_cell_formula_units_Z 48
_cell_length_a 16.748796
_cell_length_b 13.760634
_cell_length_c 25.124603
_cell_angle_alpha 90.000000
_cell_angle_beta 26.072940
_cell_angle_gamma 90.000000
_cell_volume 2545.041927
_symmetry_space_group_name_H-M "C 2/M"
_symmetry_group_IT_number 12
_symmetry_cell_setting 'monoclinic'
loop_
_space_group_symop_operation_xyz
x,y,z
-x,y,-z
-x,-y,-z
x,-y,z
1/2+x,1/2+y,z
1/2-x,1/2+y,-z
1/2-x,1/2-y,-z
1/2+x,1/2-y,z
loop_
_atom_site_type_symbol
_atom_site_label
_atom_site_fract_x
_atom_site_fract_y
_atom_site_fract_z
Si Si1 0.364077 0.609311 0.302843
Si Si2 0.236642 0.389999 0.257997
Si Si3 0.870949 0.305895 0.150039
Si Si4 0.259768 0.113472 0.105962
Si Si5 0.083352 0.888958 0.391937
Si Si6 0.628654 0.777919 0.524110
O O1 0.331463 0.500000 0.344569
O O2 0.299153 0.614711 0.281456
O O3 0.574956 0.637116 0.185082
O O4 0.246980 0.687925 0.403796
O O5 0.262841 0.500000 0.220255
O O6 0.360638 0.311885 0.152647
O O7 0.026867 0.359212 0.374799
O O8 0.757054 0.348536 0.168298
O O9 0.784859 0.345288 0.257798
O O10 0.080687 0.334844 0.022693
O O11 0.301959 0.000000 0.082096
O O12 0.000000 0.874515 0.500000
O O13 0.951179 0.828556 0.434676
O O14 0.081158 0.000000 0.375668
O O15 0.750000 0.750000 0.500000
#
# Coordination Sequence:
#
# PCOD8092724 Si02
#       6
#     8   8   8   8   8   8
#     4  10  20  35  55  79 107 143 186 225 267 322
#     4  10  21  36  54  77 108 144 180 221 270 326
#     4  10  19  35  57  81 110 141 180 226 272 317
#     4  10  20  35  58  84 108 141 185 229 269 314
#     4  10  20  34  53  78 108 138 169 213 271 326
#     4  11  21  33  53  78 105 139 179 224 272 318
#
# _framework density 18.860199000000001
#
# number of rings (size 3 to 8) (size 9 to 14) (size 15 to 20)
#    0.000    1.833    0.000    7.000    0.000    4.667 
#    0.000    1.667    0.000    1.000    0.000    0.000 
#    0.000    0.000    0.000    0.000    0.000    0.000 
#
# Total GULP energy -297346.358112 kJ/mol
# GULP energy per Si atom -12389.431588 kJ/mol
# Density = 1.881727 g / cm^3
# Si number density = 18.860199 Si / 1000 Ang^3
#
#
#
# Elastic Constant Matrix: (Units=GPa)
#
#
# Indices 1 2 3 4 5 6 
#
# 1 33.2715 9.5590 9.8602 0.0045 -10.7791 0.0014
# 2 9.5590 144.7698 51.4952 -0.0071 -0.6590 0.0018
# 3 9.8602 51.4952 99.6278 -0.0179 3.8351 0.0031
# 4 0.0045 -0.0071 -0.0179 6.5063 0.0016 1.1273
# 5 -10.7791 -0.6590 3.8351 0.0016 30.3277 0.0004
# 6 0.0014 0.0018 0.0031 1.1273 0.0004 29.9399
#
#
#
# Elastic Compliance Matrix: (Units=1/GPa)
#
#
# Indices 1 2 3 4 5 6 
#
# 1 0.035629 -0.001053 -0.003485 -0.000038 0.013081 0.000000
# 2 -0.001053 0.008511 -0.004309 -0.000002 0.000355 0.000000
# 3 -0.003485 -0.004309 0.012723 0.000034 -0.002941 -0.000002
# 4 -0.000038 -0.000002 0.000034 0.154707 -0.000026 -0.005825
# 5 0.013081 0.000355 -0.002941 -0.000026 0.038002 0.000000
# 6 0.000000 0.000000 -0.000002 -0.005825 0.000000 0.033620
#
#
# Mechanical properties :
#
#
# Convention : Reuss Voigt Hill
#
# Bulk Modulus (GPa) = 25.53076 46.61088 36.07082
# Shear Modulus (GPa) = 15.92646 27.13842 21.53244
#
# Velocity S-wave (km/s) = 2.90909 3.79743 3.38255
# Velocity P-wave (km/s) = 4.98498 6.63286 5.86706
#
# Compressibility (1/GPa) = 0.03916844
#
# Stress axis : x y z
#
# Youngs Moduli (GPa) = 28.06679 117.49062 78.60008
#
# Poissons Ratio (x) = 0.12375 0.27395
# Poissons Ratio (y) = 0.02956 0.33867
# Poissons Ratio (z) = 0.09782 0.50624
#
# Static dielectric constant tensor:
#      x y z
#    x 3.005050 -0.000090 -0.068940 
#    y -0.000090 3.432460 -0.000120 
#    z -0.068940 -0.000120 3.664560 
# 
# 
# High freq. dielectric constant tensor:
#      x y z
#    x 1.718100 0.000000 -0.007850 
#    y 0.000000 1.748900 0.000000 
#    z -0.007850 0.000000 1.734110 
# 
# From -- ./inp_files/142766.got.cif
#   From: 2010.06.25/outbox.cif.g09.slc.cpg/sg12_72_cif.got.tgz:142766.got - 2010.06.28 00:19:55.
