data_PCOD8092897
_publ_section_title
;
Structure prediction by ZEFSAII (Michael W. Deem and Ramdas Pophale) SiO2 
 PCOD8092897
Probable space group: C 2/M
;
_chemical_formula_sum "Si O2"
_cell_formula_units_Z 56
_cell_length_a 16.915968
_cell_length_b 11.473010
_cell_length_c 17.969072
_cell_angle_alpha 90.000000
_cell_angle_beta 127.995816
_cell_angle_gamma 90.000000
_cell_volume 2748.253540
_symmetry_space_group_name_H-M "C 2/M"
_symmetry_group_IT_number 12
_symmetry_cell_setting 'monoclinic'
loop_
_space_group_symop_operation_xyz
x,y,z
-x,y,-z
-x,-y,-z
x,-y,z
1/2+x,1/2+y,z
1/2-x,1/2+y,-z
1/2-x,1/2-y,-z
1/2+x,1/2-y,z
loop_
_atom_site_type_symbol
_atom_site_label
_atom_site_fract_x
_atom_site_fract_y
_atom_site_fract_z
Si Si1 0.433083 0.278964 0.238955
Si Si2 0.619560 0.370778 0.431670
Si Si3 0.217745 0.634018 0.753968
Si Si4 0.606826 0.785916 0.088739
Si Si5 0.748476 0.631585 0.948535
Si Si6 0.259006 0.775069 0.392883
Si Si7 0.080209 0.630043 0.232464
O O1 0.510576 0.348929 0.334359
O O2 0.375115 0.191043 0.258492
O O3 0.355924 0.368999 0.156860
O O4 0.488082 0.210132 0.204641
O O5 0.620841 0.500000 0.466174
O O6 0.642731 0.279513 0.511021
O O7 0.704456 0.363636 0.417155
O O8 0.213196 0.500000 0.769514
O O9 0.323937 0.678236 0.846899
O O10 0.206756 0.655638 0.659850
O O11 0.658107 0.861058 0.053397
O O12 0.589533 0.869520 0.148993
O O13 0.500000 0.735420 0.000000
O O14 0.755493 0.500000 0.991123
O O15 0.750000 0.750000 0.000000
O O16 0.183652 0.670395 0.329626
O O17 0.058716 0.500000 0.247632
#
# Coordination Sequence:
#
# PCOD8092897 Si02
#       7
#     8   8   8   8   8   8   8
#     4  10  22  37  57  86 114 147 191 232 282 342
#     4  10  19  36  59  80 110 147 187 235 282 332
#     4  10  21  39  58  80 116 151 183 231 290 345
#     4  10  22  38  58  86 111 143 192 238 280 335
#     4  11  24  41  61  86 119 155 192 237 289 344
#     4   9  20  35  55  85 111 144 191 232 279 339
#     4  10  19  35  58  83 115 150 189 235 282 336
#
# _framework density 20.376577000000001
#
# number of rings (size 3 to 8) (size 9 to 14) (size 15 to 20)
#    0.000    2.000    0.000    3.000    0.000    6.000 
#    0.000   10.714    0.000    0.000    0.000    0.000 
#    0.000    0.000    0.000    0.000    0.000    0.000 
#
# Total GULP energy -347146.696179 kJ/mol
# GULP energy per Si atom -12398.096292 kJ/mol
# Density = 2.033020 g / cm^3
# Si number density = 20.376577 Si / 1000 Ang^3
#
#
#
# Elastic Constant Matrix: (Units=GPa)
#
#
# Indices 1 2 3 4 5 6 
#
# 1 85.4779 16.0379 21.9125 0.0000 4.7640 0.0000
# 2 16.0379 112.6543 18.3214 0.0000 4.4236 0.0000
# 3 21.9125 18.3214 87.6728 0.0000 14.4634 0.0000
# 4 0.0000 0.0000 0.0000 13.7665 0.0000 -4.8153
# 5 4.7640 4.4236 14.4634 0.0000 35.1888 0.0000
# 6 0.0000 0.0000 0.0000 -4.8153 0.0000 11.3610
#
#
#
# Elastic Compliance Matrix: (Units=1/GPa)
#
#
# Indices 1 2 3 4 5 6 
#
# 1 0.012696 -0.001332 -0.002831 0.000000 -0.000388 0.000000
# 2 -0.001332 0.009334 -0.001560 0.000000 -0.000352 0.000000
# 3 -0.002831 -0.001560 0.013242 0.000000 -0.004863 0.000000
# 4 0.000000 0.000000 0.000000 0.085283 0.000000 0.036147
# 5 -0.000388 -0.000352 -0.004863 0.000000 0.030514 0.000000
# 6 0.000000 0.000000 0.000000 0.036147 0.000000 0.103341
#
#
# Mechanical properties :
#
#
# Convention : Reuss Voigt Hill
#
# Bulk Modulus (GPa) = 41.96904 44.26096 43.11500
# Shear Modulus (GPa) = 18.26171 27.36549 22.81360
#
# Velocity S-wave (km/s) = 2.99693 3.66866 3.34967
# Velocity P-wave (km/s) = 5.71112 6.30191 6.01377
#
# Compressibility (1/GPa) = 0.02382709
#
# Stress axis : x y z
#
# Youngs Moduli (GPa) = 78.76403 107.13770 75.51835
#
# Poissons Ratio (x) = 0.14269 0.21378
# Poissons Ratio (y) = 0.10490 0.11778
# Poissons Ratio (z) = 0.22297 0.16709
#
# Static dielectric constant tensor:
#      x y z
#    x 3.754450 0.000000 -0.004000 
#    y 0.000000 3.488650 0.000000 
#    z -0.004000 0.000000 3.813940 
# 
# 
# High freq. dielectric constant tensor:
#      x y z
#    x 1.797550 0.000000 0.002920 
#    y 0.000000 1.788950 0.000000 
#    z 0.002920 0.000000 1.803180 
# 
# From -- ./inp_files/277080.got.cif
#   From: 2010.06.25/outbox.cif.g09.slc.cpg/sg12_139_cif.got.tgz:277080.got - 2010.06.28 00:19:55.
