data_PCOD8092940
_publ_section_title
;
Structure prediction by ZEFSAII (Michael W. Deem and Ramdas Pophale) SiO2 
 PCOD8092940
Probable space group: C 2/M
;
_chemical_formula_sum "Si O2"
_cell_formula_units_Z 56
_cell_length_a 27.952110
_cell_length_b 8.640396
_cell_length_c 17.349952
_cell_angle_alpha 90.000000
_cell_angle_beta 135.558671
_cell_angle_gamma 90.000000
_cell_volume 2933.967571
_symmetry_space_group_name_H-M "C 2/M"
_symmetry_group_IT_number 12
_symmetry_cell_setting 'monoclinic'
loop_
_space_group_symop_operation_xyz
x,y,z
-x,y,-z
-x,-y,-z
x,-y,z
1/2+x,1/2+y,z
1/2-x,1/2+y,-z
1/2-x,1/2-y,-z
1/2+x,1/2-y,z
loop_
_atom_site_type_symbol
_atom_site_label
_atom_site_fract_x
_atom_site_fract_y
_atom_site_fract_z
Si Si1 0.938893 0.318138 0.140848
Si Si2 0.914765 0.183175 0.664245
Si Si3 0.859422 0.183207 0.915163
Si Si4 0.821319 0.177867 0.105849
Si Si5 0.284946 0.322278 0.233221
Si Si6 0.832088 0.816876 0.714204
Si Si7 0.819557 0.316862 0.429082
O O1 0.947821 0.500000 0.148755
O O2 0.881619 0.273429 0.136453
O O3 0.008662 0.241974 0.248169
O O4 0.920330 0.258579 0.034000
O O5 0.873817 0.254244 0.690612
O O6 0.879561 0.238042 0.545600
O O7 0.914586 0.000000 0.667616
O O8 0.787304 0.239753 0.866010
O O9 0.866875 0.236033 0.834606
O O10 0.863341 0.000000 0.927906
O O11 0.830199 0.189654 0.208257
O O12 0.824651 0.000000 0.081920
O O13 0.750000 0.250000 0.000000
O O14 0.271134 0.500000 0.240072
O O15 0.326282 0.236901 0.348420
O O16 0.753573 0.759574 0.621547
O O17 0.832628 0.000000 0.710451
O O18 0.827048 0.500000 0.441855
#
# Coordination Sequence:
#
# PCOD8092940 Si02
#       7
#     8   8   8   8   8   8   8
#     4  12  25  39  55  82 119 155 194 235 286 347
#     4  11  22  39  59  81 114 155 196 239 288 337
#     4  10  19  35  58  85 116 149 189 236 289 341
#     4  11  22  37  61  89 117 148 188 234 285 341
#     4  10  20  35  58  89 117 145 186 235 284 337
#     4   8  18  35  59  87 113 148 192 237 285 341
#     4  10  20  37  60  87 117 150 191 235 283 339
#
# _framework density 19.086781999999999
#
# number of rings (size 3 to 8) (size 9 to 14) (size 15 to 20)
#    0.000    1.714    1.429    4.714    0.000    2.286 
#    0.000   11.429    0.000    4.286    0.000    0.000 
#    0.000    0.000    0.000    0.000    0.000    0.000 
#
# Total GULP energy -347271.119324 kJ/mol
# GULP energy per Si atom -12402.539976 kJ/mol
# Density = 1.904334 g / cm^3
# Si number density = 19.086782 Si / 1000 Ang^3
#
#
#
# Elastic Constant Matrix: (Units=GPa)
#
#
# Indices 1 2 3 4 5 6 
#
# 1 74.1941 25.3618 56.6185 0.0000 -1.1259 0.0000
# 2 25.3618 98.2535 38.1292 0.0000 4.2171 0.0000
# 3 56.6185 38.1292 157.3189 0.0000 0.3967 0.0000
# 4 0.0000 0.0000 0.0000 36.0245 0.0000 -0.8571
# 5 -1.1259 4.2171 0.3967 0.0000 29.4259 0.0000
# 6 0.0000 0.0000 0.0000 -0.8571 0.0000 23.3172
#
#
#
# Elastic Compliance Matrix: (Units=1/GPa)
#
#
# Indices 1 2 3 4 5 6 
#
# 1 0.019163 -0.002561 -0.006279 0.000000 0.001185 0.000000
# 2 -0.002561 0.011650 -0.001898 0.000000 -0.001742 0.000000
# 3 -0.006279 -0.001898 0.009076 0.000000 -0.000091 0.000000
# 4 0.000000 0.000000 0.000000 0.027783 0.000000 0.001021
# 5 0.001185 -0.001742 -0.000091 0.000000 0.034280 0.000000
# 6 0.000000 0.000000 0.000000 0.001021 0.000000 0.042924
#
#
# Mechanical properties :
#
#
# Convention : Reuss Voigt Hill
#
# Bulk Modulus (GPa) = 54.30412 63.33170 58.81791
# Shear Modulus (GPa) = 28.98720 31.73065 30.35893
#
# Velocity S-wave (km/s) = 3.90129 4.08173 3.99253
# Velocity P-wave (km/s) = 6.98615 7.44761 7.22057
#
# Compressibility (1/GPa) = 0.01841481
#
# Stress axis : x y z
#
# Youngs Moduli (GPa) = 52.18362 85.83771 110.17477
#
# Poissons Ratio (x) = 0.21980 0.69180
# Poissons Ratio (y) = 0.13362 0.20907
# Poissons Ratio (z) = 0.32767 0.16289
#
# Static dielectric constant tensor:
#      x y z
#    x 3.650320 0.000000 -0.197360 
#    y 0.000000 3.507100 0.000000 
#    z -0.197360 0.000000 3.492970 
# 
# 
# High freq. dielectric constant tensor:
#      x y z
#    x 1.736730 0.000000 -0.017010 
#    y 0.000000 1.746510 0.000000 
#    z -0.017010 0.000000 1.742030 
# 
# From -- ./inp_files/292381.got.cif
#   From: 2010.06.25/outbox.cif.g09.slc.cpg/sg12_147_cif.got.tgz:292381.got - 2010.06.28 00:19:55.
