data_PCOD8092086
_publ_section_title
;
Structure prediction by ZEFSAII (Michael W. Deem and Ramdas Pophale) SiO2 
 PCOD8092086
Probable space group: C 2/M
;
_chemical_formula_sum "Si O2"
_cell_formula_units_Z 40
_cell_length_a 30.759253
_cell_length_b 9.003070
_cell_length_c 23.504938
_cell_angle_alpha 90.000000
_cell_angle_beta 18.934851
_cell_angle_gamma 90.000000
_cell_volume 2112.178532
_symmetry_space_group_name_H-M "C 2/M"
_symmetry_group_IT_number 12
_symmetry_cell_setting 'monoclinic'
loop_
_space_group_symop_operation_xyz
x,y,z
-x,y,-z
-x,-y,-z
x,-y,z
1/2+x,1/2+y,z
1/2-x,1/2+y,-z
1/2-x,1/2-y,-z
1/2+x,1/2-y,z
loop_
_atom_site_type_symbol
_atom_site_label
_atom_site_fract_x
_atom_site_fract_y
_atom_site_fract_z
Si Si1 0.084812 0.175381 0.839987
Si Si2 0.625971 0.675969 0.121678
Si Si3 0.870755 0.332642 0.621731
Si Si4 0.118873 0.175813 0.002260
Si Si5 0.136913 0.825568 0.484443
O O1 0.228929 0.250161 0.658873
O O2 0.010227 0.225322 0.874421
O O3 0.104514 0.000000 0.818655
O O4 0.000000 0.229274 0.000000
O O5 0.648302 0.500000 0.095330
O O6 0.616013 0.739648 0.069689
O O7 0.486983 0.722188 0.322871
O O8 0.750000 0.750000 0.000000
O O9 0.835003 0.500000 0.644810
O O10 0.898543 0.227143 0.534622
O O11 0.000000 0.336138 0.500000
O O12 0.749718 0.263670 0.807972
O O13 0.126837 0.000000 0.995949
O O14 0.159253 0.000000 0.457247
#
# Coordination Sequence:
#
# PCOD8092086 Si02
#       5
#     8   8   8   8   8
#     4  10  19  36  61  84 109 145 195 240 273 322
#     4  10  22  40  59  82 115 151 186 229 281 335
#     4  10  19  34  59  84 105 143 198 240 272 323
#     4   9  18  35  58  82 108 144 191 238 272 316
#     4  11  23  36  54  84 121 150 177 227 293 345
#
# _framework density 18.937792999999999
#
# number of rings (size 3 to 8) (size 9 to 14) (size 15 to 20)
#    0.000    2.000    2.000    1.800    0.000    4.800 
#    0.000    2.000    0.000    0.000    0.000    0.000 
#    0.000    0.000    0.000    0.000    0.000    0.000 
#
# Total GULP energy -248015.170661 kJ/mol
# GULP energy per Si atom -12400.758533 kJ/mol
# Density = 1.889469 g / cm^3
# Si number density = 18.937793 Si / 1000 Ang^3
#
#
#
# Elastic Constant Matrix: (Units=GPa)
#
#
# Indices 1 2 3 4 5 6 
#
# 1 156.2472 37.6081 68.1449 -0.0061 6.7253 0.0008
# 2 37.6081 34.6587 53.0552 -0.0044 -4.2035 0.0007
# 3 68.1449 53.0552 138.3560 -0.0123 2.6346 0.0014
# 4 -0.0061 -0.0044 -0.0123 28.3668 0.0012 -3.2755
# 5 6.7253 -4.2035 2.6346 0.0012 39.7886 0.0002
# 6 0.0008 0.0007 0.0014 -3.2755 0.0002 26.5929
#
#
#
# Elastic Compliance Matrix: (Units=1/GPa)
#
#
# Indices 1 2 3 4 5 6 
#
# 1 0.009006 -0.008054 -0.001304 0.000000 -0.002287 0.000000
# 2 -0.008054 0.080572 -0.027152 -0.000002 0.011671 -0.000001
# 3 -0.001304 -0.027152 0.018355 0.000004 -0.003864 0.000000
# 4 0.000000 -0.000002 0.000004 0.035761 -0.000002 0.004405
# 5 -0.002287 0.011671 -0.003864 -0.000002 0.027008 0.000000
# 6 0.000000 -0.000001 0.000000 0.004405 0.000000 0.038147
#
#
# Mechanical properties :
#
#
# Convention : Reuss Voigt Hill
#
# Bulk Modulus (GPa) = 28.64211 71.87535 50.25873
# Shear Modulus (GPa) = 17.03543 30.31325 23.67434
#
# Velocity S-wave (km/s) = 3.00250 4.00518 3.53953
# Velocity P-wave (km/s) = 5.21317 7.70873 6.58033
#
# Compressibility (1/GPa) = 0.03491363
#
# Stress axis : x y z
#
# Youngs Moduli (GPa) = 111.04193 12.41128 54.47967
#
# Poissons Ratio (x) = 0.09996 0.07103
# Poissons Ratio (y) = 0.89429 1.47925
# Poissons Ratio (z) = 0.14477 0.33700
#
# Static dielectric constant tensor:
#      x y z
#    x 3.674110 0.000000 0.109730 
#    y 0.000000 3.246530 0.000000 
#    z 0.109730 0.000000 3.745400 
# 
# 
# High freq. dielectric constant tensor:
#      x y z
#    x 1.751680 0.000000 -0.004910 
#    y 0.000000 1.705770 0.000000 
#    z -0.004910 0.000000 1.747700 
# 
# From -- ./inp_files/151671.got.cif
#   From: 2010.06.25/outbox.cif.g09.slc.cpg/sg12_76_cif.got.tgz:151671.got - 2010.06.28 00:19:55.
