data_PCOD8092169
_publ_section_title
;
Structure prediction by ZEFSAII (Michael W. Deem and Ramdas Pophale) SiO2 
 PCOD8092169
Probable space group: C 2/M
;
_chemical_formula_sum "Si O2"
_cell_formula_units_Z 64
_cell_length_a 17.240304
_cell_length_b 14.810799
_cell_length_c 16.367792
_cell_angle_alpha 90.000000
_cell_angle_beta 129.610620
_cell_angle_gamma 90.000000
_cell_volume 3219.785987
_symmetry_space_group_name_H-M "C 2/M"
_symmetry_group_IT_number 12
_symmetry_cell_setting 'monoclinic'
loop_
_space_group_symop_operation_xyz
x,y,z
-x,y,-z
-x,-y,-z
x,-y,z
1/2+x,1/2+y,z
1/2-x,1/2+y,-z
1/2-x,1/2-y,-z
1/2+x,1/2-y,z
loop_
_atom_site_type_symbol
_atom_site_label
_atom_site_fract_x
_atom_site_fract_y
_atom_site_fract_z
Si Si1 0.754226 0.848903 0.360338
Si Si2 0.376626 0.261960 0.007091
Si Si3 0.889290 0.781913 0.830637
Si Si4 0.381092 0.401338 0.300975
Si Si5 0.356826 0.902269 0.557771
Si Si6 0.228493 0.893104 0.942610
Si Si7 0.434630 0.283340 0.586606
Si Si8 0.345064 0.399046 0.665353
O O1 0.672436 0.781498 0.270797
O O2 0.796703 0.908354 0.314654
O O3 0.699758 0.907683 0.392921
O O4 0.846497 0.795772 0.462669
O O5 0.495504 0.251296 0.094507
O O6 0.339669 0.349727 0.032113
O O7 0.345499 0.280235 0.892397
O O8 0.330521 0.166630 0.007110
O O9 0.871761 0.880594 0.778601
O O10 0.434185 0.500000 0.332994
O O11 0.329311 0.379449 0.180694
O O12 0.460485 0.322738 0.376904
O O13 0.441594 0.824342 0.609090
O O14 0.273000 0.884579 0.431856
O O15 0.409056 0.000000 0.579219
O O16 0.251207 0.000000 0.974661
O O17 0.412972 0.332948 0.656849
O O18 0.378599 0.500000 0.666394
#
# Coordination Sequence:
#
# PCOD8092169 Si02
#       8
#     8   8   8   8   8   8   8   8
#     4  11  20  37  57  85 124 153 189 240 293 343
#     4  10  23  39  64  87 114 152 195 248 291 350
#     4  11  20  38  61  88 117 150 195 238 298 342
#     4  11  23  37  61  90 118 153 194 242 298 350
#     4  10  20  35  58  87 119 157 195 234 282 349
#     4  10  22  43  63  85 116 152 194 243 296 346
#     4  11  20  35  57  88 122 157 193 237 287 349
#     4  10  19  34  59  88 120 153 191 237 292 347
#
# _framework density 19.877096999999999
#
# number of rings (size 3 to 8) (size 9 to 14) (size 15 to 20)
#    0.000    1.500    3.750    2.625    0.000    4.000 
#    0.000    3.750    0.000    2.250    0.000    0.000 
#    0.000    0.000    0.000    0.000    0.000    0.000 
#
# Total GULP energy -396654.132604 kJ/mol
# GULP energy per Si atom -12395.441644 kJ/mol
# Density = 1.983186 g / cm^3
# Si number density = 19.877097 Si / 1000 Ang^3
#
#
#
# Elastic Constant Matrix: (Units=GPa)
#
#
# Indices 1 2 3 4 5 6 
#
# 1 78.6456 36.1231 27.8937 0.0000 -6.3647 0.0000
# 2 36.1231 128.7200 30.0870 0.0000 3.6896 0.0000
# 3 27.8937 30.0870 91.3792 0.0000 -9.8559 0.0000
# 4 0.0000 0.0000 0.0000 24.4599 0.0000 4.4176
# 5 -6.3647 3.6896 -9.8559 0.0000 25.8810 0.0000
# 6 0.0000 0.0000 0.0000 4.4176 0.0000 9.7779
#
#
#
# Elastic Compliance Matrix: (Units=1/GPa)
#
#
# Indices 1 2 3 4 5 6 
#
# 1 0.015866 -0.003784 -0.003252 0.000000 0.003203 0.000000
# 2 -0.003784 0.009459 -0.002299 0.000000 -0.003155 0.000000
# 3 -0.003252 -0.002299 0.013184 0.000000 0.004549 0.000000
# 4 0.000000 0.000000 0.000000 0.044516 0.000000 -0.020112
# 5 0.003203 -0.003155 0.004549 0.000000 0.041608 0.000000
# 6 0.000000 0.000000 0.000000 -0.020112 0.000000 0.111359
#
#
# Mechanical properties :
#
#
# Convention : Reuss Voigt Hill
#
# Bulk Modulus (GPa) = 50.40929 54.10583 52.25756
# Shear Modulus (GPa) = 19.13701 25.66649 22.40175
#
# Velocity S-wave (km/s) = 3.10621 3.59731 3.36074
# Velocity P-wave (km/s) = 6.18711 6.67334 6.43482
#
# Compressibility (1/GPa) = 0.01983761
#
# Stress axis : x y z
#
# Youngs Moduli (GPa) = 63.02815 105.72297 75.85136
#
# Poissons Ratio (x) = 0.40008 0.24664
# Poissons Ratio (y) = 0.23852 0.17441
# Poissons Ratio (z) = 0.20495 0.24310
#
# Static dielectric constant tensor:
#      x y z
#    x 3.576600 0.000000 -0.198050 
#    y 0.000000 3.870030 0.000000 
#    z -0.198050 0.000000 3.739360 
# 
# 
# High freq. dielectric constant tensor:
#      x y z
#    x 1.760980 0.000000 -0.014410 
#    y 0.000000 1.775280 0.000000 
#    z -0.014410 0.000000 1.776050 
# 
# From -- ./inp_files/225763.got.cif
#   From: 2010.06.25/outbox.cif.g09.slc.cpg/sg12_113_cif.got.tgz:225763.got - 2010.06.28 00:19:55.
