data_PCOD8092915
_publ_section_title
;
Structure prediction by ZEFSAII (Michael W. Deem and Ramdas Pophale) SiO2 
 PCOD8092915
Probable space group: C 2/M
;
_chemical_formula_sum "Si O2"
_cell_formula_units_Z 48
_cell_length_a 20.519310
_cell_length_b 8.644395
_cell_length_c 14.777913
_cell_angle_alpha 90.000000
_cell_angle_beta 108.342459
_cell_angle_gamma 90.000000
_cell_volume 2488.082490
_symmetry_space_group_name_H-M "C 2/M"
_symmetry_group_IT_number 12
_symmetry_cell_setting 'monoclinic'
loop_
_space_group_symop_operation_xyz
x,y,z
-x,y,-z
-x,-y,-z
x,-y,z
1/2+x,1/2+y,z
1/2-x,1/2+y,-z
1/2-x,1/2-y,-z
1/2+x,1/2-y,z
loop_
_atom_site_type_symbol
_atom_site_label
_atom_site_fract_x
_atom_site_fract_y
_atom_site_fract_z
Si Si1 0.208407 0.317750 0.564341
Si Si2 0.190632 0.817117 0.035406
Si Si3 0.549497 0.318092 0.254772
Si Si4 0.693934 0.683443 0.239419
Si Si5 0.056820 0.319131 0.451262
Si Si6 0.954853 0.681764 0.065682
O O1 0.215973 0.500000 0.562559
O O2 0.250000 0.250000 0.500000
O O3 0.241777 0.256487 0.672755
O O4 0.129461 0.266012 0.525116
O O5 0.200287 0.749334 0.141069
O O6 0.196071 0.000000 0.037493
O O7 0.250000 0.750000 0.000000
O O8 0.117294 0.768229 0.965241
O O9 0.540487 0.500000 0.234237
O O10 0.623683 0.257288 0.254448
O O11 0.540076 0.279913 0.355652
O O12 0.492159 0.226044 0.174537
O O13 0.692735 0.500000 0.235190
O O14 0.057044 0.500000 0.426093
O O15 0.000000 0.278455 0.500000
O O16 0.941495 0.500000 0.055822
O O17 0.000000 0.738335 0.000000
#
# Coordination Sequence:
#
# PCOD8092915 Si02
#       6
#     8   8   8   8   8   8
#     4  10  19  35  58  84 112 150 195 238 287 347
#     4  11  23  41  62  89 125 162 201 249 306 361
#     4  11  21  37  62  89 118 155 202 250 301 359
#     4   9  19  35  58  85 116 156 197 242 299 357
#     4  10  22  38  57  86 124 160 195 244 303 358
#     4  11  23  39  62  91 121 156 203 253 305 366
#
# _framework density 19.291964
#
# number of rings (size 3 to 8) (size 9 to 14) (size 15 to 20)
#    0.000    1.667    3.333    1.500    0.000    2.333 
#    0.000    5.000    0.000    0.000    0.000    0.000 
#    0.000    0.000    0.000    0.000    0.000    0.000 
#
# Total GULP energy -297680.468999 kJ/mol
# GULP energy per Si atom -12403.352875 kJ/mol
# Density = 1.924805 g / cm^3
# Si number density = 19.291964 Si / 1000 Ang^3
#
#
#
# Elastic Constant Matrix: (Units=GPa)
#
#
# Indices 1 2 3 4 5 6 
#
# 1 155.3130 26.2469 72.8015 0.0000 0.0579 0.0000
# 2 26.2469 39.5625 20.9382 0.0000 -2.0520 0.0000
# 3 72.8015 20.9382 156.0884 0.0000 8.9185 0.0000
# 4 0.0000 0.0000 0.0000 27.1536 0.0000 -4.2913
# 5 0.0579 -2.0520 8.9185 0.0000 38.2043 0.0000
# 6 0.0000 0.0000 0.0000 -4.2913 0.0000 26.4590
#
#
#
# Elastic Compliance Matrix: (Units=1/GPa)
#
#
# Indices 1 2 3 4 5 6 
#
# 1 0.008789 -0.003886 -0.003613 0.000000 0.000621 0.000000
# 2 -0.003886 0.029135 -0.002215 0.000000 0.002088 0.000000
# 3 -0.003613 -0.002215 0.008509 0.000000 -0.002100 0.000000
# 4 0.000000 0.000000 0.000000 0.037796 0.000000 0.006130
# 5 0.000621 0.002088 -0.002100 0.000000 0.026776 0.000000
# 6 0.000000 0.000000 0.000000 0.006130 0.000000 0.038788
#
#
# Mechanical properties :
#
#
# Convention : Reuss Voigt Hill
#
# Bulk Modulus (GPa) = 37.03168 65.65968 51.34568
# Shear Modulus (GPa) = 28.05443 33.76189 30.90816
#
# Velocity S-wave (km/s) = 3.81754 4.18790 4.00700
# Velocity P-wave (km/s) = 6.21840 7.58243 6.93404
#
# Compressibility (1/GPa) = 0.02700390
#
# Stress axis : x y z
#
# Youngs Moduli (GPa) = 113.78013 34.32271 117.52131
#
# Poissons Ratio (x) = 0.13338 0.42466
# Poissons Ratio (y) = 0.44217 0.26031
# Poissons Ratio (z) = 0.41114 0.07603
#
# Static dielectric constant tensor:
#      x y z
#    x 3.518990 0.000000 0.001000 
#    y 0.000000 3.361460 0.000000 
#    z 0.001000 0.000000 3.650280 
# 
# 
# High freq. dielectric constant tensor:
#      x y z
#    x 1.753020 0.000000 0.007630 
#    y 0.000000 1.736340 0.000000 
#    z 0.007630 0.000000 1.766330 
# 
# From -- ./inp_files/230337.got.cif
#   From: 2010.06.25/outbox.cif.g09.slc.cpg/sg12_116_cif.got.tgz:230337.got - 2010.06.28 00:19:55.
