data_PCOD8092858
_publ_section_title
;
Structure prediction by ZEFSAII (Michael W. Deem and Ramdas Pophale) SiO2 
 PCOD8092858
Probable space group: C 2/M
;
_chemical_formula_sum "Si O2"
_cell_formula_units_Z 56
_cell_length_a 16.498474
_cell_length_b 14.931020
_cell_length_c 18.362676
_cell_angle_alpha 90.000000
_cell_angle_beta 139.402812
_cell_angle_gamma 90.000000
_cell_volume 2943.572212
_symmetry_space_group_name_H-M "C 2/M"
_symmetry_group_IT_number 12
_symmetry_cell_setting 'monoclinic'
loop_
_space_group_symop_operation_xyz
x,y,z
-x,y,-z
-x,-y,-z
x,-y,z
1/2+x,1/2+y,z
1/2-x,1/2+y,-z
1/2-x,1/2-y,-z
1/2+x,1/2-y,z
loop_
_atom_site_type_symbol
_atom_site_label
_atom_site_fract_x
_atom_site_fract_y
_atom_site_fract_z
Si Si1 0.068228 0.599906 0.745530
Si Si2 0.184836 0.895246 0.808693
Si Si3 0.865624 0.400776 0.372071
Si Si4 0.754778 0.747812 0.386280
Si Si5 0.631917 0.103214 0.947851
Si Si6 0.144561 0.604425 0.214052
Si Si7 0.939431 0.224413 0.631831
O O1 0.009476 0.500000 0.712917
O O2 0.142999 0.607334 0.721271
O O3 0.152044 0.619418 0.874866
O O4 0.961039 0.672885 0.670038
O O5 0.283004 0.877634 0.811268
O O6 0.060371 0.837775 0.713540
O O7 0.147145 0.000000 0.787052
O O8 0.251564 0.856588 0.927415
O O9 0.820140 0.500000 0.364130
O O10 0.772746 0.324896 0.335531
O O11 0.000000 0.383870 0.500000
O O12 0.706579 0.840335 0.321004
O O13 0.884092 0.775145 0.513079
O O14 0.663551 0.694979 0.379774
O O15 0.498806 0.138967 0.887035
O O16 0.634865 0.000000 0.970779
O O17 0.149750 0.500000 0.239375
#
# Coordination Sequence:
#
# PCOD8092858 Si02
#       7
#     8   8   8   8   8   8   8
#     4  10  19  35  58  82 105 139 190 233 275 324
#     4  10  22  38  58  84 114 149 186 231 284 335
#     4  10  20  35  58  81 106 146 190 233 276 322
#     4  11  23  37  55  82 118 149 184 230 279 337
#     4   9  18  36  60  84 111 144 189 235 275 332
#     4  10  20  36  60  86 113 147 185 229 284 338
#     4  11  23  37  55  83 115 151 185 227 283 336
#
# _framework density 19.024504
#
# number of rings (size 3 to 8) (size 9 to 14) (size 15 to 20)
#    0.000    1.857    2.857    1.286    0.000    3.429 
#    0.000    4.286    0.000    0.000    0.000    4.000 
#    0.000    0.000    0.000    0.000    0.000    0.000 
#
# Total GULP energy -346968.901341 kJ/mol
# GULP energy per Si atom -12391.746476 kJ/mol
# Density = 1.898120 g / cm^3
# Si number density = 19.024504 Si / 1000 Ang^3
#
#
#
# Elastic Constant Matrix: (Units=GPa)
#
#
# Indices 1 2 3 4 5 6 
#
# 1 99.4246 41.6133 56.0420 0.0000 -9.5816 0.0000
# 2 41.6133 79.0237 44.9279 0.0000 6.5809 0.0000
# 3 56.0420 44.9279 134.5811 0.0000 -2.6080 0.0000
# 4 0.0000 0.0000 0.0000 21.6391 0.0000 -1.5935
# 5 -9.5816 6.5809 -2.6080 0.0000 28.2842 0.0000
# 6 0.0000 0.0000 0.0000 -1.5935 0.0000 24.8347
#
#
#
# Elastic Compliance Matrix: (Units=1/GPa)
#
#
# Indices 1 2 3 4 5 6 
#
# 1 0.015787 -0.006397 -0.004314 0.000000 0.006439 0.000000
# 2 -0.006397 0.018706 -0.003714 0.000000 -0.006862 0.000000
# 3 -0.004314 -0.003714 0.010474 0.000000 0.000368 0.000000
# 4 0.000000 0.000000 0.000000 0.046432 0.000000 0.002979
# 5 0.006439 -0.006862 0.000368 0.000000 0.039167 0.000000
# 6 0.000000 0.000000 0.000000 0.002979 0.000000 0.040457
#
#
# Mechanical properties :
#
#
# Convention : Reuss Voigt Hill
#
# Bulk Modulus (GPa) = 62.04387 66.46618 64.25502
# Shear Modulus (GPa) = 24.36103 26.31468 25.33785
#
# Velocity S-wave (km/s) = 3.58230 3.72317 3.65342
# Velocity P-wave (km/s) = 7.05648 7.31407 7.18643
#
# Compressibility (1/GPa) = 0.01611763
#
# Stress axis : x y z
#
# Youngs Moduli (GPa) = 63.34168 53.45877 95.47698
#
# Poissons Ratio (x) = 0.34199 0.41187
# Poissons Ratio (y) = 0.40521 0.35458
# Poissons Ratio (z) = 0.27324 0.19853
#
# Static dielectric constant tensor:
#      x y z
#    x 3.454820 0.000000 -0.224960 
#    y 0.000000 3.480440 0.000000 
#    z -0.224960 0.000000 3.601660 
# 
# 
# High freq. dielectric constant tensor:
#      x y z
#    x 1.736150 0.000000 -0.022730 
#    y 0.000000 1.733750 0.000000 
#    z -0.022730 0.000000 1.737040 
# 
# From -- ./inp_files/156143.got.cif
#   From: 2010.06.25/outbox.cif.g09.slc.cpg/sg12_79_cif.got.tgz:156143.got - 2010.06.28 00:19:55.
