data_PCOD8092508
_publ_section_title
;
Structure prediction by ZEFSAII (Michael W. Deem and Ramdas Pophale) SiO2 
 PCOD8092508
Probable space group: C 2/M
;
_chemical_formula_sum "Si O2"
_cell_formula_units_Z 64
_cell_length_a 20.411466
_cell_length_b 21.695609
_cell_length_c 9.913751
_cell_angle_alpha 90.000000
_cell_angle_beta 125.121251
_cell_angle_gamma 90.000000
_cell_volume 3590.902235
_symmetry_space_group_name_H-M "C 2/M"
_symmetry_group_IT_number 12
_symmetry_cell_setting 'monoclinic'
loop_
_space_group_symop_operation_xyz
x,y,z
-x,y,-z
-x,-y,-z
x,-y,z
1/2+x,1/2+y,z
1/2-x,1/2+y,-z
1/2-x,1/2-y,-z
1/2+x,1/2-y,z
loop_
_atom_site_type_symbol
_atom_site_label
_atom_site_fract_x
_atom_site_fract_y
_atom_site_fract_z
Si Si1 0.968796 0.251747 0.608141
Si Si2 0.429366 0.121479 0.672554
Si Si3 0.189853 0.800756 0.567395
Si Si4 0.318598 0.929351 0.329271
Si Si5 0.786144 0.816442 0.718532
Si Si6 0.073124 0.755677 0.983563
Si Si7 0.602064 0.929687 0.853324
Si Si8 0.837268 0.366995 0.835994
O O1 0.917716 0.307516 0.614797
O O2 0.904979 0.195906 0.509127
O O3 0.000000 0.273231 0.500000
O O4 0.040985 0.232288 0.793621
O O5 0.391263 0.074578 0.520855
O O6 0.523665 0.110299 0.791367
O O7 0.386494 0.111226 0.763956
O O8 0.192074 0.805958 0.410088
O O9 0.222080 0.737200 0.672505
O O10 0.243653 0.856065 0.690882
O O11 0.247594 0.884399 0.291889
O O12 0.351883 0.906574 0.224734
O O13 0.287423 0.000000 0.286111
O O14 0.866217 0.810420 0.904097
O O15 0.122593 0.692739 0.050030
O O16 0.000000 0.752571 0.000000
O O17 0.576334 0.000000 0.805352
O O18 0.660479 0.921215 0.050712
#
# Coordination Sequence:
#
# PCOD8092508 Si02
#       8
#     8   8   8   8   8   8   8   8
#     4  12  22  33  55  86 116 144 175 222 279 331
#     4  12  20  35  55  79 111 151 187 221 260 319
#     4  10  19  35  55  82 111 141 181 226 276 325
#     4  11  23  38  55  78 110 151 189 224 272 320
#     4  10  19  35  59  79 107 147 183 226 271 321
#     4  11  19  34  56  82 109 141 179 222 279 330
#     4  11  24  37  51  78 117 151 186 228 264 314
#     4  11  21  35  56  79 111 147 187 224 267 325
#
# _framework density 17.822818999999999
#
# number of rings (size 3 to 8) (size 9 to 14) (size 15 to 20)
#    0.000    1.000    6.250    2.625    0.000    3.500 
#    0.000    2.500    0.000    0.375    0.000    0.000 
#    0.000    3.500    0.000    0.000    0.000    0.000 
#
# Total GULP energy -396730.962768 kJ/mol
# GULP energy per Si atom -12397.842587 kJ/mol
# Density = 1.778225 g / cm^3
# Si number density = 17.822819 Si / 1000 Ang^3
#
#
#
# Elastic Constant Matrix: (Units=GPa)
#
#
# Indices 1 2 3 4 5 6 
#
# 1 54.4046 22.9211 38.6887 0.0000 -2.5263 0.0000
# 2 22.9211 48.0217 20.5027 0.0000 0.2385 0.0000
# 3 38.6887 20.5027 125.8737 0.0000 -0.4738 0.0000
# 4 0.0000 0.0000 0.0000 24.2730 0.0000 0.4454
# 5 -2.5263 0.2385 -0.4738 0.0000 32.6919 0.0000
# 6 0.0000 0.0000 0.0000 0.4454 0.0000 23.9242
#
#
#
# Elastic Compliance Matrix: (Units=1/GPa)
#
#
# Indices 1 2 3 4 5 6 
#
# 1 0.027670 -0.010307 -0.006818 0.000000 0.002115 0.000000
# 2 -0.010307 0.026221 -0.001107 0.000000 -0.001004 0.000000
# 3 -0.006818 -0.001107 0.010219 0.000000 -0.000371 0.000000
# 4 0.000000 0.000000 0.000000 0.041212 0.000000 -0.000767
# 5 0.002115 -0.001004 -0.000371 0.000000 0.030754 0.000000
# 6 0.000000 0.000000 0.000000 -0.000767 0.000000 0.041813
#
#
# Mechanical properties :
#
#
# Convention : Reuss Voigt Hill
#
# Bulk Modulus (GPa) = 36.17049 43.61388 39.89218
# Shear Modulus (GPa) = 22.36469 25.92365 24.14417
#
# Velocity S-wave (km/s) = 3.54621 3.81795 3.68459
# Velocity P-wave (km/s) = 6.09147 6.63021 6.36654
#
# Compressibility (1/GPa) = 0.02764685
#
# Stress axis : x y z
#
# Youngs Moduli (GPa) = 36.14074 38.13757 97.85787
#
# Poissons Ratio (x) = 0.39307 0.66718
# Poissons Ratio (y) = 0.37249 0.10832
# Poissons Ratio (z) = 0.24640 0.04221
#
# Static dielectric constant tensor:
#      x y z
#    x 3.157180 0.000000 0.104050 
#    y 0.000000 3.025000 0.000000 
#    z 0.104050 0.000000 3.700580 
# 
# 
# High freq. dielectric constant tensor:
#      x y z
#    x 1.675670 0.000000 -0.001610 
#    y 0.000000 1.650750 0.000000 
#    z -0.001610 0.000000 1.708730 
# 
# From -- ./inp_files/90416.got.cif
#   From: 2010.06.25/outbox.cif.g09.slc.cpg/sg12_46_cif.got.tgz:90416.got - 2010.06.28 00:19:55.
