data_PCOD8092700
_publ_section_title
;
Structure prediction by ZEFSAII (Michael W. Deem and Ramdas Pophale) SiO2 
 PCOD8092700
Probable space group: C 2/M
;
_chemical_formula_sum "Si O2"
_cell_formula_units_Z 48
_cell_length_a 24.905929
_cell_length_b 16.502154
_cell_length_c 18.908719
_cell_angle_alpha 90.000000
_cell_angle_beta 161.085484
_cell_angle_gamma 90.000000
_cell_volume 2519.190606
_symmetry_space_group_name_H-M "C 2/M"
_symmetry_group_IT_number 12
_symmetry_cell_setting 'monoclinic'
loop_
_space_group_symop_operation_xyz
x,y,z
-x,y,-z
-x,-y,-z
x,-y,z
1/2+x,1/2+y,z
1/2-x,1/2+y,-z
1/2-x,1/2-y,-z
1/2+x,1/2-y,z
loop_
_atom_site_type_symbol
_atom_site_label
_atom_site_fract_x
_atom_site_fract_y
_atom_site_fract_z
Si Si1 0.681927 0.179888 0.752198
Si Si2 0.691039 0.765366 0.223023
Si Si3 0.877171 0.760909 0.595314
Si Si4 0.387154 0.405418 0.117680
Si Si5 0.816391 0.090570 0.296370
Si Si6 0.289749 0.831723 0.966926
O O1 0.500000 0.154077 0.500000
O O2 0.788869 0.202619 0.816393
O O3 0.771334 0.105856 0.903951
O O4 0.675031 0.256380 0.797683
O O5 0.785102 0.734782 0.409283
O O6 0.767557 0.852618 0.300081
O O7 0.500000 0.776527 0.000000
O O8 0.750000 0.750000 0.500000
O O9 0.944303 0.853490 0.679899
O O10 0.027240 0.698457 0.788920
O O11 0.431711 0.500000 0.181637
O O12 0.289639 0.373373 0.064346
O O13 0.000000 0.112640 0.500000
O O14 0.802626 0.000000 0.308101
O O15 0.696778 0.103385 0.079755
#
# Coordination Sequence:
#
# PCOD8092700 Si02
#       6
#     8   8   8   8   8   8
#     4  10  19  35  57  80 108 143 186 223 263 324
#     4  11  21  35  56  79 104 140 184 227 269 322
#     4  11  22  39  60  81 109 148 190 228 272 331
#     4  11  22  36  57  85 115 145 181 231 281 322
#     4  10  20  34  53  80 113 143 172 217 277 330
#     4  10  19  35  58  82 110 145 186 224 267 327
#
# _framework density 19.053740000000001
#
# number of rings (size 3 to 8) (size 9 to 14) (size 15 to 20)
#    0.000    1.500    0.000   10.500    0.000    2.667 
#    0.000    3.333    0.000    4.500    0.000    0.000 
#    0.000    0.000    0.000    0.000    0.000    0.000 
#
# Total GULP energy -297606.457795 kJ/mol
# GULP energy per Si atom -12400.269075 kJ/mol
# Density = 1.901037 g / cm^3
# Si number density = 19.053740 Si / 1000 Ang^3
#
#
#
# Elastic Constant Matrix: (Units=GPa)
#
#
# Indices 1 2 3 4 5 6 
#
# 1 110.1309 44.7862 26.8018 0.0768 -4.1496 0.0009
# 2 44.7862 78.7284 32.2876 0.1290 9.8889 0.0008
# 3 26.8018 32.2876 94.2639 0.1791 -11.3299 -0.0034
# 4 0.0768 0.1290 0.1791 -205.3140 0.1093 0.0828
# 5 -4.1496 9.8889 -11.3299 0.1093 38.2781 0.0000
# 6 0.0009 0.0008 -0.0034 0.0828 0.0000 12.2905
#
#
#
# Elastic Compliance Matrix: (Units=1/GPa)
#
#
# Indices 1 2 3 4 5 6 
#
# 1 0.012222 -0.007027 -0.000716 0.000001 0.002928 -0.000001
# 2 -0.007027 0.020032 -0.005783 0.000001 -0.007648 -0.000002
# 3 -0.000716 -0.005783 0.013441 0.000011 0.005395 0.000004
# 4 0.000001 0.000001 0.000011 -0.004871 0.000017 0.000033
# 5 0.002928 -0.007648 0.005395 0.000017 0.030015 0.000002
# 6 -0.000001 -0.000002 0.000004 0.000033 0.000002 0.081364
#
#
# Mechanical properties :
#
#
# Convention : Reuss Voigt Hill
#
# Bulk Modulus (GPa) = 53.63825 54.54160 54.08993
# Shear Modulus (GPa) = 26.95865 -18.99925 3.97970
#
# Velocity S-wave (km/s) = 3.76556 -3.16118 1.44679
# Velocity P-wave (km/s) = 6.86426 3.91959 5.58933
#
# Compressibility (1/GPa) = 0.01864341
#
# Stress axis : x y z
#
# Youngs Moduli (GPa) = 81.81702 49.92114 74.39793
#
# Poissons Ratio (x) = 0.35080 0.05329
# Poissons Ratio (y) = 0.57493 0.43021
# Poissons Ratio (z) = 0.05860 0.28867
#
# Static dielectric constant tensor:
#      x y z
#    x 3.732480 0.000040 -0.343200 
#    y 0.000040 3.352540 -0.000050 
#    z -0.343200 -0.000050 3.686690 
# 
# 
# High freq. dielectric constant tensor:
#      x y z
#    x 1.751470 0.000000 -0.015980 
#    y 0.000000 1.713100 0.000000 
#    z -0.015980 0.000000 1.751080 
# 
# From -- ./inp_files/61693.got.cif
#   From: 2010.06.25/outbox.cif.g09.slc.cpg/sg12_31_cif.got.tgz:61693.got - 2010.06.28 00:19:55.
