data_PCOD8092505
_publ_section_title
;
Structure prediction by ZEFSAII (Michael W. Deem and Ramdas Pophale) SiO2 
 PCOD8092505
Probable space group: C 2/M
;
_chemical_formula_sum "Si O2"
_cell_formula_units_Z 64
_cell_length_a 10.331969
_cell_length_b 30.662900
_cell_length_c 17.277496
_cell_angle_alpha 90.000000
_cell_angle_beta 145.706905
_cell_angle_gamma 90.000000
_cell_volume 3084.000091
_symmetry_space_group_name_H-M "C 2/M"
_symmetry_group_IT_number 12
_symmetry_cell_setting 'monoclinic'
loop_
_space_group_symop_operation_xyz
x,y,z
-x,y,-z
-x,-y,-z
x,-y,z
1/2+x,1/2+y,z
1/2-x,1/2+y,-z
1/2-x,1/2-y,-z
1/2+x,1/2-y,z
loop_
_atom_site_type_symbol
_atom_site_label
_atom_site_fract_x
_atom_site_fract_y
_atom_site_fract_z
Si Si1 0.597684 0.549340 0.867809
Si Si2 0.679296 0.953059 0.760925
Si Si3 0.743729 0.864495 0.340534
Si Si4 0.983329 0.549571 0.825470
Si Si5 0.590392 0.217422 0.169577
Si Si6 0.121362 0.867217 0.301262
Si Si7 0.970826 0.371496 0.607005
Si Si8 0.848537 0.783767 0.147235
O O1 0.574978 0.500000 0.822085
O O2 0.501631 0.585303 0.760368
O O3 0.443700 0.554881 0.868775
O O4 0.864077 0.558075 0.022121
O O5 0.664879 0.947456 0.845575
O O6 0.498428 0.923394 0.625804
O O7 0.595341 0.000000 0.692134
O O8 0.702943 0.911731 0.278771
O O9 0.704536 0.826336 0.259380
O O10 0.569482 0.853906 0.325779
O O11 0.000000 0.864256 0.500000
O O12 0.874131 0.500000 0.774917
O O13 0.746381 0.236384 0.176543
O O14 0.559564 0.253586 0.222003
O O15 0.337334 0.208533 0.011721
O O16 0.253575 0.861562 0.446962
O O17 0.290625 0.855110 0.313166
O O18 0.923743 0.832146 0.204276
#
# Coordination Sequence:
#
# PCOD8092505 Si02
#       8
#     8   8   8   8   8   8   8   8
#     4   9  16  27  49  81 113 149 193 241 294 346
#     4   8  14  26  45  72 110 150 190 240 291 339
#     4  11  22  38  57  82 115 154 199 242 290 350
#     4   9  17  30  50  78 111 149 196 244 290 346
#     4  10  23  42  65  92 118 150 196 235 292 352
#     4  10  19  35  55  81 118 156 191 243 295 346
#     4   9  20  33  51  80 114 152 199 236 286 351
#     4  10  22  42  66  90 119 153 187 241 293 349
#
# _framework density 20.752268000000001
#
# number of rings (size 3 to 8) (size 9 to 14) (size 15 to 20)
#    0.000    2.500    0.000    1.875    1.750    2.250 
#    2.250    5.000    0.000    2.250    0.000    8.750 
#    0.000    0.000    0.000    0.000    0.000    0.000 
#
# Total GULP energy -396459.197917 kJ/mol
# GULP energy per Si atom -12389.349935 kJ/mol
# Density = 2.070504 g / cm^3
# Si number density = 20.752268 Si / 1000 Ang^3
#
#
#
# Elastic Constant Matrix: (Units=GPa)
#
#
# Indices 1 2 3 4 5 6 
#
# 1 68.9290 26.2608 20.2873 0.0000 -8.9913 0.0000
# 2 26.2608 109.7689 41.8100 0.0000 4.3383 0.0000
# 3 20.2873 41.8100 69.3650 0.0000 6.7958 0.0000
# 4 0.0000 0.0000 0.0000 24.7810 0.0000 -0.2934
# 5 -8.9913 4.3383 6.7958 0.0000 19.0337 0.0000
# 6 0.0000 0.0000 0.0000 -0.2934 0.0000 24.2412
#
#
#
# Elastic Compliance Matrix: (Units=1/GPa)
#
#
# Indices 1 2 3 4 5 6 
#
# 1 0.018499 -0.003101 -0.004628 0.000000 0.011098 0.000000
# 2 -0.003101 0.012345 -0.006337 0.000000 -0.002017 0.000000
# 3 -0.004628 -0.006337 0.020375 0.000000 -0.008017 0.000000
# 4 0.000000 0.000000 0.000000 0.040359 0.000000 0.000488
# 5 0.011098 -0.002017 -0.008017 0.000000 0.061103 0.000000
# 6 0.000000 0.000000 0.000000 0.000488 0.000000 0.041258
#
#
# Mechanical properties :
#
#
# Convention : Reuss Voigt Hill
#
# Bulk Modulus (GPa) = 43.31492 47.19768 45.25630
# Shear Modulus (GPa) = 21.76111 24.25817 23.00964
#
# Velocity S-wave (km/s) = 3.24174 3.42269 3.33344
# Velocity P-wave (km/s) = 5.91012 6.19778 6.05566
#
# Compressibility (1/GPa) = 0.02308673
#
# Stress axis : x y z
#
# Youngs Moduli (GPa) = 54.05643 81.00294 49.07989
#
# Poissons Ratio (x) = 0.25122 0.22716
# Poissons Ratio (y) = 0.16765 0.31100
# Poissons Ratio (z) = 0.25020 0.51328
#
# Static dielectric constant tensor:
#      x y z
#    x 3.880550 0.000000 -0.061380 
#    y 0.000000 3.729940 0.000000 
#    z -0.061380 0.000000 3.480980 
# 
# 
# High freq. dielectric constant tensor:
#      x y z
#    x 1.810980 0.000000 -0.002680 
#    y 0.000000 1.803240 0.000000 
#    z -0.002680 0.000000 1.794810 
# 
# From -- ./inp_files/266312.got.cif
#   From: 2010.06.25/outbox.cif.g09.slc.cpg/sg12_134_cif.got.tgz:266312.got - 2010.06.28 00:19:55.
