data_PCOD8092864
_publ_section_title
;
Structure prediction by ZEFSAII (Michael W. Deem and Ramdas Pophale) SiO2 
 PCOD8092864
Probable space group: C 2/M
;
_chemical_formula_sum "Si O2"
_cell_formula_units_Z 24
_cell_length_a 8.513270
_cell_length_b 18.682719
_cell_length_c 7.703695
_cell_angle_alpha 90.000000
_cell_angle_beta 103.469340
_cell_angle_gamma 90.000000
_cell_volume 1191.578925
_symmetry_space_group_name_H-M "C 2/M"
_symmetry_group_IT_number 12
_symmetry_cell_setting 'monoclinic'
loop_
_space_group_symop_operation_xyz
x,y,z
-x,y,-z
-x,-y,-z
x,-y,z
1/2+x,1/2+y,z
1/2-x,1/2+y,-z
1/2-x,1/2-y,-z
1/2+x,1/2-y,z
loop_
_atom_site_type_symbol
_atom_site_label
_atom_site_fract_x
_atom_site_fract_y
_atom_site_fract_z
Si Si1 0.690482 0.918580 0.030670
Si Si2 0.292256 0.297596 0.840564
Si Si3 0.594662 0.680409 0.693278
O O1 0.779980 0.881427 0.217191
O O2 0.750447 0.000000 0.033017
O O3 0.500000 0.913708 0.000000
O O4 0.734432 0.878506 0.861731
O O5 0.477489 0.302659 0.827218
O O6 0.188510 0.254638 0.668023
O O7 0.250000 0.250000 0.000000
O O8 0.500000 0.652704 0.500000
#
# Coordination Sequence:
#
# PCOD8092864 Si02
#       3
#     8   8   8
#     4  10  21  38  58  80 110 149 190 228 272 331
#     4  10  19  35  58  82 109 145 189 225 267 330
#     4  11  22  36  58  86 115 143 180 235 285 326
#
# _framework density 20.141342000000002
#
# number of rings (size 3 to 8) (size 9 to 14) (size 15 to 20)
#    0.000    1.667    0.000    9.000    0.000    3.333 
#    0.000    0.000    0.000    5.000    0.000    0.000 
#    0.000    0.000    0.000    0.000    0.000    0.000 
#
# Total GULP energy -148675.378059 kJ/mol
# GULP energy per Si atom -12389.614838 kJ/mol
# Density = 2.009550 g / cm^3
# Si number density = 20.141342 Si / 1000 Ang^3
#
#
#
# Elastic Constant Matrix: (Units=GPa)
#
#
# Indices 1 2 3 4 5 6 
#
# 1 95.9954 50.4637 35.6247 0.0000 15.4170 0.0000
# 2 50.4637 175.5359 57.0999 0.0000 25.9196 0.0000
# 3 35.6247 57.0999 91.1564 0.0000 15.8990 0.0000
# 4 0.0000 0.0000 0.0000 15.5236 0.0000 4.6802
# 5 15.4170 25.9196 15.8990 0.0000 30.2200 0.0000
# 6 0.0000 0.0000 0.0000 4.6802 0.0000 32.5757
#
#
#
# Elastic Compliance Matrix: (Units=1/GPa)
#
#
# Indices 1 2 3 4 5 6 
#
# 1 0.013333 -0.002329 -0.003208 0.000000 -0.003116 0.000000
# 2 -0.002329 0.008070 -0.003463 0.000000 -0.003912 0.000000
# 3 -0.003208 -0.003463 0.014962 0.000000 -0.003265 0.000000
# 4 0.000000 0.000000 0.000000 0.067334 0.000000 -0.009674
# 5 -0.003116 -0.003912 -0.003265 0.000000 0.039754 0.000000
# 6 0.000000 0.000000 0.000000 -0.009674 0.000000 0.032088
#
#
# Mechanical properties :
#
#
# Convention : Reuss Voigt Hill
#
# Bulk Modulus (GPa) = 54.44944 72.11824 63.28384
# Shear Modulus (GPa) = 25.04219 30.29715 27.66967
#
# Velocity S-wave (km/s) = 3.52990 3.88264 3.71047
# Velocity P-wave (km/s) = 6.61105 7.48223 7.06009
#
# Compressibility (1/GPa) = 0.01836566
#
# Stress axis : x y z
#
# Youngs Moduli (GPa) = 75.00410 123.90819 66.83416
#
# Poissons Ratio (x) = 0.28861 0.21440
# Poissons Ratio (y) = 0.17470 0.23143
# Poissons Ratio (z) = 0.24061 0.42906
#
# Static dielectric constant tensor:
#      x y z
#    x 3.847310 0.000000 0.318730 
#    y 0.000000 4.022220 0.000000 
#    z 0.318730 0.000000 3.709720 
# 
# 
# High freq. dielectric constant tensor:
#      x y z
#    x 1.808420 0.000000 0.017360 
#    y 0.000000 1.779110 0.000000 
#    z 0.017360 0.000000 1.767270 
# 
# From -- ./inp_files/36310.got.cif
#   From: 2010.06.25/outbox.cif.g09.slc.cpg/sg12_19_cif.got.tgz:36310.got - 2010.06.28 00:19:55.
