data_PCOD8092249
_publ_section_title
;
Structure prediction by ZEFSAII (Michael W. Deem and Ramdas Pophale) SiO2 
 PCOD8092249
Probable space group: C 2/M
;
_chemical_formula_sum "Si O2"
_cell_formula_units_Z 48
_cell_length_a 13.549157
_cell_length_b 13.555952
_cell_length_c 13.949223
_cell_angle_alpha 90.000000
_cell_angle_beta 122.139357
_cell_angle_gamma 90.000000
_cell_volume 2169.456547
_symmetry_space_group_name_H-M "C 2/M"
_symmetry_group_IT_number 12
_symmetry_cell_setting 'monoclinic'
loop_
_space_group_symop_operation_xyz
x,y,z
-x,y,-z
-x,-y,-z
x,-y,z
1/2+x,1/2+y,z
1/2-x,1/2+y,-z
1/2-x,1/2-y,-z
1/2+x,1/2-y,z
loop_
_atom_site_type_symbol
_atom_site_label
_atom_site_fract_x
_atom_site_fract_y
_atom_site_fract_z
Si Si1 0.425725 0.745346 0.647897
Si Si2 0.178189 0.284912 0.053775
Si Si3 0.143362 0.115235 0.723566
Si Si4 0.741789 0.107521 0.806183
Si Si5 0.533624 0.108534 0.841958
Si Si6 0.820318 0.723002 0.402472
O O1 0.528457 0.665455 0.710824
O O2 0.440754 0.834986 0.729408
O O3 0.302883 0.696238 0.611368
O O4 0.420574 0.786333 0.535545
O O5 0.249689 0.368706 0.148057
O O6 0.160124 0.189776 0.115662
O O7 0.250000 0.250000 0.000000
O O8 0.056401 0.331570 0.953287
O O9 0.173066 0.166036 0.637074
O O10 0.120774 0.000000 0.695361
O O11 0.655349 0.098120 0.850207
O O12 0.664098 0.144636 0.675831
O O13 0.798780 0.000000 0.814632
O O14 0.482949 0.000000 0.839579
#
# Coordination Sequence:
#
# PCOD8092249 Si02
#       6
#     8   8   8   8   8   8
#     4  11  22  39  59  86 118 161 196 244 300 351
#     4   9  16  35  59  88 117 148 189 243 292 352
#     4  11  22  39  64  89 118 161 202 242 299 359
#     4   9  18  34  58  83 111 148 188 233 286 344
#     4  10  19  34  60  88 113 149 194 236 293 354
#     4  10  23  39  58  84 124 153 198 252 294 345
#
# _framework density 22.125357000000001
#
# number of rings (size 3 to 8) (size 9 to 14) (size 15 to 20)
#    0.000    2.000    5.000    1.000    0.000    4.000 
#    0.000    8.333    0.000    6.000    0.000    0.000 
#    0.000    0.000    0.000    0.000    0.000    0.000 
#
# Total GULP energy -297455.933629 kJ/mol
# GULP energy per Si atom -12393.997235 kJ/mol
# Density = 2.207500 g / cm^3
# Si number density = 22.125357 Si / 1000 Ang^3
#
#
#
# Elastic Constant Matrix: (Units=GPa)
#
#
# Indices 1 2 3 4 5 6 
#
# 1 20.5905 11.0954 -4.7570 0.0000 -7.9273 0.0000
# 2 11.0954 178.4669 73.9010 0.0000 -1.8274 0.0000
# 3 -4.7570 73.9010 168.3656 0.0000 -3.9122 0.0000
# 4 0.0000 0.0000 0.0000 19.2136 0.0000 -2.7112
# 5 -7.9273 -1.8274 -3.9122 0.0000 17.1288 0.0000
# 6 0.0000 0.0000 0.0000 -2.7112 0.0000 13.0260
#
#
#
# Elastic Compliance Matrix: (Units=1/GPa)
#
#
# Indices 1 2 3 4 5 6 
#
# 1 0.064586 -0.005808 0.005081 0.000000 0.030432 0.000000
# 2 -0.005808 0.007370 -0.003462 0.000000 -0.002692 0.000000
# 3 0.005081 -0.003462 0.007689 0.000000 0.003739 0.000000
# 4 0.000000 0.000000 0.000000 0.053621 0.000000 0.011161
# 5 0.030432 -0.002692 0.003739 0.000000 0.073032 0.000000
# 6 0.000000 0.000000 0.000000 0.011161 0.000000 0.079093
#
#
# Mechanical properties :
#
#
# Convention : Reuss Voigt Hill
#
# Bulk Modulus (GPa) = 14.03141 58.65577 36.34359
# Shear Modulus (GPa) = 15.74683 29.01923 22.38303
#
# Velocity S-wave (km/s) = 2.67068 3.62551 3.18409
# Velocity P-wave (km/s) = 3.98317 6.64033 5.47538
#
# Compressibility (1/GPa) = 0.07126868
#
# Stress axis : x y z
#
# Youngs Moduli (GPa) = 15.48329 135.68104 130.05044
#
# Poissons Ratio (x) = 0.78801 -0.66080
# Poissons Ratio (y) = 0.08992 0.45019
# Poissons Ratio (z) = -0.07867 0.46968
#
# Static dielectric constant tensor:
#      x y z
#    x 3.748440 0.000000 -0.226940 
#    y 0.000000 4.524670 0.000000 
#    z -0.226940 0.000000 4.454270 
# 
# 
# High freq. dielectric constant tensor:
#      x y z
#    x 1.851320 0.000000 -0.015080 
#    y 0.000000 1.854490 0.000000 
#    z -0.015080 0.000000 1.885050 
# 
# From -- ./inp_files/215019.got.cif
#   From: 2010.06.25/outbox.cif.g09.slc.cpg/sg12_108_cif.got.tgz:215019.got - 2010.06.28 00:19:55.
