data_PCOD8092491
_publ_section_title
;
Structure prediction by ZEFSAII (Michael W. Deem and Ramdas Pophale) SiO2 
 PCOD8092491
Probable space group: C 2/M
;
_chemical_formula_sum "Si O2"
_cell_formula_units_Z 48
_cell_length_a 5.252368
_cell_length_b 25.673529
_cell_length_c 17.757070
_cell_angle_alpha 90.000000
_cell_angle_beta 72.936352
_cell_angle_gamma 90.000000
_cell_volume 2289.077770
_symmetry_space_group_name_H-M "C 2/M"
_symmetry_group_IT_number 12
_symmetry_cell_setting 'monoclinic'
loop_
_space_group_symop_operation_xyz
x,y,z
-x,y,-z
-x,-y,-z
x,-y,z
1/2+x,1/2+y,z
1/2-x,1/2+y,-z
1/2-x,1/2-y,-z
1/2+x,1/2-y,z
loop_
_atom_site_type_symbol
_atom_site_label
_atom_site_fract_x
_atom_site_fract_y
_atom_site_fract_z
Si Si1 0.197447 0.886270 0.551327
Si Si2 0.078688 0.606115 0.216806
Si Si3 0.641748 0.226797 0.239755
Si Si4 0.700265 0.060101 0.049974
Si Si5 0.996184 0.059933 0.710083
Si Si6 0.940689 0.771069 0.413484
O O1 0.500000 0.891467 0.500000
O O2 0.146723 0.830003 0.593167
O O3 0.000000 0.896892 0.500000
O O4 0.145066 0.929421 0.618838
O O5 0.119160 0.665385 0.236594
O O6 0.119189 0.597695 0.124849
O O7 0.301678 0.572630 0.240072
O O8 0.777322 0.592031 0.264396
O O9 0.445359 0.254921 0.196974
O O10 0.598551 0.246944 0.328842
O O11 0.671388 0.000000 0.077787
O O12 0.500000 0.072999 0.000000
O O13 0.000000 0.072896 0.000000
O O14 0.917054 0.000000 0.723215
O O15 0.683141 0.733314 0.454462
#
# Coordination Sequence:
#
# PCOD8092491 Si02
#       6
#     8   8   8   8   8   8
#     4  12  26  41  59  85 120 162 209 265 326 382
#     4  12  23  42  69  97 130 167 214 263 314 378
#     4  10  20  36  61  89 121 159 204 257 311 367
#     4  10  21  38  63  97 134 168 204 252 313 373
#     4  12  25  42  65  92 124 167 219 268 316 381
#     4  10  19  35  55  80 111 145 194 252 312 369
#
# _framework density 20.969144
#
# number of rings (size 3 to 8) (size 9 to 14) (size 15 to 20)
#    0.000    1.000    0.000    9.500    0.000    4.000 
#    0.000    0.000    0.000    3.000    0.000    0.000 
#    0.000    0.000    0.000    0.000    0.000    0.000 
#
# Total GULP energy -297700.411785 kJ/mol
# GULP energy per Si atom -12404.183824 kJ/mol
# Density = 2.092142 g / cm^3
# Si number density = 20.969144 Si / 1000 Ang^3
#
#
#
# Elastic Constant Matrix: (Units=GPa)
#
#
# Indices 1 2 3 4 5 6 
#
# 1 178.1482 34.6589 36.8604 0.0000 12.5777 0.0000
# 2 34.6589 89.1377 44.3939 0.0000 2.0473 0.0000
# 3 36.8604 44.3939 92.5739 0.0000 6.3753 0.0000
# 4 0.0000 0.0000 0.0000 24.6706 0.0000 -1.7026
# 5 12.5777 2.0473 6.3753 0.0000 26.5922 0.0000
# 6 0.0000 0.0000 0.0000 -1.7026 0.0000 50.4402
#
#
#
# Elastic Compliance Matrix: (Units=1/GPa)
#
#
# Indices 1 2 3 4 5 6 
#
# 1 0.006445 -0.001651 -0.001600 0.000000 -0.002538 0.000000
# 2 -0.001651 0.015170 -0.006701 0.000000 0.001220 0.000000
# 3 -0.001600 -0.006701 0.014810 0.000000 -0.002278 0.000000
# 4 0.000000 0.000000 0.000000 0.040629 0.000000 0.001371
# 5 -0.002538 0.001220 -0.002278 0.000000 0.039258 0.000000
# 6 0.000000 0.000000 0.000000 0.001371 0.000000 0.019872
#
#
# Mechanical properties :
#
#
# Convention : Reuss Voigt Hill
#
# Bulk Modulus (GPa) = 60.53114 65.74291 63.13702
# Shear Modulus (GPa) = 30.94191 36.60370 33.77281
#
# Velocity S-wave (km/s) = 3.84551 4.18257 4.01758
# Velocity P-wave (km/s) = 6.97472 7.39902 7.19000
#
# Compressibility (1/GPa) = 0.01652042
#
# Stress axis : x y z
#
# Youngs Moduli (GPa) = 155.16818 65.91928 67.52329
#
# Poissons Ratio (x) = 0.10882 0.10801
# Poissons Ratio (y) = 0.25616 0.45251
# Poissons Ratio (z) = 0.24821 0.44176
#
# Static dielectric constant tensor:
#      x y z
#    x 4.564450 0.000000 0.175940 
#    y 0.000000 3.637260 0.000000 
#    z 0.175940 0.000000 3.673450 
# 
# 
# High freq. dielectric constant tensor:
#      x y z
#    x 1.868010 0.000000 0.009070 
#    y 0.000000 1.809340 0.000000 
#    z 0.009070 0.000000 1.807680 
# 
# From -- ./inp_files/253140.got.cif
#   From: 2010.06.25/outbox.cif.g09.slc.cpg/sg12_127_cif.got.tgz:253140.got - 2010.06.28 00:19:55.
