data_PCOD8092154
_publ_section_title
;
Structure prediction by ZEFSAII (Michael W. Deem and Ramdas Pophale) SiO2 
 PCOD8092154
Probable space group: C 2/M
;
_chemical_formula_sum "Si O2"
_cell_formula_units_Z 64
_cell_length_a 15.150815
_cell_length_b 8.909011
_cell_length_c 28.612687
_cell_angle_alpha 90.000000
_cell_angle_beta 122.632994
_cell_angle_gamma 90.000000
_cell_volume 3252.441276
_symmetry_space_group_name_H-M "C 2/M"
_symmetry_group_IT_number 12
_symmetry_cell_setting 'monoclinic'
loop_
_space_group_symop_operation_xyz
x,y,z
-x,y,-z
-x,-y,-z
x,-y,z
1/2+x,1/2+y,z
1/2-x,1/2+y,-z
1/2-x,1/2-y,-z
1/2+x,1/2-y,z
loop_
_atom_site_type_symbol
_atom_site_label
_atom_site_fract_x
_atom_site_fract_y
_atom_site_fract_z
Si Si1 0.756349 0.825079 0.643645
Si Si2 0.520414 0.673569 0.868180
Si Si3 0.789674 0.174346 0.138764
Si Si4 0.676629 0.323317 0.440925
Si Si5 0.542207 0.824345 0.631924
Si Si6 0.557424 0.178512 0.062388
Si Si7 0.145082 0.169779 0.744303
Si Si8 0.135519 0.669278 0.243938
O O1 0.775440 0.780063 0.595661
O O2 0.637771 0.781400 0.624501
O O3 0.841009 0.734283 0.698126
O O4 0.775780 0.000000 0.658506
O O5 0.496379 0.500000 0.871411
O O6 0.640764 0.699614 0.887305
O O7 0.505325 0.769115 0.910255
O O8 0.449119 0.727019 0.805173
O O9 0.675258 0.246156 0.097405
O O10 0.847564 0.240282 0.201411
O O11 0.773316 0.000000 0.145517
O O12 0.674433 0.500000 0.447708
O O13 0.750000 0.250000 0.500000
O O14 0.559932 0.261486 0.414972
O O15 0.568491 0.773688 0.692195
O O16 0.519074 0.000000 0.624953
O O17 0.558532 0.000000 0.061949
O O18 0.500000 0.242097 0.000000
O O19 0.261354 0.172384 0.757632
O O20 0.099459 0.000000 0.730734
O O21 0.092514 0.500000 0.236408
#
# Coordination Sequence:
#
# PCOD8092154 Si02
#       8
#     8   8   8   8   8   8   8   8
#     4   9  21  40  60  84 118 157 192 233 294 351
#     4  11  22  35  56  85 118 152 189 235 291 348
#     4   9  19  36  56  82 115 154 190 229 291 353
#     4  11  24  42  62  85 117 158 200 240 290 348
#     4  10  21  38  59  87 118 149 193 241 288 343
#     4  10  21  41  64  82 110 155 201 242 287 344
#     4   9  17  34  58  81 114 154 190 229 285 351
#     4  10  19  34  59  87 117 150 193 240 284 340
#
# _framework density 19.677526
#
# number of rings (size 3 to 8) (size 9 to 14) (size 15 to 20)
#    0.000    2.125    1.250    1.500    1.750    3.250 
#    0.000    4.375    0.000    0.000    0.000    0.000 
#    0.000    0.000    0.000    0.000    0.000    0.000 
#
# Total GULP energy -396858.828455 kJ/mol
# GULP energy per Si atom -12401.838389 kJ/mol
# Density = 1.963274 g / cm^3
# Si number density = 19.677526 Si / 1000 Ang^3
#
#
#
# Elastic Constant Matrix: (Units=GPa)
#
#
# Indices 1 2 3 4 5 6 
#
# 1 80.9077 23.9758 50.0194 0.0000 -12.6576 0.0000
# 2 23.9758 46.1563 31.5110 0.0000 -1.8043 0.0000
# 3 50.0194 31.5110 128.6079 0.0000 -12.5226 0.0000
# 4 0.0000 0.0000 0.0000 29.5434 0.0000 -3.1381
# 5 -12.6576 -1.8043 -12.5226 0.0000 21.2084 0.0000
# 6 0.0000 0.0000 0.0000 -3.1381 0.0000 28.3848
#
#
#
# Elastic Compliance Matrix: (Units=1/GPa)
#
#
# Indices 1 2 3 4 5 6 
#
# 1 0.018338 -0.005839 -0.004970 0.000000 0.007513 0.000000
# 2 -0.005839 0.027931 -0.004966 0.000000 -0.004041 0.000000
# 3 -0.004970 -0.004966 0.011242 0.000000 0.003249 0.000000
# 4 0.000000 0.000000 0.000000 0.034251 0.000000 0.003787
# 5 0.007513 -0.004041 0.003249 0.000000 0.053210 0.000000
# 6 0.000000 0.000000 0.000000 0.003787 0.000000 0.035649
#
#
# Mechanical properties :
#
#
# Convention : Reuss Voigt Hill
#
# Bulk Modulus (GPa) = 38.51981 51.85381 45.18681
# Shear Modulus (GPa) = 22.64252 25.83835 24.24044
#
# Velocity S-wave (km/s) = 3.39585 3.62759 3.51363
# Velocity P-wave (km/s) = 5.91555 6.62985 6.28286
#
# Compressibility (1/GPa) = 0.02596067
#
# Stress axis : x y z
#
# Youngs Moduli (GPa) = 54.53144 35.80263 88.95470
#
# Poissons Ratio (x) = 0.20905 0.44211
# Poissons Ratio (y) = 0.31840 0.44175
# Poissons Ratio (z) = 0.27102 0.17780
#
# Static dielectric constant tensor:
#      x y z
#    x 3.706460 0.000000 0.044920 
#    y 0.000000 3.505730 0.000000 
#    z 0.044920 0.000000 3.670160 
# 
# 
# High freq. dielectric constant tensor:
#      x y z
#    x 1.772740 0.000000 0.000220 
#    y 0.000000 1.754360 0.000000 
#    z 0.000220 0.000000 1.766760 
# 
# From -- ./inp_files/375688.got.cif
#   From: 2010.06.25/outbox.cif.g09.slc.cpg/sg12_188_cif.got.tgz:375688.got - 2010.06.28 00:19:55.
