data_PCOD8092457
_publ_section_title
;
Structure prediction by ZEFSAII (Michael W. Deem and Ramdas Pophale) SiO2 
 PCOD8092457
Probable space group: C 2/M
;
_chemical_formula_sum "Si O2"
_cell_formula_units_Z 64
_cell_length_a 14.598835
_cell_length_b 8.971794
_cell_length_c 26.819709
_cell_angle_alpha 90.000000
_cell_angle_beta 104.730649
_cell_angle_gamma 90.000000
_cell_volume 3397.326219
_symmetry_space_group_name_H-M "C 2/M"
_symmetry_group_IT_number 12
_symmetry_cell_setting 'monoclinic'
loop_
_space_group_symop_operation_xyz
x,y,z
-x,y,-z
-x,-y,-z
x,-y,z
1/2+x,1/2+y,z
1/2-x,1/2+y,-z
1/2-x,1/2-y,-z
1/2+x,1/2-y,z
loop_
_atom_site_type_symbol
_atom_site_label
_atom_site_fract_x
_atom_site_fract_y
_atom_site_fract_z
Si Si1 0.257609 0.677556 0.054607
Si Si2 0.892745 0.324655 0.493975
Si Si3 0.266984 0.828982 0.772496
Si Si4 0.854340 0.175177 0.877617
Si Si5 0.218897 0.675400 0.423222
Si Si6 0.122310 0.323944 0.309536
Si Si7 0.947515 0.829408 0.247338
Si Si8 0.443875 0.325111 0.135558
O O1 0.254717 0.500000 0.049598
O O2 0.170901 0.735334 0.076013
O O3 0.353885 0.738357 0.093426
O O4 0.250000 0.750000 0.000000
O O5 0.889513 0.500000 0.484492
O O6 0.856529 0.281357 0.544222
O O7 0.821252 0.250380 0.444716
O O8 0.000000 0.264955 0.500000
O O9 0.289863 0.726836 0.822785
O O10 0.323257 0.769615 0.732386
O O11 0.156688 0.814917 0.744206
O O12 0.293131 0.000000 0.789209
O O13 0.962976 0.216225 0.882217
O O14 0.839648 0.000000 0.883933
O O15 0.235910 0.500000 0.424146
O O16 0.176333 0.736948 0.365619
O O17 0.116097 0.500000 0.311367
O O18 0.016602 0.259403 0.293637
O O19 0.950228 0.757283 0.192113
O O20 0.981630 0.000000 0.250065
O O21 0.429289 0.500000 0.139771
#
# Coordination Sequence:
#
# PCOD8092457 Si02
#       8
#     8   8   8   8   8   8   8   8
#     4  11  23  42  61  83 113 145 180 226 276 325
#     4   9  18  34  56  78 103 143 189 229 274 329
#     4  10  20  35  54  77 108 145 179 216 268 325
#     4  11  21  36  59  84 106 139 182 221 265 320
#     4   9  19  35  52  76 112 144 178 228 280 326
#     4  10  21  35  52  80 114 144 177 228 279 317
#     4  10  19  35  55  77 105 145 182 213 262 327
#     4   9  19  36  58  79 108 144 177 215 268 324
#
# _framework density 18.838343999999999
#
# number of rings (size 3 to 8) (size 9 to 14) (size 15 to 20)
#    0.000    2.125    2.500    0.750    0.000    2.750 
#    0.000    5.000    0.000    0.000    0.000    0.000 
#    0.000    0.000    0.000    0.000    0.000    0.000 
#
# Total GULP energy -396864.505043 kJ/mol
# GULP energy per Si atom -12402.015783 kJ/mol
# Density = 1.879547 g / cm^3
# Si number density = 18.838344 Si / 1000 Ang^3
#
#
#
# Elastic Constant Matrix: (Units=GPa)
#
#
# Indices 1 2 3 4 5 6 
#
# 1 95.5848 21.6688 21.8836 0.0000 10.2004 0.0000
# 2 21.6688 36.4214 19.6730 0.0000 2.0473 0.0000
# 3 21.8836 19.6730 92.4480 0.0000 10.5704 0.0000
# 4 0.0000 0.0000 0.0000 29.8981 0.0000 4.8263
# 5 10.2004 2.0473 10.5704 0.0000 28.7877 0.0000
# 6 0.0000 0.0000 0.0000 4.8263 0.0000 28.3718
#
#
#
# Elastic Compliance Matrix: (Units=1/GPa)
#
#
# Indices 1 2 3 4 5 6 
#
# 1 0.012623 -0.006684 -0.001157 0.000000 -0.003573 0.000000
# 2 -0.006684 0.034563 -0.006015 0.000000 0.002119 0.000000
# 3 -0.001157 -0.006015 0.012813 0.000000 -0.003867 0.000000
# 4 0.000000 0.000000 0.000000 0.034391 0.000000 -0.005850
# 5 -0.003573 0.002119 -0.003867 0.000000 0.037272 0.000000
# 6 0.000000 0.000000 0.000000 -0.005850 0.000000 0.036241
#
#
# Mechanical properties :
#
#
# Convention : Reuss Voigt Hill
#
# Bulk Modulus (GPa) = 30.97294 38.98943 34.98119
# Shear Modulus (GPa) = 24.22717 28.16011 26.19364
#
# Velocity S-wave (km/s) = 3.59005 3.87050 3.73291
# Velocity P-wave (km/s) = 5.80188 6.38092 6.09827
#
# Compressibility (1/GPa) = 0.03228624
#
# Stress axis : x y z
#
# Youngs Moduli (GPa) = 79.21773 28.93252 78.04595
#
# Poissons Ratio (x) = 0.19340 0.09031
# Poissons Ratio (y) = 0.52952 0.46945
# Poissons Ratio (z) = 0.09167 0.17403
#
# Static dielectric constant tensor:
#      x y z
#    x 3.653690 0.000000 -0.027070 
#    y 0.000000 3.280910 0.000000 
#    z -0.027070 0.000000 3.519720 
# 
# 
# High freq. dielectric constant tensor:
#      x y z
#    x 1.741720 0.000000 0.001020 
#    y 0.000000 1.714460 0.000000 
#    z 0.001020 0.000000 1.729900 
# 
# From -- ./inp_files/360004.got.cif
#   From: 2010.06.25/outbox.cif.g09.slc.cpg/sg12_181_cif.got.tgz:360004.got - 2010.06.28 00:19:55.
