data_PCOD8092460
_publ_section_title
;
Structure prediction by ZEFSAII (Michael W. Deem and Ramdas Pophale) SiO2 
 PCOD8092460
Probable space group: C 2/M
;
_chemical_formula_sum "Si O2"
_cell_formula_units_Z 48
_cell_length_a 25.413105
_cell_length_b 9.113783
_cell_length_c 11.679505
_cell_angle_alpha 90.000000
_cell_angle_beta 90.101950
_cell_angle_gamma 90.000000
_cell_volume 2705.080315
_symmetry_space_group_name_H-M "C 2/M"
_symmetry_group_IT_number 12
_symmetry_cell_setting 'monoclinic'
loop_
_space_group_symop_operation_xyz
x,y,z
-x,y,-z
-x,-y,-z
x,-y,z
1/2+x,1/2+y,z
1/2-x,1/2+y,-z
1/2-x,1/2-y,-z
1/2+x,1/2-y,z
loop_
_atom_site_type_symbol
_atom_site_label
_atom_site_fract_x
_atom_site_fract_y
_atom_site_fract_z
Si Si1 0.193759 0.673169 0.493364
Si Si2 0.657422 0.326647 0.272826
Si Si3 0.944761 0.826453 0.138942
Si Si4 0.644578 0.171208 0.735272
Si Si5 0.243399 0.671645 0.880741
Si Si6 0.437493 0.673606 0.882861
O O1 0.202750 0.500000 0.478597
O O2 0.250000 0.750000 0.500000
O O3 0.159096 0.738180 0.390733
O O4 0.161091 0.709574 0.606830
O O5 0.653977 0.500000 0.298059
O O6 0.709023 0.286092 0.201914
O O7 0.607070 0.266362 0.202567
O O8 0.909261 0.753595 0.235974
O O9 0.005097 0.777766 0.161747
O O10 0.938649 0.000000 0.148129
O O11 0.927688 0.769437 0.012440
O O12 0.690031 0.226586 0.821141
O O13 0.634989 0.000000 0.750766
O O14 0.242557 0.500000 0.904032
O O15 0.250000 0.750000 0.000000
O O16 0.434493 0.500000 0.887885
#
# Coordination Sequence:
#
# PCOD8092460 Si02
#       6
#     8   8   8   8   8   8
#     4  11  22  38  56  75 103 141 182 220 262 315
#     4  10  19  35  55  77 107 140 173 219 269 308
#     4   9  17  33  57  82 104 139 181 213 255 315
#     4  10  21  36  51  74 108 138 169 217 268 311
#     4  10  20  33  50  76 107 135 167 212 266 317
#     4   8  16  32  56  82 109 136 173 221 262 303
#
# _framework density 17.744391
#
# number of rings (size 3 to 8) (size 9 to 14) (size 15 to 20)
#    0.000    2.333    1.667    2.500    0.000    4.000 
#    0.000    4.167    0.000    5.000    0.000    0.000 
#    0.000    0.000    0.000    0.000    0.000    0.000 
#
# Total GULP energy -297605.779558 kJ/mol
# GULP energy per Si atom -12400.240815 kJ/mol
# Density = 1.770400 g / cm^3
# Si number density = 17.744391 Si / 1000 Ang^3
#
#
#
# Elastic Constant Matrix: (Units=GPa)
#
#
# Indices 1 2 3 4 5 6 
#
# 1 106.4727 31.7969 48.3595 0.0000 -13.5262 0.0000
# 2 31.7969 43.2103 44.8977 0.0000 -9.5917 0.0000
# 3 48.3595 44.8977 112.9060 0.0000 -9.5135 0.0000
# 4 0.0000 0.0000 0.0000 35.0307 0.0000 -1.7053
# 5 -13.5262 -9.5917 -9.5135 0.0000 30.3613 0.0000
# 6 0.0000 0.0000 0.0000 -1.7053 0.0000 26.3525
#
#
#
# Elastic Compliance Matrix: (Units=1/GPa)
#
#
# Indices 1 2 3 4 5 6 
#
# 1 0.012820 -0.005670 -0.002985 0.000000 0.002985 0.000000
# 2 -0.005670 0.043804 -0.014418 0.000000 0.006795 0.000000
# 3 -0.002985 -0.014418 0.015790 0.000000 -0.000937 0.000000
# 4 0.000000 0.000000 0.000000 0.028637 0.000000 0.001853
# 5 0.002985 0.006795 -0.000937 0.000000 0.036119 0.000000
# 6 0.000000 0.000000 0.000000 0.001853 0.000000 0.038067
#
#
# Mechanical properties :
#
#
# Convention : Reuss Voigt Hill
#
# Bulk Modulus (GPa) = 38.06803 56.96634 47.51718
# Shear Modulus (GPa) = 21.72601 27.51790 24.62195
#
# Velocity S-wave (km/s) = 3.50292 3.94228 3.72908
# Velocity P-wave (km/s) = 6.15311 7.27294 6.73634
#
# Compressibility (1/GPa) = 0.02626876
#
# Stress axis : x y z
#
# Youngs Moduli (GPa) = 78.00136 22.82895 63.33183
#
# Poissons Ratio (x) = 0.12944 0.18905
# Poissons Ratio (y) = 0.44225 0.91311
# Poissons Ratio (z) = 0.23283 0.32915
#
# Static dielectric constant tensor:
#      x y z
#    x 3.519210 0.000000 0.124300 
#    y 0.000000 3.053340 0.000000 
#    z 0.124300 0.000000 3.379130 
# 
# 
# High freq. dielectric constant tensor:
#      x y z
#    x 1.691950 0.000000 0.000410 
#    y 0.000000 1.666010 0.000000 
#    z 0.000410 0.000000 1.689220 
# 
# From -- ./inp_files/172043.got.cif
#   From: 2010.06.25/outbox.cif.g09.slc.cpg/sg12_87_cif.got.tgz:172043.got - 2010.06.28 00:19:55.
