data_PCOD8092670
_publ_section_title
;
Structure prediction by ZEFSAII (Michael W. Deem and Ramdas Pophale) SiO2 
 PCOD8092670
Probable space group: C 2/M
;
_chemical_formula_sum "Si O2"
_cell_formula_units_Z 64
_cell_length_a 27.751716
_cell_length_b 14.744472
_cell_length_c 9.203297
_cell_angle_alpha 90.000000
_cell_angle_beta 119.140930
_cell_angle_gamma 90.000000
_cell_volume 3289.182073
_symmetry_space_group_name_H-M "C 2/M"
_symmetry_group_IT_number 12
_symmetry_cell_setting 'monoclinic'
loop_
_space_group_symop_operation_xyz
x,y,z
-x,y,-z
-x,-y,-z
x,-y,z
1/2+x,1/2+y,z
1/2-x,1/2+y,-z
1/2-x,1/2-y,-z
1/2+x,1/2-y,z
loop_
_atom_site_type_symbol
_atom_site_label
_atom_site_fract_x
_atom_site_fract_y
_atom_site_fract_z
Si Si1 0.363941 0.737678 0.765701
Si Si2 0.694152 0.232247 0.615746
Si Si3 0.601540 0.901068 0.518375
Si Si4 0.042648 0.602710 0.711253
Si Si5 0.734848 0.346261 0.915272
Si Si6 0.796391 0.896380 0.826989
Si Si7 0.035364 0.329784 0.185428
Si Si8 0.347542 0.900679 0.959406
O O1 0.322229 0.737224 0.569039
O O2 0.352928 0.647190 0.844914
O O3 0.429378 0.740834 0.813734
O O4 0.349972 0.826788 0.837349
O O5 0.646030 0.174417 0.620993
O O6 0.700429 0.325426 0.717582
O O7 0.748039 0.168231 0.693935
O O8 0.546672 0.885669 0.540350
O O9 0.582277 0.896558 0.320892
O O10 0.627279 0.000000 0.586785
O O11 0.021858 0.500000 0.721367
O O12 0.007789 0.681270 0.744363
O O13 0.105879 0.616372 0.852046
O O14 0.789423 0.401441 0.957244
O O15 0.750000 0.250000 0.000000
O O16 0.700967 0.397742 0.992444
O O17 0.790058 0.000000 0.762445
O O18 0.000000 0.371154 0.000000
O O19 0.355240 0.000000 0.899002
#
# Coordination Sequence:
#
# PCOD8092670 Si02
#       8
#     8   8   8   8   8   8   8   8
#     4  11  23  39  53  84 116 152 191 229 274 333
#     4  10  21  36  57  82 119 149 184 228 279 334
#     4  10  21  34  52  81 115 149 190 229 273 336
#     4  10  20  34  52  77 110 150 191 227 270 332
#     4  10  19  35  57  78 109 145 189 234 268 329
#     4  11  22  38  61  83 111 150 192 234 280 327
#     4  11  22  35  53  75 109 151 187 228 279 328
#     4  11  21  33  55  84 116 150 186 227 276 331
#
# _framework density 19.457726000000001
#
# number of rings (size 3 to 8) (size 9 to 14) (size 15 to 20)
#    0.000    1.500    3.750    3.375    0.000    6.000 
#    0.000    0.625    0.000    0.375    0.000    0.000 
#    0.000    4.000    0.000    0.000    0.000    0.000 
#
# Total GULP energy -396436.651338 kJ/mol
# GULP energy per Si atom -12388.645354 kJ/mol
# Density = 1.941344 g / cm^3
# Si number density = 19.457726 Si / 1000 Ang^3
#
#
#
# Elastic Constant Matrix: (Units=GPa)
#
#
# Indices 1 2 3 4 5 6 
#
# 1 119.9123 41.8198 33.0968 0.0000 -8.0471 0.0000
# 2 41.8198 71.0453 26.2820 0.0000 -4.8934 0.0000
# 3 33.0968 26.2820 108.5737 0.0000 -11.0240 0.0000
# 4 0.0000 0.0000 0.0000 17.0956 0.0000 -0.8507
# 5 -8.0471 -4.8934 -11.0240 0.0000 24.2714 0.0000
# 6 0.0000 0.0000 0.0000 -0.8507 0.0000 25.7849
#
#
#
# Elastic Compliance Matrix: (Units=1/GPa)
#
#
# Indices 1 2 3 4 5 6 
#
# 1 0.010915 -0.005648 -0.001791 0.000000 0.001667 0.000000
# 2 -0.005648 0.018433 -0.002677 0.000000 0.000628 0.000000
# 3 -0.001791 -0.002677 0.010787 0.000000 0.003766 0.000000
# 4 0.000000 0.000000 0.000000 0.058591 0.000000 0.001933
# 5 0.001667 0.000628 0.003766 0.000000 0.043590 0.000000
# 6 0.000000 0.000000 0.000000 0.001933 0.000000 0.038846
#
#
# Mechanical properties :
#
#
# Convention : Reuss Voigt Hill
#
# Bulk Modulus (GPa) = 50.24006 55.76982 53.00494
# Shear Modulus (GPa) = 24.03520 26.65258 25.34389
#
# Velocity S-wave (km/s) = 3.51843 3.70505 3.61295
# Velocity P-wave (km/s) = 6.51014 6.85766 6.68616
#
# Compressibility (1/GPa) = 0.01990444
#
# Stress axis : x y z
#
# Youngs Moduli (GPa) = 91.61457 54.24911 92.70789
#
# Poissons Ratio (x) = 0.30639 0.16604
# Poissons Ratio (y) = 0.51742 0.24815
# Poissons Ratio (z) = 0.16408 0.14521
#
# Static dielectric constant tensor:
#      x y z
#    x 3.967930 0.000000 -0.016370 
#    y 0.000000 3.264670 0.000000 
#    z -0.016370 0.000000 4.197770 
# 
# 
# High freq. dielectric constant tensor:
#      x y z
#    x 1.764500 0.000000 -0.010250 
#    y 0.000000 1.703390 0.000000 
#    z -0.010250 0.000000 1.775830 
# 
# From -- ./inp_files/104692.got.cif
#   From: 2010.06.25/outbox.cif.g09.slc.cpg/sg12_53_cif.got.tgz:104692.got - 2010.06.28 00:19:55.
