data_PCOD8092526
_publ_section_title
;
Structure prediction by ZEFSAII (Michael W. Deem and Ramdas Pophale) SiO2 
 PCOD8092526
Probable space group: C 2/M
;
_chemical_formula_sum "Si O2"
_cell_formula_units_Z 64
_cell_length_a 28.355750
_cell_length_b 8.930697
_cell_length_c 18.329759
_cell_angle_alpha 90.000000
_cell_angle_beta 44.560440
_cell_angle_gamma 90.000000
_cell_volume 3256.947447
_symmetry_space_group_name_H-M "C 2/M"
_symmetry_group_IT_number 12
_symmetry_cell_setting 'monoclinic'
loop_
_space_group_symop_operation_xyz
x,y,z
-x,y,-z
-x,-y,-z
x,-y,z
1/2+x,1/2+y,z
1/2-x,1/2+y,-z
1/2-x,1/2-y,-z
1/2+x,1/2-y,z
loop_
_atom_site_type_symbol
_atom_site_label
_atom_site_fract_x
_atom_site_fract_y
_atom_site_fract_z
Si Si1 0.845489 0.674359 0.178252
Si Si2 0.793011 0.824399 0.730849
Si Si3 0.904645 0.334137 0.850120
Si Si4 0.934055 0.177647 0.960493
Si Si5 0.943684 0.335154 0.364454
Si Si6 0.297874 0.675169 0.889127
Si Si7 0.936517 0.822701 0.522977
Si Si8 0.427183 0.173644 0.225653
O O1 0.850462 0.500000 0.150043
O O2 0.769101 0.734518 0.250021
O O3 0.863032 0.698611 0.244016
O O4 0.899506 0.766554 0.072437
O O5 0.774414 0.782234 0.834048
O O6 0.865707 0.753971 0.629868
O O7 0.801092 0.000000 0.711250
O O8 0.872147 0.500000 0.893418
O O9 0.892346 0.246815 0.939155
O O10 0.871681 0.242630 0.820219
O O11 0.981638 0.346926 0.747287
O O12 0.011469 0.228249 0.872592
O O13 0.930789 0.000000 0.960149
O O14 0.919244 0.500000 0.417910
O O15 0.939956 0.218483 0.434020
O O16 0.904280 0.281949 0.334081
O O17 0.300432 0.500000 0.898674
O O18 0.250000 0.750000 0.000000
O O19 0.000000 0.757285 0.500000
O O20 0.937958 0.000000 0.528272
O O21 0.450449 0.000000 0.199133
#
# Coordination Sequence:
#
# PCOD8092526 Si02
#       8
#     8   8   8   8   8   8   8   8
#     4  10  19  35  56  74 103 148 188 221 263 320
#     4   9  20  36  54  78 106 140 182 222 264 322
#     4  10  20  35  53  75 106 142 181 221 266 326
#     4  11  21  32  51  81 113 142 178 225 273 320
#     4   9  19  35  54  78 104 131 171 222 271 319
#     4  11  21  34  53  78 110 145 181 221 267 320
#     4  10  20  36  58  81 105 135 173 218 270 327
#     4   9  19  35  55  78 106 144 185 220 262 321
#
# _framework density 19.650302
#
# number of rings (size 3 to 8) (size 9 to 14) (size 15 to 20)
#    0.000    2.125    0.000    4.500    0.000    6.750 
#    0.000    3.125    0.000    0.000    0.000    0.000 
#    0.000    0.000    0.000    0.000    0.000    0.000 
#
# Total GULP energy -396663.597542 kJ/mol
# GULP energy per Si atom -12395.737423 kJ/mol
# Density = 1.960558 g / cm^3
# Si number density = 19.650302 Si / 1000 Ang^3
#
#
#
# Elastic Constant Matrix: (Units=GPa)
#
#
# Indices 1 2 3 4 5 6 
#
# 1 161.8734 41.5464 53.0347 0.0187 8.8817 -0.0049
# 2 41.5464 74.9621 28.7661 0.0320 8.6911 -0.0239
# 3 53.0347 28.7661 84.6001 0.0198 9.3502 -0.0157
# 4 0.0187 0.0320 0.0198 22.2310 -0.0132 6.0160
# 5 8.8817 8.6911 9.3502 -0.0132 23.8318 0.0050
# 6 -0.0049 -0.0239 -0.0157 6.0160 0.0050 23.9080
#
#
#
# Elastic Compliance Matrix: (Units=1/GPa)
#
#
# Indices 1 2 3 4 5 6 
#
# 1 0.008327 -0.002971 -0.004167 0.000002 -0.000385 -0.000004
# 2 -0.002971 0.016722 -0.003420 -0.000026 -0.003649 0.000021
# 3 -0.004167 -0.003420 0.015979 -0.000010 -0.003469 0.000010
# 4 0.000002 -0.000026 -0.000010 0.048269 0.000042 -0.012146
# 5 -0.000385 -0.003649 -0.003469 0.000042 0.044796 -0.000026
# 6 -0.000004 0.000021 0.000010 -0.012146 -0.000026 0.044883
#
#
# Mechanical properties :
#
#
# Convention : Reuss Voigt Hill
#
# Bulk Modulus (GPa) = 50.22292 63.12556 56.67424
# Shear Modulus (GPa) = 24.18615 27.20007 25.69311
#
# Velocity S-wave (km/s) = 3.51212 3.72453 3.61988
# Velocity P-wave (km/s) = 6.48541 7.11972 6.80995
#
# Compressibility (1/GPa) = 0.01991123
#
# Stress axis : x y z
#
# Youngs Moduli (GPa) = 120.09679 59.80028 62.58259
#
# Poissons Ratio (x) = 0.17768 0.26078
# Poissons Ratio (y) = 0.35683 0.21404
# Poissons Ratio (z) = 0.50045 0.20452
#
# Static dielectric constant tensor:
#      x y z
#    x 4.117430 -0.000180 0.069110 
#    y -0.000180 4.045570 0.000080 
#    z 0.069110 0.000080 3.465920 
# 
# 
# High freq. dielectric constant tensor:
#      x y z
#    x 1.782170 0.000000 0.008110 
#    y 0.000000 1.746860 0.000000 
#    z 0.008110 0.000000 1.744300 
# 
# From -- ./inp_files/295491.got.cif
#   From: 2010.06.25/outbox.cif.g09.slc.cpg/sg12_148_cif.got.tgz:295491.got - 2010.06.28 00:19:55.
