data_PCOD8092443
_publ_section_title
;
Structure prediction by ZEFSAII (Michael W. Deem and Ramdas Pophale) SiO2 
 PCOD8092443
Probable space group: C 2/M
;
_chemical_formula_sum "Si O2"
_cell_formula_units_Z 56
_cell_length_a 7.470026
_cell_length_b 26.534015
_cell_length_c 17.295754
_cell_angle_alpha 90.000000
_cell_angle_beta 115.588114
_cell_angle_gamma 90.000000
_cell_volume 3091.958333
_symmetry_space_group_name_H-M "C 2/M"
_symmetry_group_IT_number 12
_symmetry_cell_setting 'monoclinic'
loop_
_space_group_symop_operation_xyz
x,y,z
-x,y,-z
-x,-y,-z
x,-y,z
1/2+x,1/2+y,z
1/2-x,1/2+y,-z
1/2-x,1/2-y,-z
1/2+x,1/2-y,z
loop_
_atom_site_type_symbol
_atom_site_label
_atom_site_fract_x
_atom_site_fract_y
_atom_site_fract_z
Si Si1 0.075489 0.305375 0.779388
Si Si2 0.801314 0.443832 0.801314
Si Si3 0.527269 0.903217 0.319678
Si Si4 0.788563 0.443447 0.500000
Si Si5 0.399693 0.844918 0.899694
Si Si6 0.112087 0.903217 0.319678
Si Si7 0.016714 0.805375 0.220612
O O1 0.961303 0.344330 0.701744
O O2 0.993747 0.250000 0.743747
O O3 0.310923 0.308618 0.810923
O O4 0.036673 0.318527 0.861155
O O5 0.840097 0.500000 0.840097
O O6 0.879542 0.404495 0.879544
O O7 0.566615 0.437262 0.744452
O O8 0.922290 0.437262 0.744453
O O9 0.692599 0.913232 0.416111
O O10 0.308305 0.918509 0.308305
O O11 0.707230 0.500000 0.500000
O O12 0.639623 0.413232 0.416111
O O13 0.000000 0.446827 0.500000
O O14 0.185637 0.818527 0.861155
O O15 0.500000 0.835949 0.000000
O O16 0.057814 0.844330 0.298256
#
# Coordination Sequence:
#
# PCOD8092443 Si02
#       7
#     8   8   8   8   8   8   8
#     4  10  19  35  55  75 102 137 168 207 258 307
#     4  10  20  34  54  76 101 139 174 204 253 307
#     4   9  19  33  51  75 106 136 172 213 251 298
#     4   9  16  29  50  75 102 134 172 214 252 285
#     4  10  22  37  53  79 106 128 167 214 256 309
#     4   9  19  33  51  75 106 136 172 213 251 298
#     4  10  19  35  55  75 102 137 168 207 258 307
#
# _framework density 18.111499999999999
#
# number of rings (size 3 to 8) (size 9 to 14) (size 15 to 20)
#    0.000    2.429    1.429    0.857    0.000    3.714 
#    0.000    2.143    0.000    0.000    0.000    8.000 
#    0.000    0.000    0.000    0.000    0.000    0.000 
#
# Total GULP energy -347174.391163 kJ/mol
# GULP energy per Si atom -12399.085399 kJ/mol
# Density = 1.807028 g / cm^3
# Si number density = 18.111500 Si / 1000 Ang^3
#
#
#
# Elastic Constant Matrix: (Units=GPa)
#
#
# Indices 1 2 3 4 5 6 
#
# 1 94.6973 35.4785 32.8154 0.0000 0.0002 0.0000
# 2 35.4785 149.6467 55.3956 0.0000 0.0003 0.0000
# 3 32.8154 55.3956 114.3956 0.0000 0.0004 0.0000
# 4 0.0000 0.0000 0.0000 15.8165 0.0000 0.0000
# 5 0.0002 0.0003 0.0004 0.0000 18.3919 0.0000
# 6 0.0000 0.0000 0.0000 0.0000 0.0000 14.0450
#
#
#
# Elastic Compliance Matrix: (Units=1/GPa)
#
#
# Indices 1 2 3 4 5 6 
#
# 1 0.012171 -0.001941 -0.002551 0.000000 0.000000 0.000000
# 2 -0.001941 0.008451 -0.003536 0.000000 0.000000 0.000000
# 3 -0.002551 -0.003536 0.011186 0.000000 0.000000 0.000000
# 4 0.000000 0.000000 0.000000 0.063225 0.000000 0.000000
# 5 0.000000 0.000000 0.000000 0.000000 0.054372 0.000000
# 6 0.000000 0.000000 0.000000 0.000000 0.000000 0.071200
#
#
# Mechanical properties :
#
#
# Convention : Reuss Voigt Hill
#
# Bulk Modulus (GPa) = 63.48482 67.34651 65.41567
# Shear Modulus (GPa) = 20.66865 25.32069 22.99467
#
# Velocity S-wave (km/s) = 3.38181 3.74310 3.56703
# Velocity P-wave (km/s) = 7.09769 7.47972 7.29121
#
# Compressibility (1/GPa) = 0.01575180
#
# Stress axis : x y z
#
# Youngs Moduli (GPa) = 82.16005 118.32272 89.39995
#
# Poissons Ratio (x) = 0.22968 0.22810
# Poissons Ratio (y) = 0.15948 0.31610
# Poissons Ratio (z) = 0.20963 0.41836
#
# Static dielectric constant tensor:
#      x y z
#    x 3.513990 0.000000 0.000000 
#    y 0.000000 3.521820 0.000000 
#    z 0.000000 0.000000 3.124230 
# 
# 
# High freq. dielectric constant tensor:
#      x y z
#    x 1.715740 0.000000 0.000000 
#    y 0.000000 1.707960 0.000000 
#    z 0.000000 0.000000 1.672090 
# 
# From -- ./inp_files/259004.got.cif
#   From: 2010.06.25/outbox.cif.g09.slc.cpg/sg12_130_cif.got.tgz:259004.got - 2010.06.28 00:19:55.
