data_PCOD8092673
_publ_section_title
;
Structure prediction by ZEFSAII (Michael W. Deem and Ramdas Pophale) SiO2 
 PCOD8092673
Probable space group: C 2/M
;
_chemical_formula_sum "Si O2"
_cell_formula_units_Z 48
_cell_length_a 23.567801
_cell_length_b 9.035225
_cell_length_c 17.183885
_cell_angle_alpha 90.000000
_cell_angle_beta 133.239369
_cell_angle_gamma 90.000000
_cell_volume 2665.678749
_symmetry_space_group_name_H-M "C 2/M"
_symmetry_group_IT_number 12
_symmetry_cell_setting 'monoclinic'
loop_
_space_group_symop_operation_xyz
x,y,z
-x,y,-z
-x,-y,-z
x,-y,z
1/2+x,1/2+y,z
1/2-x,1/2+y,-z
1/2-x,1/2-y,-z
1/2+x,1/2-y,z
loop_
_atom_site_type_symbol
_atom_site_label
_atom_site_fract_x
_atom_site_fract_y
_atom_site_fract_z
Si Si1 0.559902 0.175878 0.493548
Si Si2 0.258602 0.828229 0.124286
Si Si3 0.304678 0.826033 0.614976
Si Si4 0.766684 0.674008 0.309168
Si Si5 0.128532 0.826748 0.879823
Si Si6 0.527086 0.173095 0.290161
O O1 0.500000 0.243072 0.500000
O O2 0.645981 0.231726 0.594643
O O3 0.535856 0.233310 0.386185
O O4 0.558333 0.000000 0.494679
O O5 0.242466 0.786787 0.198462
O O6 0.332981 0.739525 0.162050
O O7 0.280281 0.000000 0.136288
O O8 0.181454 0.786267 0.003916
O O9 0.250000 0.750000 0.500000
O O10 0.289678 0.763002 0.686621
O O11 0.394409 0.789901 0.682147
O O12 0.288162 0.000000 0.596019
O O13 0.759014 0.500000 0.319655
O O14 0.044221 0.757573 0.817173
O O15 0.119802 0.000000 0.860005
O O16 0.508573 0.000000 0.271882
#
# Coordination Sequence:
#
# PCOD8092673 Si02
#       6
#     8   8   8   8   8   8
#     4   9  16  28  50  77 102 132 173 215 260 320
#     4   9  19  36  58  81 109 146 181 217 271 330
#     4  11  22  37  56  78 108 145 184 224 271 323
#     4  10  19  35  57  79 105 141 184 225 267 319
#     4  10  20  34  55  84 112 141 180 225 270 316
#     4  10  20  35  53  76 106 144 183 216 266 329
#
# _framework density 18.00667
#
# number of rings (size 3 to 8) (size 9 to 14) (size 15 to 20)
#    0.000    2.167    1.667    2.000    0.000    5.333 
#    0.000    0.833    0.000    7.000    0.000    0.000 
#    0.000    0.000    0.000    0.000    0.000    0.000 
#
# Total GULP energy -297668.106850 kJ/mol
# GULP energy per Si atom -12402.837785 kJ/mol
# Density = 1.796569 g / cm^3
# Si number density = 18.006670 Si / 1000 Ang^3
#
#
#
# Elastic Constant Matrix: (Units=GPa)
#
#
# Indices 1 2 3 4 5 6 
#
# 1 155.4374 58.2029 71.4582 0.0000 3.4045 0.0000
# 2 58.2029 65.5568 46.3060 0.0000 8.1784 0.0000
# 3 71.4582 46.3060 107.5502 0.0000 6.7121 0.0000
# 4 0.0000 0.0000 0.0000 27.6720 0.0000 1.8182
# 5 3.4045 8.1784 6.7121 0.0000 29.5732 0.0000
# 6 0.0000 0.0000 0.0000 1.8182 0.0000 33.3184
#
#
#
# Elastic Compliance Matrix: (Units=1/GPa)
#
#
# Indices 1 2 3 4 5 6 
#
# 1 0.011010 -0.006811 -0.004485 0.000000 0.001634 0.000000
# 2 -0.006811 0.026605 -0.006613 0.000000 -0.005072 0.000000
# 3 -0.004485 -0.006613 0.015194 0.000000 -0.001103 0.000000
# 4 0.000000 0.000000 0.000000 0.036268 0.000000 -0.001979
# 5 0.001634 -0.005072 -0.001103 0.000000 0.035279 0.000000
# 6 0.000000 0.000000 0.000000 -0.001979 0.000000 0.030121
#
#
# Mechanical properties :
#
#
# Convention : Reuss Voigt Hill
#
# Bulk Modulus (GPa) = 58.85339 75.60872 67.23106
# Shear Modulus (GPa) = 25.51588 28.28455 26.90021
#
# Velocity S-wave (km/s) = 3.76842 3.96761 3.86930
# Velocity P-wave (km/s) = 7.18956 7.94164 7.57494
#
# Compressibility (1/GPa) = 0.01699137
#
# Stress axis : x y z
#
# Youngs Moduli (GPa) = 90.83007 37.58762 65.81693
#
# Poissons Ratio (x) = 0.25600 0.29516
# Poissons Ratio (y) = 0.61862 0.43524
# Poissons Ratio (z) = 0.40733 0.24856
#
# Static dielectric constant tensor:
#      x y z
#    x 3.436070 0.000000 -0.022310 
#    y 0.000000 3.156970 0.000000 
#    z -0.022310 0.000000 3.370840 
# 
# 
# High freq. dielectric constant tensor:
#      x y z
#    x 1.700570 0.000000 0.001300 
#    y 0.000000 1.680520 0.000000 
#    z 0.001300 0.000000 1.698540 
# 
# From -- ./inp_files/281808.got.cif
#   From: 2010.06.25/outbox.cif.g09.slc.cpg/sg12_141_cif.got.tgz:281808.got - 2010.06.28 00:19:55.
