data_PCOD8092015
_publ_section_title
;
Structure prediction by ZEFSAII (Michael W. Deem and Ramdas Pophale) SiO2 
 PCOD8092015
Probable space group: C 2/M
;
_chemical_formula_sum "Si O2"
_cell_formula_units_Z 48
_cell_length_a 25.735632
_cell_length_b 12.917541
_cell_length_c 19.016072
_cell_angle_alpha 90.000000
_cell_angle_beta 23.519522
_cell_angle_gamma 90.000000
_cell_volume 2522.756539
_symmetry_space_group_name_H-M "C 2/M"
_symmetry_group_IT_number 12
_symmetry_cell_setting 'monoclinic'
loop_
_space_group_symop_operation_xyz
x,y,z
-x,y,-z
-x,-y,-z
x,-y,z
1/2+x,1/2+y,z
1/2-x,1/2+y,-z
1/2-x,1/2-y,-z
1/2+x,1/2-y,z
loop_
_atom_site_type_symbol
_atom_site_label
_atom_site_fract_x
_atom_site_fract_y
_atom_site_fract_z
Si Si1 0.728255 0.382258 0.142120
Si Si2 0.440915 0.194684 0.644773
Si Si3 0.881084 0.380642 0.455413
Si Si4 0.803573 0.113921 0.978954
Si Si5 0.022571 0.267411 0.163461
Si Si6 0.922921 0.117998 0.166375
O O1 0.702336 0.500000 0.198029
O O2 0.600973 0.314292 0.318019
O O3 0.755428 0.370235 0.025141
O O4 0.860933 0.338952 0.013048
O O5 0.500000 0.148202 0.500000
O O6 0.546335 0.186391 0.575548
O O7 0.312068 0.129731 0.822038
O O8 0.927004 0.500000 0.402470
O O9 0.729277 0.369870 0.659431
O O10 0.913527 0.337494 0.337050
O O11 0.861993 0.000000 0.915520
O O12 0.920880 0.191944 0.846761
O O13 0.961846 0.200282 0.176852
O O14 0.955116 0.000000 0.150637
O O15 0.000000 0.145389 0.000000
#
# Coordination Sequence:
#
# PCOD8092015 Si02
#       6
#     8   8   8   8   8   8
#     4  10  20  37  60  85 117 150 188 234 281 338
#     4  11  22  35  56  88 121 154 186 228 293 343
#     4  11  22  38  59  85 117 151 195 239 279 337
#     4  10  19  34  58  87 117 146 187 235 279 341
#     4  11  19  37  60  85 111 154 195 229 285 338
#     4  10  24  41  59  86 116 148 188 242 295 337
#
# _framework density 19.026807000000002
#
# number of rings (size 3 to 8) (size 9 to 14) (size 15 to 20)
#    0.000    1.500    3.333    3.000    4.667    1.667 
#    0.000    0.000    0.000    3.000    0.000    0.000 
#    0.000    0.000    0.000    0.000    0.000    0.000 
#
# Total GULP energy -297596.428342 kJ/mol
# GULP energy per Si atom -12399.851181 kJ/mol
# Density = 1.898350 g / cm^3
# Si number density = 19.026807 Si / 1000 Ang^3
#
#
#
# Elastic Constant Matrix: (Units=GPa)
#
#
# Indices 1 2 3 4 5 6 
#
# 1 68.1293 32.2996 35.0344 0.0000 -0.1586 0.0000
# 2 32.2996 82.1156 29.4329 0.0000 -9.3789 0.0001
# 3 35.0344 29.4329 103.6873 -0.0001 3.6373 0.0001
# 4 0.0000 0.0000 -0.0001 25.6113 0.0000 -3.8663
# 5 -0.1586 -9.3789 3.6373 0.0000 27.7991 0.0000
# 6 0.0000 0.0001 0.0001 -3.8663 0.0000 20.0529
#
#
#
# Elastic Compliance Matrix: (Units=1/GPa)
#
#
# Indices 1 2 3 4 5 6 
#
# 1 0.020244 -0.006328 -0.004996 0.000000 -0.001366 0.000000
# 2 -0.006328 0.016296 -0.002692 0.000000 0.005814 0.000000
# 3 -0.004996 -0.002692 0.012185 0.000000 -0.002531 0.000000
# 4 0.000000 0.000000 0.000000 0.040216 0.000000 0.007754
# 5 -0.001366 0.005814 -0.002531 0.000000 0.038257 0.000000
# 6 0.000000 0.000000 0.000000 0.007754 0.000000 0.051363
#
#
# Mechanical properties :
#
#
# Convention : Reuss Voigt Hill
#
# Bulk Modulus (GPa) = 48.32343 49.71845 49.02094
# Shear Modulus (GPa) = 23.42026 25.17035 24.29531
#
# Velocity S-wave (km/s) = 3.51224 3.64110 3.57725
# Velocity P-wave (km/s) = 6.47305 6.62301 6.54846
#
# Compressibility (1/GPa) = 0.02069390
#
# Stress axis : x y z
#
# Youngs Moduli (GPa) = 49.39741 61.36526 82.06652
#
# Poissons Ratio (x) = 0.38833 0.41000
# Poissons Ratio (y) = 0.31259 0.22089
# Poissons Ratio (z) = 0.24678 0.16517
#
# Static dielectric constant tensor:
#      x y z
#    x 3.238490 0.000000 -0.057010 
#    y 0.000000 3.725270 0.000000 
#    z -0.057010 0.000000 3.463860 
# 
# 
# High freq. dielectric constant tensor:
#      x y z
#    x 1.715230 0.000000 -0.005150 
#    y 0.000000 1.749670 0.000000 
#    z -0.005150 0.000000 1.740310 
# 
# From -- ./inp_files/330141.got.cif
#   From: 2010.06.25/outbox.cif.g09.slc.cpg/sg12_166_cif.got.tgz:330141.got - 2010.06.28 00:19:55.
