data_PCOD8092620
_publ_section_title
;
Structure prediction by ZEFSAII (Michael W. Deem and Ramdas Pophale) SiO2 
 PCOD8092620
Probable space group: C 2/M
;
_chemical_formula_sum "Si O2"
_cell_formula_units_Z 56
_cell_length_a 22.999808
_cell_length_b 14.537162
_cell_length_c 18.699345
_cell_angle_alpha 90.000000
_cell_angle_beta 29.316633
_cell_angle_gamma 90.000000
_cell_volume 3061.281140
_symmetry_space_group_name_H-M "C 2/M"
_symmetry_group_IT_number 12
_symmetry_cell_setting 'monoclinic'
loop_
_space_group_symop_operation_xyz
x,y,z
-x,y,-z
-x,-y,-z
x,-y,z
1/2+x,1/2+y,z
1/2-x,1/2+y,-z
1/2-x,1/2-y,-z
1/2+x,1/2-y,z
loop_
_atom_site_type_symbol
_atom_site_label
_atom_site_fract_x
_atom_site_fract_y
_atom_site_fract_z
Si Si1 0.439341 0.763178 0.134238
Si Si2 0.451711 0.339929 0.388570
Si Si3 0.886657 0.899176 0.299283
Si Si4 0.953345 0.394081 0.880986
Si Si5 0.307577 0.605275 0.814277
Si Si6 0.764701 0.104644 0.696818
Si Si7 0.656693 0.181451 0.561296
O O1 0.431297 0.681437 0.199926
O O2 0.531022 0.841733 0.060994
O O3 0.316915 0.817162 0.251786
O O4 0.500000 0.718187 0.000000
O O5 0.432842 0.382851 0.330149
O O6 0.591243 0.334333 0.256690
O O7 0.385235 0.398096 0.520895
O O8 0.401136 0.235287 0.443454
O O9 0.741579 0.903276 0.449168
O O10 0.932061 0.000000 0.225773
O O11 0.984939 0.500000 0.857934
O O12 0.045731 0.350088 0.727223
O O13 0.814714 0.380965 0.009440
O O14 0.348813 0.500000 0.774044
O O15 0.292371 0.634600 0.748069
O O16 0.710987 0.000000 0.752967
O O17 0.750000 0.250000 0.500000
#
# Coordination Sequence:
#
# PCOD8092620 Si02
#       7
#     8   8   8   8   8   8   8
#     4  12  22  37  57  84 114 142 193 235 285 338
#     4  11  20  37  58  82 116 151 187 231 274 336
#     4  11  22  39  60  81 110 147 191 244 283 322
#     4  11  21  36  55  83 119 150 182 227 282 341
#     4  10  22  35  53  86 120 153 184 217 280 349
#     4  11  21  34  57  86 118 151 180 228 284 340
#     4  10  19  35  56  83 108 142 192 233 278 326
#
# _framework density 18.292995000000001
#
# number of rings (size 3 to 8) (size 9 to 14) (size 15 to 20)
#    0.000    1.143    5.714    3.429    0.000    2.571 
#    0.000    0.000    0.000    0.000    0.000    3.000 
#    0.000    0.000    0.000    0.000    0.000    0.000 
#
# Total GULP energy -346918.874964 kJ/mol
# GULP energy per Si atom -12389.959820 kJ/mol
# Density = 1.825136 g / cm^3
# Si number density = 18.292995 Si / 1000 Ang^3
#
#
#
# Elastic Constant Matrix: (Units=GPa)
#
#
# Indices 1 2 3 4 5 6 
#
# 1 82.7211 47.6486 45.3298 0.0001 -11.0756 -0.0001
# 2 47.6486 97.8156 37.5832 0.0001 -3.6742 -0.0001
# 3 45.3298 37.5832 114.3094 0.0002 -0.8075 -0.0002
# 4 0.0001 0.0001 0.0002 24.3482 -0.0001 -1.9117
# 5 -11.0756 -3.6742 -0.8075 -0.0001 33.4159 0.0001
# 6 -0.0001 -0.0001 -0.0002 -1.9117 0.0001 22.0770
#
#
#
# Elastic Compliance Matrix: (Units=1/GPa)
#
#
# Indices 1 2 3 4 5 6 
#
# 1 0.020196 -0.007510 -0.005499 0.000000 0.005735 0.000000
# 2 -0.007510 0.014542 -0.001810 0.000000 -0.000934 0.000000
# 3 -0.005499 -0.001810 0.011512 0.000000 -0.001743 0.000000
# 4 0.000000 0.000000 0.000000 0.041352 0.000000 0.003581
# 5 0.005735 -0.000934 -0.001743 0.000000 0.031682 0.000000
# 6 0.000000 0.000000 0.000000 0.003581 0.000000 0.045606
#
#
# Mechanical properties :
#
#
# Convention : Reuss Voigt Hill
#
# Bulk Modulus (GPa) = 60.19692 61.77435 60.98564
# Shear Modulus (GPa) = 24.99209 26.92053 25.95631
#
# Velocity S-wave (km/s) = 3.70024 3.84035 3.77094
# Velocity P-wave (km/s) = 7.15781 7.31485 7.23676
#
# Compressibility (1/GPa) = 0.01661215
#
# Stress axis : x y z
#
# Youngs Moduli (GPa) = 49.51530 68.76778 86.86894
#
# Poissons Ratio (x) = 0.51642 0.47771
# Poissons Ratio (y) = 0.37184 0.15721
# Poissons Ratio (z) = 0.27229 0.12445
#
# Static dielectric constant tensor:
#      x y z
#    x 3.297210 0.000000 -0.112730 
#    y 0.000000 3.451640 0.000000 
#    z -0.112730 0.000000 3.636940 
# 
# 
# High freq. dielectric constant tensor:
#      x y z
#    x 1.688320 0.000000 -0.003730 
#    y 0.000000 1.698040 0.000000 
#    z -0.003730 0.000000 1.720510 
# 
# From -- ./inp_files/284493.got.cif
#   From: 2010.06.25/outbox.cif.g09.slc.cpg/sg12_143_cif.got.tgz:284493.got - 2010.06.28 00:19:55.
