data_PCOD8092450
_publ_section_title
;
Structure prediction by ZEFSAII (Michael W. Deem and Ramdas Pophale) SiO2 
 PCOD8092450
Probable space group: C 2/M
;
_chemical_formula_sum "Si O2"
_cell_formula_units_Z 56
_cell_length_a 21.570485
_cell_length_b 13.371870
_cell_length_c 17.671564
_cell_angle_alpha 90.000000
_cell_angle_beta 140.978497
_cell_angle_gamma 90.000000
_cell_volume 3209.224109
_symmetry_space_group_name_H-M "C 2/M"
_symmetry_group_IT_number 12
_symmetry_cell_setting 'monoclinic'
loop_
_space_group_symop_operation_xyz
x,y,z
-x,y,-z
-x,-y,-z
x,-y,z
1/2+x,1/2+y,z
1/2-x,1/2+y,-z
1/2-x,1/2-y,-z
1/2+x,1/2-y,z
loop_
_atom_site_type_symbol
_atom_site_label
_atom_site_fract_x
_atom_site_fract_y
_atom_site_fract_z
Si Si1 0.982371 0.882055 0.897592
Si Si2 0.685681 0.886612 0.906242
Si Si3 0.074148 0.115009 0.389773
Si Si4 0.105074 0.702854 0.514489
Si Si5 0.795614 0.884613 0.629177
Si Si6 0.601295 0.690383 0.877108
Si Si7 0.897794 0.614107 0.330996
O O1 0.065208 0.826224 0.927951
O O2 0.874472 0.848104 0.767046
O O3 0.996074 0.000000 0.898038
O O4 0.000000 0.849364 0.000000
O O5 0.610724 0.809880 0.875041
O O6 0.679819 0.870820 0.809949
O O7 0.655143 0.000000 0.898801
O O8 0.795459 0.864875 0.038078
O O9 0.086518 0.180642 0.477454
O O10 0.163110 0.136182 0.415591
O O11 0.972084 0.142335 0.252835
O O12 0.072636 0.000000 0.413655
O O13 0.192708 0.670608 0.542317
O O14 0.132405 0.687932 0.628827
O O15 0.007143 0.638826 0.404110
O O16 0.774447 0.000000 0.622021
O O17 0.895337 0.500000 0.358429
#
# Coordination Sequence:
#
# PCOD8092450 Si02
#       7
#     8   8   8   8   8   8   8
#     4   9  18  31  51  81 106 132 168 209 260 311
#     4  10  20  34  56  80 102 135 175 212 257 309
#     4  10  20  35  52  74 105 139 175 213 251 308
#     4  11  19  33  51  73 106 138 170 207 258 302
#     4   9  18  31  51  76 101 132 170 214 259 302
#     4  10  19  35  55  76 108 135 169 214 262 303
#     4  10  21  34  51  78 107 131 167 216 263 306
#
# _framework density 17.4497
#
# number of rings (size 3 to 8) (size 9 to 14) (size 15 to 20)
#    0.000    2.143    1.429    4.286    2.000    0.000 
#    0.000    1.429    0.000    0.429    0.000    0.000 
#    0.000    0.000    0.000    0.000    0.000    0.000 
#
# Total GULP energy -347166.095351 kJ/mol
# GULP energy per Si atom -12398.789120 kJ/mol
# Density = 1.740998 g / cm^3
# Si number density = 17.449700 Si / 1000 Ang^3
#
#
#
# Elastic Constant Matrix: (Units=GPa)
#
#
# Indices 1 2 3 4 5 6 
#
# 1 82.1622 59.4477 30.7946 0.0000 -1.8559 0.0000
# 2 59.4477 108.5475 32.6263 0.0000 -9.9175 0.0000
# 3 30.7946 32.6263 40.0733 0.0000 3.2849 0.0000
# 4 0.0000 0.0000 0.0000 23.2833 0.0000 -3.9082
# 5 -1.8559 -9.9175 3.2849 0.0000 26.4055 0.0000
# 6 0.0000 0.0000 0.0000 -3.9082 0.0000 31.3785
#
#
#
# Elastic Compliance Matrix: (Units=1/GPa)
#
#
# Indices 1 2 3 4 5 6 
#
# 1 0.022701 -0.009648 -0.009521 0.000000 -0.000844 0.000000
# 2 -0.009648 0.017273 -0.007198 0.000000 0.006705 0.000000
# 3 -0.009521 -0.007198 0.038803 0.000000 -0.008200 0.000000
# 4 0.000000 0.000000 0.000000 0.043866 0.000000 0.005464
# 5 -0.000844 0.006705 -0.008200 0.000000 0.041350 0.000000
# 6 0.000000 0.000000 0.000000 0.005464 0.000000 0.032549
#
#
# Mechanical properties :
#
#
# Convention : Reuss Voigt Hill
#
# Bulk Modulus (GPa) = 38.39785 52.94669 45.67227
# Shear Modulus (GPa) = 19.38306 23.40776 21.39541
#
# Velocity S-wave (km/s) = 3.33648 3.66654 3.50540
# Velocity P-wave (km/s) = 6.07416 6.95220 6.52796
#
# Compressibility (1/GPa) = 0.02604313
#
# Stress axis : x y z
#
# Youngs Moduli (GPa) = 44.05073 57.89497 25.77116
#
# Poissons Ratio (x) = 0.55858 0.24535
# Poissons Ratio (y) = 0.42501 0.18551
# Poissons Ratio (z) = 0.41939 0.41674
#
# Static dielectric constant tensor:
#      x y z
#    x 3.146340 0.000000 0.028180 
#    y 0.000000 3.252910 0.000000 
#    z 0.028180 0.000000 3.297790 
# 
# 
# High freq. dielectric constant tensor:
#      x y z
#    x 1.660560 0.000000 0.005750 
#    y 0.000000 1.663300 0.000000 
#    z 0.005750 0.000000 1.679280 
# 
# From -- ./inp_files/325160.got.cif
#   From: 2010.06.25/outbox.cif.g09.slc.cpg/sg12_163_cif.got.tgz:325160.got - 2010.06.28 00:19:55.
