data_PCOD8092274
_publ_section_title
;
Structure prediction by ZEFSAII (Michael W. Deem and Ramdas Pophale) SiO2 
 PCOD8092274
Probable space group: C 2/M
;
_chemical_formula_sum "Si O2"
_cell_formula_units_Z 56
_cell_length_a 12.226921
_cell_length_b 13.225001
_cell_length_c 25.282215
_cell_angle_alpha 90.000000
_cell_angle_beta 38.124678
_cell_angle_gamma 90.000000
_cell_volume 2523.927123
_symmetry_space_group_name_H-M "C 2/M"
_symmetry_group_IT_number 12
_symmetry_cell_setting 'monoclinic'
loop_
_space_group_symop_operation_xyz
x,y,z
-x,y,-z
-x,-y,-z
x,-y,z
1/2+x,1/2+y,z
1/2-x,1/2+y,-z
1/2-x,1/2-y,-z
1/2+x,1/2-y,z
loop_
_atom_site_type_symbol
_atom_site_label
_atom_site_fract_x
_atom_site_fract_y
_atom_site_fract_z
Si Si1 0.008324 0.112514 0.859459
Si Si2 0.116029 0.114564 0.363996
Si Si3 0.982632 0.887945 0.264968
Si Si4 0.271502 0.263756 0.581401
Si Si5 0.321120 0.811714 0.185427
Si Si6 0.792980 0.387035 0.490795
Si Si7 0.611504 0.883423 0.006539
O O1 0.067834 0.104096 0.776424
O O2 0.144750 0.191178 0.834557
O O3 0.023697 0.000000 0.879819
O O4 0.810202 0.159946 0.938410
O O5 0.108536 0.175531 0.422311
O O6 0.253660 0.162628 0.270196
O O7 0.917798 0.116354 0.416255
O O8 0.175397 0.000000 0.353596
O O9 0.185272 0.853143 0.193572
O O10 0.869147 0.801359 0.334226
O O11 0.955918 0.000000 0.301432
O O12 0.169722 0.344172 0.582134
O O13 0.384006 0.186188 0.500243
O O14 0.505514 0.868141 0.101899
O O15 0.871290 0.500000 0.465230
O O16 0.640914 0.000000 0.981530
O O17 0.500000 0.832994 0.000000
#
# Coordination Sequence:
#
# PCOD8092274 Si02
#       7
#     8   8   8   8   8   8   8
#     4  10  22  39  59  86 123 157 192 240 293 344
#     4  11  22  37  60  89 118 152 197 247 291 344
#     4  11  21  38  62  86 115 155 199 243 286 347
#     4  11  21  36  60  88 117 147 193 247 294 344
#     4  12  21  36  63  89 117 155 202 241 288 344
#     4  10  22  40  62  84 114 156 197 237 291 354
#     4  10  19  34  60  92 118 151 200 244 281 336
#
# _framework density 22.187645
#
# number of rings (size 3 to 8) (size 9 to 14) (size 15 to 20)
#    0.000    1.286    4.286    3.000    0.000    1.143 
#    0.000    1.429    0.000   18.429    0.000    0.000 
#    0.000    0.000    0.000    0.000    0.000    0.000 
#
# Total GULP energy -347038.057308 kJ/mol
# GULP energy per Si atom -12394.216332 kJ/mol
# Density = 2.213715 g / cm^3
# Si number density = 22.187645 Si / 1000 Ang^3
#
#
#
# Elastic Constant Matrix: (Units=GPa)
#
#
# Indices 1 2 3 4 5 6 
#
# 1 38.1140 23.3252 -2.9320 0.0002 6.9270 -0.0002
# 2 23.3252 134.3420 11.9901 -0.0001 -7.0172 -0.0001
# 3 -2.9320 11.9901 85.7416 -0.0001 1.3468 -0.0002
# 4 0.0002 -0.0001 -0.0001 35.5610 -0.0004 0.2497
# 5 6.9270 -7.0172 1.3468 -0.0004 24.9249 0.0003
# 6 -0.0002 -0.0001 -0.0002 0.2497 0.0003 31.2212
#
#
#
# Elastic Compliance Matrix: (Units=1/GPa)
#
#
# Indices 1 2 3 4 5 6 
#
# 1 0.032276 -0.006365 0.002165 0.000000 -0.010879 0.000000
# 2 -0.006365 0.008913 -0.001533 0.000000 0.004361 0.000000
# 3 0.002165 -0.001533 0.011978 0.000000 -0.001680 0.000000
# 4 0.000000 0.000000 0.000000 0.028122 0.000001 -0.000225
# 5 -0.010879 0.004361 -0.001680 0.000001 0.044463 -0.000001
# 6 0.000000 0.000000 0.000000 -0.000225 -0.000001 0.032031
#
#
# Mechanical properties :
#
#
# Convention : Reuss Voigt Hill
#
# Bulk Modulus (GPa) = 23.98031 35.88492 29.93261
# Shear Modulus (GPa) = 27.29990 33.39571 30.34781
#
# Velocity S-wave (km/s) = 3.51153 3.88383 3.70236
# Velocity P-wave (km/s) = 5.22231 6.02667 5.63885
#
# Compressibility (1/GPa) = 0.04170088
#
# Stress axis : x y z
#
# Youngs Moduli (GPa) = 30.98237 112.18945 83.48856
#
# Poissons Ratio (x) = 0.71414 -0.18073
# Poissons Ratio (y) = 0.19722 0.12796
# Poissons Ratio (z) = -0.06707 0.17195
#
# Static dielectric constant tensor:
#      x y z
#    x 3.828260 0.000000 0.059370 
#    y 0.000000 4.313430 0.000000 
#    z 0.059370 0.000000 3.945200 
# 
# 
# High freq. dielectric constant tensor:
#      x y z
#    x 1.842180 0.000000 0.007570 
#    y 0.000000 1.882690 0.000000 
#    z 0.007570 0.000000 1.878460 
# 
# From -- ./inp_files/360778.got.cif
#   From: 2010.06.25/outbox.cif.g09.slc.cpg/sg12_181_cif.got.tgz:360778.got - 2010.06.28 00:19:55.
