data_PCOD8092118
_publ_section_title
;
Structure prediction by ZEFSAII (Michael W. Deem and Ramdas Pophale) SiO2 
 PCOD8092118
Probable space group: C 2/M
;
_chemical_formula_sum "Si O2"
_cell_formula_units_Z 48
_cell_length_a 24.187664
_cell_length_b 9.118878
_cell_length_c 11.607543
_cell_angle_alpha 90.000000
_cell_angle_beta 110.096818
_cell_angle_gamma 90.000000
_cell_volume 2404.327598
_symmetry_space_group_name_H-M "C 2/M"
_symmetry_group_IT_number 12
_symmetry_cell_setting 'monoclinic'
loop_
_space_group_symop_operation_xyz
x,y,z
-x,y,-z
-x,-y,-z
x,-y,z
1/2+x,1/2+y,z
1/2-x,1/2+y,-z
1/2-x,1/2-y,-z
1/2+x,1/2-y,z
loop_
_atom_site_type_symbol
_atom_site_label
_atom_site_fract_x
_atom_site_fract_y
_atom_site_fract_z
Si Si1 0.345222 0.668429 0.310781
Si Si2 0.132922 0.832495 0.163920
Si Si3 0.269202 0.829885 0.630277
Si Si4 0.558333 0.827294 0.476430
Si Si5 0.607063 0.672591 0.897831
Si Si6 0.976468 0.166971 0.768509
O O1 0.365320 0.500000 0.342034
O O2 0.278458 0.691971 0.302503
O O3 0.385053 0.772270 0.415804
O O4 0.352070 0.714729 0.181621
O O5 0.170338 0.735577 0.278758
O O6 0.063616 0.825131 0.146139
O O7 0.155942 0.000000 0.188570
O O8 0.137388 0.767876 0.036787
O O9 0.250000 0.750000 0.500000
O O10 0.278451 0.000000 0.607193
O O11 0.500000 0.774507 0.500000
O O12 0.558678 0.758775 0.351039
O O13 0.562125 0.000000 0.468282
O O14 0.600250 0.500000 0.909307
O O15 0.541043 0.737450 0.835288
O O16 0.982854 0.000000 0.729166
#
# Coordination Sequence:
#
# PCOD8092118 Si02
#       6
#     8   8   8   8   8   8
#     4  10  21  38  60  83 109 148 194 231 270 329
#     4  10  21  37  59  87 114 146 187 228 277 333
#     4  11  24  41  60  83 111 147 191 233 277 330
#     4  11  22  34  52  83 118 146 179 228 285 333
#     4   9  18  35  59  85 113 144 185 234 275 323
#     4  10  19  34  59  85 112 149 190 228 271 330
#
# _framework density 19.963999999999999
#
# number of rings (size 3 to 8) (size 9 to 14) (size 15 to 20)
#    0.000    1.833    1.667    2.500    0.000    9.333 
#    0.000    1.667    0.000    2.000    0.000    0.000 
#    0.000    0.000    0.000    0.000    0.000    0.000 
#
# Total GULP energy -297631.614775 kJ/mol
# GULP energy per Si atom -12401.317282 kJ/mol
# Density = 1.991856 g / cm^3
# Si number density = 19.964000 Si / 1000 Ang^3
#
#
#
# Elastic Constant Matrix: (Units=GPa)
#
#
# Indices 1 2 3 4 5 6 
#
# 1 95.2197 29.1451 37.2132 0.0000 -7.3215 0.0000
# 2 29.1451 66.8426 39.0187 0.0000 -0.0703 0.0000
# 3 37.2132 39.0187 140.4055 0.0000 -9.9477 0.0000
# 4 0.0000 0.0000 0.0000 16.0121 0.0000 3.4601
# 5 -7.3215 -0.0703 -9.9477 0.0000 30.5513 0.0000
# 6 0.0000 0.0000 0.0000 3.4601 0.0000 25.9774
#
#
#
# Elastic Compliance Matrix: (Units=1/GPa)
#
#
# Indices 1 2 3 4 5 6 
#
# 1 0.012822 -0.004421 -0.001999 0.000000 0.002412 0.000000
# 2 -0.004421 0.019460 -0.004410 0.000000 -0.002451 0.000000
# 3 -0.001999 -0.004410 0.009052 0.000000 0.002458 0.000000
# 4 0.000000 0.000000 0.000000 0.064303 0.000000 -0.008565
# 5 0.002412 -0.002451 0.002458 0.000000 0.034105 0.000000
# 6 0.000000 0.000000 0.000000 -0.008565 0.000000 0.039636
#
#
# Mechanical properties :
#
#
# Convention : Reuss Voigt Hill
#
# Bulk Modulus (GPa) = 50.82919 57.02463 53.92691
# Shear Modulus (GPa) = 24.08538 27.64757 25.86647
#
# Velocity S-wave (km/s) = 3.47715 3.72542 3.60343
# Velocity P-wave (km/s) = 6.45263 6.86519 6.66210
#
# Compressibility (1/GPa) = 0.01967374
#
# Stress axis : x y z
#
# Youngs Moduli (GPa) = 77.99146 51.38776 110.47795
#
# Poissons Ratio (x) = 0.22721 0.22082
# Poissons Ratio (y) = 0.34483 0.48717
# Poissons Ratio (z) = 0.15589 0.22660
#
# Static dielectric constant tensor:
#      x y z
#    x 3.751120 0.000000 -0.220770 
#    y 0.000000 3.400190 0.000000 
#    z -0.220770 0.000000 3.705570 
# 
# 
# High freq. dielectric constant tensor:
#      x y z
#    x 1.785190 0.000000 -0.010970 
#    y 0.000000 1.754050 0.000000 
#    z -0.010970 0.000000 1.783910 
# 
# From -- ./inp_files/172867.got.cif
#   From: 2010.06.25/outbox.cif.g09.slc.cpg/sg12_87_cif.got.tgz:172867.got - 2010.06.28 00:19:55.
