data_PCOD8092372
_publ_section_title
;
Structure prediction by ZEFSAII (Michael W. Deem and Ramdas Pophale) SiO2 
 PCOD8092372
Probable space group: C 2/M
;
_chemical_formula_sum "Si O2"
_cell_formula_units_Z 56
_cell_length_a 17.949907
_cell_length_b 13.432267
_cell_length_c 15.706613
_cell_angle_alpha 90.000000
_cell_angle_beta 55.024357
_cell_angle_gamma 90.000000
_cell_volume 3103.043024
_symmetry_space_group_name_H-M "C 2/M"
_symmetry_group_IT_number 12
_symmetry_cell_setting 'monoclinic'
loop_
_space_group_symop_operation_xyz
x,y,z
-x,y,-z
-x,-y,-z
x,-y,z
1/2+x,1/2+y,z
1/2-x,1/2+y,-z
1/2-x,1/2-y,-z
1/2+x,1/2-y,z
loop_
_atom_site_type_symbol
_atom_site_label
_atom_site_fract_x
_atom_site_fract_y
_atom_site_fract_z
Si Si1 0.959763 0.261273 0.942032
Si Si2 0.831726 0.714616 0.890758
Si Si3 0.146332 0.788861 0.744299
Si Si4 0.810825 0.113607 0.117726
Si Si5 0.881554 0.884617 0.413226
Si Si6 0.720474 0.385464 0.349642
Si Si7 0.908838 0.885627 0.724285
O O1 0.906540 0.331412 0.908510
O O2 0.040326 0.210632 0.836751
O O3 0.890017 0.177227 0.020973
O O4 0.000000 0.318080 0.000000
O O5 0.791365 0.634521 0.851373
O O6 0.873183 0.812164 0.819763
O O7 0.750000 0.750000 0.000000
O O8 0.195920 0.863299 0.777390
O O9 0.158609 0.825083 0.640233
O O10 0.189649 0.679279 0.726380
O O11 0.836051 0.000000 0.085341
O O12 0.824684 0.851560 0.532538
O O13 0.986544 0.860343 0.363137
O O14 0.868289 0.000000 0.402110
O O15 0.751813 0.500000 0.331370
O O16 0.646483 0.366897 0.325414
O O17 0.897073 0.000000 0.763270
#
# Coordination Sequence:
#
# PCOD8092372 Si02
#       7
#     8   8   8   8   8   8   8
#     4   9  20  34  55  77 107 138 175 217 261 317
#     4  10  19  35  53  79 110 138 175 214 263 324
#     4  11  19  34  56  79 113 143 174 219 270 321
#     4  10  21  35  55  82 109 140 175 220 271 318
#     4  10  20  33  55  85 108 136 181 230 272 308
#     4  10  21  36  54  79 110 143 182 222 265 317
#     4  10  19  35  58  80 105 139 181 226 267 309
#
# _framework density 18.046800999999999
#
# number of rings (size 3 to 8) (size 9 to 14) (size 15 to 20)
#    0.000    2.000    2.857    1.286    0.000    7.143 
#    0.000    0.714    0.000    5.143    0.000    1.000 
#    0.000    0.000    0.000    0.000    0.000    0.000 
#
# Total GULP energy -347008.541622 kJ/mol
# GULP energy per Si atom -12393.162201 kJ/mol
# Density = 1.800573 g / cm^3
# Si number density = 18.046801 Si / 1000 Ang^3
#
#
#
# Elastic Constant Matrix: (Units=GPa)
#
#
# Indices 1 2 3 4 5 6 
#
# 1 142.6349 38.0716 38.9637 0.0000 21.8710 0.0000
# 2 38.0716 56.7755 27.5582 0.0000 -5.8033 0.0000
# 3 38.9637 27.5582 76.4689 0.0000 10.8639 0.0000
# 4 0.0000 0.0000 0.0000 17.4371 0.0000 -6.1232
# 5 21.8710 -5.8033 10.8639 0.0000 27.7887 0.0000
# 6 0.0000 0.0000 0.0000 -6.1232 0.0000 15.2936
#
#
#
# Elastic Compliance Matrix: (Units=1/GPa)
#
#
# Indices 1 2 3 4 5 6 
#
# 1 0.010906 -0.007585 -0.001460 0.000000 -0.009597 0.000000
# 2 -0.007585 0.028400 -0.008535 0.000000 0.015238 0.000000
# 3 -0.001460 -0.008535 0.017986 0.000000 -0.007665 0.000000
# 4 0.000000 0.000000 0.000000 0.066731 0.000000 0.026718
# 5 -0.009597 0.015238 -0.007665 0.000000 0.049718 0.000000
# 6 0.000000 0.000000 0.000000 0.026718 0.000000 0.076084
#
#
# Mechanical properties :
#
#
# Convention : Reuss Voigt Hill
#
# Bulk Modulus (GPa) = 45.18409 53.89625 49.54017
# Shear Modulus (GPa) = 17.10211 23.52294 20.31253
#
# Velocity S-wave (km/s) = 3.08174 3.61424 3.35856
# Velocity P-wave (km/s) = 6.14446 6.88088 6.52307
#
# Compressibility (1/GPa) = 0.02213168
#
# Stress axis : x y z
#
# Youngs Moduli (GPa) = 91.69328 35.21140 55.59953
#
# Poissons Ratio (x) = 0.26709 0.08117
# Poissons Ratio (y) = 0.69554 0.47452
# Poissons Ratio (z) = 0.13386 0.30052
#
# Static dielectric constant tensor:
#      x y z
#    x 4.236360 0.000000 0.286920 
#    y 0.000000 3.038320 0.000000 
#    z 0.286920 0.000000 3.341030 
# 
# 
# High freq. dielectric constant tensor:
#      x y z
#    x 1.720920 0.000000 0.014920 
#    y 0.000000 1.658960 0.000000 
#    z 0.014920 0.000000 1.704620 
# 
# From -- ./inp_files/223721.got.cif
#   From: 2010.06.25/outbox.cif.g09.slc.cpg/sg12_112_cif.got.tgz:223721.got - 2010.06.28 00:19:55.
