data_PCOD8092434
_publ_section_title
;
Structure prediction by ZEFSAII (Michael W. Deem and Ramdas Pophale) SiO2 
 PCOD8092434
Probable space group: C 2/M
;
_chemical_formula_sum "Si O2"
_cell_formula_units_Z 40
_cell_length_a 14.698719
_cell_length_b 8.824007
_cell_length_c 20.075854
_cell_angle_alpha 90.000000
_cell_angle_beta 56.972617
_cell_angle_gamma 90.000000
_cell_volume 2183.111418
_symmetry_space_group_name_H-M "C 2/M"
_symmetry_group_IT_number 12
_symmetry_cell_setting 'monoclinic'
loop_
_space_group_symop_operation_xyz
x,y,z
-x,y,-z
-x,-y,-z
x,-y,z
1/2+x,1/2+y,z
1/2-x,1/2+y,-z
1/2-x,1/2-y,-z
1/2+x,1/2-y,z
loop_
_atom_site_type_symbol
_atom_site_label
_atom_site_fract_x
_atom_site_fract_y
_atom_site_fract_z
Si Si1 0.278396 0.180588 0.299895
Si Si2 0.849782 0.679296 0.000061
Si Si3 0.832557 0.823526 0.415404
Si Si4 0.909354 0.679896 0.121678
Si Si5 0.459826 0.324072 0.585150
O O1 0.331950 0.242875 0.345101
O O2 0.343141 0.246876 0.210662
O O3 0.155252 0.243651 0.345546
O O4 0.284148 0.000000 0.298324
O O5 0.837527 0.500000 0.000546
O O6 0.851078 0.734623 0.076686
O O7 0.750000 0.750000 0.000000
O O8 0.965171 0.733277 0.923018
O O9 0.750000 0.750000 0.500000
O O10 0.954270 0.795859 0.391520
O O11 0.804153 0.000000 0.420525
O O12 0.907621 0.500000 0.122496
O O13 0.500000 0.246764 0.500000
O O14 0.441081 0.500000 0.577753
#
# Coordination Sequence:
#
# PCOD8092434 Si02
#       5
#     8   8   8   8   8
#     4  10  19  35  55  73  99 137 175 212 255 304
#     4   9  17  33  55  79 104 134 171 208 251 306
#     4  11  21  34  52  75 101 133 173 217 258 302
#     4   8  17  33  53  75 103 138 171 203 252 317
#     4   9  17  31  50  70  94 129 169 205 247 302
#
# _framework density 18.322472999999999
#
# number of rings (size 3 to 8) (size 9 to 14) (size 15 to 20)
#    0.000    2.600    2.000    1.800    0.000    1.600 
#    0.000    9.000    0.000    0.000    0.000    0.000 
#    0.000    0.000    0.000    0.000    0.000    0.000 
#
# Total GULP energy -247904.901839 kJ/mol
# GULP energy per Si atom -12395.245092 kJ/mol
# Density = 1.828077 g / cm^3
# Si number density = 18.322473 Si / 1000 Ang^3
#
#
#
# Elastic Constant Matrix: (Units=GPa)
#
#
# Indices 1 2 3 4 5 6 
#
# 1 140.1018 23.0579 90.5552 0.0000 -4.4441 0.0000
# 2 23.0579 25.7881 25.5092 0.0000 0.0489 0.0001
# 3 90.5552 25.5092 196.0279 0.0000 2.6208 0.0000
# 4 0.0000 0.0000 0.0000 16.0086 0.0000 4.5056
# 5 -4.4441 0.0489 2.6208 0.0000 27.2406 0.0000
# 6 0.0000 0.0001 0.0000 4.5056 0.0000 31.8763
#
#
#
# Elastic Compliance Matrix: (Units=1/GPa)
#
#
# Indices 1 2 3 4 5 6 
#
# 1 0.010929 -0.005455 -0.004368 0.000000 0.002213 0.000000
# 2 -0.005455 0.047236 -0.003618 0.000000 -0.000627 0.000000
# 3 -0.004368 -0.003618 0.007609 0.000000 -0.001438 0.000000
# 4 0.000000 0.000000 0.000000 0.065054 0.000000 -0.009195
# 5 0.002213 -0.000627 -0.001438 0.000000 0.037210 0.000000
# 6 0.000000 0.000000 0.000000 -0.009195 0.000000 0.032671
#
#
# Mechanical properties :
#
#
# Convention : Reuss Voigt Hill
#
# Bulk Modulus (GPa) = 25.71333 71.12915 48.42124
# Shear Modulus (GPa) = 20.78502 29.87814 25.33158
#
# Velocity S-wave (km/s) = 3.37174 4.04255 3.72229
# Velocity P-wave (km/s) = 5.40578 7.79068 6.70511
#
# Compressibility (1/GPa) = 0.03889033
#
# Stress axis : x y z
#
# Youngs Moduli (GPa) = 91.49753 21.17041 131.41589
#
# Poissons Ratio (x) = 0.11549 0.57409
# Poissons Ratio (y) = 0.49913 0.47552
# Poissons Ratio (z) = 0.39971 0.07660
#
# Static dielectric constant tensor:
#      x y z
#    x 3.454600 0.000000 -0.097180 
#    y 0.000000 2.986710 0.000000 
#    z -0.097180 0.000000 3.811600 
# 
# 
# High freq. dielectric constant tensor:
#      x y z
#    x 1.721360 0.000000 -0.002350 
#    y 0.000000 1.668210 0.000000 
#    z -0.002350 0.000000 1.717720 
# 
# From -- ./inp_files/266684.got.cif
#   From: 2010.06.25/outbox.cif.g09.slc.cpg/sg12_134_cif.got.tgz:266684.got - 2010.06.28 00:19:55.
