data_PCOD8092557
_publ_section_title
;
Structure prediction by ZEFSAII (Michael W. Deem and Ramdas Pophale) SiO2 
 PCOD8092557
Probable space group: C 2/M
;
_chemical_formula_sum "Si O2"
_cell_formula_units_Z 56
_cell_length_a 15.099960
_cell_length_b 9.087912
_cell_length_c 29.070815
_cell_angle_alpha 90.000000
_cell_angle_beta 49.310644
_cell_angle_gamma 90.000000
_cell_volume 3024.911455
_symmetry_space_group_name_H-M "C 2/M"
_symmetry_group_IT_number 12
_symmetry_cell_setting 'monoclinic'
loop_
_space_group_symop_operation_xyz
x,y,z
-x,y,-z
-x,-y,-z
x,-y,z
1/2+x,1/2+y,z
1/2-x,1/2+y,-z
1/2-x,1/2-y,-z
1/2+x,1/2-y,z
loop_
_atom_site_type_symbol
_atom_site_label
_atom_site_fract_x
_atom_site_fract_y
_atom_site_fract_z
Si Si1 0.794635 0.674992 0.438805
Si Si2 0.840744 0.831193 0.999939
Si Si3 0.119476 0.328244 0.432830
Si Si4 0.991201 0.172910 0.131471
Si Si5 0.320347 0.172964 0.868673
Si Si6 0.439934 0.174155 0.648597
Si Si7 0.770072 0.675684 0.784654
O O1 0.782359 0.500000 0.447894
O O2 0.750000 0.750000 0.500000
O O3 0.722352 0.732254 0.419803
O O4 0.928196 0.724581 0.386004
O O5 0.807737 0.793297 0.064162
O O6 0.815622 0.000000 0.000060
O O7 0.750000 0.750000 0.000000
O O8 0.968802 0.793525 0.935586
O O9 0.153468 0.500000 0.423677
O O10 0.103347 0.269962 0.386404
O O11 0.000000 0.298910 0.500000
O O12 0.860323 0.234426 0.181258
O O13 0.073661 0.250236 0.140717
O O14 0.995720 0.000000 0.140103
O O15 0.314163 0.234978 0.819037
O O16 0.346275 0.000000 0.859960
O O17 0.355786 0.239744 0.716495
O O18 0.433621 0.000000 0.650938
O O19 0.769418 0.500000 0.785490
#
# Coordination Sequence:
#
# PCOD8092557 Si02
#       7
#     8   8   8   8   8   8   8
#     4  11  21  35  56  81 105 132 165 205 251 299
#     4   8  14  25  43  69  96 123 158 205 248 287
#     4  10  19  35  56  78 103 134 165 200 252 302
#     4   9  17  30  49  71  97 128 166 206 247 292
#     4   9  17  30  49  71  98 130 165 203 249 295
#     4   9  19  35  52  72 104 136 164 200 250 304
#     4   9  18  32  50  72  97 133 171 202 242 297
#
# _framework density 18.51294
#
# number of rings (size 3 to 8) (size 9 to 14) (size 15 to 20)
#    0.000    2.714    1.429    0.429    0.000    2.000 
#    0.000    3.571    0.000    3.429    0.000   10.000 
#    0.000    0.000    0.000    0.000    0.000    0.000 
#
# Total GULP energy -346925.838267 kJ/mol
# GULP energy per Si atom -12390.208510 kJ/mol
# Density = 1.847080 g / cm^3
# Si number density = 18.512940 Si / 1000 Ang^3
#
#
#
# Elastic Constant Matrix: (Units=GPa)
#
#
# Indices 1 2 3 4 5 6 
#
# 1 148.5759 35.6756 93.5018 0.0000 0.9271 0.0002
# 2 35.6756 31.7641 33.7650 0.0001 -2.2330 0.0005
# 3 93.5018 33.7650 188.4084 0.0000 2.3565 0.0000
# 4 0.0000 0.0001 0.0000 14.2758 0.0000 -0.5197
# 5 0.9271 -2.2330 2.3565 0.0000 32.4087 0.0000
# 6 0.0002 0.0005 0.0000 -0.5197 0.0000 27.3116
#
#
#
# Elastic Compliance Matrix: (Units=1/GPa)
#
#
# Indices 1 2 3 4 5 6 
#
# 1 0.011343 -0.008408 -0.004115 0.000000 -0.000605 0.000000
# 2 -0.008408 0.045456 -0.004019 0.000000 0.003665 -0.000001
# 3 -0.004115 -0.004019 0.008079 0.000000 -0.000747 0.000000
# 4 0.000000 0.000000 0.000000 0.070097 0.000000 0.001334
# 5 -0.000605 0.003665 -0.000747 0.000000 0.031180 0.000000
# 6 0.000000 -0.000001 0.000000 0.001334 0.000000 0.036640
#
#
# Mechanical properties :
#
#
# Convention : Reuss Voigt Hill
#
# Bulk Modulus (GPa) = 31.45304 77.18148 54.31726
# Shear Modulus (GPa) = 20.28591 28.51963 24.40277
#
# Velocity S-wave (km/s) = 3.31383 3.92921 3.63457
# Velocity P-wave (km/s) = 5.62749 7.89721 6.85692
#
# Compressibility (1/GPa) = 0.03179343
#
# Stress axis : x y z
#
# Youngs Moduli (GPa) = 88.16235 21.99947 123.77361
#
# Poissons Ratio (x) = 0.18497 0.50929
# Poissons Ratio (y) = 0.74128 0.49749
# Poissons Ratio (z) = 0.36276 0.08842
#
# Static dielectric constant tensor:
#      x y z
#    x 3.472290 0.000000 0.010220 
#    y 0.000000 3.007770 0.000000 
#    z 0.010220 0.000000 4.112150 
# 
# 
# High freq. dielectric constant tensor:
#      x y z
#    x 1.713970 0.000000 0.001240 
#    y 0.000000 1.683030 0.000000 
#    z 0.001240 0.000000 1.731850 
# 
# From -- ./inp_files/374954.got.cif
#   From: 2010.06.25/outbox.cif.g09.slc.cpg/sg12_188_cif.got.tgz:374954.got - 2010.06.28 00:19:55.
