data_PCOD8092642
_publ_section_title
;
Structure prediction by ZEFSAII (Michael W. Deem and Ramdas Pophale) SiO2 
 PCOD8092642
Probable space group: C 2/M
;
_chemical_formula_sum "Si O2"
_cell_formula_units_Z 48
_cell_length_a 16.582577
_cell_length_b 18.622183
_cell_length_c 8.217449
_cell_angle_alpha 90.000000
_cell_angle_beta 96.219765
_cell_angle_gamma 90.000000
_cell_volume 2522.642259
_symmetry_space_group_name_H-M "C 2/M"
_symmetry_group_IT_number 12
_symmetry_cell_setting 'monoclinic'
loop_
_space_group_symop_operation_xyz
x,y,z
-x,y,-z
-x,-y,-z
x,-y,z
1/2+x,1/2+y,z
1/2-x,1/2+y,-z
1/2-x,1/2-y,-z
1/2+x,1/2-y,z
loop_
_atom_site_type_symbol
_atom_site_label
_atom_site_fract_x
_atom_site_fract_y
_atom_site_fract_z
Si Si1 0.588141 0.582427 0.071921
Si Si2 0.290897 0.204099 0.154455
Si Si3 0.249372 0.918386 0.936002
Si Si4 0.162877 0.832315 0.371009
Si Si5 0.209774 0.415000 0.419480
Si Si6 0.406200 0.203046 0.451195
O O1 0.589624 0.500000 0.127472
O O2 0.604636 0.631439 0.229242
O O3 0.500000 0.607241 0.000000
O O4 0.652641 0.595771 0.939445
O O5 0.232867 0.213553 0.297323
O O6 0.380231 0.217969 0.253926
O O7 0.250000 0.250000 0.000000
O O8 0.296674 0.123392 0.088252
O O9 0.280619 0.893609 0.767524
O O10 0.271863 0.000000 0.972407
O O11 0.203191 0.896063 0.484428
O O12 0.110812 0.777449 0.463100
O O13 0.191312 0.500000 0.438363
O O14 0.140170 0.366402 0.485372
O O15 0.500000 0.184996 0.500000
#
# Coordination Sequence:
#
# PCOD8092642 Si02
#       6
#     8   8   8   8   8   8
#     4   9  18  32  51  81 116 146 181 229 284 335
#     4  10  19  35  57  76 103 142 186 227 269 332
#     4   9  18  33  55  79 103 138 184 229 272 329
#     4  10  20  34  54  79 108 145 187 226 275 337
#     4  10  20  38  61  82 108 147 194 234 275 335
#     4  11  24  38  55  83 118 149 185 237 287 331
#
# _framework density 19.027667999999998
#
# number of rings (size 3 to 8) (size 9 to 14) (size 15 to 20)
#    0.000    2.167    0.000    4.500    0.000    8.333 
#    0.000    2.500    0.000    7.000    0.000    0.000 
#    0.000    0.000    0.000    0.000    0.000    0.000 
#
# Total GULP energy -297356.124288 kJ/mol
# GULP energy per Si atom -12389.838512 kJ/mol
# Density = 1.898436 g / cm^3
# Si number density = 19.027668 Si / 1000 Ang^3
#
#
#
# Elastic Constant Matrix: (Units=GPa)
#
#
# Indices 1 2 3 4 5 6 
#
# 1 109.0165 50.4445 53.5645 0.0000 24.2375 0.0000
# 2 50.4445 86.5456 46.6291 0.0000 7.0133 0.0000
# 3 53.5645 46.6291 104.6980 0.0000 10.6227 0.0000
# 4 0.0000 0.0000 0.0000 34.6958 0.0000 1.4541
# 5 24.2375 7.0133 10.6227 0.0000 27.9246 0.0000
# 6 0.0000 0.0000 0.0000 1.4541 0.0000 24.7282
#
#
#
# Elastic Compliance Matrix: (Units=1/GPa)
#
#
# Indices 1 2 3 4 5 6 
#
# 1 0.016972 -0.006467 -0.004653 0.000000 -0.011337 0.000000
# 2 -0.006467 0.017712 -0.004886 0.000000 0.003024 0.000000
# 3 -0.004653 -0.004886 0.014119 0.000000 -0.000105 0.000000
# 4 0.000000 0.000000 0.000000 0.028893 0.000000 -0.001699
# 5 -0.011337 0.003024 -0.000105 0.000000 0.044931 0.000000
# 6 0.000000 0.000000 0.000000 -0.001699 0.000000 0.040540
#
#
# Mechanical properties :
#
#
# Convention : Reuss Voigt Hill
#
# Bulk Modulus (GPa) = 59.55857 66.83737 63.19797
# Shear Modulus (GPa) = 24.90354 27.44451 26.17403
#
# Velocity S-wave (km/s) = 3.62167 3.80195 3.71290
# Velocity P-wave (km/s) = 6.98982 7.38077 7.18795
#
# Compressibility (1/GPa) = 0.01679020
#
# Stress axis : x y z
#
# Youngs Moduli (GPa) = 58.92109 56.46003 70.82898
#
# Poissons Ratio (x) = 0.36512 0.32954
# Poissons Ratio (y) = 0.38104 0.34610
# Poissons Ratio (z) = 0.27413 0.27589
#
# Static dielectric constant tensor:
#      x y z
#    x 3.394280 0.000000 0.141110 
#    y 0.000000 3.605650 0.000000 
#    z 0.141110 0.000000 3.760940 
# 
# 
# High freq. dielectric constant tensor:
#      x y z
#    x 1.712960 0.000000 0.008830 
#    y 0.000000 1.752230 0.000000 
#    z 0.008830 0.000000 1.749330 
# 
# From -- ./inp_files/61698.got.cif
#   From: 2010.06.25/outbox.cif.g09.slc.cpg/sg12_31_cif.got.tgz:61698.got - 2010.06.28 00:19:55.
