data_PCOD8092943
_publ_section_title
;
Structure prediction by ZEFSAII (Michael W. Deem and Ramdas Pophale) SiO2 
 PCOD8092943
Probable space group: C 2/M
;
_chemical_formula_sum "Si O2"
_cell_formula_units_Z 48
_cell_length_a 24.189566
_cell_length_b 9.010974
_cell_length_c 13.413901
_cell_angle_alpha 90.000000
_cell_angle_beta 126.743529
_cell_angle_gamma 90.000000
_cell_volume 2342.942560
_symmetry_space_group_name_H-M "C 2/M"
_symmetry_group_IT_number 12
_symmetry_cell_setting 'monoclinic'
loop_
_space_group_symop_operation_xyz
x,y,z
-x,y,-z
-x,-y,-z
x,-y,z
1/2+x,1/2+y,z
1/2-x,1/2+y,-z
1/2-x,1/2-y,-z
1/2+x,1/2-y,z
loop_
_atom_site_type_symbol
_atom_site_label
_atom_site_fract_x
_atom_site_fract_y
_atom_site_fract_z
Si Si1 0.838514 0.169315 0.712815
Si Si2 0.910149 0.326951 0.607795
Si Si3 0.299053 0.830517 0.333344
Si Si4 0.573954 0.169228 0.040061
Si Si5 0.197814 0.824342 0.866196
Si Si6 0.935226 0.328755 0.203234
O O1 0.866834 0.258014 0.650244
O O2 0.756463 0.190519 0.637667
O O3 0.870227 0.224346 0.850952
O O4 0.858933 0.000000 0.717649
O O5 0.912795 0.500000 0.634820
O O6 0.873250 0.293003 0.462643
O O7 0.988549 0.267178 0.687726
O O8 0.282030 0.720761 0.224328
O O9 0.297534 0.000000 0.292040
O O10 0.588742 0.000000 0.087640
O O11 0.500000 0.219949 0.000000
O O12 0.578610 0.190155 0.927859
O O13 0.119680 0.770762 0.798026
O O14 0.203698 0.000000 0.884465
O O15 0.250000 0.750000 0.000000
O O16 0.926801 0.500000 0.227387
#
# Coordination Sequence:
#
# PCOD8092943 Si02
#       6
#     8   8   8   8   8   8
#     4  11  22  35  57  91 127 160 200 254 307 352
#     4  10  21  40  64  89 122 164 206 245 295 365
#     4  10  23  42  63  89 122 163 207 248 298 359
#     4  10  19  35  58  85 116 155 203 245 293 360
#     4  12  26  44  66  90 120 157 200 252 304 361
#     4  10  21  39  64  91 121 160 204 251 299 354
#
# _framework density 20.487057
#
# number of rings (size 3 to 8) (size 9 to 14) (size 15 to 20)
#    0.000    1.500    1.667    3.500    0.000    7.000 
#    0.000    3.333    0.000    0.000    0.000    0.000 
#    0.000    0.000    0.000    0.000    0.000    0.000 
#
# Total GULP energy -297679.306744 kJ/mol
# GULP energy per Si atom -12403.304448 kJ/mol
# Density = 2.044043 g / cm^3
# Si number density = 20.487057 Si / 1000 Ang^3
#
#
#
# Elastic Constant Matrix: (Units=GPa)
#
#
# Indices 1 2 3 4 5 6 
#
# 1 97.4126 44.6025 37.3881 0.0000 6.5114 0.0000
# 2 44.6025 88.9357 48.0570 0.0000 3.2540 0.0000
# 3 37.3881 48.0570 116.1025 0.0000 8.7073 0.0000
# 4 0.0000 0.0000 0.0000 48.9564 0.0000 14.0931
# 5 6.5114 3.2540 8.7073 0.0000 27.7778 0.0000
# 6 0.0000 0.0000 0.0000 14.0931 0.0000 48.8743
#
#
#
# Elastic Compliance Matrix: (Units=1/GPa)
#
#
# Indices 1 2 3 4 5 6 
#
# 1 0.013786 -0.005826 -0.001881 0.000000 -0.001959 0.000000
# 2 -0.005826 0.016946 -0.005214 0.000000 0.001015 0.000000
# 3 -0.001881 -0.005214 0.011570 0.000000 -0.002575 0.000000
# 4 0.000000 0.000000 0.000000 0.022275 0.000000 -0.006423
# 5 -0.001959 0.001015 -0.002575 0.000000 0.037148 0.000000
# 6 0.000000 0.000000 0.000000 -0.006423 0.000000 0.022313
#
#
# Mechanical properties :
#
#
# Convention : Reuss Voigt Hill
#
# Bulk Modulus (GPa) = 60.75329 62.50511 61.62920
# Shear Modulus (GPa) = 32.18169 36.61523 34.39846
#
# Velocity S-wave (km/s) = 3.96767 4.23216 4.10205
# Velocity P-wave (km/s) = 7.12101 7.37952 7.25142
#
# Compressibility (1/GPa) = 0.01646001
#
# Stress axis : x y z
#
# Youngs Moduli (GPa) = 72.53720 59.00987 86.42776
#
# Poissons Ratio (x) = 0.34377 0.16258
# Poissons Ratio (y) = 0.42258 0.45068
# Poissons Ratio (z) = 0.13645 0.30771
#
# Static dielectric constant tensor:
#      x y z
#    x 3.764130 0.000000 0.174410 
#    y 0.000000 3.620990 0.000000 
#    z 0.174410 0.000000 3.923340 
# 
# 
# High freq. dielectric constant tensor:
#      x y z
#    x 1.806560 0.000000 0.008210 
#    y 0.000000 1.788630 0.000000 
#    z 0.008210 0.000000 1.810820 
# 
# From -- ./inp_files/244838.got.cif
#   From: 2010.06.25/outbox.cif.g09.slc.cpg/sg12_123_cif.got.tgz:244838.got - 2010.06.28 00:19:55.
