data_PCOD8092294
_publ_section_title
;
Structure prediction by ZEFSAII (Michael W. Deem and Ramdas Pophale) SiO2 
 PCOD8092294
Probable space group: C 2/M
;
_chemical_formula_sum "Si O2"
_cell_formula_units_Z 56
_cell_length_a 22.113027
_cell_length_b 14.329688
_cell_length_c 9.851411
_cell_angle_alpha 90.000000
_cell_angle_beta 113.982925
_cell_angle_gamma 90.000000
_cell_volume 2852.141926
_symmetry_space_group_name_H-M "C 2/M"
_symmetry_group_IT_number 12
_symmetry_cell_setting 'monoclinic'
loop_
_space_group_symop_operation_xyz
x,y,z
-x,y,-z
-x,-y,-z
x,-y,z
1/2+x,1/2+y,z
1/2-x,1/2+y,-z
1/2-x,1/2-y,-z
1/2+x,1/2-y,z
loop_
_atom_site_type_symbol
_atom_site_label
_atom_site_fract_x
_atom_site_fract_y
_atom_site_fract_z
Si Si1 0.213985 0.104616 0.976022
Si Si2 0.187749 0.200800 0.226254
Si Si3 0.636740 0.894162 0.827681
Si Si4 0.015611 0.100585 0.856102
Si Si5 0.432387 0.216641 0.019507
Si Si6 0.328000 0.271965 0.305147
Si Si7 0.376697 0.392866 0.586701
O O1 0.178446 0.175519 0.843405
O O2 0.192500 0.000000 0.919690
O O3 0.192457 0.126061 0.109670
O O4 0.292771 0.117093 0.033534
O O5 0.255732 0.257745 0.305311
O O6 0.176215 0.143864 0.353158
O O7 0.127035 0.272099 0.143067
O O8 0.581401 0.867208 0.888666
O O9 0.635847 0.826835 0.694408
O O10 0.624097 0.000000 0.766848
O O11 0.950002 0.118443 0.710811
O O12 0.064014 0.188750 0.883254
O O13 0.047496 0.000000 0.841895
O O14 0.000000 0.096343 0.000000
O O15 0.500000 0.196042 0.000000
O O16 0.372934 0.331846 0.447065
O O17 0.360024 0.500000 0.536777
#
# Coordination Sequence:
#
# PCOD8092294 Si02
#       7
#     8   8   8   8   8   8   8
#     4  10  19  34  61  90 119 155 199 246 302 366
#     4  11  19  36  58  90 119 161 198 240 292 364
#     4  10  21  39  61  85 115 156 211 255 290 348
#     4   9  18  33  55  84 116 150 190 231 284 359
#     4  11  19  35  63  87 116 155 203 251 291 336
#     4  11  21  38  58  89 126 156 196 248 314 356
#     4  11  22  36  58  93 129 155 188 244 311 370
#
# _framework density 19.634366
#
# number of rings (size 3 to 8) (size 9 to 14) (size 15 to 20)
#    0.000    1.571    5.714    2.143    0.000    1.429 
#    0.000    0.714    0.000    4.286    0.000    0.000 
#    0.000    0.000    0.000    0.000    0.000    0.000 
#
# Total GULP energy -347138.206375 kJ/mol
# GULP energy per Si atom -12397.793085 kJ/mol
# Density = 1.958968 g / cm^3
# Si number density = 19.634366 Si / 1000 Ang^3
#
#
#
# Elastic Constant Matrix: (Units=GPa)
#
#
# Indices 1 2 3 4 5 6 
#
# 1 79.5518 23.3184 15.3629 0.0000 -3.2286 0.0000
# 2 23.3184 122.6284 55.3995 0.0000 -8.1253 0.0000
# 3 15.3629 55.3995 92.4200 0.0000 -1.8364 0.0000
# 4 0.0000 0.0000 0.0000 46.2940 0.0000 -4.9227
# 5 -3.2286 -8.1253 -1.8364 0.0000 24.0278 0.0000
# 6 0.0000 0.0000 0.0000 -4.9227 0.0000 22.3124
#
#
#
# Elastic Compliance Matrix: (Units=1/GPa)
#
#
# Indices 1 2 3 4 5 6 
#
# 1 0.013399 -0.002033 -0.000988 0.000000 0.001038 0.000000
# 2 -0.002033 0.011755 -0.006645 0.000000 0.003194 0.000000
# 3 -0.000988 -0.006645 0.014943 0.000000 -0.001238 0.000000
# 4 0.000000 0.000000 0.000000 0.022120 0.000000 0.004880
# 5 0.001038 0.003194 -0.001238 0.000000 0.042743 0.000000
# 6 0.000000 0.000000 0.000000 0.004880 0.000000 0.045895
#
#
# Mechanical properties :
#
#
# Convention : Reuss Voigt Hill
#
# Bulk Modulus (GPa) = 48.15705 53.64019 50.89862
# Shear Modulus (GPa) = 28.23127 31.89481 30.06304
#
# Velocity S-wave (km/s) = 3.79601 4.03480 3.91723
# Velocity P-wave (km/s) = 6.61764 7.00607 6.81462
#
# Compressibility (1/GPa) = 0.02076539
#
# Stress axis : x y z
#
# Youngs Moduli (GPa) = 74.63119 85.07152 66.92099
#
# Poissons Ratio (x) = 0.17293 0.06613
# Poissons Ratio (y) = 0.15170 0.44468
# Poissons Ratio (z) = 0.07375 0.56529
#
# Static dielectric constant tensor:
#      x y z
#    x 3.531730 0.000000 0.072220 
#    y 0.000000 3.967270 0.000000 
#    z 0.072220 0.000000 3.575300 
# 
# 
# High freq. dielectric constant tensor:
#      x y z
#    x 1.765640 0.000000 -0.000380 
#    y 0.000000 1.765880 0.000000 
#    z -0.000380 0.000000 1.738430 
# 
# From -- ./inp_files/96299.got.cif
#   From: 2010.06.25/outbox.cif.g09.slc.cpg/sg12_49_cif.got.tgz:96299.got - 2010.06.28 00:19:55.
