data_PCOD8092637
_publ_section_title
;
Structure prediction by ZEFSAII (Michael W. Deem and Ramdas Pophale) SiO2 
 PCOD8092637
Probable space group: C 2/M
;
_chemical_formula_sum "Si O2"
_cell_formula_units_Z 64
_cell_length_a 20.278582
_cell_length_b 9.214567
_cell_length_c 21.639070
_cell_angle_alpha 90.000000
_cell_angle_beta 62.028373
_cell_angle_gamma 90.000000
_cell_volume 3571.086066
_symmetry_space_group_name_H-M "C 2/M"
_symmetry_group_IT_number 12
_symmetry_cell_setting 'monoclinic'
loop_
_space_group_symop_operation_xyz
x,y,z
-x,y,-z
-x,-y,-z
x,-y,z
1/2+x,1/2+y,z
1/2-x,1/2+y,-z
1/2-x,1/2-y,-z
1/2+x,1/2-y,z
loop_
_atom_site_type_symbol
_atom_site_label
_atom_site_fract_x
_atom_site_fract_y
_atom_site_fract_z
Si Si1 0.301254 0.170916 0.292545
Si Si2 0.579429 0.671768 0.444968
Si Si3 0.228345 0.827831 0.446979
Si Si4 0.928681 0.667661 0.148827
Si Si5 0.354535 0.671513 0.070722
Si Si6 0.683451 0.830376 0.157869
Si Si7 0.600156 0.832606 0.071408
Si Si8 0.155822 0.828999 0.288323
O O1 0.288076 0.225331 0.368509
O O2 0.380940 0.219704 0.229697
O O3 0.236463 0.228808 0.275765
O O4 0.292215 0.000000 0.298930
O O5 0.500000 0.741155 0.500000
O O6 0.575917 0.500000 0.450805
O O7 0.645918 0.723745 0.461149
O O8 0.595514 0.716648 0.366896
O O9 0.250000 0.750000 0.500000
O O10 0.230994 0.000000 0.455895
O O11 0.910784 0.500000 0.141232
O O12 0.908569 0.761396 0.098102
O O13 0.014403 0.691184 0.128055
O O14 0.364822 0.500000 0.066037
O O15 0.269673 0.717217 0.121564
O O16 0.378564 0.730835 0.994157
O O17 0.649804 0.782482 0.107219
O O18 0.637713 0.749812 0.231947
O O19 0.672841 0.000000 0.172899
O O20 0.615302 0.000000 0.046781
O O21 0.155021 0.000000 0.276975
#
# Coordination Sequence:
#
# PCOD8092637 Si02
#       8
#     8   8   8   8   8   8   8   8
#     4   8  15  30  52  74  95 127 172 206 233 285
#     4   8  15  30  52  76 102 132 169 207 243 291
#     4   9  17  31  51  75 103 133 166 205 246 290
#     4  10  19  35  57  75  96 131 173 209 241 292
#     4  11  22  35  54  76 101 131 162 207 258 298
#     4  10  21  36  51  74 105 132 163 206 255 297
#     4  10  22  37  52  73 101 134 168 203 247 300
#     4   9  16  30  55  78  95 129 175 210 240 287
#
# _framework density 17.921719
#
# number of rings (size 3 to 8) (size 9 to 14) (size 15 to 20)
#    0.000    2.625    1.250    2.625    0.000    3.000 
#    2.250    3.125    0.000    0.750    0.000    0.000 
#    0.000    0.000    0.000    0.000    0.000    0.000 
#
# Total GULP energy -396713.594534 kJ/mol
# GULP energy per Si atom -12397.299829 kJ/mol
# Density = 1.788093 g / cm^3
# Si number density = 17.921719 Si / 1000 Ang^3
#
#
#
# Elastic Constant Matrix: (Units=GPa)
#
#
# Indices 1 2 3 4 5 6 
#
# 1 60.9319 25.6224 38.3880 0.0001 3.4959 -0.0002
# 2 25.6224 39.0002 38.9135 0.0001 1.8411 -0.0005
# 3 38.3880 38.9135 134.3820 0.0000 1.9259 0.0000
# 4 0.0001 0.0001 0.0000 29.4852 0.0000 8.1580
# 5 3.4959 1.8411 1.9259 0.0000 29.7549 0.0001
# 6 -0.0002 -0.0005 0.0000 8.1580 0.0001 17.5207
#
#
#
# Elastic Compliance Matrix: (Units=1/GPa)
#
#
# Indices 1 2 3 4 5 6 
#
# 1 0.023695 -0.012310 -0.003178 0.000000 -0.001817 0.000000
# 2 -0.012310 0.042528 -0.008789 0.000000 -0.000616 0.000001
# 3 -0.003178 -0.008789 0.010891 0.000000 0.000212 0.000000
# 4 0.000000 0.000000 0.000000 0.038931 0.000000 -0.018127
# 5 -0.001817 -0.000616 0.000212 0.000000 0.033846 0.000000
# 6 0.000000 0.000001 0.000000 -0.018127 0.000000 0.065516
#
#
# Mechanical properties :
#
#
# Convention : Reuss Voigt Hill
#
# Bulk Modulus (GPa) = 35.01607 48.90687 41.96147
# Shear Modulus (GPa) = 18.28282 24.11150 21.19716
#
# Velocity S-wave (km/s) = 3.19744 3.67192 3.44286
# Velocity P-wave (km/s) = 5.76301 6.73244 6.26650
#
# Compressibility (1/GPa) = 0.02855831
#
# Stress axis : x y z
#
# Youngs Moduli (GPa) = 42.20347 23.51415 91.81526
#
# Poissons Ratio (x) = 0.28947 0.29178
# Poissons Ratio (y) = 0.51954 0.80700
# Poissons Ratio (z) = 0.13412 0.20668
#
# Static dielectric constant tensor:
#      x y z
#    x 3.376540 0.000000 -0.164850 
#    y 0.000000 3.016760 0.000000 
#    z -0.164850 0.000000 3.628990 
# 
# 
# High freq. dielectric constant tensor:
#      x y z
#    x 1.685230 0.000000 -0.002540 
#    y 0.000000 1.663460 0.000000 
#    z -0.002540 0.000000 1.707720 
# 
# From -- ./inp_files/319926.got.cif
#   From: 2010.06.25/outbox.cif.g09.slc.cpg/sg12_160_cif.got.tgz:319926.got - 2010.06.28 00:19:55.
