data_PCOD8092036
_publ_section_title
;
Structure prediction by ZEFSAII (Michael W. Deem and Ramdas Pophale) SiO2 
 PCOD8092036
Probable space group: C 2/M
;
_chemical_formula_sum "Si O2"
_cell_formula_units_Z 56
_cell_length_a 14.532451
_cell_length_b 18.018282
_cell_length_c 16.892522
_cell_angle_alpha 90.000000
_cell_angle_beta 42.875878
_cell_angle_gamma 90.000000
_cell_volume 3009.670567
_symmetry_space_group_name_H-M "C 2/M"
_symmetry_group_IT_number 12
_symmetry_cell_setting 'monoclinic'
loop_
_space_group_symop_operation_xyz
x,y,z
-x,y,-z
-x,-y,-z
x,-y,z
1/2+x,1/2+y,z
1/2-x,1/2+y,-z
1/2-x,1/2-y,-z
1/2+x,1/2-y,z
loop_
_atom_site_type_symbol
_atom_site_label
_atom_site_fract_x
_atom_site_fract_y
_atom_site_fract_z
Si Si1 0.218452 0.085456 0.700445
Si Si2 0.410730 0.418390 0.377452
Si Si3 0.045970 0.132390 0.056497
Si Si4 0.686570 0.418192 0.109917
Si Si5 0.154262 0.722799 0.324807
Si Si6 0.361709 0.275446 0.492249
Si Si7 0.144601 0.716133 0.935128
O O1 0.212232 0.087040 0.608910
O O2 0.340425 0.133686 0.660579
O O3 0.090133 0.133733 0.807701
O O4 0.221979 0.000000 0.729195
O O5 0.411374 0.500000 0.414948
O O6 0.553367 0.402573 0.245223
O O7 0.386539 0.362800 0.464570
O O8 0.150768 0.080686 0.038373
O O9 0.113035 0.213871 0.011437
O O10 0.000000 0.100735 0.000000
O O11 0.746639 0.500000 0.092112
O O12 0.790392 0.352244 0.059795
O O13 0.184360 0.765088 0.388430
O O14 0.263139 0.753782 0.194410
O O15 0.003589 0.733991 0.386554
O O16 0.250000 0.250000 0.500000
O O17 0.000000 0.684441 0.000000
#
# Coordination Sequence:
#
# PCOD8092036 Si02
#       7
#     8   8   8   8   8   8   8
#     4  10  19  35  59  89 122 151 190 241 300 360
#     4   9  18  36  61  87 115 154 197 245 294 344
#     4  10  19  34  58  88 116 153 191 240 287 356
#     4  10  21  36  57  86 122 159 196 241 297 348
#     4  11  22  39  57  93 115 156 203 233 301 347
#     4  11  22  38  63  84 119 157 197 246 287 357
#     4  11  21  38  59  87 120 158 199 242 286 351
#
# _framework density 18.606687999999998
#
# number of rings (size 3 to 8) (size 9 to 14) (size 15 to 20)
#    0.000    1.714    5.714    1.714    0.000    1.429 
#    2.571    4.286    0.000    0.000    0.000    0.000 
#    0.000    0.000    0.000    0.000    0.000    0.000 
#
# Total GULP energy -346872.068860 kJ/mol
# GULP energy per Si atom -12388.288174 kJ/mol
# Density = 1.856434 g / cm^3
# Si number density = 18.606688 Si / 1000 Ang^3
#
#
#
# Elastic Constant Matrix: (Units=GPa)
#
#
# Indices 1 2 3 4 5 6 
#
# 1 96.1609 55.1007 36.0163 0.0001 -10.5793 0.0000
# 2 55.1007 146.5081 58.8021 0.0002 0.2772 -0.0001
# 3 36.0163 58.8021 61.8131 0.0005 -1.3688 -0.0002
# 4 0.0001 0.0002 0.0005 27.7428 -0.0003 3.1284
# 5 -10.5793 0.2772 -1.3688 -0.0003 27.0136 0.0001
# 6 0.0000 -0.0001 -0.0002 3.1284 0.0001 25.1393
#
#
#
# Elastic Compliance Matrix: (Units=1/GPa)
#
#
# Indices 1 2 3 4 5 6 
#
# 1 0.015023 -0.003555 -0.005246 0.000000 0.005654 0.000000
# 2 -0.003555 0.011894 -0.009287 0.000000 -0.001985 0.000000
# 3 -0.005246 -0.009287 0.028057 0.000000 -0.000538 0.000000
# 4 0.000000 0.000000 0.000000 0.036558 0.000000 -0.004549
# 5 0.005654 -0.001985 -0.000538 0.000000 0.039226 0.000000
# 6 0.000000 0.000000 0.000000 -0.004549 0.000000 0.040344
#
#
# Mechanical properties :
#
#
# Convention : Reuss Voigt Hill
#
# Bulk Modulus (GPa) = 53.19843 67.14672 60.17257
# Shear Modulus (GPa) = 23.41415 26.28333 24.84874
#
# Velocity S-wave (km/s) = 3.55120 3.76250 3.65838
# Velocity P-wave (km/s) = 6.74298 7.41896 7.08903
#
# Compressibility (1/GPa) = 0.01879755
#
# Stress axis : x y z
#
# Youngs Moduli (GPa) = 66.56249 84.07760 35.64143
#
# Poissons Ratio (x) = 0.29892 0.18699
# Poissons Ratio (y) = 0.23665 0.33100
# Poissons Ratio (z) = 0.34921 0.78082
#
# Static dielectric constant tensor:
#      x y z
#    x 3.559200 0.000000 -0.008280 
#    y 0.000000 3.506050 0.000000 
#    z -0.008280 0.000000 3.313920 
# 
# 
# High freq. dielectric constant tensor:
#      x y z
#    x 1.717290 0.000000 0.000460 
#    y 0.000000 1.726980 0.000000 
#    z 0.000460 0.000000 1.703650 
# 
# From -- ./inp_files/271380.got.cif
#   From: 2010.06.25/outbox.cif.g09.slc.cpg/sg12_136_cif.got.tgz:271380.got - 2010.06.28 00:19:55.
