data_PCOD8092024
_publ_section_title
;
Structure prediction by ZEFSAII (Michael W. Deem and Ramdas Pophale) SiO2 
 PCOD8092024
Probable space group: C 2/M
;
_chemical_formula_sum "Si O2"
_cell_formula_units_Z 64
_cell_length_a 12.475566
_cell_length_b 16.904028
_cell_length_c 14.347569
_cell_angle_alpha 90.000000
_cell_angle_beta 88.271590
_cell_angle_gamma 90.000000
_cell_volume 3024.343711
_symmetry_space_group_name_H-M "C 2/M"
_symmetry_group_IT_number 12
_symmetry_cell_setting 'monoclinic'
loop_
_space_group_symop_operation_xyz
x,y,z
-x,y,-z
-x,-y,-z
x,-y,z
1/2+x,1/2+y,z
1/2-x,1/2+y,-z
1/2-x,1/2-y,-z
1/2+x,1/2-y,z
loop_
_atom_site_type_symbol
_atom_site_label
_atom_site_fract_x
_atom_site_fract_y
_atom_site_fract_z
Si Si1 0.414325 0.406607 0.275682
Si Si2 0.230997 0.594630 0.406242
Si Si3 0.817447 0.593337 0.388366
Si Si4 0.653984 0.594333 0.231755
Si Si5 0.686102 0.410168 0.910613
Si Si6 0.968056 0.407106 0.706811
Si Si7 0.929331 0.362543 0.913835
Si Si8 0.158754 0.798069 0.058604
O O1 0.420544 0.500000 0.279867
O O2 0.348663 0.375768 0.368072
O O3 0.535111 0.375320 0.262998
O O4 0.342567 0.378291 0.190554
O O5 0.228035 0.500000 0.407064
O O6 0.210931 0.629644 0.509742
O O7 0.140187 0.627319 0.337086
O O8 0.828251 0.500000 0.397965
O O9 0.724892 0.615326 0.318739
O O10 0.929560 0.629777 0.349321
O O11 0.658820 0.500000 0.206223
O O12 0.697347 0.649040 0.145924
O O13 0.650756 0.500000 0.922841
O O14 0.812196 0.400643 0.927348
O O15 0.613656 0.361372 0.985713
O O16 0.968406 0.500000 0.692691
O O17 0.981053 0.389711 0.815824
O O18 0.928578 0.266698 0.909353
O O19 0.000000 0.391669 0.000000
O O20 0.250000 0.750000 0.000000
#
# Coordination Sequence:
#
# PCOD8092024 Si02
#       8
#     8   8   8   8   8   8   8   8
#     4   9  18  32  56  84 111 147 191 239 290 339
#     4   9  16  32  56  88 119 146 188 241 299 354
#     4   9  19  32  55  90 122 146 184 245 301 347
#     4  10  21  38  58  86 117 153 197 245 292 340
#     4  10  20  38  60  85 113 149 198 245 291 348
#     4  10  19  34  58  87 119 155 192 238 296 353
#     4  11  24  37  55  87 119 155 198 239 299 352
#     4  10  24  40  56  81 116 156 195 235 295 354
#
# _framework density 21.161615000000001
#
# number of rings (size 3 to 8) (size 9 to 14) (size 15 to 20)
#    0.000    2.250    1.250    1.125    5.250    3.000 
#    0.000    4.375    0.000    0.750    3.250    0.000 
#    0.000    0.000    0.000    0.000    0.000    0.000 
#
# Total GULP energy -396540.301594 kJ/mol
# GULP energy per Si atom -12391.884425 kJ/mol
# Density = 2.111345 g / cm^3
# Si number density = 21.161615 Si / 1000 Ang^3
#
#
#
# Elastic Constant Matrix: (Units=GPa)
#
#
# Indices 1 2 3 4 5 6 
#
# 1 119.3972 20.8296 57.6324 0.0000 -3.2575 0.0000
# 2 20.8296 36.0747 27.1245 0.0000 -1.5800 0.0000
# 3 57.6324 27.1245 147.4923 0.0000 -9.8479 0.0000
# 4 0.0000 0.0000 0.0000 12.3023 0.0000 -5.5950
# 5 -3.2575 -1.5800 -9.8479 0.0000 26.3825 0.0000
# 6 0.0000 0.0000 0.0000 -5.5950 0.0000 14.7530
#
#
#
# Elastic Compliance Matrix: (Units=1/GPa)
#
#
# Indices 1 2 3 4 5 6 
#
# 1 0.010695 -0.003518 -0.003546 0.000000 -0.000214 0.000000
# 2 -0.003518 0.033328 -0.004769 0.000000 -0.000219 0.000000
# 3 -0.003546 -0.004769 0.009224 0.000000 0.002720 0.000000
# 4 0.000000 0.000000 0.000000 0.098228 0.000000 0.037252
# 5 -0.000214 -0.000219 0.002720 0.000000 0.038880 0.000000
# 6 0.000000 0.000000 0.000000 0.037252 0.000000 0.081910
#
#
# Mechanical properties :
#
#
# Convention : Reuss Voigt Hill
#
# Bulk Modulus (GPa) = 33.80640 57.12638 45.46639
# Shear Modulus (GPa) = 16.35095 23.84608 20.09851
#
# Velocity S-wave (km/s) = 2.78271 3.36051 3.08517
# Velocity P-wave (km/s) = 5.13173 6.48932 5.85004
#
# Compressibility (1/GPa) = 0.02958020
#
# Stress axis : x y z
#
# Youngs Moduli (GPa) = 93.50012 30.00488 108.40820
#
# Poissons Ratio (x) = 0.10556 0.38446
# Poissons Ratio (y) = 0.32896 0.51700
# Poissons Ratio (z) = 0.33159 0.14309
#
# Static dielectric constant tensor:
#      x y z
#    x 3.935160 0.000000 -0.199420 
#    y 0.000000 3.709590 0.000000 
#    z -0.199420 0.000000 4.105800 
# 
# 
# High freq. dielectric constant tensor:
#      x y z
#    x 1.828050 0.000000 -0.007240 
#    y 0.000000 1.788430 0.000000 
#    z -0.007240 0.000000 1.839060 
# 
# From -- ./inp_files/206655.got.cif
#   From: 2010.06.25/outbox.cif.g09.slc.cpg/sg12_104_cif.got.tgz:206655.got - 2010.06.28 00:19:55.
