data_PCOD8092170
_publ_section_title
;
Structure prediction by ZEFSAII (Michael W. Deem and Ramdas Pophale) SiO2 
 PCOD8092170
Probable space group: C 2/M
;
_chemical_formula_sum "Si O2"
_cell_formula_units_Z 64
_cell_length_a 28.508038
_cell_length_b 8.962138
_cell_length_c 18.036398
_cell_angle_alpha 90.000000
_cell_angle_beta 136.455239
_cell_angle_gamma 90.000000
_cell_volume 3174.667305
_symmetry_space_group_name_H-M "C 2/M"
_symmetry_group_IT_number 12
_symmetry_cell_setting 'monoclinic'
loop_
_space_group_symop_operation_xyz
x,y,z
-x,y,-z
-x,-y,-z
x,-y,z
1/2+x,1/2+y,z
1/2-x,1/2+y,-z
1/2-x,1/2-y,-z
1/2+x,1/2-y,z
loop_
_atom_site_type_symbol
_atom_site_label
_atom_site_fract_x
_atom_site_fract_y
_atom_site_fract_z
Si Si1 0.437063 0.675913 0.625164
Si Si2 0.308279 0.674307 0.757339
Si Si3 0.794890 0.176245 0.263921
Si Si4 0.819406 0.173473 0.601123
Si Si5 0.070445 0.676511 0.542084
Si Si6 0.057975 0.828020 0.016947
Si Si7 0.570703 0.329287 0.865108
Si Si8 0.712566 0.824804 0.024528
O O1 0.429595 0.500000 0.602238
O O2 0.382102 0.732143 0.622926
O O3 0.425461 0.763830 0.536543
O O4 0.512726 0.714995 0.740366
O O5 0.291951 0.500000 0.750292
O O6 0.240374 0.765654 0.700720
O O7 0.333453 0.708678 0.703207
O O8 0.367609 0.737566 0.879359
O O9 0.868966 0.250675 0.340532
O O10 0.748626 0.227930 0.141655
O O11 0.804152 0.000000 0.278621
O O12 0.750000 0.250000 0.500000
O O13 0.809900 0.000000 0.576442
O O14 0.079411 0.500000 0.551589
O O15 0.000000 0.724613 0.500000
O O16 0.062230 0.000000 0.046385
O O17 0.038173 0.808420 0.908986
O O18 0.000000 0.747892 0.000000
O O19 0.594979 0.500000 0.881501
O O20 0.634095 0.220662 0.930265
O O21 0.718131 0.000000 0.022308
O O22 0.750000 0.750000 0.000000
#
# Coordination Sequence:
#
# PCOD8092170 Si02
#       8
#     8   8   8   8   8   8   8   8
#     4  10  22  40  62  91 127 162 202 251 302 361
#     4  10  19  34  59  88 120 158 200 246 294 350
#     4  11  24  42  64  91 123 158 200 251 305 361
#     4  10  21  36  56  86 120 158 203 250 299 353
#     4  11  26  45  65  90 118 155 203 254 308 364
#     4   9  16  29  54  87 120 157 200 241 284 342
#     4  10  20  37  62  92 125 162 202 245 298 356
#     4  11  25  42  63  91 123 160 202 250 305 362
#
# _framework density 20.159590999999999
#
# number of rings (size 3 to 8) (size 9 to 14) (size 15 to 20)
#    0.000    1.750    1.250    2.625    1.750    9.000 
#    0.000    0.000    0.000    3.000    0.000    0.000 
#    0.000    0.000    0.000    0.000    0.000    0.000 
#
# Total GULP energy -396862.973964 kJ/mol
# GULP energy per Si atom -12401.967936 kJ/mol
# Density = 2.011371 g / cm^3
# Si number density = 20.159591 Si / 1000 Ang^3
#
#
#
# Elastic Constant Matrix: (Units=GPa)
#
#
# Indices 1 2 3 4 5 6 
#
# 1 136.5742 46.2854 43.1209 0.0000 10.7448 0.0000
# 2 46.2854 58.0513 39.6250 0.0000 3.6000 0.0000
# 3 43.1209 39.6250 107.1922 0.0000 11.0321 0.0000
# 4 0.0000 0.0000 0.0000 31.0447 0.0000 1.1456
# 5 10.7448 3.6000 11.0321 0.0000 35.5870 0.0000
# 6 0.0000 0.0000 0.0000 1.1456 0.0000 25.9607
#
#
#
# Elastic Compliance Matrix: (Units=1/GPa)
#
#
# Indices 1 2 3 4 5 6 
#
# 1 0.010338 -0.007250 -0.001274 0.000000 -0.001993 0.000000
# 2 -0.007250 0.028127 -0.007658 0.000000 0.001718 0.000000
# 3 -0.001274 -0.007658 0.012967 0.000000 -0.002860 0.000000
# 4 0.000000 0.000000 0.000000 0.032264 0.000000 -0.001424
# 5 -0.001993 0.001718 -0.002860 0.000000 0.029415 0.000000
# 6 0.000000 0.000000 0.000000 -0.001424 0.000000 0.038583
#
#
# Mechanical properties :
#
#
# Convention : Reuss Voigt Hill
#
# Bulk Modulus (GPa) = 52.44061 62.20893 57.32477
# Shear Modulus (GPa) = 26.25884 30.03760 28.14822
#
# Velocity S-wave (km/s) = 3.61300 3.86423 3.74072
# Velocity P-wave (km/s) = 6.59350 7.12986 6.86692
#
# Compressibility (1/GPa) = 0.01906919
#
# Stress axis : x y z
#
# Youngs Moduli (GPa) = 96.73167 35.55290 77.12093
#
# Poissons Ratio (x) = 0.25774 0.09822
# Poissons Ratio (y) = 0.70127 0.59059
# Poissons Ratio (z) = 0.12320 0.27226
#
# Static dielectric constant tensor:
#      x y z
#    x 3.545610 0.000000 0.107330 
#    y 0.000000 3.643500 0.000000 
#    z 0.107330 0.000000 3.642950 
# 
# 
# High freq. dielectric constant tensor:
#      x y z
#    x 1.799660 0.000000 0.003550 
#    y 0.000000 1.763860 0.000000 
#    z 0.003550 0.000000 1.799840 
# 
# From -- ./inp_files/295704.got.cif
#   From: 2010.06.25/outbox.cif.g09.slc.cpg/sg12_148_cif.got.tgz:295704.got - 2010.06.28 00:19:55.
