data_PCOD8092999
_publ_section_title
;
Structure prediction by ZEFSAII (Michael W. Deem and Ramdas Pophale) SiO2 
 PCOD8092999
Probable space group: C 2/M
;
_chemical_formula_sum "Si O2"
_cell_formula_units_Z 40
_cell_length_a 30.575519
_cell_length_b 15.406022
_cell_length_c 5.207654
_cell_angle_alpha 90.000000
_cell_angle_beta 123.294354
_cell_angle_gamma 90.000000
_cell_volume 2050.410294
_symmetry_space_group_name_H-M "C 2/M"
_symmetry_group_IT_number 12
_symmetry_cell_setting 'monoclinic'
loop_
_space_group_symop_operation_xyz
x,y,z
-x,y,-z
-x,-y,-z
x,-y,z
1/2+x,1/2+y,z
1/2-x,1/2+y,-z
1/2-x,1/2-y,-z
1/2+x,1/2-y,z
loop_
_atom_site_type_symbol
_atom_site_label
_atom_site_fract_x
_atom_site_fract_y
_atom_site_fract_z
Si Si1 0.310174 0.246156 0.260690
Si Si2 0.058722 0.144635 0.655988
Si Si3 0.369880 0.098359 0.659739
Si Si4 0.122348 0.902565 0.366111
Si Si5 0.099670 0.676683 0.736197
O O1 0.320472 0.164550 0.486884
O O2 0.329231 0.336061 0.450721
O O3 0.344448 0.227942 0.114046
O O4 0.250000 0.250000 0.000000
O O5 0.081333 0.106848 0.465215
O O6 0.055989 0.249727 0.632778
O O7 0.000000 0.109335 0.500000
O O8 0.093187 0.114378 0.005959
O O9 0.409894 0.120364 0.553991
O O10 0.349500 0.000000 0.574472
O O11 0.400372 0.111936 0.023716
O O12 0.145404 0.000000 0.439947
#
# Coordination Sequence:
#
# PCOD8092999 Si02
#       5
#     8   8   8   8   8
#     4   9  21  38  59  81 118 152 192 232 294 337
#     4  11  21  39  63  85 115 157 193 234 294 350
#     4  10  19  35  59  81 109 145 188 230 281 336
#     4  11  23  39  56  88 122 151 193 243 283 338
#     4   9  19  37  56  83 113 146 185 237 282 333
#
# _framework density 19.508289999999999
#
# number of rings (size 3 to 8) (size 9 to 14) (size 15 to 20)
#    1.200    0.800    2.000    1.800    0.000    4.000 
#    0.000    0.000    0.000    3.600    0.000    0.000 
#    0.000    0.000    0.000    0.000    0.000    0.000 
#
# Total GULP energy -247819.219898 kJ/mol
# GULP energy per Si atom -12390.960995 kJ/mol
# Density = 1.946389 g / cm^3
# Si number density = 19.508290 Si / 1000 Ang^3
#
#
#
# Elastic Constant Matrix: (Units=GPa)
#
#
# Indices 1 2 3 4 5 6 
#
# 1 47.0462 14.5372 21.2056 0.0000 -8.6572 0.0000
# 2 14.5372 166.8117 34.4120 0.0000 -1.9425 0.0000
# 3 21.2056 34.4120 64.2023 0.0000 -16.9279 0.0000
# 4 0.0000 0.0000 0.0000 45.1381 0.0000 -34.0220
# 5 -8.6572 -1.9425 -16.9279 0.0000 43.9602 0.0000
# 6 0.0000 0.0000 0.0000 -34.0220 0.0000 37.8438
#
#
#
# Elastic Compliance Matrix: (Units=1/GPa)
#
#
# Indices 1 2 3 4 5 6 
#
# 1 0.025183 -0.000638 -0.007430 0.000000 0.002070 0.000000
# 2 -0.000638 0.006815 -0.003780 0.000000 -0.001280 0.000000
# 3 -0.007430 -0.003780 0.021844 0.000000 0.006781 0.000000
# 4 0.000000 0.000000 0.000000 0.068719 0.000000 0.061779
# 5 0.002070 -0.001280 0.006781 0.000000 0.025710 0.000000
# 6 0.000000 0.000000 0.000000 0.061779 0.000000 0.081965
#
#
# Mechanical properties :
#
#
# Convention : Reuss Voigt Hill
#
# Bulk Modulus (GPa) = 33.17129 46.48553 39.82841
# Shear Modulus (GPa) = 18.94086 39.24877 29.09482
#
# Velocity S-wave (km/s) = 3.11933 4.49029 3.86606
# Velocity P-wave (km/s) = 5.47852 7.12488 6.35524
#
# Compressibility (1/GPa) = 0.03014656
#
# Stress axis : x y z
#
# Youngs Moduli (GPa) = 39.70979 146.73123 45.77969
#
# Poissons Ratio (x) = 0.09358 0.34015
# Poissons Ratio (y) = 0.02532 0.17303
# Poissons Ratio (z) = 0.29505 0.55460
#
# Static dielectric constant tensor:
#      x y z
#    x 3.352450 0.000000 -0.318910 
#    y 0.000000 3.665430 0.000000 
#    z -0.318910 0.000000 3.332160 
# 
# 
# High freq. dielectric constant tensor:
#      x y z
#    x 1.735380 0.000000 -0.031880 
#    y 0.000000 1.768240 0.000000 
#    z -0.031880 0.000000 1.746880 
# 
# From -- ./inp_files/27839.got.cif
#   From: 2010.06.25/outbox.cif.g09.slc.cpg/sg12_14_cif.got.tgz:27839.got - 2010.06.28 00:19:55.
