data_PCOD8092357
_publ_section_title
;
Structure prediction by ZEFSAII (Michael W. Deem and Ramdas Pophale) SiO2 
 PCOD8092357
Probable space group: C 2/M
;
_chemical_formula_sum "Si O2"
_cell_formula_units_Z 56
_cell_length_a 24.977501
_cell_length_b 15.160244
_cell_length_c 10.161233
_cell_angle_alpha 90.000000
_cell_angle_beta 128.003353
_cell_angle_gamma 90.000000
_cell_volume 3031.893015
_symmetry_space_group_name_H-M "C 2/M"
_symmetry_group_IT_number 12
_symmetry_cell_setting 'monoclinic'
loop_
_space_group_symop_operation_xyz
x,y,z
-x,y,-z
-x,-y,-z
x,-y,z
1/2+x,1/2+y,z
1/2-x,1/2+y,-z
1/2-x,1/2-y,-z
1/2+x,1/2-y,z
loop_
_atom_site_type_symbol
_atom_site_label
_atom_site_fract_x
_atom_site_fract_y
_atom_site_fract_z
Si Si1 0.078086 0.900396 0.126852
Si Si2 0.803839 0.844046 0.838962
Si Si3 0.373691 0.280208 0.578417
Si Si4 0.427798 0.599662 0.456305
Si Si5 0.682726 0.098169 0.467197
Si Si6 0.729434 0.158378 0.263849
Si Si7 0.293370 0.599123 0.104030
O O1 0.123037 0.895626 0.060491
O O2 0.119196 0.828940 0.272854
O O3 0.079730 0.000000 0.186641
O O4 0.000000 0.869769 0.000000
O O5 0.749069 0.886978 0.656949
O O6 0.819212 0.742138 0.828283
O O7 0.775650 0.845261 0.946391
O O8 0.431149 0.324853 0.573632
O O9 0.375436 0.173041 0.593373
O O10 0.301690 0.302620 0.410376
O O11 0.500000 0.601701 0.500000
O O12 0.413525 0.500000 0.491255
O O13 0.368821 0.625488 0.265443
O O14 0.702209 0.098392 0.341420
O O15 0.653408 0.000000 0.452721
O O16 0.737910 0.108258 0.137384
O O17 0.291831 0.500000 0.051681
#
# Coordination Sequence:
#
# PCOD8092357 Si02
#       7
#     8   8   8   8   8   8   8
#     4  11  22  32  50  78 109 140 169 210 265 319
#     4  11  20  35  51  79 109 137 173 221 266 318
#     4  10  19  35  52  77 105 136 182 218 262 310
#     4   9  19  33  51  74 107 148 179 206 253 324
#     4  11  20  34  58  79 103 138 182 227 264 309
#     4  10  19  35  53  75 105 142 178 216 266 315
#     4  10  20  31  48  76 108 138 171 214 265 315
#
# _framework density 18.470307999999999
#
# number of rings (size 3 to 8) (size 9 to 14) (size 15 to 20)
#    0.000    1.714    2.857    3.429    2.000    1.143 
#    0.000    0.000    0.000    0.857    0.000    0.000 
#    0.000    0.000    0.000    0.000    0.000    0.000 
#
# Total GULP energy -346890.287913 kJ/mol
# GULP energy per Si atom -12388.938854 kJ/mol
# Density = 1.842827 g / cm^3
# Si number density = 18.470308 Si / 1000 Ang^3
#
#
#
# Elastic Constant Matrix: (Units=GPa)
#
#
# Indices 1 2 3 4 5 6 
#
# 1 77.9203 35.0481 35.9147 0.0000 -11.7898 0.0000
# 2 35.0481 115.6797 26.5204 0.0000 -5.2773 0.0000
# 3 35.9147 26.5204 65.4396 0.0000 -24.0834 0.0000
# 4 0.0000 0.0000 0.0000 9.0293 0.0000 -17.1573
# 5 -11.7898 -5.2773 -24.0834 0.0000 25.4672 0.0000
# 6 0.0000 0.0000 0.0000 -17.1573 0.0000 15.8571
#
#
#
# Elastic Compliance Matrix: (Units=1/GPa)
#
#
# Indices 1 2 3 4 5 6 
#
# 1 0.018454 -0.003578 -0.008907 0.000000 -0.000621 0.000000
# 2 -0.003578 0.010335 -0.003139 0.000000 -0.002483 0.000000
# 3 -0.008907 -0.003139 0.030192 0.000000 0.023778 0.000000
# 4 0.000000 0.000000 0.000000 -0.104879 0.000000 -0.113479
# 5 -0.000621 -0.002483 0.023778 0.000000 0.060951 0.000000
# 6 0.000000 0.000000 0.000000 -0.113479 0.000000 -0.059720
#
#
# Mechanical properties :
#
#
# Convention : Reuss Voigt Hill
#
# Bulk Modulus (GPa) = 36.05460 50.44508 43.24984
# Shear Modulus (GPa) = -1197.15275 20.84113 -588.15581
#
# Velocity S-wave (km/s) = -25.48641 3.36275 -17.86405
# Velocity P-wave (km/s) = 29.09490 6.51523 20.05075
#
# Compressibility (1/GPa) = 0.02773571
#
# Stress axis : x y z
#
# Youngs Moduli (GPa) = 54.18865 96.76104 33.12093
#
# Poissons Ratio (x) = 0.34617 0.29500
# Poissons Ratio (y) = 0.19386 0.10395
# Poissons Ratio (z) = 0.48264 0.30369
#
# Static dielectric constant tensor:
#      x y z
#    x 3.398650 0.000000 -0.288790 
#    y 0.000000 3.692140 0.000000 
#    z -0.288790 0.000000 3.323380 
# 
# 
# High freq. dielectric constant tensor:
#      x y z
#    x 1.695410 0.000000 -0.027740 
#    y 0.000000 1.716390 0.000000 
#    z -0.027740 0.000000 1.701100 
# 
# From -- ./inp_files/96986.got.cif
#   From: 2010.06.25/outbox.cif.g09.slc.cpg/sg12_49_cif.got.tgz:96986.got - 2010.06.28 00:19:55.
