data_PCOD8092859
_publ_section_title
;
Structure prediction by ZEFSAII (Michael W. Deem and Ramdas Pophale) SiO2 
 PCOD8092859
Probable space group: C 2/M
;
_chemical_formula_sum "Si O2"
_cell_formula_units_Z 64
_cell_length_a 20.088875
_cell_length_b 8.864557
_cell_length_c 19.031709
_cell_angle_alpha 90.000000
_cell_angle_beta 93.061445
_cell_angle_gamma 90.000000
_cell_volume 3384.310405
_symmetry_space_group_name_H-M "C 2/M"
_symmetry_group_IT_number 12
_symmetry_cell_setting 'monoclinic'
loop_
_space_group_symop_operation_xyz
x,y,z
-x,y,-z
-x,-y,-z
x,-y,z
1/2+x,1/2+y,z
1/2-x,1/2+y,-z
1/2-x,1/2-y,-z
1/2+x,1/2-y,z
loop_
_atom_site_type_symbol
_atom_site_label
_atom_site_fract_x
_atom_site_fract_y
_atom_site_fract_z
Si Si1 0.434156 0.820836 0.909604
Si Si2 0.975319 0.326271 0.305176
Si Si3 0.385271 0.824963 0.759707
Si Si4 0.300111 0.821390 0.447766
Si Si5 0.357402 0.177460 0.196204
Si Si6 0.252308 0.678687 0.706453
Si Si7 0.939939 0.823344 0.446237
Si Si8 0.917033 0.679517 0.060924
O O1 0.395689 0.757536 0.839131
O O2 0.509468 0.757465 0.916437
O O3 0.437492 0.000000 0.902957
O O4 0.396794 0.771559 0.980200
O O5 0.964451 0.500000 0.327550
O O6 0.925305 0.282214 0.240155
O O7 0.960551 0.218167 0.368871
O O8 0.049482 0.297018 0.282672
O O9 0.326595 0.738207 0.717809
O O10 0.366733 0.000000 0.762260
O O11 0.250000 0.750000 0.500000
O O12 0.278832 0.767491 0.368855
O O13 0.374442 0.764812 0.467759
O O14 0.297947 0.000000 0.455306
O O15 0.293727 0.246961 0.233243
O O16 0.364607 0.241248 0.116504
O O17 0.347325 0.000000 0.193075
O O18 0.253729 0.500000 0.709265
O O19 0.000000 0.773862 0.500000
O O20 0.925157 0.000000 0.450448
O O21 0.919974 0.500000 0.065326
#
# Coordination Sequence:
#
# PCOD8092859 Si02
#       8
#     8   8   8   8   8   8   8   8
#     4   8  13  23  42  76 111 135 168 227 280 314
#     4  10  19  35  58  82 107 141 186 233 274 319
#     4  10  20  33  53  82 113 142 181 231 275 320
#     4  11  24  43  64  85 113 149 188 229 275 333
#     4   9  15  30  52  75 102 139 184 225 266 323
#     4  10  22  38  55  75 108 148 182 219 269 329
#     4  11  25  42  60  86 117 146 180 228 279 332
#     4   8  12  21  45  75 104 136 175 222 274 320
#
# _framework density 18.910796000000001
#
# number of rings (size 3 to 8) (size 9 to 14) (size 15 to 20)
#    0.000    2.375    2.500    1.500    1.750    2.500 
#    0.000    0.625    0.000    0.000    0.000    2.625 
#    0.000    0.000    0.000    0.000    0.000    0.000 
#
# Total GULP energy -396656.005422 kJ/mol
# GULP energy per Si atom -12395.500169 kJ/mol
# Density = 1.886775 g / cm^3
# Si number density = 18.910796 Si / 1000 Ang^3
#
#
#
# Elastic Constant Matrix: (Units=GPa)
#
#
# Indices 1 2 3 4 5 6 
#
# 1 109.1050 24.4373 49.3601 0.0000 -5.4298 0.0000
# 2 24.4373 23.7679 30.4786 0.0000 -1.2627 0.0000
# 3 49.3601 30.4786 112.3848 0.0000 -21.9648 0.0000
# 4 0.0000 0.0000 0.0000 15.9967 0.0000 -2.0529
# 5 -5.4298 -1.2627 -21.9648 0.0000 31.4284 0.0000
# 6 0.0000 0.0000 0.0000 -2.0529 0.0000 25.3691
#
#
#
# Elastic Compliance Matrix: (Units=1/GPa)
#
#
# Indices 1 2 3 4 5 6 
#
# 1 0.012576 -0.008836 -0.003210 0.000000 -0.000426 0.000000
# 2 -0.008836 0.074281 -0.018507 0.000000 -0.011477 0.000000
# 3 -0.003210 -0.018507 0.017458 0.000000 0.010903 0.000000
# 4 0.000000 0.000000 0.000000 0.063169 0.000000 0.005112
# 5 -0.000426 -0.011477 0.010903 0.000000 0.038904 0.000000
# 6 0.000000 0.000000 0.000000 0.005112 0.000000 0.039832
#
#
# Mechanical properties :
#
#
# Convention : Reuss Voigt Hill
#
# Bulk Modulus (GPa) = 23.14376 50.42330 36.78353
# Shear Modulus (GPa) = 15.54106 23.95762 19.74934
#
# Velocity S-wave (km/s) = 2.86983 3.56318 3.23513
# Velocity P-wave (km/s) = 4.82143 6.60681 5.78343
#
# Compressibility (1/GPa) = 0.04320819
#
# Stress axis : x y z
#
# Youngs Moduli (GPa) = 79.51847 13.46237 57.28023
#
# Poissons Ratio (x) = 0.11895 0.18389
# Poissons Ratio (y) = 0.70261 1.06010
# Poissons Ratio (z) = 0.25528 0.24915
#
# Static dielectric constant tensor:
#      x y z
#    x 3.507030 0.000000 -0.127670 
#    y 0.000000 3.018120 0.000000 
#    z -0.127670 0.000000 3.926360 
# 
# 
# High freq. dielectric constant tensor:
#      x y z
#    x 1.729310 0.000000 -0.010880 
#    y 0.000000 1.688240 0.000000 
#    z -0.010880 0.000000 1.752600 
# 
# From -- ./inp_files/314150.got.cif
#   From: 2010.06.25/outbox.cif.g09.slc.cpg/sg12_158_cif.got.tgz:314150.got - 2010.06.28 00:19:55.
