data_PCOD8092324
_publ_section_title
;
Structure prediction by ZEFSAII (Michael W. Deem and Ramdas Pophale) SiO2 
 PCOD8092324
Probable space group: C 2/M
;
_chemical_formula_sum "Si O2"
_cell_formula_units_Z 64
_cell_length_a 17.565347
_cell_length_b 16.306255
_cell_length_c 17.905723
_cell_angle_alpha 90.000000
_cell_angle_beta 143.743962
_cell_angle_gamma 90.000000
_cell_volume 3033.054416
_symmetry_space_group_name_H-M "C 2/M"
_symmetry_group_IT_number 12
_symmetry_cell_setting 'monoclinic'
loop_
_space_group_symop_operation_xyz
x,y,z
-x,y,-z
-x,-y,-z
x,-y,z
1/2+x,1/2+y,z
1/2-x,1/2+y,-z
1/2-x,1/2-y,-z
1/2+x,1/2-y,z
loop_
_atom_site_type_symbol
_atom_site_label
_atom_site_fract_x
_atom_site_fract_y
_atom_site_fract_z
Si Si1 0.505468 0.821369 0.639098
Si Si2 0.496685 0.908226 0.211524
Si Si3 0.221344 0.094615 0.631798
Si Si4 0.557369 0.660140 0.120606
Si Si5 0.253263 0.093022 0.387366
Si Si6 0.142003 0.817787 0.430059
Si Si7 0.234220 0.775363 0.767836
Si Si8 0.153153 0.727975 0.986742
O O1 0.530586 0.889804 0.722144
O O2 0.380877 0.848684 0.490043
O O3 0.485966 0.737572 0.672291
O O4 0.625634 0.798265 0.680224
O O5 0.645280 0.898475 0.307712
O O6 0.423020 0.852469 0.095535
O O7 0.448240 0.000000 0.159743
O O8 0.128326 0.139058 0.499739
O O9 0.203582 0.143226 0.695611
O O10 0.184948 0.000000 0.618798
O O11 0.661062 0.601107 0.242387
O O12 0.633571 0.742492 0.161491
O O13 0.437982 0.691785 0.075711
O O14 0.500000 0.617289 0.000000
O O15 0.155942 0.113108 0.378325
O O16 0.302637 0.000000 0.432353
O O17 0.250000 0.750000 0.500000
O O18 0.264267 0.798398 0.876321
O O19 0.250000 0.750000 0.000000
#
# Coordination Sequence:
#
# PCOD8092324 Si02
#       8
#     8   8   8   8   8   8   8   8
#     4  11  22  38  66  97 124 168 225 271 322 394
#     4  11  21  38  65  98 130 162 217 286 333 374
#     4  11  22  38  62  97 137 166 205 277 346 390
#     4  10  23  42  64  92 127 171 216 265 329 397
#     4  11  22  39  66  95 125 163 217 280 333 386
#     4  10  19  34  62  92 123 165 218 259 318 396
#     4  11  23  40  64  93 133 172 217 264 325 404
#     4  11  22  41  68  93 123 175 232 265 312 403
#
# _framework density 21.100842
#
# number of rings (size 3 to 8) (size 9 to 14) (size 15 to 20)
#    0.000    1.250    5.000    3.000    0.000    2.750 
#    0.000    5.625    0.000    0.000    0.000    0.000 
#    0.000    0.000    0.000    0.000    0.000    0.000 
#
# Total GULP energy -396448.178988 kJ/mol
# GULP energy per Si atom -12389.005593 kJ/mol
# Density = 2.105282 g / cm^3
# Si number density = 21.100842 Si / 1000 Ang^3
#
#
#
# Elastic Constant Matrix: (Units=GPa)
#
#
# Indices 1 2 3 4 5 6 
#
# 1 88.4093 24.0482 16.0866 -0.0002 -4.4274 -0.0001
# 2 24.0482 97.7795 26.7494 -0.0001 -7.9486 -0.0001
# 3 16.0866 26.7494 95.0988 -0.0005 -14.2785 -0.0004
# 4 -0.0002 -0.0001 -0.0005 25.0193 -0.0004 -1.9999
# 5 -4.4274 -7.9486 -14.2785 -0.0004 34.2746 -0.0002
# 6 -0.0001 -0.0001 -0.0004 -1.9999 -0.0002 28.8032
#
#
#
# Elastic Compliance Matrix: (Units=1/GPa)
#
#
# Indices 1 2 3 4 5 6 
#
# 1 0.012282 -0.002637 -0.001269 0.000000 0.000446 0.000000
# 2 -0.002637 0.011705 -0.002656 0.000000 0.001267 0.000000
# 3 -0.001269 -0.002656 0.012118 0.000000 0.004268 0.000000
# 4 0.000000 0.000000 0.000000 0.040192 0.000001 0.002791
# 5 0.000446 0.001267 0.004268 0.000001 0.031306 0.000000
# 6 0.000000 0.000000 0.000000 0.002791 0.000000 0.034912
#
#
# Mechanical properties :
#
#
# Convention : Reuss Voigt Hill
#
# Bulk Modulus (GPa) = 43.51442 46.11735 44.81588
# Shear Modulus (GPa) = 30.61859 31.91296 31.26577
#
# Velocity S-wave (km/s) = 3.81341 3.89318 3.85350
# Velocity P-wave (km/s) = 6.32901 6.48940 6.40971
#
# Compressibility (1/GPa) = 0.02298089
#
# Stress axis : x y z
#
# Youngs Moduli (GPa) = 81.42274 85.43098 82.52208
#
# Poissons Ratio (x) = 0.22530 0.10470
# Poissons Ratio (y) = 0.21473 0.21919
# Poissons Ratio (z) = 0.10330 0.22691
#
# Static dielectric constant tensor:
#      x y z
#    x 4.315080 0.000010 0.058070 
#    y 0.000010 3.688920 0.000000 
#    z 0.058070 0.000000 3.855350 
# 
# 
# High freq. dielectric constant tensor:
#      x y z
#    x 1.829800 0.000000 -0.007250 
#    y 0.000000 1.809140 0.000000 
#    z -0.007250 0.000000 1.824720 
# 
# From -- ./inp_files/278183.got.cif
#   From: 2010.06.25/outbox.cif.g09.slc.cpg/sg12_140_cif.got.tgz:278183.got - 2010.06.28 00:19:55.
