data_PCOD8092731
_publ_section_title
;
Structure prediction by ZEFSAII (Michael W. Deem and Ramdas Pophale) SiO2 
 PCOD8092731
Probable space group: C 2/M
;
_chemical_formula_sum "Si O2"
_cell_formula_units_Z 48
_cell_length_a 24.738643
_cell_length_b 9.332277
_cell_length_c 12.420605
_cell_angle_alpha 90.000000
_cell_angle_beta 109.580921
_cell_angle_gamma 90.000000
_cell_volume 2701.687436
_symmetry_space_group_name_H-M "C 2/M"
_symmetry_group_IT_number 12
_symmetry_cell_setting 'monoclinic'
loop_
_space_group_symop_operation_xyz
x,y,z
-x,y,-z
-x,-y,-z
x,-y,z
1/2+x,1/2+y,z
1/2-x,1/2+y,-z
1/2-x,1/2-y,-z
1/2+x,1/2-y,z
loop_
_atom_site_type_symbol
_atom_site_label
_atom_site_fract_x
_atom_site_fract_y
_atom_site_fract_z
Si Si1 0.684639 0.666925 0.628015
Si Si2 0.805941 0.665687 0.003433
Si Si3 0.813401 0.667096 0.765121
Si Si4 0.376395 0.334928 0.630603
Si Si5 0.390113 0.831620 0.250256
Si Si6 0.500247 0.667076 0.625612
O O1 0.675128 0.500000 0.651362
O O2 0.749606 0.716689 0.689980
O O3 0.669076 0.697161 0.494062
O O4 0.643700 0.761014 0.674372
O O5 0.788625 0.500000 0.995629
O O6 0.858170 0.701377 0.117235
O O7 0.750000 0.750000 0.000000
O O8 0.825168 0.709685 0.896462
O O9 0.820979 0.500000 0.749347
O O10 0.860407 0.746277 0.725170
O O11 0.375024 0.500000 0.662251
O O12 0.439356 0.289245 0.634296
O O13 0.452608 0.761592 0.281831
O O14 0.395601 0.000000 0.275963
O O15 0.500000 0.706121 0.500000
O O16 0.514267 0.500000 0.651698
#
# Coordination Sequence:
#
# PCOD8092731 Si02
#       6
#     8   8   8   8   8   8
#     4  10  19  35  57  81 113 150 180 220 280 338
#     4  10  21  37  57  82 112 147 186 227 274 327
#     4  10  21  36  56  81 113 150 183 222 280 332
#     4  10  21  36  56  82 111 145 187 228 273 330
#     4  11  22  34  55  88 115 139 183 236 277 320
#     4  10  20  38  60  79 108 150 188 226 276 332
#
# _framework density 17.766673999999998
#
# number of rings (size 3 to 8) (size 9 to 14) (size 15 to 20)
#    0.000    1.833    3.333    1.000    0.000    3.667 
#    0.000    0.833    0.000    5.000    0.000    0.000 
#    0.000    0.000    0.000    0.000    0.000    0.000 
#
# Total GULP energy -297703.082490 kJ/mol
# GULP energy per Si atom -12404.295104 kJ/mol
# Density = 1.772624 g / cm^3
# Si number density = 17.766674 Si / 1000 Ang^3
#
#
#
# Elastic Constant Matrix: (Units=GPa)
#
#
# Indices 1 2 3 4 5 6 
#
# 1 93.9833 39.2232 40.9286 0.0000 5.2737 0.0000
# 2 39.2232 54.5037 39.5143 0.0000 6.1396 0.0000
# 3 40.9286 39.5143 95.1494 0.0000 7.0837 0.0000
# 4 0.0000 0.0000 0.0000 28.6519 0.0000 -2.9365
# 5 5.2737 6.1396 7.0837 0.0000 25.9362 0.0000
# 6 0.0000 0.0000 0.0000 -2.9365 0.0000 36.7535
#
#
#
# Elastic Compliance Matrix: (Units=1/GPa)
#
#
# Indices 1 2 3 4 5 6 
#
# 1 0.015772 -0.009183 -0.002954 0.000000 -0.000226 0.000000
# 2 -0.009183 0.031878 -0.009050 0.000000 -0.003207 0.000000
# 3 -0.002954 -0.009050 0.015653 0.000000 -0.001532 0.000000
# 4 0.000000 0.000000 0.000000 0.035190 0.000000 0.002812
# 5 -0.000226 -0.003207 -0.001532 0.000000 0.039780 0.000000
# 6 0.000000 0.000000 0.000000 0.002812 0.000000 0.027433
#
#
# Mechanical properties :
#
#
# Convention : Reuss Voigt Hill
#
# Bulk Modulus (GPa) = 47.77961 53.66317 50.72139
# Shear Modulus (GPa) = 23.24992 26.53299 24.89146
#
# Velocity S-wave (km/s) = 3.62142 3.86866 3.74708
# Velocity P-wave (km/s) = 6.66614 7.08699 6.87978
#
# Compressibility (1/GPa) = 0.02092943
#
# Stress axis : x y z
#
# Youngs Moduli (GPa) = 63.40471 31.36959 63.88709
#
# Poissons Ratio (x) = 0.28807 0.18871
# Poissons Ratio (y) = 0.58225 0.57815
# Poissons Ratio (z) = 0.18728 0.28388
#
# Static dielectric constant tensor:
#      x y z
#    x 3.314990 0.000000 0.128920 
#    y 0.000000 3.272870 0.000000 
#    z 0.128920 0.000000 3.422500 
# 
# 
# High freq. dielectric constant tensor:
#      x y z
#    x 1.686250 0.000000 0.003550 
#    y 0.000000 1.685670 0.000000 
#    z 0.003550 0.000000 1.690310 
# 
# From -- ./inp_files/172030.got.cif
#   From: 2010.06.25/outbox.cif.g09.slc.cpg/sg12_87_cif.got.tgz:172030.got - 2010.06.28 00:19:55.
