data_PCOD8092388
_publ_section_title
;
Structure prediction by ZEFSAII (Michael W. Deem and Ramdas Pophale) SiO2 
 PCOD8092388
Probable space group: C 2/M
;
_chemical_formula_sum "Si O2"
_cell_formula_units_Z 56
_cell_length_a 14.424126
_cell_length_b 9.046224
_cell_length_c 25.774709
_cell_angle_alpha 90.000000
_cell_angle_beta 113.174376
_cell_angle_gamma 90.000000
_cell_volume 3091.813393
_symmetry_space_group_name_H-M "C 2/M"
_symmetry_group_IT_number 12
_symmetry_cell_setting 'monoclinic'
loop_
_space_group_symop_operation_xyz
x,y,z
-x,y,-z
-x,-y,-z
x,-y,z
1/2+x,1/2+y,z
1/2-x,1/2+y,-z
1/2-x,1/2-y,-z
1/2+x,1/2-y,z
loop_
_atom_site_type_symbol
_atom_site_label
_atom_site_fract_x
_atom_site_fract_y
_atom_site_fract_z
Si Si1 0.474342 0.672094 0.643916
Si Si2 0.693610 0.173164 0.940826
Si Si3 0.776914 0.827790 0.847240
Si Si4 0.498452 0.673169 0.861423
Si Si5 0.582419 0.669735 0.561509
Si Si6 0.735647 0.325419 0.441881
Si Si7 0.082430 0.173345 0.768777
O O1 0.461385 0.500000 0.651486
O O2 0.543348 0.704048 0.609872
O O3 0.364354 0.738599 0.607836
O O4 0.523734 0.742526 0.706377
O O5 0.758577 0.207381 0.903661
O O6 0.581170 0.238668 0.912664
O O7 0.684897 0.000000 0.949530
O O8 0.750000 0.250000 0.000000
O O9 0.692705 0.745547 0.794946
O O10 0.887752 0.771900 0.854589
O O11 0.765848 0.000000 0.832906
O O12 0.512357 0.500000 0.876121
O O13 0.514958 0.709274 0.804384
O O14 0.500000 0.706685 0.500000
O O15 0.617819 0.500000 0.563240
O O16 0.673564 0.782660 0.575455
O O17 0.728303 0.500000 0.449195
O O18 0.750000 0.250000 0.500000
O O19 0.100342 0.000000 0.766399
#
# Coordination Sequence:
#
# PCOD8092388 Si02
#       7
#     8   8   8   8   8   8   8
#     4   9  19  35  53  74 104 137 168 209 267 318
#     4  10  20  34  52  77 109 141 175 214 257 303
#     4   9  19  35  54  76 105 139 171 215 266 306
#     4   9  18  34  55  76 102 138 175 211 258 308
#     4  10  19  35  54  72 100 139 170 205 260 314
#     4  11  21  35  54  77 103 134 172 213 260 317
#     4   9  18  34  55  76  99 133 175 215 256 311
#
# _framework density 18.112348999999998
#
# number of rings (size 3 to 8) (size 9 to 14) (size 15 to 20)
#    0.000    2.429    1.429    0.857    0.000    3.143 
#    0.000    6.429    0.000    0.000    0.000    0.000 
#    0.000    0.000    0.000    0.000    0.000    0.000 
#
# Total GULP energy -347203.762729 kJ/mol
# GULP energy per Si atom -12400.134383 kJ/mol
# Density = 1.807112 g / cm^3
# Si number density = 18.112349 Si / 1000 Ang^3
#
#
#
# Elastic Constant Matrix: (Units=GPa)
#
#
# Indices 1 2 3 4 5 6 
#
# 1 140.1921 45.2020 79.3594 0.0000 25.3331 0.0000
# 2 45.2020 52.6237 52.5197 0.0000 11.2018 0.0000
# 3 79.3594 52.5197 174.8653 0.0000 18.6760 0.0000
# 4 0.0000 0.0000 0.0000 23.1051 0.0000 5.2763
# 5 25.3331 11.2018 18.6760 0.0000 21.5943 0.0000
# 6 0.0000 0.0000 0.0000 5.2763 0.0000 30.3075
#
#
#
# Elastic Compliance Matrix: (Units=1/GPa)
#
#
# Indices 1 2 3 4 5 6 
#
# 1 0.012210 -0.005734 -0.002872 0.000000 -0.008865 0.000000
# 2 -0.005734 0.031059 -0.006306 0.000000 -0.003930 0.000000
# 3 -0.002872 -0.006306 0.009042 0.000000 -0.001180 0.000000
# 4 0.000000 0.000000 0.000000 0.045072 0.000000 -0.007847
# 5 -0.008865 -0.003930 -0.001180 0.000000 0.059767 0.000000
# 6 0.000000 0.000000 0.000000 -0.007847 0.000000 0.034361
#
#
# Mechanical properties :
#
#
# Convention : Reuss Voigt Hill
#
# Bulk Modulus (GPa) = 44.47289 80.20481 62.33885
# Shear Modulus (GPa) = 21.85013 27.70806 24.77909
#
# Velocity S-wave (km/s) = 3.47705 3.91549 3.70277
# Velocity P-wave (km/s) = 6.38177 8.05105 7.26452
#
# Compressibility (1/GPa) = 0.02248561
#
# Stress axis : x y z
#
# Youngs Moduli (GPa) = 81.90180 32.19717 110.59346
#
# Poissons Ratio (x) = 0.18463 0.31764
# Poissons Ratio (y) = 0.46964 0.69742
# Poissons Ratio (z) = 0.23523 0.20304
#
# Static dielectric constant tensor:
#      x y z
#    x 3.455920 0.000000 0.040790 
#    y 0.000000 3.234930 0.000000 
#    z 0.040790 0.000000 3.505640 
# 
# 
# High freq. dielectric constant tensor:
#      x y z
#    x 1.708040 0.000000 0.002640 
#    y 0.000000 1.685670 0.000000 
#    z 0.002640 0.000000 1.706520 
# 
# From -- ./inp_files/309026.got.cif
#   From: 2010.06.25/outbox.cif.g09.slc.cpg/sg12_155_cif.got.tgz:309026.got - 2010.06.28 00:19:55.
