data_PCOD8092067
_publ_section_title
;
Structure prediction by ZEFSAII (Michael W. Deem and Ramdas Pophale) SiO2 
 PCOD8092067
Probable space group: C 2/M
;
_chemical_formula_sum "Si O2"
_cell_formula_units_Z 28
_cell_length_a 5.122515
_cell_length_b 30.514900
_cell_length_c 9.213237
_cell_angle_alpha 90.000000
_cell_angle_beta 60.964274
_cell_angle_gamma 90.000000
_cell_volume 1259.147116
_symmetry_space_group_name_H-M "C 2/M"
_symmetry_group_IT_number 12
_symmetry_cell_setting 'monoclinic'
loop_
_space_group_symop_operation_xyz
x,y,z
-x,y,-z
-x,-y,-z
x,-y,z
1/2+x,1/2+y,z
1/2-x,1/2+y,-z
1/2-x,1/2-y,-z
1/2+x,1/2-y,z
loop_
_atom_site_type_symbol
_atom_site_label
_atom_site_fract_x
_atom_site_fract_y
_atom_site_fract_z
Si Si1 0.347943 0.000000 0.385328
Si Si2 0.886235 0.230552 0.315174
Si Si3 0.599241 0.914277 0.810855
Si Si4 0.235120 0.871243 0.678950
O O1 0.500000 0.000000 0.500000
O O2 0.450232 0.042126 0.268033
O O3 0.000000 0.000000 0.500000
O O4 0.750000 0.250000 0.500000
O O5 0.731969 0.254942 0.220288
O O6 0.851435 0.178939 0.317443
O O7 0.367301 0.878841 0.804953
O O8 0.943951 0.899276 0.716141
O O9 0.500000 0.923559 0.000000
O O10 0.500000 0.885613 0.500000
#
# Coordination Sequence:
#
# PCOD8092067 Si02
#       4
#     4   8   8   8
#     4  12  25  48  73 104 131 166 235 284 315 392
#     4  10  19  34  59 100 127 161 224 291 333 366
#     4  12  27  45  67  99 145 183 211 266 356 410
#     4  12  23  40  71 103 130 173 239 285 318 390
#
# _framework density 22.237272999999998
#
# number of rings (size 3 to 8) (size 9 to 14) (size 15 to 20)
#    0.000    0.571    2.857    8.143    4.000    0.000 
#    0.000    4.286    0.000   17.143    0.000    0.000 
#    0.000    0.000    0.000    0.000    0.000    0.000 
#
# Total GULP energy -173573.991473 kJ/mol
# GULP energy per Si atom -12398.142248 kJ/mol
# Density = 2.218666 g / cm^3
# Si number density = 22.237273 Si / 1000 Ang^3
#
#
#
# Elastic Constant Matrix: (Units=GPa)
#
#
# Indices 1 2 3 4 5 6 
#
# 1 228.6141 76.4371 54.5196 0.0000 18.6841 0.0000
# 2 76.4371 147.0169 71.8883 0.0000 9.2089 0.0000
# 3 54.5196 71.8883 100.9382 0.0000 22.5612 0.0000
# 4 0.0000 0.0000 0.0000 10.7068 0.0000 11.0471
# 5 18.6841 9.2089 22.5612 0.0000 35.2755 0.0000
# 6 0.0000 0.0000 0.0000 11.0471 0.0000 43.9783
#
#
#
# Elastic Compliance Matrix: (Units=1/GPa)
#
#
# Indices 1 2 3 4 5 6 
#
# 1 0.005508 -0.002284 -0.000968 0.000000 -0.001702 0.000000
# 2 -0.002284 0.011556 -0.007692 0.000000 0.003113 0.000000
# 3 -0.000968 -0.007692 0.017904 0.000000 -0.008930 0.000000
# 4 0.000000 0.000000 0.000000 0.126075 0.000000 -0.031669
# 5 -0.001702 0.003113 -0.008930 0.000000 0.034149 0.000000
# 6 0.000000 0.000000 0.000000 -0.031669 0.000000 0.030694
#
#
# Mechanical properties :
#
#
# Convention : Reuss Voigt Hill
#
# Bulk Modulus (GPa) = 76.45289 98.02878 87.24083
# Shear Modulus (GPa) = 19.83085 36.24039 28.03562
#
# Velocity S-wave (km/s) = 2.98952 4.04135 3.55455
# Velocity P-wave (km/s) = 6.80966 8.12130 7.49423
#
# Compressibility (1/GPa) = 0.01307995
#
# Stress axis : x y z
#
# Youngs Moduli (GPa) = 181.56555 86.53838 55.85227
#
# Poissons Ratio (x) = 0.19762 0.05407
# Poissons Ratio (y) = 0.41462 0.42963
# Poissons Ratio (z) = 0.17577 0.66567
#
# Static dielectric constant tensor:
#      x y z
#    x 5.611880 0.000000 0.040750 
#    y 0.000000 1.741280 0.000000 
#    z 0.040750 0.000000 3.725730 
# 
# 
# High freq. dielectric constant tensor:
#      x y z
#    x 1.916370 0.000000 0.011650 
#    y 0.000000 1.887470 0.000000 
#    z 0.011650 0.000000 1.842260 
# 
# From -- ./inp_files/34465.got.cif
#   From: 2010.06.25/outbox.cif.g09.slc.cpg/sg12_18_cif.got.tgz:34465.got - 2010.06.28 00:19:55.
