data_PCOD8092622
_publ_section_title
;
Structure prediction by ZEFSAII (Michael W. Deem and Ramdas Pophale) SiO2 
 PCOD8092622
Probable space group: C 2/M
;
_chemical_formula_sum "Si O2"
_cell_formula_units_Z 44
_cell_length_a 15.131207
_cell_length_b 14.104412
_cell_length_c 14.573506
_cell_angle_alpha 90.000000
_cell_angle_beta 45.417786
_cell_angle_gamma 90.000000
_cell_volume 2215.243075
_symmetry_space_group_name_H-M "C 2/M"
_symmetry_group_IT_number 12
_symmetry_cell_setting 'monoclinic'
loop_
_space_group_symop_operation_xyz
x,y,z
-x,y,-z
-x,-y,-z
x,-y,z
1/2+x,1/2+y,z
1/2-x,1/2+y,-z
1/2-x,1/2-y,-z
1/2+x,1/2-y,z
loop_
_atom_site_type_symbol
_atom_site_label
_atom_site_fract_x
_atom_site_fract_y
_atom_site_fract_z
Si Si1 0.000000 0.265444 0.000000
Si Si2 0.224157 0.654977 0.735390
Si Si3 0.957879 0.893805 0.678091
Si Si4 0.895330 0.276970 0.509825
Si Si5 0.105190 0.231380 0.110897
Si Si6 0.934523 0.605197 0.310013
O O1 0.117266 0.330152 0.888426
O O2 0.955849 0.205221 0.943432
O O3 0.337364 0.601891 0.700932
O O4 0.270480 0.756779 0.659420
O O5 0.169771 0.593768 0.691744
O O6 0.920022 0.858027 0.806317
O O7 0.061262 0.825542 0.560016
O O8 0.012035 0.000000 0.646212
O O9 0.869060 0.351093 0.448142
O O10 0.000000 0.321125 0.500000
O O11 0.045766 0.327151 0.196088
O O12 0.250000 0.250000 0.000000
O O13 0.986783 0.500000 0.293721
#
# Coordination Sequence:
#
# PCOD8092622 Si02
#       6
#     4   8   8   8   8   8
#     4  10  20  36  60  80 112 148 190 224 278 336
#     4  10  19  35  56  83 113 145 182 235 285 328
#     4  10  20  35  58  83 110 146 188 233 282 333
#     4   9  20  36  57  80 113 150 186 224 285 337
#     4  10  20  38  56  81 114 151 183 229 284 335
#     4  10  21  35  56  86 112 143 190 237 282 332
#
# _framework density 19.862380000000002
#
# number of rings (size 3 to 8) (size 9 to 14) (size 15 to 20)
#    0.000    2.182    1.818    1.091    0.000    5.091 
#    0.000    2.727    0.000    0.000    0.000    0.000 
#    0.000    0.000    0.000    0.000    0.000    0.000 
#
# Total GULP energy -272720.101503 kJ/mol
# GULP energy per Si atom -12396.368250 kJ/mol
# Density = 1.981717 g / cm^3
# Si number density = 19.862380 Si / 1000 Ang^3
#
#
#
# Elastic Constant Matrix: (Units=GPa)
#
#
# Indices 1 2 3 4 5 6 
#
# 1 74.2328 39.8002 20.3913 0.0000 18.9278 0.0000
# 2 39.8002 106.9300 28.9694 0.0000 13.6085 0.0000
# 3 20.3913 28.9694 94.4956 0.0000 8.1533 0.0000
# 4 0.0000 0.0000 0.0000 4.5332 0.0000 -3.8720
# 5 18.9278 13.6085 8.1533 0.0000 40.1802 0.0000
# 6 0.0000 0.0000 0.0000 -3.8720 0.0000 8.3581
#
#
#
# Elastic Compliance Matrix: (Units=1/GPa)
#
#
# Indices 1 2 3 4 5 6 
#
# 1 0.018630 -0.005636 -0.001730 0.000000 -0.006516 0.000000
# 2 -0.005636 0.012240 -0.002450 0.000000 -0.000993 0.000000
# 3 -0.001730 -0.002450 0.011771 0.000000 -0.000744 0.000000
# 4 0.000000 0.000000 0.000000 0.365039 0.000000 0.169109
# 5 -0.006516 -0.000993 -0.000744 0.000000 0.028445 0.000000
# 6 0.000000 0.000000 0.000000 0.169109 0.000000 0.197986
#
#
# Mechanical properties :
#
#
# Convention : Reuss Voigt Hill
#
# Bulk Modulus (GPa) = 43.46389 50.44224 46.95307
# Shear Modulus (GPa) = 7.55957 23.04747 15.30352
#
# Velocity S-wave (km/s) = 1.95301 3.41010 2.77876
# Velocity P-wave (km/s) = 5.19766 6.39969 5.82974
#
# Compressibility (1/GPa) = 0.02300760
#
# Stress axis : x y z
#
# Youngs Moduli (GPa) = 53.67788 81.69924 84.95290
#
# Poissons Ratio (x) = 0.46047 0.14697
# Poissons Ratio (y) = 0.30254 0.20817
# Poissons Ratio (z) = 0.09286 0.20020
#
# Static dielectric constant tensor:
#      x y z
#    x 3.796470 0.000000 0.219490 
#    y 0.000000 3.196140 0.000000 
#    z 0.219490 0.000000 3.853550 
# 
# 
# High freq. dielectric constant tensor:
#      x y z
#    x 1.785950 0.000000 0.008870 
#    y 0.000000 1.731680 0.000000 
#    z 0.008870 0.000000 1.787390 
# 
# From -- ./inp_files/214053.got.cif
#   From: 2010.06.25/outbox.cif.g09.slc.cpg/sg12_108_cif.got.tgz:214053.got - 2010.06.28 00:19:55.
