data_PCOD8092039
_publ_section_title
;
Structure prediction by ZEFSAII (Michael W. Deem and Ramdas Pophale) SiO2 
 PCOD8092039
Probable space group: C 2/M
;
_chemical_formula_sum "Si O2"
_cell_formula_units_Z 64
_cell_length_a 24.171700
_cell_length_b 8.524697
_cell_length_c 16.146904
_cell_angle_alpha 90.000000
_cell_angle_beta 91.485312
_cell_angle_gamma 90.000000
_cell_volume 3326.055286
_symmetry_space_group_name_H-M "C 2/M"
_symmetry_group_IT_number 12
_symmetry_cell_setting 'monoclinic'
loop_
_space_group_symop_operation_xyz
x,y,z
-x,y,-z
-x,-y,-z
x,-y,z
1/2+x,1/2+y,z
1/2-x,1/2+y,-z
1/2-x,1/2-y,-z
1/2+x,1/2-y,z
loop_
_atom_site_type_symbol
_atom_site_label
_atom_site_fract_x
_atom_site_fract_y
_atom_site_fract_z
Si Si1 0.866648 0.681319 0.118333
Si Si2 0.939597 0.682861 0.523305
Si Si3 0.045966 0.181642 0.768366
Si Si4 0.673031 0.817996 0.209580
Si Si5 0.807082 0.183546 0.968204
Si Si6 0.374482 0.681958 0.376394
Si Si7 0.071499 0.818089 0.299602
Si Si8 0.285279 0.818083 0.264420
O O1 0.862849 0.500000 0.093840
O O2 0.927694 0.719609 0.155357
O O3 0.821579 0.726962 0.185795
O O4 0.855234 0.785207 0.036833
O O5 0.935657 0.500000 0.503489
O O6 0.892409 0.770321 0.469013
O O7 0.927405 0.713535 0.618457
O O8 0.000000 0.748503 0.500000
O O9 0.075437 0.226154 0.683206
O O10 0.981814 0.227321 0.757714
O O11 0.054636 0.000000 0.789669
O O12 0.677688 0.773189 0.114307
O O13 0.625062 0.714211 0.247449
O O14 0.729705 0.783150 0.260214
O O15 0.658270 0.000000 0.217918
O O16 0.801045 0.000000 0.949272
O O17 0.750000 0.250000 0.000000
O O18 0.359790 0.500000 0.372712
O O19 0.319379 0.776255 0.348402
O O20 0.068525 0.000000 0.325376
O O21 0.269453 0.000000 0.263995
#
# Coordination Sequence:
#
# PCOD8092039 Si02
#       8
#     8   8   8   8   8   8   8   8
#     4  10  20  34  58  89 120 152 192 244 295 345
#     4  11  22  36  58  89 122 155 199 248 294 345
#     4   9  19  35  57  85 118 155 195 240 293 350
#     4  12  25  41  61  87 121 159 198 242 296 355
#     4  12  23  38  61  89 120 154 198 247 293 346
#     4  10  19  34  58  88 119 153 196 245 295 346
#     4  11  23  41  62  86 120 160 200 242 295 355
#     4  10  20  36  58  86 120 156 195 240 294 351
#
# _framework density 19.242011999999999
#
# number of rings (size 3 to 8) (size 9 to 14) (size 15 to 20)
#    0.000    1.375    2.500    4.125    0.000    3.000 
#    0.000    1.250    0.000    3.750    0.000    0.000 
#    0.000    0.000    0.000    0.000    0.000    0.000 
#
# Total GULP energy -397000.140522 kJ/mol
# GULP energy per Si atom -12406.254391 kJ/mol
# Density = 1.919822 g / cm^3
# Si number density = 19.242012 Si / 1000 Ang^3
#
#
#
# Elastic Constant Matrix: (Units=GPa)
#
#
# Indices 1 2 3 4 5 6 
#
# 1 108.2119 18.0136 44.9066 0.0000 13.7440 0.0000
# 2 18.0136 60.8131 10.5728 0.0000 9.8702 0.0000
# 3 44.9066 10.5728 84.7688 0.0000 13.4363 0.0000
# 4 0.0000 0.0000 0.0000 33.2485 0.0000 4.9268
# 5 13.7440 9.8702 13.4363 0.0000 33.3581 0.0000
# 6 0.0000 0.0000 0.0000 4.9268 0.0000 31.0882
#
#
#
# Elastic Compliance Matrix: (Units=1/GPa)
#
#
# Indices 1 2 3 4 5 6 
#
# 1 0.012341 -0.002297 -0.005932 0.000000 -0.002016 0.000000
# 2 -0.002297 0.017866 -0.000346 0.000000 -0.004201 0.000000
# 3 -0.005932 -0.000346 0.015573 0.000000 -0.003726 0.000000
# 4 0.000000 0.000000 0.000000 0.030800 0.000000 -0.004881
# 5 -0.002016 -0.004201 -0.003726 0.000000 0.033552 0.000000
# 6 0.000000 0.000000 0.000000 -0.004881 0.000000 0.032940
#
#
# Mechanical properties :
#
#
# Convention : Reuss Voigt Hill
#
# Bulk Modulus (GPa) = 34.92695 44.53110 39.72902
# Shear Modulus (GPa) = 29.45247 31.55901 30.50574
#
# Velocity S-wave (km/s) = 3.91658 4.05422 3.98599
# Velocity P-wave (km/s) = 6.21639 6.71628 6.47117
#
# Compressibility (1/GPa) = 0.02863119
#
# Stress axis : x y z
#
# Youngs Moduli (GPa) = 81.02961 55.97184 64.21398
#
# Poissons Ratio (x) = 0.12858 0.38090
# Poissons Ratio (y) = 0.18614 0.02219
# Poissons Ratio (z) = 0.48065 0.01934
#
# Static dielectric constant tensor:
#      x y z
#    x 3.465980 0.000000 0.243080 
#    y 0.000000 3.534960 0.000000 
#    z 0.243080 0.000000 3.435770 
# 
# 
# High freq. dielectric constant tensor:
#      x y z
#    x 1.741630 0.000000 0.025280 
#    y 0.000000 1.758670 0.000000 
#    z 0.025280 0.000000 1.738710 
# 
# From -- ./inp_files/238754.got.cif
#   From: 2010.06.25/outbox.cif.g09.slc.cpg/sg12_120_cif.got.tgz:238754.got - 2010.06.28 00:19:55.
