data_PCOD8092109
_publ_section_title
;
Structure prediction by ZEFSAII (Michael W. Deem and Ramdas Pophale) SiO2 
 PCOD8092109
Probable space group: C 2/M
;
_chemical_formula_sum "Si O2"
_cell_formula_units_Z 64
_cell_length_a 20.247839
_cell_length_b 8.978577
_cell_length_c 18.789920
_cell_angle_alpha 90.000000
_cell_angle_beta 89.599757
_cell_angle_gamma 90.000000
_cell_volume 3415.863636
_symmetry_space_group_name_H-M "C 2/M"
_symmetry_group_IT_number 12
_symmetry_cell_setting 'monoclinic'
loop_
_space_group_symop_operation_xyz
x,y,z
-x,y,-z
-x,-y,-z
x,-y,z
1/2+x,1/2+y,z
1/2-x,1/2+y,-z
1/2-x,1/2-y,-z
1/2+x,1/2-y,z
loop_
_atom_site_type_symbol
_atom_site_label
_atom_site_fract_x
_atom_site_fract_y
_atom_site_fract_z
Si Si1 0.755061 0.329069 0.350304
Si Si2 0.313272 0.669245 0.791352
Si Si3 0.947241 0.673154 0.786839
Si Si4 0.987382 0.824396 0.653262
Si Si5 0.557989 0.174300 0.051747
Si Si6 0.695502 0.673026 0.047895
Si Si7 0.865147 0.326905 0.580267
Si Si8 0.108871 0.671513 0.583593
O O1 0.741953 0.500000 0.373308
O O2 0.744625 0.307026 0.265693
O O3 0.707409 0.223605 0.395805
O O4 0.830178 0.284371 0.366227
O O5 0.340867 0.500000 0.788354
O O6 0.372072 0.780497 0.771135
O O7 0.285365 0.704062 0.869992
O O8 0.955369 0.500000 0.771133
O O9 0.996106 0.760795 0.733352
O O10 0.965215 0.713274 0.868005
O O11 0.918691 0.767420 0.622347
O O12 0.047071 0.772985 0.603397
O O13 0.985888 0.000000 0.656248
O O14 0.623737 0.262001 0.030261
O O15 0.573448 0.000000 0.043776
O O16 0.500000 0.226545 0.000000
O O17 0.694604 0.500000 0.029626
O O18 0.750000 0.750000 0.000000
O O19 0.875452 0.500000 0.597874
O O20 0.871316 0.294539 0.497024
O O21 0.088222 0.500000 0.593996
#
# Coordination Sequence:
#
# PCOD8092109 Si02
#       8
#     8   8   8   8   8   8   8   8
#     4  10  20  37  60  84 112 146 183 227 279 335
#     4   9  18  34  57  83 110 145 187 227 269 325
#     4  10  19  34  59  85 110 145 186 230 275 328
#     4  12  24  38  57  81 112 149 190 233 278 330
#     4   9  19  37  60  86 114 146 185 227 275 332
#     4  10  20  35  56  83 116 151 187 229 273 323
#     4  11  22  37  60  85 110 144 187 233 278 333
#     4  10  23  40  56  81 116 148 182 230 286 334
#
# _framework density 18.73611
#
# number of rings (size 3 to 8) (size 9 to 14) (size 15 to 20)
#    0.000    1.875    1.250    3.000    0.000    4.250 
#    2.250    0.000    0.000    0.000    0.000    0.000 
#    0.000    0.000    0.000    0.000    0.000    0.000 
#
# Total GULP energy -396913.207720 kJ/mol
# GULP energy per Si atom -12403.537741 kJ/mol
# Density = 1.869347 g / cm^3
# Si number density = 18.736110 Si / 1000 Ang^3
#
#
#
# Elastic Constant Matrix: (Units=GPa)
#
#
# Indices 1 2 3 4 5 6 
#
# 1 65.7135 40.7568 41.2700 0.0000 0.0784 0.0000
# 2 40.7568 97.1998 46.4280 0.0000 -5.8256 0.0000
# 3 41.2700 46.4280 103.2489 0.0000 2.7783 0.0000
# 4 0.0000 0.0000 0.0000 27.6158 0.0000 -6.6542
# 5 0.0784 -5.8256 2.7783 0.0000 31.5096 0.0000
# 6 0.0000 0.0000 0.0000 -6.6542 0.0000 33.0099
#
#
#
# Elastic Compliance Matrix: (Units=1/GPa)
#
#
# Indices 1 2 3 4 5 6 
#
# 1 0.023405 -0.006880 -0.006241 0.000000 -0.000780 0.000000
# 2 -0.006880 0.015404 -0.004264 0.000000 0.003241 0.000000
# 3 -0.006241 -0.004264 0.014152 0.000000 -0.002021 0.000000
# 4 0.000000 0.000000 0.000000 0.038060 0.000000 0.007672
# 5 -0.000780 0.003241 -0.002021 0.000000 0.032516 0.000000
# 6 0.000000 0.000000 0.000000 0.007672 0.000000 0.031840
#
#
# Mechanical properties :
#
#
# Convention : Reuss Voigt Hill
#
# Bulk Modulus (GPa) = 54.97061 58.11910 56.54485
# Shear Modulus (GPa) = 25.48314 27.60756 26.54535
#
# Velocity S-wave (km/s) = 3.69197 3.84278 3.76813
# Velocity P-wave (km/s) = 6.89762 7.12576 7.01262
#
# Compressibility (1/GPa) = 0.01819154
#
# Stress axis : x y z
#
# Youngs Moduli (GPa) = 42.72637 64.91934 70.66387
#
# Poissons Ratio (x) = 0.44663 0.44099
# Poissons Ratio (y) = 0.29395 0.30130
# Poissons Ratio (z) = 0.26664 0.27681
#
# Static dielectric constant tensor:
#      x y z
#    x 3.278360 0.000000 0.064590 
#    y 0.000000 3.478210 0.000000 
#    z 0.064590 0.000000 3.713630 
# 
# 
# High freq. dielectric constant tensor:
#      x y z
#    x 1.711550 0.000000 0.000970 
#    y 0.000000 1.731680 0.000000 
#    z 0.000970 0.000000 1.741540 
# 
# From -- ./inp_files/314011.got.cif
#   From: 2010.06.25/outbox.cif.g09.slc.cpg/sg12_158_cif.got.tgz:314011.got - 2010.06.28 00:19:55.
