data_PCOD8092049
_publ_section_title
;
Structure prediction by ZEFSAII (Michael W. Deem and Ramdas Pophale) SiO2 
 PCOD8092049
Probable space group: C 2/M
;
_chemical_formula_sum "Si O2"
_cell_formula_units_Z 56
_cell_length_a 20.239661
_cell_length_b 8.794009
_cell_length_c 17.367989
_cell_angle_alpha 90.000000
_cell_angle_beta 108.723802
_cell_angle_gamma 90.000000
_cell_volume 2927.689180
_symmetry_space_group_name_H-M "C 2/M"
_symmetry_group_IT_number 12
_symmetry_cell_setting 'monoclinic'
loop_
_space_group_symop_operation_xyz
x,y,z
-x,y,-z
-x,-y,-z
x,-y,z
1/2+x,1/2+y,z
1/2-x,1/2+y,-z
1/2-x,1/2-y,-z
1/2+x,1/2-y,z
loop_
_atom_site_type_symbol
_atom_site_label
_atom_site_fract_x
_atom_site_fract_y
_atom_site_fract_z
Si Si1 0.177736 0.679025 0.156085
Si Si2 0.820960 0.321691 0.263697
Si Si3 0.564963 0.823826 0.240374
Si Si4 0.190859 0.176561 0.581730
Si Si5 0.156834 0.325276 0.417797
Si Si6 0.418861 0.676639 0.181443
Si Si7 0.822511 0.822248 0.002860
O O1 0.182487 0.500000 0.147058
O O2 0.254450 0.735955 0.205072
O O3 0.124659 0.725644 0.203129
O O4 0.150642 0.752741 0.067110
O O5 0.807787 0.500000 0.254211
O O6 0.836765 0.273036 0.356886
O O7 0.888073 0.277358 0.238720
O O8 0.592672 0.794107 0.336967
O O9 0.499362 0.717716 0.200483
O O10 0.544887 0.000000 0.221456
O O11 0.146779 0.222183 0.489601
O O12 0.271893 0.217488 0.599492
O O13 0.179911 0.000000 0.595670
O O14 0.160035 0.500000 0.445370
O O15 0.410712 0.500000 0.199301
O O16 0.380373 0.716520 0.087731
O O17 0.810794 0.000000 0.988223
O O18 0.750000 0.750000 0.000000
#
# Coordination Sequence:
#
# PCOD8092049 Si02
#       7
#     8   8   8   8   8   8   8
#     4  11  22  39  63  90 121 156 199 250 297 352
#     4  12  23  37  61  90 119 157 203 246 297 358
#     4  10  22  41  62  87 123 162 198 242 300 358
#     4  10  19  34  58  89 122 154 196 247 296 347
#     4   9  18  35  57  86 122 157 195 242 294 352
#     4  11  25  42  61  86 122 159 198 249 302 355
#     4  11  23  39  61  89 120 157 199 252 301 351
#
# _framework density 19.127714000000001
#
# number of rings (size 3 to 8) (size 9 to 14) (size 15 to 20)
#    0.000    1.429    2.857    3.000    0.000    4.571 
#    0.000    3.571    0.000    4.286    0.000    0.000 
#    0.000    0.000    0.000    0.000    0.000    0.000 
#
# Total GULP energy -347371.598623 kJ/mol
# GULP energy per Si atom -12406.128522 kJ/mol
# Density = 1.908418 g / cm^3
# Si number density = 19.127714 Si / 1000 Ang^3
#
#
#
# Elastic Constant Matrix: (Units=GPa)
#
#
# Indices 1 2 3 4 5 6 
#
# 1 66.1185 25.9316 33.7175 0.0000 3.5215 0.0000
# 2 25.9316 79.1539 44.1748 0.0000 -2.0514 0.0000
# 3 33.7175 44.1748 112.6918 0.0000 -5.6348 0.0000
# 4 0.0000 0.0000 0.0000 37.5450 0.0000 -1.7345
# 5 3.5215 -2.0514 -5.6348 0.0000 30.6018 0.0000
# 6 0.0000 0.0000 0.0000 -1.7345 0.0000 32.0496
#
#
#
# Elastic Compliance Matrix: (Units=1/GPa)
#
#
# Indices 1 2 3 4 5 6 
#
# 1 0.019036 -0.003906 -0.004327 0.000000 -0.003249 0.000000
# 2 -0.003906 0.016973 -0.005456 0.000000 0.000583 0.000000
# 3 -0.004327 -0.005456 0.012428 0.000000 0.002421 0.000000
# 4 0.000000 0.000000 0.000000 0.026701 0.000000 0.001445
# 5 -0.003249 0.000583 0.002421 0.000000 0.033536 0.000000
# 6 0.000000 0.000000 0.000000 0.001445 0.000000 0.031280
#
#
# Mechanical properties :
#
#
# Convention : Reuss Voigt Hill
#
# Bulk Modulus (GPa) = 47.48293 51.73468 49.60880
# Shear Modulus (GPa) = 28.67776 30.31532 29.49654
#
# Velocity S-wave (km/s) = 3.87625 3.98539 3.93120
# Velocity P-wave (km/s) = 6.70163 6.94863 6.82624
#
# Compressibility (1/GPa) = 0.02106020
#
# Stress axis : x y z
#
# Youngs Moduli (GPa) = 52.53264 58.91722 80.46333
#
# Poissons Ratio (x) = 0.23011 0.34816
# Poissons Ratio (y) = 0.20518 0.43898
# Poissons Ratio (z) = 0.22731 0.32143
#
# Static dielectric constant tensor:
#      x y z
#    x 3.310950 0.000000 -0.075130 
#    y 0.000000 3.548920 0.000000 
#    z -0.075130 0.000000 3.779450 
# 
# 
# High freq. dielectric constant tensor:
#      x y z
#    x 1.725820 0.000000 -0.008920 
#    y 0.000000 1.752280 0.000000 
#    z -0.008920 0.000000 1.757420 
# 
# From -- ./inp_files/275596.got.cif
#   From: 2010.06.25/outbox.cif.g09.slc.cpg/sg12_138_cif.got.tgz:275596.got - 2010.06.28 00:19:55.
