data_PCOD8092399
_publ_section_title
;
Structure prediction by ZEFSAII (Michael W. Deem and Ramdas Pophale) SiO2 
 PCOD8092399
Probable space group: C 2/M
;
_chemical_formula_sum "Si O2"
_cell_formula_units_Z 56
_cell_length_a 20.715684
_cell_length_b 8.826352
_cell_length_c 22.567698
_cell_angle_alpha 90.000000
_cell_angle_beta 47.968449
_cell_angle_gamma 90.000000
_cell_volume 3064.966891
_symmetry_space_group_name_H-M "C 2/M"
_symmetry_group_IT_number 12
_symmetry_cell_setting 'monoclinic'
loop_
_space_group_symop_operation_xyz
x,y,z
-x,y,-z
-x,-y,-z
x,-y,z
1/2+x,1/2+y,z
1/2-x,1/2+y,-z
1/2-x,1/2-y,-z
1/2+x,1/2-y,z
loop_
_atom_site_type_symbol
_atom_site_label
_atom_site_fract_x
_atom_site_fract_y
_atom_site_fract_z
Si Si1 0.491465 0.320018 0.171578
Si Si2 0.926888 0.820053 0.758541
Si Si3 0.498245 0.320581 0.593107
Si Si4 0.298664 0.320582 0.265943
Si Si5 0.076823 0.822675 0.997986
Si Si6 0.859993 0.179174 0.582094
Si Si7 0.763319 0.678503 0.161249
O O1 0.489513 0.500000 0.175197
O O2 0.534498 0.250893 0.204536
O O3 0.393553 0.258234 0.225400
O O4 0.548272 0.267899 0.080556
O O5 0.984213 0.756776 0.668045
O O6 0.827243 0.769477 0.812481
O O7 0.933492 0.000000 0.756412
O O8 0.493032 0.500000 0.596096
O O9 0.591819 0.271858 0.508760
O O10 0.419896 0.263669 0.599582
O O11 0.298498 0.500000 0.262577
O O12 0.231871 0.264157 0.357276
O O13 0.272477 0.257508 0.218524
O O14 0.161418 0.727699 0.929619
O O15 0.099536 0.000000 0.981577
O O16 0.000000 0.783809 0.000000
O O17 0.844110 0.000000 0.594440
O O18 0.765657 0.500000 0.170322
#
# Coordination Sequence:
#
# PCOD8092399 Si02
#       7
#     8   8   8   8   8   8   8
#     4   9  19  34  52  72 101 140 174 203 247 311
#     4   9  17  32  53  77 101 133 174 211 249 298
#     4   8  14  27  50  76 103 131 167 210 251 298
#     4  11  20  33  52  77 105 137 172 207 252 306
#     4  10  19  35  54  75 104 137 171 205 250 307
#     4   9  16  29  51  79 102 129 171 214 251 291
#     4  11  21  33  55  81 102 128 171 221 256 293
#
# _framework density 18.270997000000001
#
# number of rings (size 3 to 8) (size 9 to 14) (size 15 to 20)
#    0.000    2.429    2.857    1.714    0.000    0.857 
#    0.000    2.143    0.000    4.286    0.000    0.000 
#    0.000    0.000    0.000    0.000    0.000    0.000 
#
# Total GULP energy -347124.123035 kJ/mol
# GULP energy per Si atom -12397.290108 kJ/mol
# Density = 1.822941 g / cm^3
# Si number density = 18.270997 Si / 1000 Ang^3
#
#
#
# Elastic Constant Matrix: (Units=GPa)
#
#
# Indices 1 2 3 4 5 6 
#
# 1 122.2552 27.2031 76.6252 0.0001 1.1785 -0.0001
# 2 27.2031 34.3841 26.5123 0.0005 -5.9017 -0.0002
# 3 76.6252 26.5123 169.8646 0.0000 -5.7642 -0.0002
# 4 0.0001 0.0005 0.0000 23.2335 0.0000 -6.8022
# 5 1.1785 -5.9017 -5.7642 0.0000 35.9629 0.0000
# 6 -0.0001 -0.0002 -0.0002 -6.8022 0.0000 15.7379
#
#
#
# Elastic Compliance Matrix: (Units=1/GPa)
#
#
# Indices 1 2 3 4 5 6 
#
# 1 0.012679 -0.006768 -0.004741 0.000000 -0.002286 0.000000
# 2 -0.006768 0.037458 -0.002591 -0.000001 0.005953 0.000000
# 3 -0.004741 -0.002591 0.008467 0.000000 0.001087 0.000000
# 4 0.000000 -0.000001 0.000000 0.049277 0.000000 0.021299
# 5 -0.002286 0.005953 0.001087 0.000000 0.029033 0.000000
# 6 0.000000 0.000000 0.000000 0.021299 0.000000 0.072747
#
#
# Mechanical properties :
#
#
# Convention : Reuss Voigt Hill
#
# Bulk Modulus (GPa) = 32.89095 65.24280 49.06688
# Shear Modulus (GPa) = 20.16178 28.06440 24.11309
#
# Velocity S-wave (km/s) = 3.32548 3.92345 3.63677
# Velocity P-wave (km/s) = 5.72590 7.50403 6.67444
#
# Compressibility (1/GPa) = 0.03040350
#
# Stress axis : x y z
#
# Youngs Moduli (GPa) = 78.87167 26.69685 118.10767
#
# Poissons Ratio (x) = 0.18068 0.55990
# Poissons Ratio (y) = 0.53380 0.30606
# Poissons Ratio (z) = 0.37390 0.06918
#
# Static dielectric constant tensor:
#      x y z
#    x 3.478380 0.000000 0.023030 
#    y 0.000000 2.954850 0.000000 
#    z 0.023030 0.000000 3.832720 
# 
# 
# High freq. dielectric constant tensor:
#      x y z
#    x 1.694240 0.000000 -0.007340 
#    y 0.000000 1.665650 0.000000 
#    z -0.007340 0.000000 1.728570 
# 
# From -- ./inp_files/319727.got.cif
#   From: 2010.06.25/outbox.cif.g09.slc.cpg/sg12_160_cif.got.tgz:319727.got - 2010.06.28 00:19:55.
