data_PCOD8092857
_publ_section_title
;
Structure prediction by ZEFSAII (Michael W. Deem and Ramdas Pophale) SiO2 
 PCOD8092857
Probable space group: C 2/M
;
_chemical_formula_sum "Si O2"
_cell_formula_units_Z 48
_cell_length_a 12.775885
_cell_length_b 13.877347
_cell_length_c 23.003404
_cell_angle_alpha 90.000000
_cell_angle_beta 36.212546
_cell_angle_gamma 90.000000
_cell_volume 2409.445252
_symmetry_space_group_name_H-M "C 2/M"
_symmetry_group_IT_number 12
_symmetry_cell_setting 'monoclinic'
loop_
_space_group_symop_operation_xyz
x,y,z
-x,y,-z
-x,-y,-z
x,-y,z
1/2+x,1/2+y,z
1/2-x,1/2+y,-z
1/2-x,1/2-y,-z
1/2+x,1/2-y,z
loop_
_atom_site_type_symbol
_atom_site_label
_atom_site_fract_x
_atom_site_fract_y
_atom_site_fract_z
Si Si1 0.540167 0.889943 0.654129
Si Si2 0.799518 0.285980 0.070119
Si Si3 0.844993 0.107046 0.213214
Si Si4 0.285317 0.392639 0.003207
Si Si5 0.352752 0.113067 0.521065
Si Si6 0.441855 0.289111 0.282307
O O1 0.328962 0.878913 0.746675
O O2 0.615695 0.851035 0.558853
O O3 0.604500 0.820422 0.677415
O O4 0.598770 0.000000 0.641241
O O5 0.724722 0.184727 0.078008
O O6 0.655104 0.310940 0.185159
O O7 0.799111 0.369077 0.021612
O O8 0.000000 0.276625 0.000000
O O9 0.861256 0.189449 0.254777
O O10 0.844138 0.000000 0.243352
O O11 0.002505 0.114961 0.096413
O O12 0.225135 0.500000 0.048994
O O13 0.500000 0.157021 0.500000
O O14 0.153755 0.140922 0.628804
O O15 0.376648 0.000000 0.510132
#
# Coordination Sequence:
#
# PCOD8092857 Si02
#       6
#     8   8   8   8   8   8
#     4  10  20  33  53  81 110 137 172 216 264 316
#     4  10  21  35  52  80 110 139 179 217 256 313
#     4   9  17  33  56  81 104 136 182 222 255 303
#     4   9  19  35  54  75 107 144 178 218 260 302
#     4  10  19  35  58  82 103 130 176 225 263 308
#     4  11  20  32  56  82 107 138 175 218 266 309
#
# _framework density 19.921599000000001
#
# number of rings (size 3 to 8) (size 9 to 14) (size 15 to 20)
#    0.000    2.167    1.667    2.000    0.000    2.000 
#    0.000    0.000    0.000    2.500    0.000    0.000 
#    0.000    0.000    0.000    0.000    0.000    0.000 
#
# Total GULP energy -297465.242366 kJ/mol
# GULP energy per Si atom -12394.385099 kJ/mol
# Density = 1.987626 g / cm^3
# Si number density = 19.921599 Si / 1000 Ang^3
#
#
#
# Elastic Constant Matrix: (Units=GPa)
#
#
# Indices 1 2 3 4 5 6 
#
# 1 41.1285 27.3436 28.7045 0.0000 -0.0315 0.0001
# 2 27.3436 56.7896 21.9320 0.0000 -0.3096 0.0001
# 3 28.7045 21.9320 76.8031 -0.0008 -5.3510 0.0003
# 4 0.0000 0.0000 -0.0008 26.7729 0.0001 1.9085
# 5 -0.0315 -0.3096 -5.3510 0.0001 15.5516 -0.0001
# 6 0.0001 0.0001 0.0003 1.9085 -0.0001 24.9224
#
#
#
# Elastic Compliance Matrix: (Units=1/GPa)
#
#
# Indices 1 2 3 4 5 6 
#
# 1 0.043487 -0.016375 -0.011878 0.000000 -0.004325 0.000000
# 2 -0.016375 0.025996 -0.001301 0.000000 0.000037 0.000000
# 3 -0.011878 -0.001301 0.018266 0.000001 0.006235 0.000000
# 4 0.000000 0.000000 0.000001 0.037556 0.000000 -0.002876
# 5 -0.004325 0.000037 0.006235 0.000000 0.066439 0.000000
# 6 0.000000 0.000000 0.000000 -0.002876 0.000000 0.040345
#
#
# Mechanical properties :
#
#
# Convention : Reuss Voigt Hill
#
# Bulk Modulus (GPa) = 34.91546 36.74238 35.82892
# Shear Modulus (GPa) = 16.62543 19.89878 18.26211
#
# Velocity S-wave (km/s) = 2.89198 3.16390 3.03099
# Velocity P-wave (km/s) = 5.35872 5.64185 5.50211
#
# Compressibility (1/GPa) = 0.02864061
#
# Stress axis : x y z
#
# Youngs Moduli (GPa) = 22.99517 38.46782 54.74773
#
# Poissons Ratio (x) = 0.62991 0.65031
# Poissons Ratio (y) = 0.37654 0.07122
# Poissons Ratio (z) = 0.27314 0.05004
#
# Static dielectric constant tensor:
#      x y z
#    x 3.307820 0.000000 0.003840 
#    y 0.000000 3.689140 0.000000 
#    z 0.003840 0.000000 3.823180 
# 
# 
# High freq. dielectric constant tensor:
#      x y z
#    x 1.740360 0.000000 0.003840 
#    y 0.000000 1.768430 0.000000 
#    z 0.003840 0.000000 1.788700 
# 
# From -- ./inp_files/204292.got.cif
#   From: 2010.06.25/outbox.cif.g09.slc.cpg/sg12_103_cif.got.tgz:204292.got - 2010.06.28 00:19:55.
