data_PCOD8092147
_publ_section_title
;
Structure prediction by ZEFSAII (Michael W. Deem and Ramdas Pophale) SiO2 
 PCOD8092147
Probable space group: C 2/M
;
_chemical_formula_sum "Si O2"
_cell_formula_units_Z 56
_cell_length_a 17.529871
_cell_length_b 15.797862
_cell_length_c 20.872194
_cell_angle_alpha 90.000000
_cell_angle_beta 149.040478
_cell_angle_gamma 90.000000
_cell_volume 2973.537604
_symmetry_space_group_name_H-M "C 2/M"
_symmetry_group_IT_number 12
_symmetry_cell_setting 'monoclinic'
loop_
_space_group_symop_operation_xyz
x,y,z
-x,y,-z
-x,-y,-z
x,-y,z
1/2+x,1/2+y,z
1/2-x,1/2+y,-z
1/2-x,1/2-y,-z
1/2+x,1/2-y,z
loop_
_atom_site_type_symbol
_atom_site_label
_atom_site_fract_x
_atom_site_fract_y
_atom_site_fract_z
Si Si1 0.671502 0.405802 0.957116
Si Si2 0.375621 0.673091 0.768761
Si Si3 0.219284 0.500000 0.653696
Si Si4 0.637246 0.401671 0.787770
Si Si5 0.002142 0.500000 0.391317
Si Si6 0.170819 0.735004 0.139266
Si Si7 0.386749 0.716659 0.637938
Si Si8 0.122923 0.356066 0.787217
O O1 0.601502 0.500000 0.910603
O O2 0.554443 0.335871 0.897216
O O3 0.711218 0.387818 0.911277
O O4 0.816752 0.403178 0.106129
O O5 0.312981 0.581578 0.739526
O O6 0.319728 0.743165 0.778618
O O7 0.317891 0.700930 0.657927
O O8 0.086556 0.500000 0.607477
O O9 0.169272 0.500000 0.541806
O O10 0.634549 0.500000 0.765423
O O11 0.736196 0.350295 0.807682
O O12 0.466575 0.367318 0.666134
O O13 0.969443 0.417840 0.325222
O O14 0.238439 0.814875 0.150101
O O15 0.000000 0.720714 0.000000
O O16 0.250000 0.750000 0.500000
O O17 0.513705 0.785969 0.734727
#
# Coordination Sequence:
#
# PCOD8092147 Si02
#       8
#     8   8   4   8   4   8   8   8
#     4  10  19  34  59  87 114 150 186 240 295 351
#     4  11  21  36  60  86 116 150 195 234 294 354
#     4  11  22  35  55  83 117 155 191 230 294 356
#     4   9  22  41  61  84 116 155 198 236 292 349
#     4  11  22  35  53  83 121 156 186 232 291 354
#     4  11  22  34  58  89 119 152 190 243 297 353
#     4  10  23  40  60  84 114 154 201 242 284 339
#     4  11  21  36  55  86 122 150 189 241 296 348
#
# _framework density 18.832785999999999
#
# number of rings (size 3 to 8) (size 9 to 14) (size 15 to 20)
#    0.000    1.571    4.286    0.857    3.000    2.000 
#    1.286    2.143    1.571    0.857    0.000    0.000 
#    0.000    0.000    0.000    0.000    0.000    0.000 
#
# Total GULP energy -347107.374304 kJ/mol
# GULP energy per Si atom -12396.691939 kJ/mol
# Density = 1.878992 g / cm^3
# Si number density = 18.832786 Si / 1000 Ang^3
#
#
#
# Elastic Constant Matrix: (Units=GPa)
#
#
# Indices 1 2 3 4 5 6 
#
# 1 100.8509 55.1638 25.8436 -0.0006 -4.2411 -0.0004
# 2 55.1638 115.9900 27.7353 -0.0009 -7.2683 -0.0007
# 3 25.8436 27.7353 80.8363 -0.0014 -9.8456 -0.0015
# 4 -0.0006 -0.0009 -0.0014 28.5444 -0.0001 -4.9505
# 5 -4.2411 -7.2683 -9.8456 -0.0001 22.9131 -0.0002
# 6 -0.0004 -0.0007 -0.0015 -4.9505 -0.0002 31.1037
#
#
#
# Elastic Compliance Matrix: (Units=1/GPa)
#
#
# Indices 1 2 3 4 5 6 
#
# 1 0.013804 -0.006016 -0.002396 0.000000 -0.000383 0.000000
# 2 -0.006016 0.012076 -0.001993 0.000000 0.001861 0.000000
# 3 -0.002396 -0.001993 0.014445 0.000001 0.005131 0.000001
# 4 0.000000 0.000000 0.000001 0.036028 0.000001 0.005734
# 5 -0.000383 0.001861 0.005131 0.000001 0.046367 0.000001
# 6 0.000000 0.000000 0.000001 0.005734 0.000001 0.033063
#
#
# Mechanical properties :
#
#
# Convention : Reuss Voigt Hill
#
# Bulk Modulus (GPa) = 51.24214 57.24028 54.24121
# Shear Modulus (GPa) = 27.30757 29.10787 28.20772
#
# Velocity S-wave (km/s) = 3.81202 3.93567 3.87434
# Velocity P-wave (km/s) = 6.82960 7.14931 6.99128
#
# Compressibility (1/GPa) = 0.01951519
#
# Stress axis : x y z
#
# Youngs Moduli (GPa) = 72.44135 82.80918 69.22593
#
# Poissons Ratio (x) = 0.49821 0.16584
# Poissons Ratio (y) = 0.43583 0.13799
# Poissons Ratio (z) = 0.17354 0.16506
#
# Static dielectric constant tensor:
#      x y z
#    x 3.474240 0.000000 0.017880 
#    y 0.000000 3.477020 0.000000 
#    z 0.017880 0.000000 3.432860 
# 
# 
# High freq. dielectric constant tensor:
#      x y z
#    x 1.725700 0.000000 -0.002760 
#    y 0.000000 1.731880 0.000000 
#    z -0.002760 0.000000 1.724860 
# 
# From -- ./inp_files/316822.got.cif
#   From: 2010.06.25/outbox.cif.g09.slc.cpg/sg12_159_cif.got.tgz:316822.got - 2010.06.28 00:19:55.
