data_PCOD8092370
_publ_section_title
;
Structure prediction by ZEFSAII (Michael W. Deem and Ramdas Pophale) SiO2 
 PCOD8092370
Probable space group: C 2/M
;
_chemical_formula_sum "Si O2"
_cell_formula_units_Z 64
_cell_length_a 30.808441
_cell_length_b 22.709903
_cell_length_c 10.044963
_cell_angle_alpha 90.000000
_cell_angle_beta 30.240674
_cell_angle_gamma 90.000000
_cell_volume 3539.548244
_symmetry_space_group_name_H-M "C 2/M"
_symmetry_group_IT_number 12
_symmetry_cell_setting 'monoclinic'
loop_
_space_group_symop_operation_xyz
x,y,z
-x,y,-z
-x,-y,-z
x,-y,z
1/2+x,1/2+y,z
1/2-x,1/2+y,-z
1/2-x,1/2-y,-z
1/2+x,1/2-y,z
loop_
_atom_site_type_symbol
_atom_site_label
_atom_site_fract_x
_atom_site_fract_y
_atom_site_fract_z
Si Si1 0.592696 0.213657 0.768671
Si Si2 0.260561 0.434381 0.351017
Si Si3 0.366409 0.110328 0.526582
Si Si4 0.398201 0.432910 0.775037
Si Si5 0.165165 0.355808 0.806735
Si Si6 0.208021 0.830979 0.055618
Si Si7 0.483968 0.067524 0.688450
Si Si8 0.242943 0.775881 0.233011
O O1 0.584351 0.157299 0.694649
O O2 0.613223 0.193781 0.864062
O O3 0.668458 0.257705 0.531249
O O4 0.500000 0.245896 0.000000
O O5 0.257351 0.500000 0.421442
O O6 0.190671 0.431514 0.416891
O O7 0.240659 0.385735 0.516711
O O8 0.355382 0.422362 0.035005
O O9 0.433983 0.073333 0.432627
O O10 0.304987 0.144287 0.792579
O O11 0.500000 0.423262 0.500000
O O12 0.376038 0.500000 0.787220
O O13 0.359834 0.383944 0.778007
O O14 0.201522 0.325728 0.842709
O O15 0.099691 0.405853 0.022401
O O16 0.193918 0.802118 0.235658
O O17 0.198538 0.780600 0.965418
O O18 0.500000 0.096321 0.500000
O O19 0.461625 0.000000 0.727946
#
# Coordination Sequence:
#
# PCOD8092370 Si02
#       8
#     8   8   8   8   8   8   8   8
#     4  10  19  35  53  76 101 139 180 225 268 317
#     4   9  18  32  55  81 106 143 183 221 273 325
#     4   9  17  33  54  73 107 138 176 221 269 322
#     4   9  18  36  60  85 108 134 182 238 275 316
#     4  11  21  36  54  77 113 148 182 221 273 320
#     4   9  19  38  57  80 108 143 181 220 279 326
#     4  11  22  33  50  80 113 145 184 224 266 325
#     4  10  21  37  55  77 113 146 178 224 263 331
#
# _framework density 18.081403999999999
#
# number of rings (size 3 to 8) (size 9 to 14) (size 15 to 20)
#    0.000    2.250    1.250    2.625    0.000    0.500 
#    4.500    3.125    0.000    0.000    0.000    2.625 
#    0.000    0.000    0.000    0.000    0.000    0.000 
#
# Total GULP energy -396703.823394 kJ/mol
# GULP energy per Si atom -12396.994481 kJ/mol
# Density = 1.804025 g / cm^3
# Si number density = 18.081404 Si / 1000 Ang^3
#
#
#
# Elastic Constant Matrix: (Units=GPa)
#
#
# Indices 1 2 3 4 5 6 
#
# 1 71.8867 34.6835 39.5949 0.0000 -1.2494 0.0000
# 2 34.6835 86.6390 31.9483 0.0000 -4.8679 0.0000
# 3 39.5949 31.9483 92.5326 0.0000 -6.4700 0.0000
# 4 0.0000 0.0000 0.0000 21.4939 0.0000 1.5974
# 5 -1.2494 -4.8679 -6.4700 0.0000 23.6468 0.0000
# 6 0.0000 0.0000 0.0000 1.5974 0.0000 20.0163
#
#
#
# Elastic Compliance Matrix: (Units=1/GPa)
#
#
# Indices 1 2 3 4 5 6 
#
# 1 0.020456 -0.005755 -0.006906 0.000000 -0.001993 0.000000
# 2 -0.005755 0.014897 -0.002537 0.000000 0.002069 0.000000
# 3 -0.006906 -0.002537 0.014860 0.000000 0.003179 0.000000
# 4 0.000000 0.000000 0.000000 0.046802 0.000000 -0.003735
# 5 -0.001993 0.002069 0.003179 0.000000 0.043479 0.000000
# 6 0.000000 0.000000 0.000000 -0.003735 0.000000 0.050257
#
#
# Mechanical properties :
#
#
# Convention : Reuss Voigt Hill
#
# Bulk Modulus (GPa) = 50.45425 51.50132 50.97779
# Shear Modulus (GPa) = 21.95357 22.68683 22.32020
#
# Velocity S-wave (km/s) = 3.48825 3.54602 3.51726
# Velocity P-wave (km/s) = 6.64743 6.73131 6.68950
#
# Compressibility (1/GPa) = 0.01981994
#
# Stress axis : x y z
#
# Youngs Moduli (GPa) = 48.88480 67.12571 67.29456
#
# Poissons Ratio (x) = 0.38628 0.46472
# Poissons Ratio (y) = 0.28131 0.17069
# Poissons Ratio (z) = 0.33759 0.17027
#
# Static dielectric constant tensor:
#      x y z
#    x 3.081210 0.000000 0.084900 
#    y 0.000000 3.328790 0.000000 
#    z 0.084900 0.000000 3.428230 
# 
# 
# High freq. dielectric constant tensor:
#      x y z
#    x 1.675980 0.000000 0.006650 
#    y 0.000000 1.700930 0.000000 
#    z 0.006650 0.000000 1.705750 
# 
# From -- ./inp_files/113626.got.cif
#   From: 2010.06.25/outbox.cif.g09.slc.cpg/sg12_57_cif.got.tgz:113626.got - 2010.06.28 00:19:55.
