data_PCOD8092638
_publ_section_title
;
Structure prediction by ZEFSAII (Michael W. Deem and Ramdas Pophale) SiO2 
 PCOD8092638
Probable space group: C 2/M
;
_chemical_formula_sum "Si O2"
_cell_formula_units_Z 40
_cell_length_a 27.156530
_cell_length_b 8.638913
_cell_length_c 11.350000
_cell_angle_alpha 90.000000
_cell_angle_beta 125.484765
_cell_angle_gamma 90.000000
_cell_volume 2168.191405
_symmetry_space_group_name_H-M "C 2/M"
_symmetry_group_IT_number 12
_symmetry_cell_setting 'monoclinic'
loop_
_space_group_symop_operation_xyz
x,y,z
-x,y,-z
-x,-y,-z
x,-y,z
1/2+x,1/2+y,z
1/2-x,1/2+y,-z
1/2-x,1/2-y,-z
1/2+x,1/2-y,z
loop_
_atom_site_type_symbol
_atom_site_label
_atom_site_fract_x
_atom_site_fract_y
_atom_site_fract_z
Si Si1 0.086867 0.682514 0.572544
Si Si2 0.555643 0.181333 0.992626
Si Si3 0.199713 0.317142 0.579747
Si Si4 0.473774 0.319091 0.295100
Si Si5 0.322743 0.182832 0.713783
O O1 0.084892 0.500000 0.592851
O O2 0.151007 0.736291 0.608774
O O3 0.077659 0.771962 0.682253
O O4 0.034759 0.724581 0.406682
O O5 0.549602 0.278672 0.866017
O O6 0.558494 0.000000 0.965919
O O7 0.500000 0.219162 0.000000
O O8 0.616259 0.241853 0.140102
O O9 0.205103 0.500000 0.584243
O O10 0.264731 0.246674 0.704267
O O11 0.178753 0.254498 0.422473
O O12 0.487415 0.500000 0.324988
O O13 0.320940 0.000000 0.713037
#
# Coordination Sequence:
#
# PCOD8092638 Si02
#       5
#     8   8   8   8   8
#     4  10  19  35  57  76 100 138 178 210 250 307
#     4  10  20  36  56  76 103 139 175 208 250 309
#     4   9  18  33  54  78 102 132 170 211 253 300
#     4  11  22  34  51  79 109 133 167 216 264 303
#     4   9  18  32  52  78 105 133 167 209 255 302
#
# _framework density 18.448556
#
# number of rings (size 3 to 8) (size 9 to 14) (size 15 to 20)
#    0.000    2.200    0.000    4.800    0.000    6.000 
#    0.000    5.000    0.000    0.000    0.000    0.000 
#    0.000    0.000    0.000    0.000    0.000    0.000 
#
# Total GULP energy -248042.758472 kJ/mol
# GULP energy per Si atom -12402.137924 kJ/mol
# Density = 1.840657 g / cm^3
# Si number density = 18.448556 Si / 1000 Ang^3
#
#
#
# Elastic Constant Matrix: (Units=GPa)
#
#
# Indices 1 2 3 4 5 6 
#
# 1 141.4019 25.6030 64.5018 0.0000 16.2618 0.0000
# 2 25.6030 32.9369 17.6762 0.0000 -2.1824 0.0000
# 3 64.5018 17.6762 102.6005 0.0000 5.1216 0.0000
# 4 0.0000 0.0000 0.0000 22.0845 0.0000 2.8514
# 5 16.2618 -2.1824 5.1216 0.0000 26.8947 0.0000
# 6 0.0000 0.0000 0.0000 2.8514 0.0000 26.7731
#
#
#
# Elastic Compliance Matrix: (Units=1/GPa)
#
#
# Indices 1 2 3 4 5 6 
#
# 1 0.011654 -0.006309 -0.005918 0.000000 -0.006431 0.000000
# 2 -0.006309 0.037269 -0.002823 0.000000 0.007376 0.000000
# 3 -0.005918 -0.002823 0.013919 0.000000 0.000699 0.000000
# 4 0.000000 0.000000 0.000000 0.045912 0.000000 -0.004890
# 5 -0.006431 0.007376 0.000699 0.000000 0.041536 0.000000
# 6 0.000000 0.000000 0.000000 -0.004890 0.000000 0.037872
#
#
# Mechanical properties :
#
#
# Convention : Reuss Voigt Hill
#
# Bulk Modulus (GPa) = 30.54253 54.72236 42.63245
# Shear Modulus (GPa) = 21.81742 26.42767 24.12254
#
# Velocity S-wave (km/s) = 3.44264 3.78895 3.61994
# Velocity P-wave (km/s) = 5.69155 6.99057 6.37424
#
# Compressibility (1/GPa) = 0.03274123
#
# Stress axis : x y z
#
# Youngs Moduli (GPa) = 85.80976 26.83211 71.84575
#
# Poissons Ratio (x) = 0.16928 0.42521
# Poissons Ratio (y) = 0.54135 0.20281
# Poissons Ratio (z) = 0.50786 0.07574
#
# Static dielectric constant tensor:
#      x y z
#    x 3.573820 0.000000 0.058260 
#    y 0.000000 3.256080 0.000000 
#    z 0.058260 0.000000 3.375960 
# 
# 
# High freq. dielectric constant tensor:
#      x y z
#    x 1.724340 0.000000 0.003430 
#    y 0.000000 1.710550 0.000000 
#    z 0.003430 0.000000 1.702560 
# 
# From -- ./inp_files/162639.got.cif
#   From: 2010.06.25/outbox.cif.g09.slc.cpg/sg12_82_cif.got.tgz:162639.got - 2010.06.28 00:19:55.
