data_PCOD8092054
_publ_section_title
;
Structure prediction by ZEFSAII (Michael W. Deem and Ramdas Pophale) SiO2 
 PCOD8092054
Probable space group: C 2/M
;
_chemical_formula_sum "Si O2"
_cell_formula_units_Z 40
_cell_length_a 14.616329
_cell_length_b 19.265113
_cell_length_c 9.828559
_cell_angle_alpha 90.000000
_cell_angle_beta 135.772386
_cell_angle_gamma 90.000000
_cell_volume 1930.414161
_symmetry_space_group_name_H-M "C 2/M"
_symmetry_group_IT_number 12
_symmetry_cell_setting 'monoclinic'
loop_
_space_group_symop_operation_xyz
x,y,z
-x,y,-z
-x,-y,-z
x,-y,z
1/2+x,1/2+y,z
1/2-x,1/2+y,-z
1/2-x,1/2-y,-z
1/2+x,1/2-y,z
loop_
_atom_site_type_symbol
_atom_site_label
_atom_site_fract_x
_atom_site_fract_y
_atom_site_fract_z
Si Si1 0.369802 0.078040 0.941282
Si Si2 0.885966 0.120359 0.473316
Si Si3 0.549732 0.322197 0.193905
Si Si4 0.175653 0.279469 0.620113
Si Si5 0.926485 0.694846 0.207904
O O1 0.249249 0.082886 0.707212
O O2 0.375387 0.000000 0.006695
O O3 0.500000 0.097267 0.000000
O O4 0.360014 0.133121 0.051658
O O5 0.928029 0.113507 0.677391
O O6 0.877695 0.202141 0.445670
O O7 0.000000 0.088548 0.500000
O O8 0.687360 0.284575 0.310162
O O9 0.446516 0.263914 0.136940
O O10 0.500000 0.355501 0.000000
O O11 0.181094 0.295512 0.786880
O O12 0.066778 0.326396 0.424759
#
# Coordination Sequence:
#
# PCOD8092054 Si02
#       5
#     8   8   8   8   8
#     4  11  24  40  60  82 114 162 208 241 279 344
#     4  11  21  38  59  88 122 153 193 243 298 352
#     4  11  21  32  57  91 121 153 183 238 305 358
#     4  10  19  34  58  89 124 149 183 238 310 355
#     4  10  19  36  56  88 117 153 187 242 289 350
#
# _framework density 20.720942000000001
#
# number of rings (size 3 to 8) (size 9 to 14) (size 15 to 20)
#    0.000    1.400    4.000    6.600    2.800    2.000 
#    0.000    2.000    0.000    1.800    0.000    0.000 
#    0.000    0.000    0.000    0.000    0.000    0.000 
#
# Total GULP energy -247896.592049 kJ/mol
# GULP energy per Si atom -12394.829602 kJ/mol
# Density = 2.067378 g / cm^3
# Si number density = 20.720942 Si / 1000 Ang^3
#
#
#
# Elastic Constant Matrix: (Units=GPa)
#
#
# Indices 1 2 3 4 5 6 
#
# 1 97.6642 5.6618 41.0807 0.0000 -5.9475 0.0000
# 2 5.6618 39.1311 19.4825 0.0000 -5.9146 0.0000
# 3 41.0807 19.4825 121.0681 0.0000 -16.5782 0.0000
# 4 0.0000 0.0000 0.0000 7.1932 0.0000 -6.1767
# 5 -5.9475 -5.9146 -16.5782 0.0000 41.1159 0.0000
# 6 0.0000 0.0000 0.0000 -6.1767 0.0000 4.2121
#
#
#
# Elastic Compliance Matrix: (Units=1/GPa)
#
#
# Indices 1 2 3 4 5 6 
#
# 1 0.011948 0.000326 -0.004089 0.000000 0.000126 0.000000
# 2 0.000326 0.028001 -0.004296 0.000000 0.002343 0.000000
# 3 -0.004089 -0.004296 0.010768 0.000000 0.003132 0.000000
# 4 0.000000 0.000000 0.000000 -0.536358 0.000000 -0.786531
# 5 0.000126 0.002343 0.003132 0.000000 0.025940 0.000000
# 6 0.000000 0.000000 0.000000 -0.786531 0.000000 -0.915979
#
#
# Mechanical properties :
#
#
# Convention : Reuss Voigt Hill
#
# Bulk Modulus (GPa) = 28.90275 43.36813 36.13544
# Shear Modulus (GPa) = -3.70912 23.28014 9.78551
#
# Velocity S-wave (km/s) = -1.33937 3.35551 2.17549
# Velocity P-wave (km/s) = 3.40396 5.99897 4.87722
#
# Compressibility (1/GPa) = 0.03459879
#
# Stress axis : x y z
#
# Youngs Moduli (GPa) = 83.69546 35.71322 92.87117
#
# Poissons Ratio (x) = -0.01166 0.37979
# Poissons Ratio (y) = -0.02732 0.39896
# Poissons Ratio (z) = 0.34227 0.15342
#
# Static dielectric constant tensor:
#      x y z
#    x 4.020320 0.000000 -0.297500 
#    y 0.000000 3.206820 0.000000 
#    z -0.297500 0.000000 4.320440 
# 
# 
# High freq. dielectric constant tensor:
#      x y z
#    x 1.827990 0.000000 0.000170 
#    y 0.000000 1.741800 0.000000 
#    z 0.000170 0.000000 1.831940 
# 
# From -- ./inp_files/63803.got.cif
#   From: 2010.06.25/outbox.cif.g09.slc.cpg/sg12_32_cif.got.tgz:63803.got - 2010.06.28 00:19:55.
