data_PCOD8092469
_publ_section_title
;
Structure prediction by ZEFSAII (Michael W. Deem and Ramdas Pophale) SiO2 
 PCOD8092469
Probable space group: C 2/M
;
_chemical_formula_sum "Si O2"
_cell_formula_units_Z 64
_cell_length_a 16.523696
_cell_length_b 14.545010
_cell_length_c 14.633082
_cell_angle_alpha 90.000000
_cell_angle_beta 109.962207
_cell_angle_gamma 90.000000
_cell_volume 3305.574894
_symmetry_space_group_name_H-M "C 2/M"
_symmetry_group_IT_number 12
_symmetry_cell_setting 'monoclinic'
loop_
_space_group_symop_operation_xyz
x,y,z
-x,y,-z
-x,-y,-z
x,-y,z
1/2+x,1/2+y,z
1/2-x,1/2+y,-z
1/2-x,1/2-y,-z
1/2+x,1/2-y,z
loop_
_atom_site_type_symbol
_atom_site_label
_atom_site_fract_x
_atom_site_fract_y
_atom_site_fract_z
Si Si1 0.338536 0.802280 0.022920
Si Si2 0.275398 0.606107 0.563567
Si Si3 0.578448 0.898038 0.099895
Si Si4 0.496112 0.731843 0.839569
Si Si5 0.344505 0.603694 0.785749
Si Si6 0.466461 0.233768 0.343457
Si Si7 0.833718 0.394221 0.208532
Si Si8 0.130651 0.249052 0.519784
O O1 0.418788 0.730747 0.063609
O O2 0.348905 0.876997 0.107413
O O3 0.250000 0.750000 0.000000
O O4 0.341787 0.853949 0.926468
O O5 0.253900 0.500000 0.528510
O O6 0.339523 0.607846 0.674145
O O7 0.190287 0.662153 0.558472
O O8 0.320159 0.658652 0.496707
O O9 0.551382 0.832238 0.173698
O O10 0.603002 0.000000 0.146281
O O11 0.500000 0.905080 0.000000
O O12 0.428843 0.657730 0.851868
O O13 0.523086 0.707679 0.745735
O O14 0.355454 0.500000 0.825294
O O15 0.258344 0.649244 0.796356
O O16 0.414380 0.142085 0.297573
O O17 0.410759 0.284984 0.400364
O O18 0.560245 0.213582 0.420672
O O19 0.829193 0.500000 0.230584
#
# Coordination Sequence:
#
# PCOD8092469 Si02
#       8
#     8   8   8   8   8   8   8   8
#     4  10  20  35  56  82 109 144 180 226 281 332
#     4  10  20  36  57  78 107 150 190 226 273 326
#     4   9  18  34  56  80 106 137 177 220 269 331
#     4  10  20  35  56  78 109 145 182 222 279 330
#     4  10  19  35  55  78 105 146 192 226 266 328
#     4  10  20  33  53  82 110 144 178 232 284 320
#     4  10  20  34  55  81 110 143 184 228 279 332
#     4  10  20  36  56  81 114 143 187 235 272 324
#
# _framework density 19.361232000000001
#
# number of rings (size 3 to 8) (size 9 to 14) (size 15 to 20)
#    0.000    2.125    2.500    1.125    0.000    3.500 
#    0.000    4.375    0.000    4.875    0.000    0.000 
#    0.000    0.000    0.000    0.000    0.000    0.000 
#
# Total GULP energy -396608.049236 kJ/mol
# GULP energy per Si atom -12394.001539 kJ/mol
# Density = 1.931716 g / cm^3
# Si number density = 19.361232 Si / 1000 Ang^3
#
#
#
# Elastic Constant Matrix: (Units=GPa)
#
#
# Indices 1 2 3 4 5 6 
#
# 1 111.1034 42.7561 20.2937 0.0000 5.3687 0.0000
# 2 42.7561 86.7771 12.0782 0.0000 9.0848 0.0000
# 3 20.2937 12.0782 43.1441 0.0000 -3.6244 0.0000
# 4 0.0000 0.0000 0.0000 19.5366 0.0000 0.8626
# 5 5.3687 9.0848 -3.6244 0.0000 38.0851 0.0000
# 6 0.0000 0.0000 0.0000 0.8626 0.0000 26.1853
#
#
#
# Elastic Compliance Matrix: (Units=1/GPa)
#
#
# Indices 1 2 3 4 5 6 
#
# 1 0.011780 -0.005136 -0.004173 0.000000 -0.000833 0.000000
# 2 -0.005136 0.014631 -0.001928 0.000000 -0.002950 0.000000
# 3 -0.004173 -0.001928 0.025976 0.000000 0.003520 0.000000
# 4 0.000000 0.000000 0.000000 0.051260 0.000000 -0.001689
# 5 -0.000833 -0.002950 0.003520 0.000000 0.027413 0.000000
# 6 0.000000 0.000000 0.000000 -0.001689 0.000000 0.038245
#
#
# Mechanical properties :
#
#
# Convention : Reuss Voigt Hill
#
# Bulk Modulus (GPa) = 33.42956 43.47560 38.45258
# Shear Modulus (GPa) = 24.78304 27.82118 26.30211
#
# Velocity S-wave (km/s) = 3.58164 3.79483 3.68977
# Velocity P-wave (km/s) = 5.86582 6.45792 6.16898
#
# Compressibility (1/GPa) = 0.02991365
#
# Stress axis : x y z
#
# Youngs Moduli (GPa) = 84.89303 68.34571 38.49648
#
# Poissons Ratio (x) = 0.35102 0.16064
# Poissons Ratio (y) = 0.43601 0.07422
# Poissons Ratio (z) = 0.35425 0.13178
#
# Static dielectric constant tensor:
#      x y z
#    x 3.866590 0.000000 -0.147670 
#    y 0.000000 3.342510 0.000000 
#    z -0.147670 0.000000 3.433910 
# 
# 
# High freq. dielectric constant tensor:
#      x y z
#    x 1.775160 0.000000 -0.013170 
#    y 0.000000 1.723280 0.000000 
#    z -0.013170 0.000000 1.736130 
# 
# From -- ./inp_files/225327.got.cif
#   From: 2010.06.25/outbox.cif.g09.slc.cpg/sg12_113_cif.got.tgz:225327.got - 2010.06.28 00:19:55.
