data_PCOD8092432
_publ_section_title
;
Structure prediction by ZEFSAII (Michael W. Deem and Ramdas Pophale) SiO2 
 PCOD8092432
Probable space group: C 2/M
;
_chemical_formula_sum "Si O2"
_cell_formula_units_Z 64
_cell_length_a 23.206171
_cell_length_b 8.869733
_cell_length_c 18.101199
_cell_angle_alpha 90.000000
_cell_angle_beta 92.190227
_cell_angle_gamma 90.000000
_cell_volume 3723.093885
_symmetry_space_group_name_H-M "C 2/M"
_symmetry_group_IT_number 12
_symmetry_cell_setting 'monoclinic'
loop_
_space_group_symop_operation_xyz
x,y,z
-x,y,-z
-x,-y,-z
x,-y,z
1/2+x,1/2+y,z
1/2-x,1/2+y,-z
1/2-x,1/2-y,-z
1/2+x,1/2-y,z
loop_
_atom_site_type_symbol
_atom_site_label
_atom_site_fract_x
_atom_site_fract_y
_atom_site_fract_z
Si Si1 0.671345 0.327201 0.224118
Si Si2 0.807802 0.827131 0.934063
Si Si3 0.811909 0.178951 0.514553
Si Si4 0.694882 0.176093 0.762814
Si Si5 0.381821 0.821856 0.645294
Si Si6 0.310402 0.671388 0.092495
Si Si7 0.000760 0.676296 0.417956
Si Si8 0.126493 0.677395 0.618366
O O1 0.663781 0.500000 0.248971
O O2 0.652564 0.305784 0.137006
O O3 0.738162 0.276866 0.237415
O O4 0.630228 0.221012 0.270343
O O5 0.756191 0.709047 0.925433
O O6 0.783449 0.000000 0.931934
O O7 0.841731 0.799176 0.013858
O O8 0.750000 0.250000 0.500000
O O9 0.834769 0.235606 0.594234
O O10 0.854819 0.233276 0.453126
O O11 0.806902 0.000000 0.514798
O O12 0.665136 0.233369 0.837473
O O13 0.661295 0.242393 0.690331
O O14 0.686625 0.000000 0.762054
O O15 0.445548 0.761263 0.626931
O O16 0.375368 0.000000 0.633693
O O17 0.316729 0.500000 0.117437
O O18 0.010454 0.500000 0.428114
O O19 0.000000 0.749995 0.500000
O O20 0.941246 0.710708 0.372355
O O21 0.138053 0.500000 0.605896
#
# Coordination Sequence:
#
# PCOD8092432 Si02
#       8
#     8   8   8   8   8   8   8   8
#     4   9  17  30  45  67 100 130 158 195 238 285
#     4   8  15  27  42  62  92 129 160 187 228 281
#     4  12  24  36  51  72  97 126 159 195 239 289
#     4   9  18  30  46  68  97 129 157 190 237 288
#     4  11  21  34  52  73  96 125 162 201 242 287
#     4   9  15  24  42  66  93 125 158 191 228 276
#     4   9  17  33  55  73  92 122 161 203 245 288
#     4  10  19  35  55  72  94 128 164 198 241 289
#
# _framework density 17.190004999999999
#
# number of rings (size 3 to 8) (size 9 to 14) (size 15 to 20)
#    0.000    2.375    1.250    3.375    0.000    4.000 
#    0.000    1.875    0.000    0.000    0.000    0.875 
#    0.000    7.000    0.000    0.000    0.000    0.000 
#
# Total GULP energy -396579.473261 kJ/mol
# GULP energy per Si atom -12393.108539 kJ/mol
# Density = 1.715088 g / cm^3
# Si number density = 17.190005 Si / 1000 Ang^3
#
#
#
# Elastic Constant Matrix: (Units=GPa)
#
#
# Indices 1 2 3 4 5 6 
#
# 1 62.0518 23.4312 30.2436 0.0000 -17.8214 0.0000
# 2 23.4312 51.8427 28.6125 0.0000 -7.9395 0.0000
# 3 30.2436 28.6125 128.1294 0.0000 -14.5436 0.0000
# 4 0.0000 0.0000 0.0000 31.0589 0.0000 -1.6743
# 5 -17.8214 -7.9395 -14.5436 0.0000 15.2578 0.0000
# 6 0.0000 0.0000 0.0000 -1.6743 0.0000 13.8420
#
#
#
# Elastic Compliance Matrix: (Units=1/GPa)
#
#
# Indices 1 2 3 4 5 6 
#
# 1 0.027347 -0.007309 -0.001826 0.000000 0.026398 0.000000
# 2 -0.007309 0.024766 -0.003713 0.000000 0.000810 0.000000
# 3 -0.001826 -0.003713 0.009647 0.000000 0.005130 0.000000
# 4 0.000000 0.000000 0.000000 0.032408 0.000000 0.003920
# 5 0.026398 0.000810 0.005130 0.000000 0.101684 0.000000
# 6 0.000000 0.000000 0.000000 0.003920 0.000000 0.072718
#
#
# Mechanical properties :
#
#
# Convention : Reuss Voigt Hill
#
# Bulk Modulus (GPa) = 27.72956 45.17761 36.45359
# Shear Modulus (GPa) = 16.32438 22.68085 19.50261
#
# Velocity S-wave (km/s) = 3.08497 3.63632 3.37194
# Velocity P-wave (km/s) = 5.37174 6.63090 6.03426
#
# Compressibility (1/GPa) = 0.03606259
#
# Stress axis : x y z
#
# Youngs Moduli (GPa) = 36.56674 40.37761 103.65669
#
# Poissons Ratio (x) = 0.29513 0.18933
# Poissons Ratio (y) = 0.26728 0.38490
# Poissons Ratio (z) = 0.06679 0.14993
#
# Static dielectric constant tensor:
#      x y z
#    x 2.989070 0.000000 0.011030 
#    y 0.000000 3.135370 0.000000 
#    z 0.011030 0.000000 3.655720 
# 
# 
# High freq. dielectric constant tensor:
#      x y z
#    x 1.614130 0.000000 -0.000620 
#    y 0.000000 1.653810 0.000000 
#    z -0.000620 0.000000 1.681280 
# 
# From -- ./inp_files/287493.got.cif
#   From: 2010.06.25/outbox.cif.g09.slc.cpg/sg12_144_cif.got.tgz:287493.got - 2010.06.28 00:19:55.
