data_PCOD8092201
_publ_section_title
;
Structure prediction by ZEFSAII (Michael W. Deem and Ramdas Pophale) SiO2 
 PCOD8092201
Probable space group: C 2/M
;
_chemical_formula_sum "Si O2"
_cell_formula_units_Z 56
_cell_length_a 10.152753
_cell_length_b 21.372641
_cell_length_c 19.603378
_cell_angle_alpha 90.000000
_cell_angle_beta 43.217962
_cell_angle_gamma 90.000000
_cell_volume 2912.870676
_symmetry_space_group_name_H-M "C 2/M"
_symmetry_group_IT_number 12
_symmetry_cell_setting 'monoclinic'
loop_
_space_group_symop_operation_xyz
x,y,z
-x,y,-z
-x,-y,-z
x,-y,z
1/2+x,1/2+y,z
1/2-x,1/2+y,-z
1/2-x,1/2-y,-z
1/2+x,1/2-y,z
loop_
_atom_site_type_symbol
_atom_site_label
_atom_site_fract_x
_atom_site_fract_y
_atom_site_fract_z
Si Si1 0.508390 0.124397 0.918355
Si Si2 0.403283 0.624738 0.210549
Si Si3 0.391563 0.572693 0.741833
Si Si4 0.029202 0.236949 0.066692
Si Si5 0.480698 0.073466 0.586970
Si Si6 0.100335 0.926160 0.528515
Si Si7 0.622966 0.569453 0.016161
O O1 0.661748 0.080115 0.822453
O O2 0.577079 0.196156 0.886097
O O3 0.500000 0.102647 0.000000
O O4 0.300407 0.116042 0.961675
O O5 0.533529 0.620090 0.228715
O O6 0.435846 0.689594 0.157091
O O7 0.182041 0.614786 0.314942
O O8 0.477637 0.568499 0.134761
O O9 0.447009 0.500000 0.735069
O O10 0.487803 0.598113 0.636851
O O11 0.250000 0.250000 0.000000
O O12 0.000000 0.212151 0.000000
O O13 0.500000 0.090768 0.500000
O O14 0.676152 0.092392 0.551782
O O15 0.431788 0.000000 0.612681
O O16 0.000000 0.895482 0.500000
O O17 0.079448 0.000000 0.533191
O O18 0.702314 0.500000 0.972679
O O19 0.500000 0.595631 0.000000
#
# Coordination Sequence:
#
# PCOD8092201 Si02
#       7
#     8   8   8   8   8   8   8
#     4  11  22  38  61  86 114 162 206 251 294 365
#     4  12  21  35  61  89 120 160 201 250 294 365
#     4  11  21  36  62  93 121 156 202 250 311 370
#     4  11  23  43  63  84 119 164 216 249 296 359
#     4  10  19  34  59  90 122 159 202 246 307 373
#     4   9  19  36  57  85 123 156 191 245 300 364
#     4  11  23  36  53  88 130 156 187 250 318 367
#
# _framework density 19.225021000000002
#
# number of rings (size 3 to 8) (size 9 to 14) (size 15 to 20)
#    0.000    1.286    4.286    3.000    0.000    1.714 
#    0.000    2.857    0.000    1.714    0.000    0.000 
#    0.000    0.000    0.000    0.000    0.000    0.000 
#
# Total GULP energy -347100.224961 kJ/mol
# GULP energy per Si atom -12396.436606 kJ/mol
# Density = 1.918126 g / cm^3
# Si number density = 19.225021 Si / 1000 Ang^3
#
#
#
# Elastic Constant Matrix: (Units=GPa)
#
#
# Indices 1 2 3 4 5 6 
#
# 1 154.5381 29.0989 72.0776 0.0008 9.2691 0.0015
# 2 29.0989 82.4385 41.4701 0.0008 3.7933 0.0006
# 3 72.0776 41.4701 150.5809 -0.0026 -4.6607 0.0004
# 4 0.0008 0.0008 -0.0026 -27.5800 0.0008 -11.5241
# 5 9.2691 3.7933 -4.6607 0.0008 32.5539 -0.0006
# 6 0.0015 0.0006 0.0004 -11.5241 -0.0006 16.5793
#
#
#
# Elastic Compliance Matrix: (Units=1/GPa)
#
#
# Indices 1 2 3 4 5 6 
#
# 1 0.008683 -0.000921 -0.003994 0.000001 -0.002937 0.000000
# 2 -0.000921 0.014338 -0.003567 0.000001 -0.001919 0.000000
# 3 -0.003994 -0.003567 0.009626 -0.000001 0.002931 0.000000
# 4 0.000001 0.000001 -0.000001 -0.028097 0.000000 -0.019530
# 5 -0.002937 -0.001919 0.002931 0.000000 0.032198 0.000001
# 6 0.000000 0.000000 0.000000 -0.019530 0.000001 0.046741
#
#
# Mechanical properties :
#
#
# Convention : Reuss Voigt Hill
#
# Bulk Modulus (GPa) = 63.76194 74.76120 69.26157
# Shear Modulus (GPa) = 47.31290 20.63801 33.97545
#
# Velocity S-wave (km/s) = 4.96624 3.27998 4.20843
# Velocity P-wave (km/s) = 8.13159 7.30180 7.72784
#
# Compressibility (1/GPa) = 0.01568334
#
# Stress axis : x y z
#
# Youngs Moduli (GPa) = 115.16681 69.74402 103.88867
#
# Poissons Ratio (x) = 0.06422 0.41489
# Poissons Ratio (y) = 0.10605 0.37061
# Poissons Ratio (z) = 0.45993 0.24880
#
# Static dielectric constant tensor:
#      x y z
#    x 3.720560 0.000000 0.101780 
#    y 0.000000 3.370250 0.000000 
#    z 0.101780 0.000000 3.627870 
# 
# 
# High freq. dielectric constant tensor:
#      x y z
#    x 1.762780 0.000000 -0.000150 
#    y 0.000000 1.721300 0.000000 
#    z -0.000150 0.000000 1.743280 
# 
# From -- ./inp_files/259147.got.cif
#   From: 2010.06.25/outbox.cif.g09.slc.cpg/sg12_130_cif.got.tgz:259147.got - 2010.06.28 00:19:55.
