data_PCOD8092953
_publ_section_title
;
Structure prediction by ZEFSAII (Michael W. Deem and Ramdas Pophale) SiO2 
 PCOD8092953
Probable space group: C 2/M
;
_chemical_formula_sum "Si O2"
_cell_formula_units_Z 64
_cell_length_a 16.701446
_cell_length_b 21.792827
_cell_length_c 16.129500
_cell_angle_alpha 90.000000
_cell_angle_beta 148.207826
_cell_angle_gamma 90.000000
_cell_volume 3092.908322
_symmetry_space_group_name_H-M "C 2/M"
_symmetry_group_IT_number 12
_symmetry_cell_setting 'monoclinic'
loop_
_space_group_symop_operation_xyz
x,y,z
-x,y,-z
-x,-y,-z
x,-y,z
1/2+x,1/2+y,z
1/2-x,1/2+y,-z
1/2-x,1/2-y,-z
1/2+x,1/2-y,z
loop_
_atom_site_type_symbol
_atom_site_label
_atom_site_fract_x
_atom_site_fract_y
_atom_site_fract_z
Si Si1 0.390819 0.317033 0.483018
Si Si2 0.570898 0.245039 0.761933
Si Si3 0.942270 0.283671 0.826385
Si Si4 0.439120 0.354427 0.860411
Si Si5 0.281702 0.139357 0.930926
Si Si6 0.035201 0.067183 0.627594
Si Si7 0.669512 0.929441 0.674098
Si Si8 0.755186 0.375735 0.086739
O O1 0.500000 0.319203 0.500000
O O2 0.437240 0.257777 0.577672
O O3 0.217618 0.317322 0.303902
O O4 0.419311 0.380768 0.559933
O O5 0.484143 0.226143 0.768018
O O6 0.671600 0.305379 0.862444
O O7 0.682003 0.191011 0.829485
O O8 0.921958 0.218719 0.852813
O O9 0.068774 0.329026 0.978460
O O10 0.276952 0.388215 0.707891
O O11 0.500000 0.380466 0.000000
O O12 0.570870 0.373263 0.911513
O O13 0.206144 0.092554 0.798622
O O14 0.319992 0.104975 0.052706
O O15 0.000000 0.059535 0.500000
O O16 0.014041 0.000000 0.651205
O O17 0.500000 0.910278 0.500000
O O18 0.694014 0.920943 0.794877
O O19 0.701853 0.000000 0.681002
#
# Coordination Sequence:
#
# PCOD8092953 Si02
#       8
#     8   8   8   8   8   8   8   8
#     4  10  23  34  56  88 121 154 195 237 293 365
#     4  10  19  36  56  86 123 158 186 244 309 366
#     4  11  20  35  57  91 125 151 188 251 308 368
#     4  10  21  32  57  84 113 153 198 248 300 354
#     4  10  19  37  62  88 119 150 197 246 311 358
#     4   9  20  41  61  80 112 153 193 240 295 355
#     4  10  24  42  56  79 121 168 214 256 292 346
#     4  10  19  35  58  86 114 155 195 247 299 360
#
# _framework density 20.692499999999999
#
# number of rings (size 3 to 8) (size 9 to 14) (size 15 to 20)
#    0.000    2.000    2.500    1.125    5.250    3.750 
#    0.000    0.625    0.000    4.500    0.000    0.000 
#    0.000    0.000    0.000    0.000    0.000    0.000 
#
# Total GULP energy -396450.106409 kJ/mol
# GULP energy per Si atom -12389.065825 kJ/mol
# Density = 2.064540 g / cm^3
# Si number density = 20.692500 Si / 1000 Ang^3
#
#
#
# Elastic Constant Matrix: (Units=GPa)
#
#
# Indices 1 2 3 4 5 6 
#
# 1 54.8572 28.1431 34.4778 0.0000 17.3084 0.0000
# 2 28.1431 100.7305 56.9619 0.0000 12.1908 0.0000
# 3 34.4778 56.9619 140.2912 0.0000 21.1611 0.0000
# 4 0.0000 0.0000 0.0000 27.8245 0.0000 1.4206
# 5 17.3084 12.1908 21.1611 0.0000 35.2255 0.0000
# 6 0.0000 0.0000 0.0000 1.4206 0.0000 16.8058
#
#
#
# Elastic Compliance Matrix: (Units=1/GPa)
#
#
# Indices 1 2 3 4 5 6 
#
# 1 0.025195 -0.004172 -0.003132 0.000000 -0.009054 0.000000
# 2 -0.004172 0.013645 -0.004521 0.000000 0.000044 0.000000
# 3 -0.003132 -0.004521 0.010189 0.000000 -0.003017 0.000000
# 4 0.000000 0.000000 0.000000 0.036095 0.000000 -0.003051
# 5 -0.009054 0.000044 -0.003017 0.000000 0.034635 0.000000
# 6 0.000000 0.000000 0.000000 -0.003051 0.000000 0.059761
#
#
# Mechanical properties :
#
#
# Convention : Reuss Voigt Hill
#
# Bulk Modulus (GPa) = 39.40616 59.44939 49.42778
# Shear Modulus (GPa) = 23.62621 27.72424 25.67522
#
# Velocity S-wave (km/s) = 3.38268 3.66433 3.52632
# Velocity P-wave (km/s) = 5.86019 6.83340 6.36542
#
# Compressibility (1/GPa) = 0.02537674
#
# Stress axis : x y z
#
# Youngs Moduli (GPa) = 39.69045 73.28908 98.14880
#
# Poissons Ratio (x) = 0.30578 0.30741
# Poissons Ratio (y) = 0.16560 0.44376
# Poissons Ratio (z) = 0.12432 0.33136
#
# Static dielectric constant tensor:
#      x y z
#    x 3.595310 0.000000 0.075570 
#    y 0.000000 4.034920 0.000000 
#    z 0.075570 0.000000 4.026390 
# 
# 
# High freq. dielectric constant tensor:
#      x y z
#    x 1.788420 0.000000 -0.002710 
#    y 0.000000 1.792500 0.000000 
#    z -0.002710 0.000000 1.816800 
# 
# From -- ./inp_files/279144.got.cif
#   From: 2010.06.25/outbox.cif.g09.slc.cpg/sg12_140_cif.got.tgz:279144.got - 2010.06.28 00:19:55.
