data_PCOD8092590
_publ_section_title
;
Structure prediction by ZEFSAII (Michael W. Deem and Ramdas Pophale) SiO2 
 PCOD8092590
Probable space group: C 2/M
;
_chemical_formula_sum "Si O2"
_cell_formula_units_Z 64
_cell_length_a 23.837577
_cell_length_b 8.935491
_cell_length_c 30.988707
_cell_angle_alpha 90.000000
_cell_angle_beta 149.930447
_cell_angle_gamma 90.000000
_cell_volume 3307.241083
_symmetry_space_group_name_H-M "C 2/M"
_symmetry_group_IT_number 12
_symmetry_cell_setting 'monoclinic'
loop_
_space_group_symop_operation_xyz
x,y,z
-x,y,-z
-x,-y,-z
x,-y,z
1/2+x,1/2+y,z
1/2-x,1/2+y,-z
1/2-x,1/2-y,-z
1/2+x,1/2-y,z
loop_
_atom_site_type_symbol
_atom_site_label
_atom_site_fract_x
_atom_site_fract_y
_atom_site_fract_z
Si Si1 0.825468 0.327061 0.112833
Si Si2 0.578266 0.326749 0.740217
Si Si3 0.905014 0.171517 0.082725
Si Si4 0.153154 0.173442 0.229300
Si Si5 0.174728 0.171307 0.714744
Si Si6 0.226354 0.827667 0.371825
Si Si7 0.652411 0.822498 0.406865
Si Si8 0.984475 0.671085 0.538059
O O1 0.851360 0.500000 0.139974
O O2 0.861502 0.227067 0.176645
O O3 0.895259 0.278982 0.117317
O O4 0.693851 0.298195 0.017087
O O5 0.543789 0.500000 0.721899
O O6 0.668026 0.303647 0.761643
O O7 0.467500 0.231504 0.655590
O O8 0.021515 0.206721 0.136442
O O9 0.901389 0.000000 0.096767
O O10 0.216094 0.248886 0.231410
O O11 0.197533 0.233973 0.304979
O O12 0.181871 0.000000 0.245803
O O13 0.058974 0.229778 0.618501
O O14 0.185898 0.000000 0.709583
O O15 0.160518 0.727422 0.362402
O O16 0.357364 0.812150 0.468637
O O17 0.186949 0.000000 0.350185
O O18 0.750000 0.750000 0.500000
O O19 0.661025 0.000000 0.416618
O O20 0.025862 0.500000 0.568298
O O21 0.000000 0.730783 0.500000
#
# Coordination Sequence:
#
# PCOD8092590 Si02
#       8
#     8   8   8   8   8   8   8   8
#     4  10  20  36  61  93 119 148 191 235 285 344
#     4  11  24  42  60  81 114 157 198 237 289 343
#     4   9  19  36  61  91 122 151 183 231 290 348
#     4  10  20  37  59  83 113 150 187 229 284 343
#     4  11  24  38  55  81 112 149 194 243 288 335
#     4  10  20  35  58  85 114 149 189 233 284 343
#     4  12  25  40  59  85 116 151 191 238 287 340
#     4  10  19  35  56  80 109 148 192 228 275 341
#
# _framework density 19.351476000000002
#
# number of rings (size 3 to 8) (size 9 to 14) (size 15 to 20)
#    0.000    1.625    1.250    3.750    0.000    7.250 
#    0.000    0.625    0.000    3.750    0.000    0.000 
#    0.000    0.000    0.000    0.000    0.000    0.000 
#
# Total GULP energy -396942.881458 kJ/mol
# GULP energy per Si atom -12404.465046 kJ/mol
# Density = 1.930743 g / cm^3
# Si number density = 19.351476 Si / 1000 Ang^3
#
#
#
# Elastic Constant Matrix: (Units=GPa)
#
#
# Indices 1 2 3 4 5 6 
#
# 1 105.4618 55.1348 45.4812 0.0002 8.7582 -0.0006
# 2 55.1348 100.6134 41.2479 0.0016 2.0499 -0.0015
# 3 45.4812 41.2479 98.9523 -0.0001 7.8191 0.0001
# 4 0.0002 0.0016 -0.0001 27.5972 -0.0003 -1.3257
# 5 8.7582 2.0499 7.8191 -0.0003 28.9291 -0.0001
# 6 -0.0006 -0.0015 0.0001 -1.3257 -0.0001 33.6407
#
#
#
# Elastic Compliance Matrix: (Units=1/GPa)
#
#
# Indices 1 2 3 4 5 6 
#
# 1 0.014766 -0.006446 -0.003865 0.000000 -0.002969 0.000000
# 2 -0.006446 0.014809 -0.003353 -0.000001 0.001809 0.000001
# 3 -0.003865 -0.003353 0.013456 0.000000 -0.002229 0.000000
# 4 0.000000 -0.000001 0.000000 0.036304 0.000000 0.001431
# 5 -0.002969 0.001809 -0.002229 0.000000 0.035941 0.000000
# 6 0.000000 0.000001 0.000000 0.001431 0.000000 0.029782
#
#
# Mechanical properties :
#
#
# Convention : Reuss Voigt Hill
#
# Bulk Modulus (GPa) = 63.68542 65.41726 64.55134
# Shear Modulus (GPa) = 28.14976 28.91096 28.53036
#
# Velocity S-wave (km/s) = 3.81813 3.86941 3.84386
# Velocity P-wave (km/s) = 7.24009 7.33766 7.28904
#
# Compressibility (1/GPa) = 0.01570218
#
# Stress axis : x y z
#
# Youngs Moduli (GPa) = 67.72524 67.52457 74.31497
#
# Poissons Ratio (x) = 0.43529 0.28722
# Poissons Ratio (y) = 0.43658 0.24920
# Poissons Ratio (z) = 0.26175 0.22643
#
# Static dielectric constant tensor:
#      x y z
#    x 3.580980 0.000000 0.061500 
#    y 0.000000 3.534050 0.000000 
#    z 0.061500 0.000000 3.524640 
# 
# 
# High freq. dielectric constant tensor:
#      x y z
#    x 1.755840 0.000000 0.005850 
#    y 0.000000 1.752590 0.000000 
#    z 0.005850 0.000000 1.750740 
# 
# From -- ./inp_files/382480.got.cif
#   From: 2010.06.25/outbox.cif.g09.slc.cpg/sg12_192_cif.got.tgz:382480.got - 2010.06.28 00:19:55.
