data_PCOD8092762
_publ_section_title
;
Structure prediction by ZEFSAII (Michael W. Deem and Ramdas Pophale) SiO2 
 PCOD8092762
Probable space group: C 2/M
;
_chemical_formula_sum "Si O2"
_cell_formula_units_Z 64
_cell_length_a 30.341891
_cell_length_b 8.778001
_cell_length_c 22.766333
_cell_angle_alpha 90.000000
_cell_angle_beta 148.042574
_cell_angle_gamma 90.000000
_cell_volume 3209.402583
_symmetry_space_group_name_H-M "C 2/M"
_symmetry_group_IT_number 12
_symmetry_cell_setting 'monoclinic'
loop_
_space_group_symop_operation_xyz
x,y,z
-x,y,-z
-x,-y,-z
x,-y,z
1/2+x,1/2+y,z
1/2-x,1/2+y,-z
1/2-x,1/2-y,-z
1/2+x,1/2-y,z
loop_
_atom_site_type_symbol
_atom_site_label
_atom_site_fract_x
_atom_site_fract_y
_atom_site_fract_z
Si Si1 0.384615 0.675264 0.500045
Si Si2 0.415565 0.678978 0.873115
Si Si3 0.952810 0.325754 0.793874
Si Si4 0.833489 0.176002 0.572407
Si Si5 0.251267 0.181834 0.742350
Si Si6 0.434902 0.318922 0.268245
Si Si7 0.886497 0.674938 0.092210
Si Si8 0.775009 0.818816 0.156003
O O1 0.397871 0.500000 0.499206
O O2 0.335650 0.695707 0.505238
O O3 0.326044 0.748349 0.383482
O O4 0.476968 0.750172 0.608994
O O5 0.402472 0.500000 0.864099
O O6 0.422078 0.722948 0.812518
O O7 0.338565 0.760931 0.816446
O O8 0.500000 0.734051 0.000000
O O9 0.927635 0.500000 0.778414
O O10 0.909806 0.267758 0.686021
O O11 0.051144 0.309995 0.892821
O O12 0.750000 0.250000 0.500000
O O13 0.838567 0.000000 0.596837
O O14 0.238020 0.244884 0.793161
O O15 0.252785 0.000000 0.741544
O O16 0.439426 0.500000 0.273228
O O17 0.417281 0.271729 0.181824
O O18 0.362516 0.258257 0.229446
O O19 0.879613 0.500000 0.104684
O O20 0.798275 0.739963 0.969695
O O21 0.772964 0.000000 0.155457
#
# Coordination Sequence:
#
# PCOD8092762 Si02
#       8
#     8   8   8   8   8   8   8   8
#     4   9  19  34  55  82 113 147 188 234 281 337
#     4  11  24  40  58  84 116 150 191 238 289 348
#     4  11  22  36  57  83 112 150 192 234 288 346
#     4  11  21  35  54  81 115 149 191 238 286 343
#     4  10  20  38  60  83 114 152 192 237 285 342
#     4  10  19  35  57  83 114 149 188 235 292 343
#     4  10  20  35  54  83 116 146 189 238 287 348
#     4   9  19  34  57  85 112 146 191 240 288 342
#
# _framework density 19.941407000000002
#
# number of rings (size 3 to 8) (size 9 to 14) (size 15 to 20)
#    0.000    1.875    1.250    3.000    0.000    4.000 
#    0.000    5.000    0.000    0.000    0.000    1.750 
#    0.000    0.000    0.000    0.000    0.000    0.000 
#
# Total GULP energy -396815.795634 kJ/mol
# GULP energy per Si atom -12400.493614 kJ/mol
# Density = 1.989602 g / cm^3
# Si number density = 19.941407 Si / 1000 Ang^3
#
#
#
# Elastic Constant Matrix: (Units=GPa)
#
#
# Indices 1 2 3 4 5 6 
#
# 1 121.8198 17.7961 64.9268 0.0000 9.6203 0.0000
# 2 17.7961 26.4313 22.4060 0.0000 6.1148 0.0000
# 3 64.9268 22.4060 164.1414 0.0000 8.5475 0.0000
# 4 0.0000 0.0000 0.0000 24.6670 0.0000 -1.2250
# 5 9.6203 6.1148 8.5475 0.0000 38.8332 0.0000
# 6 0.0000 0.0000 0.0000 -1.2250 0.0000 19.5207
#
#
#
# Elastic Compliance Matrix: (Units=1/GPa)
#
#
# Indices 1 2 3 4 5 6 
#
# 1 0.010844 -0.003877 -0.003694 0.000000 -0.001263 0.000000
# 2 -0.003877 0.045371 -0.004388 0.000000 -0.005218 0.000000
# 3 -0.003694 -0.004388 0.008163 0.000000 -0.000190 0.000000
# 4 0.000000 0.000000 0.000000 0.040667 0.000000 0.002552
# 5 -0.001263 -0.005218 -0.000190 0.000000 0.026928 0.000000
# 6 0.000000 0.000000 0.000000 0.002552 0.000000 0.051388
#
#
# Mechanical properties :
#
#
# Convention : Reuss Voigt Hill
#
# Bulk Modulus (GPa) = 24.71664 58.07225 41.39444
# Shear Modulus (GPa) = 22.64847 30.42177 26.53512
#
# Velocity S-wave (km/s) = 3.37375 3.91008 3.65177
# Velocity P-wave (km/s) = 5.25336 7.04057 6.21158
#
# Compressibility (1/GPa) = 0.04045857
#
# Stress axis : x y z
#
# Youngs Moduli (GPa) = 92.21700 22.04028 122.51116
#
# Poissons Ratio (x) = 0.08546 0.45260
# Poissons Ratio (y) = 0.35756 0.53758
# Poissons Ratio (z) = 0.34068 0.09671
#
# Static dielectric constant tensor:
#      x y z
#    x 3.675020 0.000000 0.116870 
#    y 0.000000 3.368470 0.000000 
#    z 0.116870 0.000000 4.188400 
# 
# 
# High freq. dielectric constant tensor:
#      x y z
#    x 1.784480 0.000000 0.005880 
#    y 0.000000 1.745380 0.000000 
#    z 0.005880 0.000000 1.795670 
# 
# From -- ./inp_files/353461.got.cif
#   From: 2010.06.25/outbox.cif.g09.slc.cpg/sg12_177_cif.got.tgz:353461.got - 2010.06.28 00:19:55.
