data_PCOD8092675
_publ_section_title
;
Structure prediction by ZEFSAII (Michael W. Deem and Ramdas Pophale) SiO2 
 PCOD8092675
Probable space group: C 2/M
;
_chemical_formula_sum "Si O2"
_cell_formula_units_Z 64
_cell_length_a 20.799621
_cell_length_b 8.850391
_cell_length_c 24.553977
_cell_angle_alpha 90.000000
_cell_angle_beta 132.422977
_cell_angle_gamma 90.000000
_cell_volume 3336.605515
_symmetry_space_group_name_H-M "C 2/M"
_symmetry_group_IT_number 12
_symmetry_cell_setting 'monoclinic'
loop_
_space_group_symop_operation_xyz
x,y,z
-x,y,-z
-x,-y,-z
x,-y,z
1/2+x,1/2+y,z
1/2-x,1/2+y,-z
1/2-x,1/2-y,-z
1/2+x,1/2-y,z
loop_
_atom_site_type_symbol
_atom_site_label
_atom_site_fract_x
_atom_site_fract_y
_atom_site_fract_z
Si Si1 0.234844 0.177004 0.138108
Si Si2 0.486853 0.668647 0.341449
Si Si3 0.312639 0.824390 0.688031
Si Si4 0.391248 0.668939 0.175918
Si Si5 0.309293 0.321046 0.285069
Si Si6 0.673696 0.680444 0.421330
Si Si7 0.004746 0.674541 0.154544
Si Si8 0.060540 0.166232 0.984132
O O1 0.315143 0.214338 0.145068
O O2 0.244786 0.256185 0.202430
O O3 0.228157 0.000000 0.145333
O O4 0.150780 0.236803 0.057617
O O5 0.498252 0.500000 0.370578
O O6 0.461287 0.670532 0.263896
O O7 0.408798 0.744845 0.333237
O O8 0.583021 0.745236 0.396235
O O9 0.227720 0.781295 0.676200
O O10 0.313653 0.727222 0.634041
O O11 0.396666 0.786751 0.772459
O O12 0.309625 0.000000 0.669961
O O13 0.353582 0.500000 0.146507
O O14 0.437683 0.721783 0.148259
O O15 0.311860 0.500000 0.276585
O O16 0.675117 0.500000 0.424803
O O17 0.750000 0.750000 0.500000
O O18 0.984399 0.500000 0.153921
O O19 0.988377 0.715809 0.082737
O O20 0.075684 0.000000 0.965279
O O21 0.000000 0.140317 0.000000
#
# Coordination Sequence:
#
# PCOD8092675 Si02
#       8
#     8   8   8   8   8   8   8   8
#     4  10  20  34  53  80 111 143 187 238 283 326
#     4   8  16  33  57  82 107 143 187 222 264 330
#     4  10  21  37  58  87 117 144 183 235 282 333
#     4  10  19  35  57  79 105 144 187 227 277 337
#     4   9  18  35  59  84 112 149 190 229 278 337
#     4  11  22  38  60  86 115 148 186 227 277 335
#     4  11  22  34  54  83 111 140 182 235 286 329
#     4  10  22  38  53  72 105 149 190 228 279 342
#
# _framework density 19.181170000000002
#
# number of rings (size 3 to 8) (size 9 to 14) (size 15 to 20)
#    0.000    2.125    1.250    3.000    0.000    2.750 
#    0.000    1.250    0.000    3.750    0.000    0.000 
#    0.000    0.000    0.000    0.000    0.000    0.000 
#
# Total GULP energy -396618.134696 kJ/mol
# GULP energy per Si atom -12394.316709 kJ/mol
# Density = 1.913751 g / cm^3
# Si number density = 19.181170 Si / 1000 Ang^3
#
#
#
# Elastic Constant Matrix: (Units=GPa)
#
#
# Indices 1 2 3 4 5 6 
#
# 1 118.3827 31.7754 59.1567 0.0000 5.8683 0.0000
# 2 31.7754 52.7328 37.9993 0.0000 2.0104 0.0000
# 3 59.1567 37.9993 106.0942 0.0000 20.0368 0.0000
# 4 0.0000 0.0000 0.0000 31.1403 0.0000 -3.7701
# 5 5.8683 2.0104 20.0368 0.0000 23.9796 0.0000
# 6 0.0000 0.0000 0.0000 -3.7701 0.0000 27.1903
#
#
#
# Elastic Compliance Matrix: (Units=1/GPa)
#
#
# Indices 1 2 3 4 5 6 
#
# 1 0.012232 -0.002987 -0.006213 0.000000 0.002448 0.000000
# 2 -0.002987 0.027184 -0.009236 0.000000 0.006169 0.000000
# 3 -0.006213 -0.009236 0.018718 0.000000 -0.013346 0.000000
# 4 0.000000 0.000000 0.000000 0.032661 0.000000 0.004529
# 5 0.002448 0.006169 -0.013346 0.000000 0.051737 0.000000
# 6 0.000000 0.000000 0.000000 0.004529 0.000000 0.037406
#
#
# Mechanical properties :
#
#
# Convention : Reuss Voigt Hill
#
# Bulk Modulus (GPa) = 47.03155 59.45249 53.24202
# Shear Modulus (GPa) = 22.33166 26.34726 24.33946
#
# Velocity S-wave (km/s) = 3.41581 3.71023 3.56606
# Velocity P-wave (km/s) = 6.33482 7.02972 6.69129
#
# Compressibility (1/GPa) = 0.02126232
#
# Stress axis : x y z
#
# Youngs Moduli (GPa) = 81.75064 36.78701 53.42353
#
# Poissons Ratio (x) = 0.10988 0.33193
# Poissons Ratio (y) = 0.24419 0.49341
# Poissons Ratio (z) = 0.50793 0.33976
#
# Static dielectric constant tensor:
#      x y z
#    x 3.925700 0.000000 0.317320 
#    y 0.000000 3.422370 0.000000 
#    z 0.317320 0.000000 3.481720 
# 
# 
# High freq. dielectric constant tensor:
#      x y z
#    x 1.760000 0.000000 0.009230 
#    y 0.000000 1.732470 0.000000 
#    z 0.009230 0.000000 1.728470 
# 
# From -- ./inp_files/346263.got.cif
#   From: 2010.06.25/outbox.cif.g09.slc.cpg/sg12_174_cif.got.tgz:346263.got - 2010.06.28 00:19:55.
