data_PCOD8092020
_publ_section_title
;
Structure prediction by ZEFSAII (Michael W. Deem and Ramdas Pophale) SiO2 
 PCOD8092020
Probable space group: C 2/M
;
_chemical_formula_sum "Si O2"
_cell_formula_units_Z 64
_cell_length_a 14.928755
_cell_length_b 9.118114
_cell_length_c 27.792594
_cell_angle_alpha 90.000000
_cell_angle_beta 121.064308
_cell_angle_gamma 90.000000
_cell_volume 3240.634320
_symmetry_space_group_name_H-M "C 2/M"
_symmetry_group_IT_number 12
_symmetry_cell_setting 'monoclinic'
loop_
_space_group_symop_operation_xyz
x,y,z
-x,y,-z
-x,-y,-z
x,-y,z
1/2+x,1/2+y,z
1/2-x,1/2+y,-z
1/2-x,1/2-y,-z
1/2+x,1/2-y,z
loop_
_atom_site_type_symbol
_atom_site_label
_atom_site_fract_x
_atom_site_fract_y
_atom_site_fract_z
Si Si1 0.758171 0.832604 0.642661
Si Si2 0.525449 0.673649 0.863352
Si Si3 0.780668 0.171426 0.147262
Si Si4 0.830052 0.173677 0.557535
Si Si5 0.540176 0.831715 0.620586
Si Si6 0.544826 0.171662 0.064143
Si Si7 0.104070 0.333474 0.742594
Si Si8 0.097715 0.667933 0.248528
O O1 0.801859 0.777356 0.603861
O O2 0.632241 0.819264 0.606747
O O3 0.800474 0.734597 0.698031
O O4 0.792895 0.000000 0.661779
O O5 0.512293 0.500000 0.860992
O O6 0.635637 0.721713 0.869921
O O7 0.522914 0.737981 0.916221
O O8 0.428784 0.743049 0.807138
O O9 0.665997 0.220427 0.098610
O O10 0.805481 0.242636 0.205814
O O11 0.788186 0.000000 0.157304
O O12 0.750000 0.250000 0.500000
O O13 0.945747 0.229971 0.576974
O O14 0.823536 0.000000 0.548983
O O15 0.585889 0.773512 0.683945
O O16 0.501126 0.000000 0.615035
O O17 0.532058 0.000000 0.071801
O O18 0.500000 0.213452 0.000000
O O19 0.143128 0.500000 0.751916
O O20 0.995868 0.315359 0.740136
O O21 0.119313 0.500000 0.240300
#
# Coordination Sequence:
#
# PCOD8092020 Si02
#       8
#     8   8   8   8   8   8   8   8
#     4  10  22  38  59  88 119 153 192 238 293 344
#     4  10  21  37  57  83 115 150 192 239 287 342
#     4   9  20  37  56  81 114 152 190 235 288 344
#     4  11  24  42  63  86 117 158 200 243 291 342
#     4  10  21  39  60  86 118 152 192 237 290 346
#     4  10  22  40  59  82 115 154 196 241 292 348
#     4   9  18  33  56  85 116 149 185 232 287 344
#     4  10  19  34  58  87 118 151 189 234 288 346
#
# _framework density 19.749220000000001
#
# number of rings (size 3 to 8) (size 9 to 14) (size 15 to 20)
#    0.000    2.125    1.250    1.125    1.750    4.250 
#    0.000    2.500    0.000    0.000    0.000    0.000 
#    0.000    0.000    0.000    0.000    0.000    0.000 
#
# Total GULP energy -396923.260074 kJ/mol
# GULP energy per Si atom -12403.851877 kJ/mol
# Density = 1.970427 g / cm^3
# Si number density = 19.749220 Si / 1000 Ang^3
#
#
#
# Elastic Constant Matrix: (Units=GPa)
#
#
# Indices 1 2 3 4 5 6 
#
# 1 52.9040 22.3778 23.1644 0.0000 11.4905 0.0000
# 2 22.3778 62.2709 37.3217 0.0000 5.7175 0.0000
# 3 23.1644 37.3217 106.3450 0.0000 17.6796 0.0000
# 4 0.0000 0.0000 0.0000 37.1928 0.0000 -0.7370
# 5 11.4905 5.7175 17.6796 0.0000 28.4072 0.0000
# 6 0.0000 0.0000 0.0000 -0.7370 0.0000 26.4316
#
#
#
# Elastic Compliance Matrix: (Units=1/GPa)
#
#
# Indices 1 2 3 4 5 6 
#
# 1 0.024182 -0.007080 -0.001554 0.000000 -0.007389 0.000000
# 2 -0.007080 0.022413 -0.006748 0.000000 0.002552 0.000000
# 3 -0.001554 -0.006748 0.013139 0.000000 -0.006191 0.000000
# 4 0.000000 0.000000 0.000000 0.026902 0.000000 0.000750
# 5 -0.007389 0.002552 -0.006191 0.000000 0.041530 0.000000
# 6 0.000000 0.000000 0.000000 0.000750 0.000000 0.037854
#
#
# Mechanical properties :
#
#
# Convention : Reuss Voigt Hill
#
# Bulk Modulus (GPa) = 34.51848 43.02749 38.77299
# Shear Modulus (GPa) = 24.21974 27.65006 25.93490
#
# Velocity S-wave (km/s) = 3.50575 3.74579 3.62776
# Velocity P-wave (km/s) = 5.82266 6.36728 6.10105
#
# Compressibility (1/GPa) = 0.02896999
#
# Stress axis : x y z
#
# Youngs Moduli (GPa) = 41.35224 44.61647 76.10767
#
# Poissons Ratio (x) = 0.31590 0.11829
# Poissons Ratio (y) = 0.29278 0.51358
# Poissons Ratio (z) = 0.06427 0.30107
#
# Static dielectric constant tensor:
#      x y z
#    x 3.696300 0.000000 0.004450 
#    y 0.000000 3.534420 0.000000 
#    z 0.004450 0.000000 3.537170 
# 
# 
# High freq. dielectric constant tensor:
#      x y z
#    x 1.774670 0.000000 0.000710 
#    y 0.000000 1.765260 0.000000 
#    z 0.000710 0.000000 1.764140 
# 
# From -- ./inp_files/314075.got.cif
#   From: 2010.06.25/outbox.cif.g09.slc.cpg/sg12_158_cif.got.tgz:314075.got - 2010.06.28 00:19:55.
