data_PCOD8092506
_publ_section_title
;
Structure prediction by ZEFSAII (Michael W. Deem and Ramdas Pophale) SiO2 
 PCOD8092506
Probable space group: C 2/M
;
_chemical_formula_sum "Si O2"
_cell_formula_units_Z 48
_cell_length_a 23.809335
_cell_length_b 19.779071
_cell_length_c 8.227659
_cell_angle_alpha 90.000000
_cell_angle_beta 36.233614
_cell_angle_gamma 90.000000
_cell_volume 2290.208177
_symmetry_space_group_name_H-M "C 2/M"
_symmetry_group_IT_number 12
_symmetry_cell_setting 'monoclinic'
loop_
_space_group_symop_operation_xyz
x,y,z
-x,y,-z
-x,-y,-z
x,-y,z
1/2+x,1/2+y,z
1/2-x,1/2+y,-z
1/2-x,1/2-y,-z
1/2+x,1/2-y,z
loop_
_atom_site_type_symbol
_atom_site_label
_atom_site_fract_x
_atom_site_fract_y
_atom_site_fract_z
Si Si1 0.706962 0.854282 0.062838
Si Si2 0.129567 0.421113 0.791991
Si Si3 0.777991 0.772414 0.188446
Si Si4 0.106981 0.206179 0.767111
Si Si5 0.685196 0.577758 0.453218
Si Si6 0.941968 0.579925 0.384081
O O1 0.765049 0.830370 0.084904
O O2 0.604991 0.885430 0.349443
O O3 0.685517 0.794952 0.985915
O O4 0.773533 0.911542 0.824108
O O5 0.111689 0.500000 0.840250
O O6 0.232904 0.400629 0.610254
O O7 0.119318 0.397520 0.630755
O O8 0.048668 0.391747 0.102844
O O9 0.859135 0.796410 0.124669
O O10 0.676854 0.757383 0.510213
O O11 0.103681 0.131367 0.690138
O O12 0.000000 0.234717 0.000000
O O13 0.651131 0.500000 0.552945
O O14 0.939275 0.500000 0.420265
#
# Coordination Sequence:
#
# PCOD8092506 Si02
#       6
#     8   8   8   8   8   8
#     4  10  19  35  55  81 120 151 181 235 285 342
#     4   8  16  30  47  75 115 151 184 224 265 333
#     4   9  21  41  57  82 114 148 193 233 285 331
#     4  10  21  42  65  81 109 148 195 247 274 327
#     4  10  20  35  57  84 115 148 185 233 290 339
#     4   9  16  29  50  79 114 151 190 228 280 338
#
# _framework density 20.958793
#
# number of rings (size 3 to 8) (size 9 to 14) (size 15 to 20)
#    0.000    2.667    0.000    2.500    0.000    1.000 
#   15.000   10.000    0.000    1.000    0.000    0.000 
#    0.000    0.000    0.000    0.000    0.000    0.000 
#
# Total GULP energy -297505.163242 kJ/mol
# GULP energy per Si atom -12396.048468 kJ/mol
# Density = 2.091109 g / cm^3
# Si number density = 20.958793 Si / 1000 Ang^3
#
#
#
# Elastic Constant Matrix: (Units=GPa)
#
#
# Indices 1 2 3 4 5 6 
#
# 1 41.2361 14.0014 21.5894 0.0000 4.7334 0.0000
# 2 14.0014 54.1407 11.6640 0.0000 -0.3502 0.0000
# 3 21.5894 11.6640 89.2660 0.0000 2.3511 0.0000
# 4 0.0000 0.0000 0.0000 26.3389 0.0000 6.6074
# 5 4.7334 -0.3502 2.3511 0.0000 30.4524 0.0000
# 6 0.0000 0.0000 0.0000 6.6074 0.0000 23.8077
#
#
#
# Elastic Compliance Matrix: (Units=1/GPa)
#
#
# Indices 1 2 3 4 5 6 
#
# 1 0.030276 -0.006487 -0.006362 0.000000 -0.004289 0.000000
# 2 -0.006487 0.020400 -0.001132 0.000000 0.001330 0.000000
# 3 -0.006362 -0.001132 0.012890 0.000000 -0.000019 0.000000
# 4 0.000000 0.000000 0.000000 0.040808 0.000000 -0.011325
# 5 -0.004289 0.001330 -0.000019 0.000000 0.033522 0.000000
# 6 0.000000 0.000000 0.000000 -0.011325 0.000000 0.045146
#
#
# Mechanical properties :
#
#
# Convention : Reuss Voigt Hill
#
# Bulk Modulus (GPa) = 28.08588 31.01693 29.55141
# Shear Modulus (GPa) = 22.43442 25.27901 23.85672
#
# Velocity S-wave (km/s) = 3.27526 3.47670 3.37748
# Velocity P-wave (km/s) = 5.26618 5.56307 5.41666
#
# Compressibility (1/GPa) = 0.03560508
#
# Stress axis : x y z
#
# Youngs Moduli (GPa) = 33.02902 49.01859 77.58244
#
# Poissons Ratio (x) = 0.31798 0.49357
# Poissons Ratio (y) = 0.21426 0.08780
# Poissons Ratio (z) = 0.21013 0.05548
#
# Static dielectric constant tensor:
#      x y z
#    x 16.662330 0.000000 -4.076880 
#    y 0.000000 3.702820 0.000000 
#    z -4.076880 0.000000 5.145080 
# 
# 
# High freq. dielectric constant tensor:
#      x y z
#    x 1.809620 0.000000 0.021730 
#    y 0.000000 1.820140 0.000000 
#    z 0.021730 0.000000 1.809930 
# 
# From -- ./inp_files/106510.got.cif
#   From: 2010.06.25/outbox.cif.g09.slc.cpg/sg12_54_cif.got.tgz:106510.got - 2010.06.28 00:19:55.
