data_PCOD8092833
_publ_section_title
;
Structure prediction by ZEFSAII (Michael W. Deem and Ramdas Pophale) SiO2 
 PCOD8092833
Probable space group: C 2/M
;
_chemical_formula_sum "Si O2"
_cell_formula_units_Z 64
_cell_length_a 18.972160
_cell_length_b 9.096830
_cell_length_c 30.519946
_cell_angle_alpha 90.000000
_cell_angle_beta 141.556274
_cell_angle_gamma 90.000000
_cell_volume 3274.940380
_symmetry_space_group_name_H-M "C 2/M"
_symmetry_group_IT_number 12
_symmetry_cell_setting 'monoclinic'
loop_
_space_group_symop_operation_xyz
x,y,z
-x,y,-z
-x,-y,-z
x,-y,z
1/2+x,1/2+y,z
1/2-x,1/2+y,-z
1/2-x,1/2-y,-z
1/2+x,1/2-y,z
loop_
_atom_site_type_symbol
_atom_site_label
_atom_site_fract_x
_atom_site_fract_y
_atom_site_fract_z
Si Si1 0.901743 0.666563 0.331560
Si Si2 0.629671 0.325612 0.938611
Si Si3 0.544709 0.672352 0.070114
Si Si4 0.846186 0.828932 0.655205
Si Si5 0.610561 0.825407 0.577909
Si Si6 0.849666 0.336020 0.571470
Si Si7 0.785096 0.175646 0.194682
Si Si8 0.437096 0.328589 0.188605
O O1 0.856420 0.500000 0.301467
O O2 0.866706 0.731568 0.361758
O O3 0.853109 0.770733 0.270371
O O4 0.037712 0.664370 0.402597
O O5 0.645509 0.500000 0.946794
O O6 0.548406 0.277565 0.939204
O O7 0.579800 0.265364 0.868317
O O8 0.750000 0.250000 0.000000
O O9 0.571326 0.500000 0.087639
O O10 0.658712 0.761868 0.134231
O O11 0.500000 0.711397 0.000000
O O12 0.720030 0.775425 0.604244
O O13 0.889567 0.738104 0.635482
O O14 0.932562 0.793407 0.736489
O O15 0.848855 0.000000 0.644299
O O16 0.500000 0.757214 0.500000
O O17 0.598560 0.000000 0.574205
O O18 0.805325 0.500000 0.558387
O O19 0.750000 0.250000 0.500000
O O20 0.850022 0.236032 0.182709
O O21 0.781318 0.000000 0.193862
O O22 0.413734 0.500000 0.176254
#
# Coordination Sequence:
#
# PCOD8092833 Si02
#       8
#     8   8   8   8   8   8   8   8
#     4  10  21  37  58  84 112 148 194 239 286 341
#     4  10  21  38  61  87 117 152 192 232 277 334
#     4  10  22  39  61  90 121 152 188 233 285 337
#     4  10  19  35  58  80 110 148 189 237 285 338
#     4   9  18  33  56  83 108 142 190 238 283 338
#     4  11  22  36  57  84 114 149 191 240 291 344
#     4  11  22  37  58  84 116 152 191 236 284 337
#     4   9  19  35  56  82 110 150 193 229 278 337
#
# _framework density 19.542341
#
# number of rings (size 3 to 8) (size 9 to 14) (size 15 to 20)
#    0.000    2.000    1.250    2.250    1.750    3.250 
#    0.000    1.875    0.000    1.500    0.000    0.000 
#    0.000    0.000    0.000    0.000    0.000    0.000 
#
# Total GULP energy -396726.830889 kJ/mol
# GULP energy per Si atom -12397.713465 kJ/mol
# Density = 1.949786 g / cm^3
# Si number density = 19.542341 Si / 1000 Ang^3
#
#
#
# Elastic Constant Matrix: (Units=GPa)
#
#
# Indices 1 2 3 4 5 6 
#
# 1 116.4594 29.3168 50.5681 0.0001 -2.7004 -0.0001
# 2 29.3168 55.4618 41.1157 0.0002 3.0739 -0.0005
# 3 50.5681 41.1157 126.9583 0.0000 0.2032 -0.0001
# 4 0.0001 0.0002 0.0000 32.8029 0.0000 2.0681
# 5 -2.7004 3.0739 0.2032 0.0000 41.5143 0.0000
# 6 -0.0001 -0.0005 -0.0001 2.0681 0.0000 22.5212
#
#
#
# Elastic Compliance Matrix: (Units=1/GPa)
#
#
# Indices 1 2 3 4 5 6 
#
# 1 0.010868 -0.003406 -0.003227 0.000000 0.000975 0.000000
# 2 -0.003406 0.024918 -0.006710 0.000000 -0.002034 0.000001
# 3 -0.003227 -0.006710 0.011335 0.000000 0.000231 0.000000
# 4 0.000000 0.000000 0.000000 0.030663 0.000000 -0.002816
# 5 0.000975 -0.002034 0.000231 0.000000 0.024301 0.000000
# 6 0.000000 0.000001 0.000000 -0.002816 0.000000 0.044661
#
#
# Mechanical properties :
#
#
# Convention : Reuss Voigt Hill
#
# Bulk Modulus (GPa) = 48.93805 60.09784 54.51795
# Shear Modulus (GPa) = 27.74030 31.22627 29.48328
#
# Velocity S-wave (km/s) = 3.77171 4.00168 3.88840
# Velocity P-wave (km/s) = 6.63808 7.22293 6.93667
#
# Compressibility (1/GPa) = 0.02043400
#
# Stress axis : x y z
#
# Youngs Moduli (GPa) = 92.01250 40.13186 88.22563
#
# Poissons Ratio (x) = 0.13671 0.28472
# Poissons Ratio (y) = 0.31343 0.59196
# Poissons Ratio (z) = 0.29694 0.26927
#
# Static dielectric constant tensor:
#      x y z
#    x 3.441430 0.000000 -0.003200 
#    y 0.000000 2.950450 0.000000 
#    z -0.003200 0.000000 3.619820 
# 
# 
# High freq. dielectric constant tensor:
#      x y z
#    x 1.773960 0.000000 -0.001770 
#    y 0.000000 1.728420 0.000000 
#    z -0.001770 0.000000 1.775500 
# 
# From -- ./inp_files/378529.got.cif
#   From: 2010.06.25/outbox.cif.g09.slc.cpg/sg12_190_cif.got.tgz:378529.got - 2010.06.28 00:19:55.
