data_PCOD8092909
_publ_section_title
;
Structure prediction by ZEFSAII (Michael W. Deem and Ramdas Pophale) SiO2 
 PCOD8092909
Probable space group: C 2/M
;
_chemical_formula_sum "Si O2"
_cell_formula_units_Z 64
_cell_length_a 25.252316
_cell_length_b 8.481814
_cell_length_c 29.461464
_cell_angle_alpha 90.000000
_cell_angle_beta 150.001441
_cell_angle_gamma 90.000000
_cell_volume 3154.970982
_symmetry_space_group_name_H-M "C 2/M"
_symmetry_group_IT_number 12
_symmetry_cell_setting 'monoclinic'
loop_
_space_group_symop_operation_xyz
x,y,z
-x,y,-z
-x,-y,-z
x,-y,z
1/2+x,1/2+y,z
1/2-x,1/2+y,-z
1/2-x,1/2-y,-z
1/2+x,1/2-y,z
loop_
_atom_site_type_symbol
_atom_site_label
_atom_site_fract_x
_atom_site_fract_y
_atom_site_fract_z
Si Si1 0.622280 0.813756 0.214753
Si Si2 0.482827 0.818123 0.537825
Si Si3 0.515820 0.815159 0.706255
Si Si4 0.457608 0.812408 0.017865
Si Si5 0.258121 0.813461 0.159261
Si Si6 0.303780 0.317194 0.284534
Si Si7 0.376260 0.812138 0.682491
Si Si8 0.351962 0.318428 0.513947
O O1 0.533607 0.748018 0.114480
O O2 0.737626 0.769941 0.280210
O O3 0.612463 0.740441 0.258249
O O4 0.609701 0.000000 0.207578
O O5 0.500000 0.755800 0.500000
O O6 0.594027 0.793282 0.645780
O O7 0.393341 0.709148 0.493503
O O8 0.448549 0.000000 0.514669
O O9 0.632290 0.745799 0.781609
O O10 0.474774 0.752600 0.724888
O O11 0.426498 0.779718 0.602614
O O12 0.527256 0.000000 0.717513
O O13 0.448444 0.000000 0.012157
O O14 0.500000 0.755464 0.000000
O O15 0.344063 0.734218 0.946101
O O16 0.235026 0.721239 0.189102
O O17 0.264661 0.000000 0.171399
O O18 0.336422 0.500000 0.309856
O O19 0.269142 0.756567 0.576782
O O20 0.371134 0.000000 0.682522
O O21 0.359590 0.500000 0.533451
#
# Coordination Sequence:
#
# PCOD8092909 Si02
#       8
#     8   8   8   8   8   8   8   8
#     4   9  18  34  57  83 111 142 183 233 285 334
#     4  11  23  36  50  76 117 156 186 223 282 343
#     4  10  21  38  58  79 112 151 188 230 280 334
#     4  10  19  35  58  84 111 142 184 233 283 334
#     4  11  22  35  54  82 114 147 182 225 281 341
#     4  11  20  34  57  82 111 145 185 233 277 329
#     4   9  19  36  57  82 109 145 190 234 280 332
#     4  11  21  34  57  84 109 142 194 242 276 324
#
# _framework density 20.285447999999999
#
# number of rings (size 3 to 8) (size 9 to 14) (size 15 to 20)
#    0.000    1.750    2.500    2.625    0.000    2.750 
#    0.000    1.250    0.000    3.750    0.000    0.000 
#    0.000    0.000    0.000    0.000    0.000    0.000 
#
# Total GULP energy -396698.511378 kJ/mol
# GULP energy per Si atom -12396.828481 kJ/mol
# Density = 2.023928 g / cm^3
# Si number density = 20.285448 Si / 1000 Ang^3
#
#
#
# Elastic Constant Matrix: (Units=GPa)
#
#
# Indices 1 2 3 4 5 6 
#
# 1 122.2594 13.7172 39.4765 -0.0001 11.2056 0.0000
# 2 13.7172 19.2579 6.1690 -0.0022 5.6803 0.0045
# 3 39.4765 6.1690 97.9100 0.0005 14.8561 0.0001
# 4 -0.0001 -0.0022 0.0005 23.3712 -0.0001 0.3090
# 5 11.2056 5.6803 14.8561 -0.0001 25.3926 -0.0001
# 6 0.0000 0.0045 0.0001 0.3090 -0.0001 17.7318
#
#
#
# Elastic Compliance Matrix: (Units=1/GPa)
#
#
# Indices 1 2 3 4 5 6 
#
# 1 0.010061 -0.005712 -0.003530 0.000000 -0.001097 0.000001
# 2 -0.005712 0.059120 0.000222 0.000006 -0.010834 -0.000015
# 3 -0.003530 0.000222 0.012504 0.000000 -0.005807 0.000000
# 4 0.000000 0.000006 0.000000 0.042798 -0.000001 -0.000746
# 5 -0.001097 -0.010834 -0.005807 -0.000001 0.045687 0.000003
# 6 0.000001 -0.000015 0.000000 -0.000746 0.000003 0.056409
#
#
# Mechanical properties :
#
#
# Convention : Reuss Voigt Hill
#
# Bulk Modulus (GPa) = 15.71227 39.79474 27.75351
# Shear Modulus (GPa) = 18.80886 25.30342 22.05614
#
# Velocity S-wave (km/s) = 3.04831 3.53564 3.30098
# Velocity P-wave (km/s) = 4.48910 6.02724 5.31412
#
# Compressibility (1/GPa) = 0.06364452
#
# Stress axis : x y z
#
# Youngs Moduli (GPa) = 99.39852 16.91479 79.97491
#
# Poissons Ratio (x) = 0.09661 0.28231
# Poissons Ratio (y) = 0.56774 -0.01775
# Poissons Ratio (z) = 0.35088 -0.00375
#
# Static dielectric constant tensor:
#      x y z
#    x 4.028310 0.000000 0.043120 
#    y 0.000000 3.222950 0.000000 
#    z 0.043120 0.000000 3.835090 
# 
# 
# High freq. dielectric constant tensor:
#      x y z
#    x 1.794070 0.000000 0.007160 
#    y 0.000000 1.759870 0.000000 
#    z 0.007160 0.000000 1.793030 
# 
# From -- ./inp_files/382550.got.cif
#   From: 2010.06.25/outbox.cif.g09.slc.cpg/sg12_192_cif.got.tgz:382550.got - 2010.06.28 00:19:55.
