data_PCOD8092216
_publ_section_title
;
Structure prediction by ZEFSAII (Michael W. Deem and Ramdas Pophale) SiO2 
 PCOD8092216
Probable space group: C 2/M
;
_chemical_formula_sum "Si O2"
_cell_formula_units_Z 56
_cell_length_a 11.468502
_cell_length_b 25.991606
_cell_length_c 13.751921
_cell_angle_alpha 90.000000
_cell_angle_beta 38.926456
_cell_angle_gamma 90.000000
_cell_volume 2575.643076
_symmetry_space_group_name_H-M "C 2/M"
_symmetry_group_IT_number 12
_symmetry_cell_setting 'monoclinic'
loop_
_space_group_symop_operation_xyz
x,y,z
-x,y,-z
-x,-y,-z
x,-y,z
1/2+x,1/2+y,z
1/2-x,1/2+y,-z
1/2-x,1/2-y,-z
1/2+x,1/2-y,z
loop_
_atom_site_type_symbol
_atom_site_label
_atom_site_fract_x
_atom_site_fract_y
_atom_site_fract_z
Si Si1 0.345137 0.057092 0.671960
Si Si2 0.313480 0.361632 0.518135
Si Si3 0.800095 0.180363 0.721089
Si Si4 0.878737 0.784701 0.174587
Si Si5 0.309835 0.654185 0.921434
Si Si6 0.905517 0.649876 0.747647
Si Si7 0.475525 0.558521 0.269784
O O1 0.500000 0.080488 0.500000
O O2 0.342099 0.090886 0.771476
O O3 0.151182 0.056981 0.743017
O O4 0.402955 0.000000 0.667601
O O5 0.475647 0.318285 0.403387
O O6 0.270994 0.366828 0.662729
O O7 0.375674 0.415565 0.428689
O O8 0.124744 0.341913 0.590470
O O9 0.706103 0.230589 0.733611
O O10 0.712102 0.173470 0.885420
O O11 0.697358 0.817757 0.267893
O O12 0.001384 0.813453 0.177267
O O13 0.000000 0.777472 0.000000
O O14 0.352963 0.593897 0.875598
O O15 0.157772 0.664334 0.102522
O O16 0.536078 0.500000 0.257883
#
# Coordination Sequence:
#
# PCOD8092216 Si02
#       7
#     8   8   8   8   8   8   8
#     4  10  19  34  59  94 126 159 194 248 319 372
#     4  10  23  42  59  92 122 159 212 254 300 357
#     4  10  24  44  59  83 125 165 213 249 301 359
#     4  10  23  39  61  88 124 163 204 248 318 360
#     4  10  23  41  61  92 128 159 207 252 305 371
#     4  11  22  37  63  93 125 159 202 258 303 370
#     4  10  20  40  66  90 126 164 197 248 316 371
#
# _framework density 21.742142000000001
#
# number of rings (size 3 to 8) (size 9 to 14) (size 15 to 20)
#    0.000    1.857    2.857    0.000    4.000    2.286 
#   10.286    7.143    0.000    0.000    0.000   11.000 
#    0.000    0.000    0.000    0.000    0.000    0.000 
#
# Total GULP energy -346913.949351 kJ/mol
# GULP energy per Si atom -12389.783905 kJ/mol
# Density = 2.169266 g / cm^3
# Si number density = 21.742142 Si / 1000 Ang^3
#
#
#
# Elastic Constant Matrix: (Units=GPa)
#
#
# Indices 1 2 3 4 5 6 
#
# 1 59.9116 23.5152 7.1892 0.0000 1.7775 0.0000
# 2 23.5152 106.5907 20.0016 0.0000 -10.5783 0.0000
# 3 7.1892 20.0016 29.5594 0.0000 -4.1672 0.0000
# 4 0.0000 0.0000 0.0000 28.0314 0.0000 1.6647
# 5 1.7775 -10.5783 -4.1672 0.0000 41.0524 0.0000
# 6 0.0000 0.0000 0.0000 1.6647 0.0000 18.9587
#
#
#
# Elastic Compliance Matrix: (Units=1/GPa)
#
#
# Indices 1 2 3 4 5 6 
#
# 1 0.018535 -0.003884 -0.002165 0.000000 -0.002023 0.000000
# 2 -0.003884 0.011734 -0.006641 0.000000 0.002518 0.000000
# 3 -0.002165 -0.006641 0.039183 0.000000 0.002360 0.000000
# 4 0.000000 0.000000 0.000000 0.035861 0.000000 -0.003149
# 5 -0.002023 0.002518 0.002360 0.000000 0.025335 0.000000
# 6 0.000000 0.000000 0.000000 -0.003149 0.000000 0.053023
#
#
# Mechanical properties :
#
#
# Convention : Reuss Voigt Hill
#
# Bulk Modulus (GPa) = 22.68938 33.05265 27.87102
# Shear Modulus (GPa) = 22.34712 27.29887 24.82299
#
# Velocity S-wave (km/s) = 3.20945 3.54725 3.38257
# Velocity P-wave (km/s) = 4.91858 5.65795 5.30117
#
# Compressibility (1/GPa) = 0.04407349
#
# Stress axis : x y z
#
# Youngs Moduli (GPa) = 53.95073 85.21924 25.52125
#
# Poissons Ratio (x) = 0.33096 0.05526
# Poissons Ratio (y) = 0.20952 0.16948
# Poissons Ratio (z) = 0.11683 0.56592
#
# Static dielectric constant tensor:
#      x y z
#    x 4.106590 0.000000 0.092930 
#    y 0.000000 3.947850 0.000000 
#    z 0.092930 0.000000 3.899510 
# 
# 
# High freq. dielectric constant tensor:
#      x y z
#    x 1.857000 0.000000 0.001110 
#    y 0.000000 1.833720 0.000000 
#    z 0.001110 0.000000 1.848520 
# 
# From -- ./inp_files/209106.got.cif
#   From: 2010.06.25/outbox.cif.g09.slc.cpg/sg12_105_cif.got.tgz:209106.got - 2010.06.28 00:19:55.
