data_PCOD8092362
_publ_section_title
;
Structure prediction by ZEFSAII (Michael W. Deem and Ramdas Pophale) SiO2 
 PCOD8092362
Probable space group: C 2/M
;
_chemical_formula_sum "Si O2"
_cell_formula_units_Z 64
_cell_length_a 15.218656
_cell_length_b 11.860928
_cell_length_c 18.369202
_cell_angle_alpha 90.000000
_cell_angle_beta 93.121224
_cell_angle_gamma 90.000000
_cell_volume 3310.857858
_symmetry_space_group_name_H-M "C 2/M"
_symmetry_group_IT_number 12
_symmetry_cell_setting 'monoclinic'
loop_
_space_group_symop_operation_xyz
x,y,z
-x,y,-z
-x,-y,-z
x,-y,z
1/2+x,1/2+y,z
1/2-x,1/2+y,-z
1/2-x,1/2-y,-z
1/2+x,1/2-y,z
loop_
_atom_site_type_symbol
_atom_site_label
_atom_site_fract_x
_atom_site_fract_y
_atom_site_fract_z
Si Si1 0.611897 0.279114 0.696481
Si Si2 0.497527 0.630343 0.085613
Si Si3 0.320731 0.371294 0.154760
Si Si4 0.154918 0.284576 0.419962
Si Si5 0.227352 0.127614 0.306212
Si Si6 0.150520 0.749353 0.177425
Si Si7 0.847980 0.871219 0.451482
Si Si8 0.049464 0.373236 0.292840
O O1 0.652062 0.360445 0.759507
O O2 0.674857 0.174689 0.683606
O O3 0.601527 0.351550 0.622400
O O4 0.521792 0.225211 0.720325
O O5 0.513519 0.500000 0.109425
O O6 0.401942 0.672002 0.109010
O O7 0.572579 0.710873 0.121633
O O8 0.500000 0.645035 0.000000
O O9 0.299664 0.500000 0.135199
O O10 0.232304 0.299842 0.133920
O O11 0.166666 0.185087 0.362928
O O12 0.115916 0.222453 0.489791
O O13 0.243066 0.354356 0.440398
O O14 0.087193 0.369586 0.377401
O O15 0.186029 0.143430 0.224238
O O16 0.232836 0.000000 0.328388
O O17 0.121882 0.652156 0.233691
O O18 0.866382 0.000000 0.477451
O O19 0.012912 0.500000 0.278667
#
# Coordination Sequence:
#
# PCOD8092362 Si02
#       8
#     8   8   8   8   8   8   8   8
#     4  10  20  33  52  80 107 143 188 236 284 341
#     4  10  21  38  61  90 124 157 188 229 284 342
#     4  10  20  37  60  86 116 153 196 236 284 339
#     4   9  20  33  51  76 102 140 188 230 289 344
#     4   9  17  31  51  76 107 141 184 231 281 337
#     4  10  20  35  59  86 113 151 197 237 279 337
#     4  10  19  35  53  72 104 142 187 238 287 338
#     4  11  21  36  55  78 108 143 186 237 291 337
#
# _framework density 19.330338999999999
#
# number of rings (size 3 to 8) (size 9 to 14) (size 15 to 20)
#    0.000    2.125    1.250    3.000    0.000    1.000 
#    0.000    5.000    0.000    1.500    0.000    0.000 
#    0.000    0.000    0.000    0.000    0.000    0.000 
#
# Total GULP energy -396727.423742 kJ/mol
# GULP energy per Si atom -12397.731992 kJ/mol
# Density = 1.928634 g / cm^3
# Si number density = 19.330339 Si / 1000 Ang^3
#
#
#
# Elastic Constant Matrix: (Units=GPa)
#
#
# Indices 1 2 3 4 5 6 
#
# 1 94.1451 28.6134 33.3065 0.0000 -9.2382 0.0000
# 2 28.6134 82.3063 22.2451 0.0000 -2.3295 0.0000
# 3 33.3065 22.2451 80.1099 0.0000 -8.9070 0.0000
# 4 0.0000 0.0000 0.0000 18.7649 0.0000 -1.6050
# 5 -9.2382 -2.3295 -8.9070 0.0000 29.4686 0.0000
# 6 0.0000 0.0000 0.0000 -1.6050 0.0000 21.1379
#
#
#
# Elastic Compliance Matrix: (Units=1/GPa)
#
#
# Indices 1 2 3 4 5 6 
#
# 1 0.013462 -0.003429 -0.004352 0.000000 0.002634 0.000000
# 2 -0.003429 0.014009 -0.002546 0.000000 -0.000737 0.000000
# 3 -0.004352 -0.002546 0.015341 0.000000 0.003071 0.000000
# 4 0.000000 0.000000 0.000000 0.053639 0.000000 0.004073
# 5 0.002634 -0.000737 0.003071 0.000000 0.035630 0.000000
# 6 0.000000 0.000000 0.000000 0.004073 0.000000 0.047618
#
#
# Mechanical properties :
#
#
# Convention : Reuss Voigt Hill
#
# Bulk Modulus (GPa) = 45.13233 47.21013 46.17123
# Shear Modulus (GPa) = 24.06852 25.36737 24.71795
#
# Velocity S-wave (km/s) = 3.53245 3.62651 3.57979
# Velocity P-wave (km/s) = 6.32742 6.48161 6.40498
#
# Compressibility (1/GPa) = 0.02215707
#
# Stress axis : x y z
#
# Youngs Moduli (GPa) = 74.28177 71.38135 65.18584
#
# Poissons Ratio (x) = 0.24479 0.28369
# Poissons Ratio (y) = 0.25474 0.16598
# Poissons Ratio (z) = 0.32327 0.18176
#
# Static dielectric constant tensor:
#      x y z
#    x 3.551560 0.000000 -0.075060 
#    y 0.000000 3.357270 0.000000 
#    z -0.075060 0.000000 3.445580 
# 
# 
# High freq. dielectric constant tensor:
#      x y z
#    x 1.748420 0.000000 -0.005430 
#    y 0.000000 1.744040 0.000000 
#    z -0.005430 0.000000 1.737980 
# 
# From -- ./inp_files/269311.got.cif
#   From: 2010.06.25/outbox.cif.g09.slc.cpg/sg12_135_cif.got.tgz:269311.got - 2010.06.28 00:19:55.
