data_PCOD8092828
_publ_section_title
;
Structure prediction by ZEFSAII (Michael W. Deem and Ramdas Pophale) SiO2 
 PCOD8092828
Probable space group: C 2/M
;
_chemical_formula_sum "Si O2"
_cell_formula_units_Z 48
_cell_length_a 14.897597
_cell_length_b 9.078926
_cell_length_c 29.133031
_cell_angle_alpha 90.000000
_cell_angle_beta 40.388829
_cell_angle_gamma 90.000000
_cell_volume 2553.243377
_symmetry_space_group_name_H-M "C 2/M"
_symmetry_group_IT_number 12
_symmetry_cell_setting 'monoclinic'
loop_
_space_group_symop_operation_xyz
x,y,z
-x,y,-z
-x,-y,-z
x,-y,z
1/2+x,1/2+y,z
1/2-x,1/2+y,-z
1/2-x,1/2-y,-z
1/2+x,1/2-y,z
loop_
_atom_site_type_symbol
_atom_site_label
_atom_site_fract_x
_atom_site_fract_y
_atom_site_fract_z
Si Si1 0.588496 0.170017 0.661492
Si Si2 0.411525 0.825635 0.815642
Si Si3 0.140755 0.673957 0.422368
Si Si4 0.650424 0.170094 0.313495
Si Si5 0.906916 0.674673 0.170385
Si Si6 0.897325 0.826232 0.080702
O O1 0.502395 0.236279 0.738045
O O2 0.731130 0.257190 0.600095
O O3 0.501490 0.191501 0.648893
O O4 0.623851 0.000000 0.656667
O O5 0.479014 0.773124 0.836999
O O6 0.255073 0.765808 0.873091
O O7 0.408169 0.000000 0.813671
O O8 0.150135 0.500000 0.423254
O O9 0.144715 0.724820 0.367954
O O10 0.000000 0.733572 0.500000
O O11 0.756754 0.268269 0.243653
O O12 0.697019 0.000000 0.291446
O O13 0.901341 0.500000 0.168139
O O14 0.951722 0.745038 0.104849
O O15 0.896312 0.000000 0.090526
O O16 0.000000 0.783083 0.000000
#
# Coordination Sequence:
#
# PCOD8092828 Si02
#       6
#     8   8   8   8   8   8
#     4  10  19  35  58  80 107 145 187 227 270 329
#     4   9  18  34  55  81 111 142 180 227 274 323
#     4  10  22  38  55  82 118 146 178 232 283 323
#     4  10  20  36  58  80 108 147 188 224 271 334
#     4  11  21  34  56  83 112 142 180 232 280 319
#     4  10  21  39  60  81 111 151 187 221 271 334
#
# _framework density 18.799619
#
# number of rings (size 3 to 8) (size 9 to 14) (size 15 to 20)
#    0.000    2.000    3.333    0.500    0.000    2.667 
#    0.000    1.667    0.000    0.000    0.000    0.000 
#    0.000    0.000    0.000    0.000    0.000    0.000 
#
# Total GULP energy -297677.797953 kJ/mol
# GULP energy per Si atom -12403.241581 kJ/mol
# Density = 1.875683 g / cm^3
# Si number density = 18.799619 Si / 1000 Ang^3
#
#
#
# Elastic Constant Matrix: (Units=GPa)
#
#
# Indices 1 2 3 4 5 6 
#
# 1 88.5148 17.2582 13.3081 -0.0001 -3.7125 -0.0014
# 2 17.2582 31.9413 17.7974 -0.0002 2.4626 -0.0015
# 3 13.3081 17.7974 82.1759 0.0000 -8.0553 0.0000
# 4 -0.0001 -0.0002 0.0000 22.5352 0.0000 -0.0324
# 5 -3.7125 2.4626 -8.0553 0.0000 34.5572 -0.0001
# 6 -0.0014 -0.0015 0.0000 -0.0324 -0.0001 26.5478
#
#
#
# Elastic Compliance Matrix: (Units=1/GPa)
#
#
# Indices 1 2 3 4 5 6 
#
# 1 0.012759 -0.006794 -0.000423 0.000000 0.001756 0.000000
# 2 -0.006794 0.039898 -0.008076 0.000000 -0.005456 0.000002
# 3 -0.000423 -0.008076 0.014367 0.000000 0.003879 0.000000
# 4 0.000000 0.000000 0.000000 0.044375 0.000000 0.000054
# 5 0.001756 -0.005456 0.003879 0.000000 0.030419 0.000000
# 6 0.000000 0.000002 0.000000 0.000054 0.000000 0.037668
#
#
# Mechanical properties :
#
#
# Convention : Reuss Voigt Hill
#
# Bulk Modulus (GPa) = 27.44235 33.26216 30.35225
# Shear Modulus (GPa) = 22.50043 27.01259 24.75651
#
# Velocity S-wave (km/s) = 3.46331 3.79472 3.63280
# Velocity P-wave (km/s) = 5.53369 6.07711 5.81175
#
# Compressibility (1/GPa) = 0.03644003
#
# Stress axis : x y z
#
# Youngs Moduli (GPa) = 78.37352 25.06364 69.60530
#
# Poissons Ratio (x) = 0.17028 0.02943
# Poissons Ratio (y) = 0.53246 0.56211
# Poissons Ratio (z) = 0.03314 0.20240
#
# Static dielectric constant tensor:
#      x y z
#    x 3.639190 0.000000 0.019130 
#    y 0.000000 3.194930 0.000000 
#    z 0.019130 0.000000 3.466670 
# 
# 
# High freq. dielectric constant tensor:
#      x y z
#    x 1.744870 0.000000 0.000570 
#    y 0.000000 1.705900 0.000000 
#    z 0.000570 0.000000 1.726560 
# 
# From -- ./inp_files/308283.got.cif
#   From: 2010.06.25/outbox.cif.g09.slc.cpg/sg12_155_cif.got.tgz:308283.got - 2010.06.28 00:19:55.
