data_PCOD8092138
_publ_section_title
;
Structure prediction by ZEFSAII (Michael W. Deem and Ramdas Pophale) SiO2 
 PCOD8092138
Probable space group: C 2/M
;
_chemical_formula_sum "Si O2"
_cell_formula_units_Z 64
_cell_length_a 13.826497
_cell_length_b 13.208024
_cell_length_c 19.088579
_cell_angle_alpha 90.000000
_cell_angle_beta 87.982209
_cell_angle_gamma 90.000000
_cell_volume 3483.808236
_symmetry_space_group_name_H-M "C 2/M"
_symmetry_group_IT_number 12
_symmetry_cell_setting 'monoclinic'
loop_
_space_group_symop_operation_xyz
x,y,z
-x,y,-z
-x,-y,-z
x,-y,z
1/2+x,1/2+y,z
1/2-x,1/2+y,-z
1/2-x,1/2-y,-z
1/2+x,1/2-y,z
loop_
_atom_site_type_symbol
_atom_site_label
_atom_site_fract_x
_atom_site_fract_y
_atom_site_fract_z
Si Si1 0.156622 0.221703 0.161183
Si Si2 0.895940 0.883860 0.978811
Si Si3 0.307901 0.692704 0.599693
Si Si4 0.209391 0.885056 0.552001
Si Si5 0.012138 0.116768 0.631616
Si Si6 0.295051 0.116716 0.260642
Si Si7 0.050087 0.218277 0.773926
Si Si8 0.308770 0.384665 0.127996
O O1 0.144128 0.181416 0.083481
O O2 0.213565 0.138197 0.204610
O O3 0.215377 0.325696 0.157271
O O4 0.057441 0.249336 0.201855
O O5 0.906894 0.000000 0.954035
O O6 0.820687 0.872985 0.044363
O O7 0.000000 0.841484 0.000000
O O8 0.280608 0.811218 0.593168
O O9 0.278973 0.632402 0.530758
O O10 0.421997 0.686456 0.612099
O O11 0.246243 0.642923 0.662527
O O12 0.097755 0.863971 0.574278
O O13 0.238547 0.000000 0.570452
O O14 0.050711 0.145449 0.706993
O O15 0.978475 0.000000 0.632229
O O16 0.391775 0.179609 0.243290
O O17 0.324174 0.000000 0.256221
O O18 0.095028 0.156206 0.837051
O O19 0.293093 0.500000 0.150177
#
# Coordination Sequence:
#
# PCOD8092138 Si02
#       8
#     8   8   8   8   8   8   8   8
#     4  11  22  37  60  82 114 149 190 229 277 334
#     4  10  19  34  59  87 112 142 185 235 281 324
#     4  11  21  37  62  85 113 145 195 234 280 337
#     4  10  22  39  60  84 115 149 186 235 286 335
#     4  11  21  36  59  85 113 147 190 235 281 331
#     4  11  23  38  57  83 114 150 190 233 283 335
#     4  11  22  37  55  85 115 147 186 235 277 333
#     4  10  22  38  58  84 113 148 188 229 279 333
#
# _framework density 18.370699999999999
#
# number of rings (size 3 to 8) (size 9 to 14) (size 15 to 20)
#    0.000    1.375    3.750    2.625    0.000    2.500 
#    0.000    0.625    0.000    1.875    0.000    0.000 
#    0.000    0.000    0.000    0.000    0.000    0.000 
#
# Total GULP energy -396972.159794 kJ/mol
# GULP energy per Si atom -12405.379994 kJ/mol
# Density = 1.832889 g / cm^3
# Si number density = 18.370700 Si / 1000 Ang^3
#
#
#
# Elastic Constant Matrix: (Units=GPa)
#
#
# Indices 1 2 3 4 5 6 
#
# 1 90.9322 57.7941 23.9346 0.0000 3.5314 0.0000
# 2 57.7941 126.7685 40.4569 0.0000 -0.9196 0.0000
# 3 23.9346 40.4569 74.1974 0.0000 -2.1948 0.0000
# 4 0.0000 0.0000 0.0000 24.3215 0.0000 -1.4129
# 5 3.5314 -0.9196 -2.1948 0.0000 25.4536 0.0000
# 6 0.0000 0.0000 0.0000 -1.4129 0.0000 19.6069
#
#
#
# Elastic Compliance Matrix: (Units=1/GPa)
#
#
# Indices 1 2 3 4 5 6 
#
# 1 0.015767 -0.006731 -0.001492 0.000000 -0.002559 0.000000
# 2 -0.006731 0.012424 -0.004574 0.000000 0.000988 0.000000
# 3 -0.001492 -0.004574 0.016496 0.000000 0.001464 0.000000
# 4 0.000000 0.000000 0.000000 0.041289 0.000000 0.002975
# 5 -0.002559 0.000988 0.001464 0.000000 0.039804 0.000000
# 6 0.000000 0.000000 0.000000 0.002975 0.000000 0.051217
#
#
# Mechanical properties :
#
#
# Convention : Reuss Voigt Hill
#
# Bulk Modulus (GPa) = 52.37190 59.58549 55.97870
# Shear Modulus (GPa) = 23.92866 25.19055 24.55960
#
# Velocity S-wave (km/s) = 3.61299 3.70704 3.66032
# Velocity P-wave (km/s) = 6.78050 7.12940 6.95714
#
# Compressibility (1/GPa) = 0.01909421
#
# Stress axis : x y z
#
# Youngs Moduli (GPa) = 63.42296 80.49070 60.62074
#
# Poissons Ratio (x) = 0.54176 0.09044
# Poissons Ratio (y) = 0.42688 0.27726
# Poissons Ratio (z) = 0.09462 0.36815
#
# Static dielectric constant tensor:
#      x y z
#    x 3.358760 0.000000 -0.014630 
#    y 0.000000 3.323540 0.000000 
#    z -0.014630 0.000000 3.528750 
# 
# 
# High freq. dielectric constant tensor:
#      x y z
#    x 1.710250 0.000000 -0.004920 
#    y 0.000000 1.706800 0.000000 
#    z -0.004920 0.000000 1.730880 
# 
# From -- ./inp_files/269322.got.cif
#   From: 2010.06.25/outbox.cif.g09.slc.cpg/sg12_135_cif.got.tgz:269322.got - 2010.06.28 00:19:55.
