data_PCOD8092863
_publ_section_title
;
Structure prediction by ZEFSAII (Michael W. Deem and Ramdas Pophale) SiO2 
 PCOD8092863
Probable space group: C 2/M
;
_chemical_formula_sum "Si O2"
_cell_formula_units_Z 64
_cell_length_a 18.920323
_cell_length_b 20.332316
_cell_length_c 27.544360
_cell_angle_alpha 90.000000
_cell_angle_beta 160.778863
_cell_angle_gamma 90.000000
_cell_volume 3488.411558
_symmetry_space_group_name_H-M "C 2/M"
_symmetry_group_IT_number 12
_symmetry_cell_setting 'monoclinic'
loop_
_space_group_symop_operation_xyz
x,y,z
-x,y,-z
-x,-y,-z
x,-y,z
1/2+x,1/2+y,z
1/2-x,1/2+y,-z
1/2-x,1/2-y,-z
1/2+x,1/2-y,z
loop_
_atom_site_type_symbol
_atom_site_label
_atom_site_fract_x
_atom_site_fract_y
_atom_site_fract_z
Si Si1 0.076313 0.675757 0.418541
Si Si2 0.214942 0.635901 0.110727
Si Si3 0.496679 0.752587 0.721660
Si Si4 0.381818 0.425438 0.576554
Si Si5 0.545493 0.206848 0.858388
Si Si6 0.538775 0.386426 0.581538
Si Si7 0.984609 0.425548 0.108266
Si Si8 0.621625 0.760491 0.625840
O O1 0.269312 0.720401 0.562914
O O2 0.175296 0.604488 0.470584
O O3 0.952825 0.700221 0.290664
O O4 0.899933 0.682007 0.347305
O O5 0.308710 0.701024 0.145901
O O6 0.395356 0.608447 0.263709
O O7 0.159214 0.582881 0.033221
O O8 0.000000 0.655323 0.000000
O O9 0.476011 0.794358 0.757303
O O10 0.383861 0.500000 0.594088
O O11 0.366455 0.417296 0.507740
O O12 0.579683 0.130261 0.894313
O O13 0.367924 0.243509 0.775561
O O14 0.750000 0.250000 0.000000
O O15 0.500000 0.406013 0.500000
O O16 0.514812 0.308265 0.573511
O O17 0.767923 0.415722 0.745472
O O18 0.945775 0.500000 0.102890
O O19 0.500000 0.788493 0.500000
#
# Coordination Sequence:
#
# PCOD8092863 Si02
#       8
#     8   8   8   8   8   8   8   8
#     4  10  21  35  57  81 108 147 196 235 282 336
#     4  11  21  35  56  82 115 151 190 234 292 357
#     4  10  20  35  56  82 109 144 192 244 279 328
#     4  11  23  36  54  80 116 157 193 238 289 350
#     4  11  22  37  57  85 113 147 193 242 285 344
#     4  10  21  34  52  81 116 151 187 227 285 359
#     4  11  23  35  52  78 117 155 183 224 287 359
#     4  10  19  35  58  82 109 144 188 237 290 335
#
# _framework density 18.346457999999998
#
# number of rings (size 3 to 8) (size 9 to 14) (size 15 to 20)
#    0.000    1.500    3.750    3.000    5.250    1.500 
#    0.000    0.000    0.000    1.125    0.000    0.000 
#    0.000    3.000    0.000    0.000    0.000    0.000 
#
# Total GULP energy -396642.217421 kJ/mol
# GULP energy per Si atom -12395.069294 kJ/mol
# Density = 1.830470 g / cm^3
# Si number density = 18.346458 Si / 1000 Ang^3
#
#
#
# Elastic Constant Matrix: (Units=GPa)
#
#
# Indices 1 2 3 4 5 6 
#
# 1 119.8931 52.0932 30.0394 -0.1534 -1.5808 -0.0153
# 2 52.0932 89.5576 29.5009 -0.0458 11.1474 0.0317
# 3 30.0394 29.5009 59.9837 -0.1545 2.6853 0.0192
# 4 -0.1534 -0.0458 -0.1545 17.3334 0.0797 -0.7378
# 5 -1.5808 11.1474 2.6853 0.0797 24.4439 0.0190
# 6 -0.0153 0.0317 0.0192 -0.7378 0.0190 21.0950
#
#
#
# Elastic Compliance Matrix: (Units=1/GPa)
#
#
# Indices 1 2 3 4 5 6 
#
# 1 0.011956 -0.006476 -0.002984 0.000044 0.004054 0.000019
# 2 -0.006476 0.017577 -0.005049 -0.000020 -0.007880 -0.000020
# 3 -0.002984 -0.005049 0.020656 0.000145 -0.000160 -0.000008
# 4 0.000044 -0.000020 0.000145 0.057781 -0.000194 0.002021
# 5 0.004054 -0.007880 -0.000160 -0.000194 0.044784 -0.000032
# 6 0.000019 -0.000020 -0.000008 0.002021 -0.000032 0.047475
#
#
# Mechanical properties :
#
#
# Convention : Reuss Voigt Hill
#
# Bulk Modulus (GPa) = 47.23299 54.74460 50.98880
# Shear Modulus (GPa) = 21.15934 23.09454 22.12694
#
# Velocity S-wave (km/s) = 3.39974 3.55181 3.47661
# Velocity P-wave (km/s) = 6.41965 6.83554 6.63085
#
# Compressibility (1/GPa) = 0.02117164
#
# Stress axis : x y z
#
# Youngs Moduli (GPa) = 83.64244 56.89316 48.41217
#
# Poissons Ratio (x) = 0.36844 0.14445
# Poissons Ratio (y) = 0.54167 0.24442
# Poissons Ratio (z) = 0.24956 0.28724
#
# Static dielectric constant tensor:
#      x y z
#    x 3.635060 0.000110 -0.157370 
#    y 0.000110 3.233680 -0.000240 
#    z -0.157370 -0.000240 3.344550 
# 
# 
# High freq. dielectric constant tensor:
#      x y z
#    x 1.716290 0.000000 -0.017490 
#    y 0.000000 1.681590 -0.000020 
#    z -0.017490 -0.000020 1.703370 
# 
# From -- ./inp_files/364913.got.cif
#   From: 2010.06.25/outbox.cif.g09.slc.cpg/sg12_183_cif.got.tgz:364913.got - 2010.06.28 00:19:55.
