data_PCOD8092725
_publ_section_title
;
Structure prediction by ZEFSAII (Michael W. Deem and Ramdas Pophale) SiO2 
 PCOD8092725
Probable space group: C 2/M
;
_chemical_formula_sum "Si O2"
_cell_formula_units_Z 64
_cell_length_a 17.117529
_cell_length_b 13.633603
_cell_length_c 25.795583
_cell_angle_alpha 90.000000
_cell_angle_beta 35.898755
_cell_angle_gamma 90.000000
_cell_volume 3529.860276
_symmetry_space_group_name_H-M "C 2/M"
_symmetry_group_IT_number 12
_symmetry_cell_setting 'monoclinic'
loop_
_space_group_symop_operation_xyz
x,y,z
-x,y,-z
-x,-y,-z
x,-y,z
1/2+x,1/2+y,z
1/2-x,1/2+y,-z
1/2-x,1/2-y,-z
1/2+x,1/2-y,z
loop_
_atom_site_type_symbol
_atom_site_label
_atom_site_fract_x
_atom_site_fract_y
_atom_site_fract_z
Si Si1 0.506574 0.251678 0.436185
Si Si2 0.661807 0.751162 0.996384
Si Si3 0.010360 0.114470 0.341867
Si Si4 0.912516 0.887668 0.129134
Si Si5 0.456679 0.895213 0.082321
Si Si6 0.244801 0.610002 0.314446
Si Si7 0.733640 0.110414 0.437823
Si Si8 0.732168 0.260739 0.173253
O O1 0.500000 0.279853 0.500000
O O2 0.518721 0.352467 0.397403
O O3 0.634439 0.185984 0.354617
O O4 0.379050 0.188612 0.486901
O O5 0.556328 0.663081 0.042860
O O6 0.575355 0.848527 0.051428
O O7 0.750000 0.750000 0.000000
O O8 0.755476 0.761547 0.895622
O O9 0.086686 0.197177 0.266016
O O10 0.856669 0.123443 0.409728
O O11 0.059068 0.000000 0.308922
O O12 0.877647 0.877365 0.208683
O O13 0.786004 0.844856 0.164282
O O14 0.928753 0.000000 0.103053
O O15 0.323179 0.834428 0.157290
O O16 0.427461 0.000000 0.123119
O O17 0.500000 0.902206 0.000000
O O18 0.186595 0.500000 0.338967
O O19 0.285920 0.629492 0.351454
O O20 0.674610 0.000000 0.474104
#
# Coordination Sequence:
#
# PCOD8092725 Si02
#       8
#     8   8   8   8   8   8   8   8
#     4  10  19  35  57  81 111 144 179 224 273 328
#     4  10  22  34  51  81 109 138 171 220 274 318
#     4  11  22  35  54  81 111 145 185 225 269 321
#     4  10  20  36  58  80 107 142 183 222 265 323
#     4   8  15  31  52  70  93 131 176 212 248 301
#     4   9  17  32  56  85 108 137 180 226 272 319
#     4   9  19  33  54  83 113 141 176 225 277 325
#     4  10  20  36  53  74 106 141 181 218 262 315
#
# _framework density 18.131029000000002
#
# number of rings (size 3 to 8) (size 9 to 14) (size 15 to 20)
#    0.000    2.375    1.250    2.250    1.750    3.750 
#    0.000    0.000    0.000    0.000    0.000    0.000 
#    0.000    0.000    0.000    0.000    0.000    0.000 
#
# Total GULP energy -396495.671246 kJ/mol
# GULP energy per Si atom -12390.489726 kJ/mol
# Density = 1.808976 g / cm^3
# Si number density = 18.131029 Si / 1000 Ang^3
#
#
#
# Elastic Constant Matrix: (Units=GPa)
#
#
# Indices 1 2 3 4 5 6 
#
# 1 92.6127 38.5425 19.9727 0.0000 0.6345 0.0000
# 2 38.5425 104.2568 28.1151 0.0000 1.0517 0.0000
# 3 19.9727 28.1151 71.8983 -0.0001 4.3107 0.0001
# 4 0.0000 0.0000 -0.0001 27.5439 0.0000 2.4480
# 5 0.6345 1.0517 4.3107 0.0000 21.8933 0.0000
# 6 0.0000 0.0000 0.0001 2.4480 0.0000 24.3256
#
#
#
# Elastic Compliance Matrix: (Units=1/GPa)
#
#
# Indices 1 2 3 4 5 6 
#
# 1 0.012999 -0.004282 -0.001949 0.000000 0.000213 0.000000
# 2 -0.004282 0.012135 -0.003570 0.000000 0.000244 0.000000
# 3 -0.001949 -0.003570 0.016022 0.000000 -0.002927 0.000000
# 4 0.000000 0.000000 0.000000 0.036633 0.000000 -0.003687
# 5 0.000213 0.000244 -0.002927 0.000000 0.046234 0.000000
# 6 0.000000 0.000000 0.000000 -0.003687 0.000000 0.041480
#
#
# Mechanical properties :
#
#
# Convention : Reuss Voigt Hill
#
# Bulk Modulus (GPa) = 46.39923 49.11426 47.75675
# Shear Modulus (GPa) = 26.00235 26.89505 26.44870
#
# Velocity S-wave (km/s) = 3.79111 3.85563 3.82351
# Velocity P-wave (km/s) = 6.69402 6.85336 6.77416
#
# Compressibility (1/GPa) = 0.02155208
#
# Stress axis : x y z
#
# Youngs Moduli (GPa) = 76.93157 82.40592 62.41551
#
# Poissons Ratio (x) = 0.35285 0.12166
# Poissons Ratio (y) = 0.32941 0.22285
# Poissons Ratio (z) = 0.14996 0.29423
#
# Static dielectric constant tensor:
#      x y z
#    x 3.150310 0.000000 0.008630 
#    y 0.000000 3.657420 0.000000 
#    z 0.008630 0.000000 3.250420 
# 
# 
# High freq. dielectric constant tensor:
#      x y z
#    x 1.687690 0.000000 0.000860 
#    y 0.000000 1.703360 0.000000 
#    z 0.000860 0.000000 1.698480 
# 
# From -- ./inp_files/340144.got.cif
#   From: 2010.06.25/outbox.cif.g09.slc.cpg/sg12_171_cif.got.tgz:340144.got - 2010.06.28 00:19:55.
