data_PCOD8092666
_publ_section_title
;
Structure prediction by ZEFSAII (Michael W. Deem and Ramdas Pophale) SiO2 
 PCOD8092666
Probable space group: C 2/M
;
_chemical_formula_sum "Si O2"
_cell_formula_units_Z 64
_cell_length_a 19.693995
_cell_length_b 8.853750
_cell_length_c 23.252724
_cell_angle_alpha 90.000000
_cell_angle_beta 58.129101
_cell_angle_gamma 90.000000
_cell_volume 3443.224536
_symmetry_space_group_name_H-M "C 2/M"
_symmetry_group_IT_number 12
_symmetry_cell_setting 'monoclinic'
loop_
_space_group_symop_operation_xyz
x,y,z
-x,y,-z
-x,-y,-z
x,-y,z
1/2+x,1/2+y,z
1/2-x,1/2+y,-z
1/2-x,1/2-y,-z
1/2+x,1/2-y,z
loop_
_atom_site_type_symbol
_atom_site_label
_atom_site_fract_x
_atom_site_fract_y
_atom_site_fract_z
Si Si1 0.170131 0.321807 0.802210
Si Si2 0.224432 0.175721 0.453651
Si Si3 0.042469 0.823592 0.539032
Si Si4 0.757835 0.177407 0.058697
Si Si5 0.859588 0.679479 0.310715
Si Si6 0.509317 0.179443 0.319307
Si Si7 0.586072 0.675576 0.941205
Si Si8 0.172956 0.179537 0.201931
O O1 0.166697 0.500000 0.801618
O O2 0.147200 0.252789 0.750398
O O3 0.103263 0.264291 0.875403
O O4 0.258379 0.270355 0.783451
O O5 0.250000 0.250000 0.500000
O O6 0.133224 0.215459 0.483156
O O7 0.280193 0.240043 0.378043
O O8 0.239670 0.000000 0.453162
O O9 0.000000 0.771871 0.500000
O O10 0.010295 0.728732 0.607072
O O11 0.028881 0.000000 0.558916
O O12 0.847557 0.211636 0.040330
O O13 0.693204 0.251721 0.130431
O O14 0.740204 0.000000 0.063165
O O15 0.750000 0.250000 0.000000
O O16 0.860668 0.500000 0.307951
O O17 0.938685 0.736657 0.308526
O O18 0.590211 0.255835 0.261867
O O19 0.518691 0.000000 0.313343
O O20 0.584558 0.500000 0.926801
O O21 0.500000 0.733632 0.000000
O O22 0.167291 0.000000 0.198656
#
# Coordination Sequence:
#
# PCOD8092666 Si02
#       8
#     8   8   8   8   8   8   8   8
#     4   9  19  36  58  80 104 140 183 222 263 317
#     4  10  19  35  57  78 107 141 178 223 272 324
#     4  10  22  37  57  82 107 141 185 228 272 324
#     4  10  20  36  58  83 114 148 185 223 269 322
#     4   9  19  35  55  79 107 141 178 220 271 322
#     4  11  22  37  56  79 112 145 179 226 277 327
#     4   9  19  36  56  80 112 144 175 220 271 315
#     4  10  21  37  58  81 110 145 185 227 270 321
#
# _framework density 18.587229000000001
#
# number of rings (size 3 to 8) (size 9 to 14) (size 15 to 20)
#    0.000    2.250    1.250    1.125    1.750    2.500 
#    0.000    4.375    0.000    0.000    0.000    0.000 
#    0.000    0.000    0.000    0.000    0.000    0.000 
#
# Total GULP energy -396785.359843 kJ/mol
# GULP energy per Si atom -12399.542495 kJ/mol
# Density = 1.854492 g / cm^3
# Si number density = 18.587229 Si / 1000 Ang^3
#
#
#
# Elastic Constant Matrix: (Units=GPa)
#
#
# Indices 1 2 3 4 5 6 
#
# 1 133.6427 40.1008 97.9586 0.0001 3.1837 0.0001
# 2 40.1008 43.1741 39.7313 0.0003 -0.7352 0.0004
# 3 97.9586 39.7313 161.1513 0.0001 5.7313 -0.0001
# 4 0.0001 0.0003 0.0001 35.0035 0.0001 -0.8039
# 5 3.1837 -0.7352 5.7313 0.0001 42.1447 0.0002
# 6 0.0001 0.0004 -0.0001 -0.8039 0.0002 24.2019
#
#
#
# Elastic Compliance Matrix: (Units=1/GPa)
#
#
# Indices 1 2 3 4 5 6 
#
# 1 0.015046 -0.007206 -0.007360 0.000000 -0.000261 0.000000
# 2 -0.007206 0.033510 -0.003940 0.000000 0.001665 -0.000001
# 3 -0.007360 -0.003940 0.011690 0.000000 -0.001102 0.000000
# 4 0.000000 0.000000 0.000000 0.028590 0.000000 0.000950
# 5 -0.000261 0.001665 -0.001102 0.000000 0.023926 0.000000
# 6 0.000000 -0.000001 0.000000 0.000950 0.000000 0.041351
#
#
# Mechanical properties :
#
#
# Convention : Reuss Voigt Hill
#
# Bulk Modulus (GPa) = 43.04339 77.06105 60.05222
# Shear Modulus (GPa) = 25.14191 30.94852 28.04521
#
# Velocity S-wave (km/s) = 3.68182 4.08492 3.88860
# Velocity P-wave (km/s) = 6.42512 7.98736 7.24845
#
# Compressibility (1/GPa) = 0.02323237
#
# Stress axis : x y z
#
# Youngs Moduli (GPa) = 66.46301 29.84181 85.54356
#
# Poissons Ratio (x) = 0.21505 0.62960
# Poissons Ratio (y) = 0.47895 0.33708
# Poissons Ratio (z) = 0.48916 0.11759
#
# Static dielectric constant tensor:
#      x y z
#    x 3.606050 0.000000 -0.002940 
#    y 0.000000 3.301600 0.000000 
#    z -0.002940 0.000000 3.616470 
# 
# 
# High freq. dielectric constant tensor:
#      x y z
#    x 1.729710 0.000000 -0.001440 
#    y 0.000000 1.709400 0.000000 
#    z -0.001440 0.000000 1.732410 
# 
# From -- ./inp_files/319980.got.cif
#   From: 2010.06.25/outbox.cif.g09.slc.cpg/sg12_160_cif.got.tgz:319980.got - 2010.06.28 00:19:55.
