data_PCOD8092843
_publ_section_title
;
Structure prediction by ZEFSAII (Michael W. Deem and Ramdas Pophale) SiO2 
 PCOD8092843
Probable space group: C 2/M
;
_chemical_formula_sum "Si O2"
_cell_formula_units_Z 56
_cell_length_a 15.846469
_cell_length_b 9.029826
_cell_length_c 22.767180
_cell_angle_alpha 90.000000
_cell_angle_beta 120.959768
_cell_angle_gamma 90.000000
_cell_volume 2793.635959
_symmetry_space_group_name_H-M "C 2/M"
_symmetry_group_IT_number 12
_symmetry_cell_setting 'monoclinic'
loop_
_space_group_symop_operation_xyz
x,y,z
-x,y,-z
-x,-y,-z
x,-y,z
1/2+x,1/2+y,z
1/2-x,1/2+y,-z
1/2-x,1/2-y,-z
1/2+x,1/2-y,z
loop_
_atom_site_type_symbol
_atom_site_label
_atom_site_fract_x
_atom_site_fract_y
_atom_site_fract_z
Si Si1 0.772496 0.329206 0.568296
Si Si2 0.081993 0.171706 0.572448
Si Si3 0.625722 0.166010 0.703415
Si Si4 0.940727 0.667439 0.712797
Si Si5 0.197570 0.677110 0.926387
Si Si6 0.486514 0.674261 0.843255
Si Si7 0.796429 0.174323 0.842085
O O1 0.779481 0.500000 0.554608
O O2 0.750000 0.250000 0.500000
O O3 0.688141 0.294461 0.584598
O O4 0.872763 0.273729 0.634934
O O5 0.076298 0.240585 0.634509
O O6 0.000000 0.242719 0.500000
O O7 0.059136 0.000000 0.571978
O O8 0.553265 0.166237 0.733056
O O9 0.727207 0.237365 0.764560
O O10 0.641960 0.000000 0.685265
O O11 0.907853 0.500000 0.718900
O O12 0.930414 0.777992 0.763825
O O13 0.198477 0.500000 0.931872
O O14 0.259619 0.734473 0.891955
O O15 0.085180 0.731673 0.885578
O O16 0.250000 0.750000 0.000000
O O17 0.511137 0.500000 0.850478
O O18 0.410986 0.711704 0.869958
O O19 0.778947 0.000000 0.835745
#
# Coordination Sequence:
#
# PCOD8092843 Si02
#       7
#     8   8   8   8   8   8   8
#     4  10  21  35  52  76 108 148 195 245 303 361
#     4  10  21  35  49  73 111 148 185 241 307 354
#     4  10  19  35  58  81 107 149 197 238 292 356
#     4  10  20  36  57  82 115 154 195 248 306 355
#     4  11  23  44  67  91 128 165 199 247 301 358
#     4  11  22  38  63  94 120 156 206 247 295 360
#     4   9  20  39  62  87 122 161 196 242 300 359
#
# _framework density 20.045559999999998
#
# number of rings (size 3 to 8) (size 9 to 14) (size 15 to 20)
#    0.000    1.857    1.429    2.571    0.000    2.571 
#    0.000    6.429    0.000    0.000    0.000    0.000 
#    0.000    0.000    0.000    0.000    0.000    0.000 
#
# Total GULP energy -347161.300068 kJ/mol
# GULP energy per Si atom -12398.617860 kJ/mol
# Density = 1.999994 g / cm^3
# Si number density = 20.045560 Si / 1000 Ang^3
#
#
#
# Elastic Constant Matrix: (Units=GPa)
#
#
# Indices 1 2 3 4 5 6 
#
# 1 105.8781 46.2716 63.8342 0.0000 0.2538 0.0000
# 2 46.2716 57.7677 34.5629 0.0000 -3.6037 0.0000
# 3 63.8342 34.5629 122.8233 0.0000 -5.1547 0.0000
# 4 0.0000 0.0000 0.0000 38.6582 0.0000 0.7322
# 5 0.2538 -3.6037 -5.1547 0.0000 29.8896 0.0000
# 6 0.0000 0.0000 0.0000 0.7322 0.0000 22.2793
#
#
#
# Elastic Compliance Matrix: (Units=1/GPa)
#
#
# Indices 1 2 3 4 5 6 
#
# 1 0.018043 -0.010746 -0.006461 0.000000 -0.002563 0.000000
# 2 -0.010746 0.027284 -0.001965 0.000000 0.003042 0.000000
# 3 -0.006461 -0.001965 0.012133 0.000000 0.001910 0.000000
# 4 0.000000 0.000000 0.000000 0.025884 0.000000 -0.000851
# 5 -0.002563 0.003042 0.001910 0.000000 0.034174 0.000000
# 6 0.000000 0.000000 0.000000 -0.000851 0.000000 0.044913
#
#
# Mechanical properties :
#
#
# Convention : Reuss Voigt Hill
#
# Bulk Modulus (GPa) = 52.31464 63.97850 58.14657
# Shear Modulus (GPa) = 24.13759 27.61879 25.87819
#
# Velocity S-wave (km/s) = 3.47383 3.71590 3.59690
# Velocity P-wave (km/s) = 6.49958 7.09904 6.80591
#
# Compressibility (1/GPa) = 0.01911511
#
# Stress axis : x y z
#
# Youngs Moduli (GPa) = 55.42437 36.65161 82.42222
#
# Poissons Ratio (x) = 0.39387 0.53250
# Poissons Ratio (y) = 0.59561 0.16196
# Poissons Ratio (z) = 0.35808 0.07202
#
# Static dielectric constant tensor:
#      x y z
#    x 3.748980 0.000000 0.115940 
#    y 0.000000 3.470250 0.000000 
#    z 0.115940 0.000000 3.735670 
# 
# 
# High freq. dielectric constant tensor:
#      x y z
#    x 1.792000 0.000000 0.006780 
#    y 0.000000 1.759920 0.000000 
#    z 0.006780 0.000000 1.789560 
# 
# From -- ./inp_files/339038.got.cif
#   From: 2010.06.25/outbox.cif.g09.slc.cpg/sg12_170_cif.got.tgz:339038.got - 2010.06.28 00:19:55.
