data_PCOD8092786
_publ_section_title
;
Structure prediction by ZEFSAII (Michael W. Deem and Ramdas Pophale) SiO2 
 PCOD8092786
Probable space group: C 2/M
;
_chemical_formula_sum "Si O2"
_cell_formula_units_Z 56
_cell_length_a 28.174192
_cell_length_b 8.762036
_cell_length_c 12.070316
_cell_angle_alpha 90.000000
_cell_angle_beta 109.173316
_cell_angle_gamma 90.000000
_cell_volume 2814.431202
_symmetry_space_group_name_H-M "C 2/M"
_symmetry_group_IT_number 12
_symmetry_cell_setting 'monoclinic'
loop_
_space_group_symop_operation_xyz
x,y,z
-x,y,-z
-x,-y,-z
x,-y,z
1/2+x,1/2+y,z
1/2-x,1/2+y,-z
1/2-x,1/2-y,-z
1/2+x,1/2-y,z
loop_
_atom_site_type_symbol
_atom_site_label
_atom_site_fract_x
_atom_site_fract_y
_atom_site_fract_z
Si Si1 0.248322 0.176432 0.377426
Si Si2 0.637006 0.323635 0.267437
Si Si3 0.406918 0.177195 0.569035
Si Si4 0.092175 0.322440 0.826018
Si Si5 0.557009 0.680073 0.024521
Si Si6 0.842184 0.680754 0.316991
Si Si7 0.993481 0.827398 0.365447
O O1 0.250000 0.250000 0.500000
O O2 0.194875 0.195827 0.273328
O O3 0.289573 0.248522 0.323400
O O4 0.261207 0.000000 0.407069
O O5 0.626099 0.500000 0.288969
O O6 0.635419 0.214948 0.373332
O O7 0.596359 0.262792 0.147202
O O8 0.386758 0.231938 0.434204
O O9 0.453532 0.279153 0.646149
O O10 0.421343 0.000000 0.579653
O O11 0.095124 0.500000 0.858353
O O12 0.142593 0.267038 0.796940
O O13 0.046891 0.293143 0.706925
O O14 0.082060 0.229048 0.928743
O O15 0.553379 0.500000 0.021659
O O16 0.500000 0.746735 0.000000
O O17 0.838884 0.500000 0.314472
O O18 0.000000 0.810154 0.500000
O O19 0.979913 0.000000 0.318064
#
# Coordination Sequence:
#
# PCOD8092786 Si02
#       7
#     8   8   8   8   8   8   8
#     4  10  19  35  57  84 117 153 193 235 289 344
#     4  10  21  36  58  85 114 152 197 242 288 342
#     4  11  20  33  55  82 116 151 186 230 285 345
#     4  11  22  38  59  82 112 151 195 238 288 346
#     4  10  22  41  60  80 114 154 193 241 294 346
#     4   9  19  34  53  81 117 150 179 230 293 341
#     4  11  22  34  51  79 114 148 184 228 283 345
#
# _framework density 19.897449999999999
#
# number of rings (size 3 to 8) (size 9 to 14) (size 15 to 20)
#    0.000    1.714    2.857    2.143    0.000    2.571 
#    0.000    2.143    0.000    0.000    0.000    0.000 
#    0.000    0.000    0.000    0.000    0.000    0.000 
#
# Total GULP energy -346981.197261 kJ/mol
# GULP energy per Si atom -12392.185616 kJ/mol
# Density = 1.985216 g / cm^3
# Si number density = 19.897450 Si / 1000 Ang^3
#
#
#
# Elastic Constant Matrix: (Units=GPa)
#
#
# Indices 1 2 3 4 5 6 
#
# 1 133.1726 6.3747 48.3673 0.0000 -11.3083 0.0000
# 2 6.3747 13.3352 13.6539 0.0000 2.0241 0.0000
# 3 48.3673 13.6539 87.4098 0.0000 -9.8258 0.0000
# 4 0.0000 0.0000 0.0000 24.4985 0.0000 -6.4738
# 5 -11.3083 2.0241 -9.8258 0.0000 35.9812 0.0000
# 6 0.0000 0.0000 0.0000 -6.4738 0.0000 21.9505
#
#
#
# Elastic Compliance Matrix: (Units=1/GPa)
#
#
# Indices 1 2 3 4 5 6 
#
# 1 0.009489 0.000509 -0.005156 0.000000 0.001545 0.000000
# 2 0.000509 0.092285 -0.015746 0.000000 -0.009331 0.000000
# 3 -0.005156 -0.015746 0.017198 0.000000 0.003962 0.000000
# 4 0.000000 0.000000 0.000000 0.044269 0.000000 0.013056
# 5 0.001545 -0.009331 0.003962 0.000000 0.029885 0.000000
# 6 0.000000 0.000000 0.000000 0.013056 0.000000 0.049408
#
#
# Mechanical properties :
#
#
# Convention : Reuss Voigt Hill
#
# Bulk Modulus (GPa) = 12.79011 41.18995 26.99003
# Shear Modulus (GPa) = 16.16127 27.52082 21.84105
#
# Velocity S-wave (km/s) = 2.85305 3.72308 3.31672
# Velocity P-wave (km/s) = 4.15875 6.26322 5.31616
#
# Compressibility (1/GPa) = 0.07818539
#
# Stress axis : x y z
#
# Youngs Moduli (GPa) = 105.38942 10.83602 58.14466
#
# Poissons Ratio (x) = -0.00552 0.29981
# Poissons Ratio (y) = -0.05364 0.91555
# Poissons Ratio (z) = 0.54341 0.17062
#
# Static dielectric constant tensor:
#      x y z
#    x 4.140510 0.000000 -0.072500 
#    y 0.000000 3.377180 0.000000 
#    z -0.072500 0.000000 3.570060 
# 
# 
# High freq. dielectric constant tensor:
#      x y z
#    x 1.792960 0.000000 -0.009190 
#    y 0.000000 1.754690 0.000000 
#    z -0.009190 0.000000 1.756480 
# 
# From -- ./inp_files/186815.got.cif
#   From: 2010.06.25/outbox.cif.g09.slc.cpg/sg12_94_cif.got.tgz:186815.got - 2010.06.28 00:19:55.
