data_PCOD8092137
_publ_section_title
;
Structure prediction by ZEFSAII (Michael W. Deem and Ramdas Pophale) SiO2 
 PCOD8092137
Probable space group: C 2/M
;
_chemical_formula_sum "Si O2"
_cell_formula_units_Z 64
_cell_length_a 31.125728
_cell_length_b 18.203044
_cell_length_c 9.591934
_cell_angle_alpha 90.000000
_cell_angle_beta 140.017479
_cell_angle_gamma 90.000000
_cell_volume 3492.040507
_symmetry_space_group_name_H-M "C 2/M"
_symmetry_group_IT_number 12
_symmetry_cell_setting 'monoclinic'
loop_
_space_group_symop_operation_xyz
x,y,z
-x,y,-z
-x,-y,-z
x,-y,z
1/2+x,1/2+y,z
1/2-x,1/2+y,-z
1/2-x,1/2-y,-z
1/2+x,1/2-y,z
loop_
_atom_site_type_symbol
_atom_site_label
_atom_site_fract_x
_atom_site_fract_y
_atom_site_fract_z
Si Si1 0.807672 0.917831 0.942222
Si Si2 0.061331 0.304714 0.856497
Si Si3 0.753229 0.868210 0.525175
Si Si4 0.927939 0.822728 0.326503
Si Si5 0.214497 0.329743 0.910469
Si Si6 0.912767 0.271025 0.537620
Si Si7 0.830654 0.415924 0.936104
Si Si8 0.147798 0.752891 0.320371
O O1 0.778051 0.918811 0.713131
O O2 0.757161 0.886274 0.928828
O O3 0.824427 0.000000 0.029257
O O4 0.875794 0.872284 0.116017
O O5 0.067734 0.257641 0.732343
O O6 0.983862 0.313202 0.706749
O O7 0.095263 0.384148 0.913785
O O8 0.100674 0.261172 0.072679
O O9 0.713328 0.916370 0.313706
O O10 0.817297 0.831835 0.609718
O O11 0.706080 0.807140 0.478203
O O12 0.910041 0.805176 0.442686
O O13 0.000000 0.862671 0.500000
O O14 0.142726 0.326537 0.658362
O O15 0.250000 0.250000 0.000000
O O16 0.206063 0.362569 0.044514
O O17 0.898284 0.247444 0.658697
O O18 0.837696 0.500000 0.006792
#
# Coordination Sequence:
#
# PCOD8092137 Si02
#       8
#     8   8   8   8   8   8   8   8
#     4  12  23  38  58  87 118 151 190 235 297 351
#     4  10  20  37  59  85 111 153 200 236 278 339
#     4  10  21  35  58  83 111 151 190 241 283 344
#     4  10  21  38  60  86 113 148 192 239 280 340
#     4  12  22  38  60  87 116 148 194 242 288 339
#     4  11  20  34  61  86 115 143 195 247 278 330
#     4  11  23  39  56  83 122 157 190 236 296 349
#     4  10  19  34  59  87 110 143 200 240 287 323
#
# _framework density 18.327394000000002
#
# number of rings (size 3 to 8) (size 9 to 14) (size 15 to 20)
#    0.000    1.250    5.000    1.875    1.750    0.250 
#    0.000    1.875    0.000    1.500    0.000    1.750 
#    0.000    0.000    0.000    0.000    0.000    0.000 
#
# Total GULP energy -396820.346175 kJ/mol
# GULP energy per Si atom -12400.635818 kJ/mol
# Density = 1.828568 g / cm^3
# Si number density = 18.327394 Si / 1000 Ang^3
#
#
#
# Elastic Constant Matrix: (Units=GPa)
#
#
# Indices 1 2 3 4 5 6 
#
# 1 115.6011 36.5325 35.4693 0.0000 1.4103 0.0000
# 2 36.5325 79.3867 20.7110 0.0000 6.1983 0.0000
# 3 35.4693 20.7110 93.3176 0.0000 16.3812 0.0000
# 4 0.0000 0.0000 0.0000 12.7066 0.0000 -5.3956
# 5 1.4103 6.1983 16.3812 0.0000 33.2410 0.0000
# 6 0.0000 0.0000 0.0000 -5.3956 0.0000 15.9508
#
#
#
# Elastic Compliance Matrix: (Units=1/GPa)
#
#
# Indices 1 2 3 4 5 6 
#
# 1 0.011108 -0.004330 -0.003635 0.000000 0.002127 0.000000
# 2 -0.004330 0.015097 -0.001361 0.000000 -0.001961 0.000000
# 3 -0.003635 -0.001361 0.013495 0.000000 -0.006243 0.000000
# 4 0.000000 0.000000 0.000000 0.091899 0.000000 0.031086
# 5 0.002127 -0.001961 -0.006243 0.000000 0.033435 0.000000
# 6 0.000000 0.000000 0.000000 0.031086 0.000000 0.073208
#
#
# Mechanical properties :
#
#
# Convention : Reuss Voigt Hill
#
# Bulk Modulus (GPa) = 47.50467 52.63679 50.07073
# Shear Modulus (GPa) = 18.94589 25.41917 22.18253
#
# Velocity S-wave (km/s) = 3.21868 3.72822 3.48278
# Velocity P-wave (km/s) = 6.30789 6.87862 6.59943
#
# Compressibility (1/GPa) = 0.02105056
#
# Stress axis : x y z
#
# Youngs Moduli (GPa) = 90.02619 66.23799 74.09922
#
# Poissons Ratio (x) = 0.28678 0.26931
# Poissons Ratio (y) = 0.38977 0.10084
# Poissons Ratio (z) = 0.32720 0.09014
#
# Static dielectric constant tensor:
#      x y z
#    x 3.517850 0.000000 0.083640 
#    y 0.000000 3.057720 0.000000 
#    z 0.083640 0.000000 3.611390 
# 
# 
# High freq. dielectric constant tensor:
#      x y z
#    x 1.720750 0.000000 -0.001940 
#    y 0.000000 1.676980 0.000000 
#    z -0.001940 0.000000 1.726780 
# 
# From -- ./inp_files/112892.got.cif
#   From: 2010.06.25/outbox.cif.g09.slc.cpg/sg12_57_cif.got.tgz:112892.got - 2010.06.28 00:19:55.
