data_PCOD8092561
_publ_section_title
;
Structure prediction by ZEFSAII (Michael W. Deem and Ramdas Pophale) SiO2 
 PCOD8092561
Probable space group: C 2/M
;
_chemical_formula_sum "Si O2"
_cell_formula_units_Z 64
_cell_length_a 21.646708
_cell_length_b 16.913599
_cell_length_c 20.151684
_cell_angle_alpha 90.000000
_cell_angle_beta 28.787872
_cell_angle_gamma 90.000000
_cell_volume 3553.014738
_symmetry_space_group_name_H-M "C 2/M"
_symmetry_group_IT_number 12
_symmetry_cell_setting 'monoclinic'
loop_
_space_group_symop_operation_xyz
x,y,z
-x,y,-z
-x,-y,-z
x,-y,z
1/2+x,1/2+y,z
1/2-x,1/2+y,-z
1/2-x,1/2-y,-z
1/2+x,1/2-y,z
loop_
_atom_site_type_symbol
_atom_site_label
_atom_site_fract_x
_atom_site_fract_y
_atom_site_fract_z
Si Si1 0.009158 0.726800 0.569774
Si Si2 0.725054 0.591673 0.518729
Si Si3 0.641509 0.590115 0.856614
Si Si4 0.660749 0.089990 0.216509
Si Si5 0.284939 0.316643 0.338137
Si Si6 0.950810 0.699444 0.251930
Si Si7 0.473385 0.332359 0.715602
Si Si8 0.281574 0.840889 0.979992
O O1 0.153302 0.731187 0.461512
O O2 0.941779 0.800598 0.670878
O O3 0.000000 0.739154 0.500000
O O4 0.950517 0.642829 0.646918
O O5 0.760165 0.500000 0.483380
O O6 0.709241 0.618669 0.609415
O O7 0.840647 0.638253 0.375419
O O8 0.590366 0.605586 0.607265
O O9 0.638168 0.500000 0.834951
O O10 0.712251 0.599303 0.859581
O O11 0.710836 0.641340 0.736260
O O12 0.500000 0.623846 0.000000
O O13 0.609588 0.000000 0.264989
O O14 0.701419 0.113787 0.104766
O O15 0.400515 0.253809 0.238906
O O16 0.985209 0.754610 0.282005
O O17 0.082576 0.653294 0.107666
O O18 0.342448 0.375618 0.864440
O O19 0.250000 0.750000 0.000000
#
# Coordination Sequence:
#
# PCOD8092561 Si02
#       8
#     8   8   8   8   8   8   8   8
#     4  12  21  36  58  81 112 153 188 226 279 337
#     4  11  21  34  57  82 110 147 184 234 290 327
#     4  10  23  36  48  75 118 155 185 220 265 330
#     4  11  23  36  53  83 117 151 189 228 276 339
#     4  11  20  35  54  78 109 148 189 222 265 339
#     4  10  19  35  56  78 107 142 188 238 276 327
#     4  10  20  38  56  81 112 143 194 242 275 331
#     4  10  20  35  58  77 106 152 189 234 286 315
#
# _framework density 18.012872000000002
#
# number of rings (size 3 to 8) (size 9 to 14) (size 15 to 20)
#    0.000    1.375    6.250    1.125    5.250    3.250 
#    0.000    0.000    0.000    0.375    0.000    0.000 
#    0.000    1.500    0.000    0.000    0.000    0.000 
#
# Total GULP energy -396698.376778 kJ/mol
# GULP energy per Si atom -12396.824274 kJ/mol
# Density = 1.797187 g / cm^3
# Si number density = 18.012872 Si / 1000 Ang^3
#
#
#
# Elastic Constant Matrix: (Units=GPa)
#
#
# Indices 1 2 3 4 5 6 
#
# 1 94.3126 35.3158 47.3931 -0.0003 -5.0111 0.0001
# 2 35.3158 51.9469 21.8411 0.0003 0.4472 -0.0004
# 3 47.3931 21.8411 106.2347 -0.0003 -17.9258 0.0004
# 4 -0.0003 0.0003 -0.0003 20.3210 0.0004 0.8751
# 5 -5.0111 0.4472 -17.9258 0.0004 37.1689 -0.0002
# 6 0.0001 -0.0004 0.0004 0.8751 -0.0002 22.8679
#
#
#
# Elastic Compliance Matrix: (Units=1/GPa)
#
#
# Indices 1 2 3 4 5 6 
#
# 1 0.016843 -0.009043 -0.005719 0.000000 -0.000378 0.000000
# 2 -0.009043 0.026151 -0.001743 -0.000001 -0.002374 0.000000
# 3 -0.005719 -0.001743 0.013276 0.000000 0.005653 0.000000
# 4 0.000000 -0.000001 0.000000 0.049291 0.000000 -0.001886
# 5 -0.000378 -0.002374 0.005653 0.000000 0.029608 0.000000
# 6 0.000000 0.000000 0.000000 -0.001886 0.000000 0.043802
#
#
# Mechanical properties :
#
#
# Convention : Reuss Voigt Hill
#
# Bulk Modulus (GPa) = 42.98885 51.28824 47.13855
# Shear Modulus (GPa) = 22.75477 25.93453 24.34465
#
# Velocity S-wave (km/s) = 3.55808 3.79856 3.68028
# Velocity P-wave (km/s) = 6.38728 6.91185 6.65473
#
# Compressibility (1/GPa) = 0.02326184
#
# Stress axis : x y z
#
# Youngs Moduli (GPa) = 59.37308 38.23889 75.32115
#
# Poissons Ratio (x) = 0.34579 0.43073
# Poissons Ratio (y) = 0.53690 0.13129
# Poissons Ratio (z) = 0.33953 0.06665
#
# Static dielectric constant tensor:
#      x y z
#    x 3.286070 0.000000 0.044600 
#    y 0.000000 3.168770 0.000000 
#    z 0.044600 0.000000 2.555550 
# 
# 
# High freq. dielectric constant tensor:
#      x y z
#    x 1.690330 0.000000 -0.020990 
#    y 0.000000 1.670250 0.000000 
#    z -0.020990 0.000000 1.704970 
# 
# From -- ./inp_files/285205.got.cif
#   From: 2010.06.25/outbox.cif.g09.slc.cpg/sg12_143_cif.got.tgz:285205.got - 2010.06.28 00:19:55.
