data_PCOD8092111
_publ_section_title
;
Structure prediction by ZEFSAII (Michael W. Deem and Ramdas Pophale) SiO2 
 PCOD8092111
Probable space group: C 2/M
;
_chemical_formula_sum "Si O2"
_cell_formula_units_Z 48
_cell_length_a 29.647862
_cell_length_b 8.946538
_cell_length_c 9.945494
_cell_angle_alpha 90.000000
_cell_angle_beta 80.295982
_cell_angle_gamma 90.000000
_cell_volume 2600.254335
_symmetry_space_group_name_H-M "C 2/M"
_symmetry_group_IT_number 12
_symmetry_cell_setting 'monoclinic'
loop_
_space_group_symop_operation_xyz
x,y,z
-x,y,-z
-x,-y,-z
x,-y,z
1/2+x,1/2+y,z
1/2-x,1/2+y,-z
1/2-x,1/2-y,-z
1/2+x,1/2-y,z
loop_
_atom_site_type_symbol
_atom_site_label
_atom_site_fract_x
_atom_site_fract_y
_atom_site_fract_z
Si Si1 0.530674 0.674664 0.609882
Si Si2 0.521561 0.170465 0.133655
Si Si3 0.213079 0.175293 0.113841
Si Si4 0.880900 0.326751 0.524752
Si Si5 0.286973 0.323571 0.576792
Si Si6 0.620531 0.170623 0.164300
O O1 0.500000 0.724878 0.500000
O O2 0.541920 0.500000 0.599872
O O3 0.503665 0.713964 0.757768
O O4 0.577750 0.765890 0.585534
O O5 0.575629 0.209170 0.099439
O O6 0.515470 0.000000 0.189183
O O7 0.500000 0.192245 0.000000
O O8 0.222503 0.222671 0.263549
O O9 0.162352 0.226496 0.095125
O O10 0.216430 0.000000 0.092754
O O11 0.250000 0.250000 0.000000
O O12 0.873050 0.500000 0.496240
O O13 0.835870 0.237048 0.504910
O O14 0.892506 0.297919 0.674630
O O15 0.285817 0.500000 0.559131
O O16 0.250000 0.250000 0.500000
O O17 0.636212 0.000000 0.136209
#
# Coordination Sequence:
#
# PCOD8092111 Si02
#       6
#     8   8   8   8   8   8
#     4  11  22  35  56  84 114 148 188 233 275 329
#     4  10  21  38  58  82 113 150 187 230 281 332
#     4  10  21  37  59  84 110 144 187 230 276 331
#     4  10  19  34  59  85 110 146 189 232 278 330
#     4  10  21  38  59  85 116 147 182 229 283 334
#     4   9  18  34  57  82 109 144 186 229 277 330
#
# _framework density 18.459731999999999
#
# number of rings (size 3 to 8) (size 9 to 14) (size 15 to 20)
#    0.000    2.000    1.667    2.000    0.000    4.333 
#    3.000    0.000    0.000    0.000    0.000    0.000 
#    0.000    0.000    0.000    0.000    0.000    0.000 
#
# Total GULP energy -297695.440247 kJ/mol
# GULP energy per Si atom -12403.976677 kJ/mol
# Density = 1.841772 g / cm^3
# Si number density = 18.459732 Si / 1000 Ang^3
#
#
#
# Elastic Constant Matrix: (Units=GPa)
#
#
# Indices 1 2 3 4 5 6 
#
# 1 152.6289 59.1121 65.6202 0.0000 5.0666 0.0000
# 2 59.1121 78.5530 39.8772 0.0000 -2.5290 0.0000
# 3 65.6202 39.8772 71.2581 0.0000 0.0117 0.0000
# 4 0.0000 0.0000 0.0000 26.5919 0.0000 -6.5008
# 5 5.0666 -2.5290 0.0117 0.0000 36.1678 0.0000
# 6 0.0000 0.0000 0.0000 -6.5008 0.0000 36.8059
#
#
#
# Elastic Compliance Matrix: (Units=1/GPa)
#
#
# Indices 1 2 3 4 5 6 
#
# 1 0.012156 -0.004932 -0.008434 0.000000 -0.002045 0.000000
# 2 -0.004932 0.019839 -0.006561 0.000000 0.002080 0.000000
# 3 -0.008434 -0.006561 0.025471 0.000000 0.000714 0.000000
# 4 0.000000 0.000000 0.000000 0.039303 0.000000 0.006942
# 5 -0.002045 0.002080 0.000714 0.000000 0.028081 0.000000
# 6 0.000000 0.000000 0.000000 0.006942 0.000000 0.028396
#
#
# Mechanical properties :
#
#
# Convention : Reuss Voigt Hill
#
# Bulk Modulus (GPa) = 56.77555 70.18434 63.47995
# Shear Modulus (GPa) = 25.12951 29.10181 27.11566
#
# Velocity S-wave (km/s) = 3.69360 3.97483 3.83679
# Velocity P-wave (km/s) = 7.00096 7.69210 7.35466
#
# Compressibility (1/GPa) = 0.01761322
#
# Stress axis : x y z
#
# Youngs Moduli (GPa) = 82.26600 50.40525 39.25963
#
# Poissons Ratio (x) = 0.24859 0.33110
# Poissons Ratio (y) = 0.40572 0.25759
# Poissons Ratio (z) = 0.69380 0.33071
#
# Static dielectric constant tensor:
#      x y z
#    x 3.269620 0.000000 -0.577780 
#    y 0.000000 3.458330 0.000000 
#    z -0.577780 0.000000 2.011230 
# 
# 
# High freq. dielectric constant tensor:
#      x y z
#    x 1.728180 0.000000 -0.001100 
#    y 0.000000 1.724320 0.000000 
#    z -0.001100 0.000000 1.694480 
# 
# From -- ./inp_files/108608.got.cif
#   From: 2010.06.25/outbox.cif.g09.slc.cpg/sg12_55_cif.got.tgz:108608.got - 2010.06.28 00:19:55.
