data_PCOD8092425
_publ_section_title
;
Structure prediction by ZEFSAII (Michael W. Deem and Ramdas Pophale) SiO2 
 PCOD8092425
Probable space group: C 2/M
;
_chemical_formula_sum "Si O2"
_cell_formula_units_Z 56
_cell_length_a 12.348153
_cell_length_b 19.064130
_cell_length_c 11.628254
_cell_angle_alpha 90.000000
_cell_angle_beta 90.696441
_cell_angle_gamma 90.000000
_cell_volume 2737.167776
_symmetry_space_group_name_H-M "C 2/M"
_symmetry_group_IT_number 12
_symmetry_cell_setting 'monoclinic'
loop_
_space_group_symop_operation_xyz
x,y,z
-x,y,-z
-x,-y,-z
x,-y,z
1/2+x,1/2+y,z
1/2-x,1/2+y,-z
1/2-x,1/2-y,-z
1/2+x,1/2-y,z
loop_
_atom_site_type_symbol
_atom_site_label
_atom_site_fract_x
_atom_site_fract_y
_atom_site_fract_z
Si Si1 0.203499 0.839481 0.628028
Si Si2 0.567254 0.579526 0.160607
Si Si3 0.645814 0.356047 0.375559
Si Si4 0.181939 0.078978 0.848626
Si Si5 0.936506 0.291053 0.615134
Si Si6 0.144099 0.312452 0.726492
Si Si7 0.246464 0.828782 0.043297
O O1 0.132750 0.860003 0.514076
O O2 0.196321 0.903078 0.715707
O O3 0.327880 0.834167 0.588830
O O4 0.160526 0.769308 0.690258
O O5 0.604335 0.500000 0.126776
O O6 0.580211 0.585894 0.300832
O O7 0.443770 0.590597 0.118816
O O8 0.637467 0.640967 0.102132
O O9 0.598403 0.282399 0.328748
O O10 0.773484 0.360046 0.345883
O O11 0.218175 0.000000 0.867387
O O12 0.262995 0.124212 0.929808
O O13 0.000000 0.276024 0.500000
O O14 0.018931 0.332299 0.700478
O O15 0.158524 0.330293 0.861242
O O16 0.250000 0.750000 0.000000
#
# Coordination Sequence:
#
# PCOD8092425 Si02
#       7
#     8   8   8   8   8   8   8
#     4  11  20  35  56  91 125 154 202 250 305 362
#     4  10  23  41  63  90 125 168 203 241 306 377
#     4  10  20  31  57  90 125 155 195 248 300 367
#     4  11  24  42  62  87 126 165 201 253 311 363
#     4  11  18  32  59  87 123 161 196 251 314 362
#     4  10  19  35  54  88 119 156 195 252 307 352
#     4  11  22  39  61  89 120 152 208 256 296 356
#
# _framework density 20.459104
#
# number of rings (size 3 to 8) (size 9 to 14) (size 15 to 20)
#    0.000    1.429    4.286    2.571    0.000    1.714 
#    2.571    2.143    0.000    5.571    0.000    0.000 
#    0.000    0.000    0.000    0.000    0.000    0.000 
#
# Total GULP energy -346922.808596 kJ/mol
# GULP energy per Si atom -12390.100307 kJ/mol
# Density = 2.041254 g / cm^3
# Si number density = 20.459104 Si / 1000 Ang^3
#
#
#
# Elastic Constant Matrix: (Units=GPa)
#
#
# Indices 1 2 3 4 5 6 
#
# 1 61.4436 15.7925 5.8049 0.0000 13.4546 0.0000
# 2 15.7925 97.2352 39.2630 0.0000 5.1125 0.0000
# 3 5.8049 39.2630 113.1592 0.0000 26.4095 0.0000
# 4 0.0000 0.0000 0.0000 23.7162 0.0000 0.3070
# 5 13.4546 5.1125 26.4095 0.0000 38.2962 0.0000
# 6 0.0000 0.0000 0.0000 0.3070 0.0000 16.2849
#
#
#
# Elastic Compliance Matrix: (Units=1/GPa)
#
#
# Indices 1 2 3 4 5 6 
#
# 1 0.018597 -0.003425 0.001969 0.000000 -0.007435 0.000000
# 2 -0.003425 0.012664 -0.004892 0.000000 0.002886 0.000000
# 3 0.001969 -0.004892 0.012446 0.000000 -0.008621 0.000000
# 4 0.000000 0.000000 0.000000 0.042176 0.000000 -0.000795
# 5 -0.007435 0.002886 -0.008621 0.000000 0.034284 0.000000
# 6 0.000000 0.000000 0.000000 -0.000795 0.000000 0.061422
#
#
# Mechanical properties :
#
#
# Convention : Reuss Voigt Hill
#
# Bulk Modulus (GPa) = 32.24529 43.72875 37.98702
# Shear Modulus (GPa) = 24.43544 29.72464 27.08004
#
# Velocity S-wave (km/s) = 3.45969 3.81580 3.64210
# Velocity P-wave (km/s) = 5.63510 6.39014 6.02446
#
# Compressibility (1/GPa) = 0.03101228
#
# Stress axis : x y z
#
# Youngs Moduli (GPa) = 53.77127 78.96280 80.34997
#
# Poissons Ratio (x) = 0.27043 -0.15824
# Poissons Ratio (y) = 0.18416 0.39307
# Poissons Ratio (z) = -0.10590 0.38629
#
# Static dielectric constant tensor:
#      x y z
#    x 3.982620 0.000000 0.304680 
#    y 0.000000 3.457170 0.000000 
#    z 0.304680 0.000000 4.208550 
# 
# 
# High freq. dielectric constant tensor:
#      x y z
#    x 1.786890 0.000000 0.016110 
#    y 0.000000 1.758310 0.000000 
#    z 0.016110 0.000000 1.821230 
# 
# From -- ./inp_files/133255.got.cif
#   From: 2010.06.25/outbox.cif.g09.slc.cpg/sg12_67_cif.got.tgz:133255.got - 2010.06.28 00:19:55.
