data_PCOD8092256
_publ_section_title
;
Structure prediction by ZEFSAII (Michael W. Deem and Ramdas Pophale) SiO2 
 PCOD8092256
Probable space group: C 2/M
;
_chemical_formula_sum "Si O2"
_cell_formula_units_Z 56
_cell_length_a 28.349928
_cell_length_b 8.987304
_cell_length_c 19.333363
_cell_angle_alpha 90.000000
_cell_angle_beta 143.516665
_cell_angle_gamma 90.000000
_cell_volume 2928.907347
_symmetry_space_group_name_H-M "C 2/M"
_symmetry_group_IT_number 12
_symmetry_cell_setting 'monoclinic'
loop_
_space_group_symop_operation_xyz
x,y,z
-x,y,-z
-x,-y,-z
x,-y,z
1/2+x,1/2+y,z
1/2-x,1/2+y,-z
1/2-x,1/2-y,-z
1/2+x,1/2-y,z
loop_
_atom_site_type_symbol
_atom_site_label
_atom_site_fract_x
_atom_site_fract_y
_atom_site_fract_z
Si Si1 0.008473 0.824750 0.670923
Si Si2 0.701990 0.669440 0.227206
Si Si3 0.350227 0.172299 0.236434
Si Si4 0.692020 0.171722 0.075505
Si Si5 0.451402 0.329547 0.874909
Si Si6 0.018384 0.327943 0.822444
Si Si7 0.879230 0.330746 0.430600
O O1 0.940382 0.781814 0.536579
O O2 0.092220 0.756805 0.747560
O O3 0.984660 0.763579 0.718012
O O4 0.016196 0.000000 0.682745
O O5 0.698008 0.500000 0.193826
O O6 0.675924 0.776882 0.134767
O O7 0.642399 0.691407 0.220951
O O8 0.791606 0.702810 0.357774
O O9 0.261754 0.234631 0.121960
O O10 0.379356 0.198064 0.348886
O O11 0.350137 0.000000 0.216041
O O12 0.716917 0.000000 0.105969
O O13 0.612432 0.199007 0.938440
O O14 0.471855 0.500000 0.880008
O O15 0.473585 0.224440 0.838154
O O16 0.500000 0.280705 0.000000
O O17 0.998308 0.500000 0.787668
O O18 0.905667 0.500000 0.477787
#
# Coordination Sequence:
#
# PCOD8092256 Si02
#       7
#     8   8   8   8   8   8   8
#     4  12  25  39  57  81 112 150 192 237 283 331
#     4   9  18  34  58  87 116 149 183 227 283 333
#     4  10  21  38  62  86 112 148 187 229 282 338
#     4  10  20  34  55  85 116 146 186 234 278 328
#     4  10  19  34  60  89 117 147 186 231 277 334
#     4  11  24  39  56  81 117 155 190 230 282 338
#     4   9  19  37  60  84 113 148 188 228 275 335
#
# _framework density 19.119758999999998
#
# number of rings (size 3 to 8) (size 9 to 14) (size 15 to 20)
#    0.000    1.857    1.429    3.857    0.000    7.714 
#    0.000    0.714    0.000    0.000    0.000    0.000 
#    0.000    0.000    0.000    0.000    0.000    0.000 
#
# Total GULP energy -347319.533282 kJ/mol
# GULP energy per Si atom -12404.269046 kJ/mol
# Density = 1.907624 g / cm^3
# Si number density = 19.119759 Si / 1000 Ang^3
#
#
#
# Elastic Constant Matrix: (Units=GPa)
#
#
# Indices 1 2 3 4 5 6 
#
# 1 96.5435 42.7559 19.9442 0.0000 5.2054 0.0000
# 2 42.7559 115.5334 27.7720 0.0000 -1.4441 0.0000
# 3 19.9442 27.7720 31.7231 0.0000 0.1147 0.0000
# 4 0.0000 0.0000 0.0000 31.2612 0.0000 -0.3547
# 5 5.2054 -1.4441 0.1147 0.0000 22.8784 0.0000
# 6 0.0000 0.0000 0.0000 -0.3547 0.0000 35.5631
#
#
#
# Elastic Compliance Matrix: (Units=1/GPa)
#
#
# Indices 1 2 3 4 5 6 
#
# 1 0.013221 -0.003721 -0.005043 0.000000 -0.003218 0.000000
# 2 -0.003721 0.012022 -0.008192 0.000000 0.001646 0.000000
# 3 -0.005043 -0.008192 0.041863 0.000000 0.000421 0.000000
# 4 0.000000 0.000000 0.000000 0.031992 0.000000 0.000319
# 5 -0.003218 0.001646 0.000421 0.000000 0.044543 0.000000
# 6 0.000000 0.000000 0.000000 0.000319 0.000000 0.028122
#
#
# Mechanical properties :
#
#
# Convention : Reuss Voigt Hill
#
# Bulk Modulus (GPa) = 30.12445 47.19381 38.65913
# Shear Modulus (GPa) = 23.06911 28.16239 25.61575
#
# Velocity S-wave (km/s) = 3.47732 3.84206 3.66423
# Velocity P-wave (km/s) = 5.64909 6.66474 6.17782
#
# Compressibility (1/GPa) = 0.03319562
#
# Stress axis : x y z
#
# Youngs Moduli (GPa) = 75.63647 83.17996 23.88738
#
# Poissons Ratio (x) = 0.30949 0.12047
# Poissons Ratio (y) = 0.28142 0.19567
# Poissons Ratio (z) = 0.38144 0.68137
#
# Static dielectric constant tensor:
#      x y z
#    x 3.538380 0.000000 0.181580 
#    y 0.000000 3.513700 0.000000 
#    z 0.181580 0.000000 3.382210 
# 
# 
# High freq. dielectric constant tensor:
#      x y z
#    x 1.745500 0.000000 0.013810 
#    y 0.000000 1.747710 0.000000 
#    z 0.013810 0.000000 1.730920 
# 
# From -- ./inp_files/292451.got.cif
#   From: 2010.06.25/outbox.cif.g09.slc.cpg/sg12_147_cif.got.tgz:292451.got - 2010.06.28 00:19:55.
