data_PCOD8092841
_publ_section_title
;
Structure prediction by ZEFSAII (Michael W. Deem and Ramdas Pophale) SiO2 
 PCOD8092841
Probable space group: C 2/M
;
_chemical_formula_sum "Si O2"
_cell_formula_units_Z 48
_cell_length_a 20.419887
_cell_length_b 9.249208
_cell_length_c 13.868499
_cell_angle_alpha 90.000000
_cell_angle_beta 90.169965
_cell_angle_gamma 90.000000
_cell_volume 2619.301124
_symmetry_space_group_name_H-M "C 2/M"
_symmetry_group_IT_number 12
_symmetry_cell_setting 'monoclinic'
loop_
_space_group_symop_operation_xyz
x,y,z
-x,y,-z
-x,-y,-z
x,-y,z
1/2+x,1/2+y,z
1/2-x,1/2+y,-z
1/2-x,1/2-y,-z
1/2+x,1/2-y,z
loop_
_atom_site_type_symbol
_atom_site_label
_atom_site_fract_x
_atom_site_fract_y
_atom_site_fract_z
Si Si1 0.307153 0.836837 0.547601
Si Si2 0.196735 0.171034 0.063254
Si Si3 0.433525 0.329092 0.045292
Si Si4 0.936088 0.329173 0.442462
Si Si5 0.259849 0.835525 0.756879
Si Si6 0.108301 0.829283 0.744176
O O1 0.250000 0.750000 0.500000
O O2 0.376421 0.778877 0.510192
O O3 0.303700 0.823257 0.662166
O O4 0.297274 0.000000 0.513421
O O5 0.204328 0.226035 0.171621
O O6 0.207382 0.000000 0.057763
O O7 0.250000 0.250000 0.000000
O O8 0.125734 0.217217 0.024204
O O9 0.439256 0.500000 0.049911
O O10 0.420510 0.272889 0.153867
O O11 0.500000 0.262161 0.000000
O O12 0.937396 0.500000 0.423657
O O13 0.931797 0.250694 0.339547
O O14 0.000000 0.277217 0.500000
O O15 0.184992 0.787328 0.737829
O O16 0.259912 0.000000 0.797576
O O17 0.098951 0.000000 0.731210
#
# Coordination Sequence:
#
# PCOD8092841 Si02
#       6
#     8   8   8   8   8   8
#     4  10  20  35  56  79 108 143 182 227 271 319
#     4  11  21  35  57  84 111 144 184 227 273 325
#     4   9  19  36  56  79 110 144 180 224 272 320
#     4  10  22  38  55  80 114 148 179 221 278 333
#     4  10  20  35  55  83 113 143 182 231 277 319
#     4  10  19  35  58  81 107 144 184 226 274 323
#
# _framework density 18.325499000000001
#
# number of rings (size 3 to 8) (size 9 to 14) (size 15 to 20)
#    0.000    2.000    3.333    0.500    0.000    3.000 
#    0.000    0.000    0.000    3.500    0.000    0.000 
#    0.000    0.000    0.000    0.000    0.000    0.000 
#
# Total GULP energy -297616.564436 kJ/mol
# GULP energy per Si atom -12400.690185 kJ/mol
# Density = 1.828379 g / cm^3
# Si number density = 18.325499 Si / 1000 Ang^3
#
#
#
# Elastic Constant Matrix: (Units=GPa)
#
#
# Indices 1 2 3 4 5 6 
#
# 1 151.5494 45.6125 74.4526 0.0000 7.4314 0.0000
# 2 45.6125 52.1214 45.1228 0.0000 11.4660 0.0000
# 3 74.4526 45.1228 128.1150 0.0000 12.0719 0.0000
# 4 0.0000 0.0000 0.0000 35.5259 0.0000 7.7473
# 5 7.4314 11.4660 12.0719 0.0000 37.3203 0.0000
# 6 0.0000 0.0000 0.0000 7.7473 0.0000 20.9523
#
#
#
# Elastic Compliance Matrix: (Units=1/GPa)
#
#
# Indices 1 2 3 4 5 6 
#
# 1 0.010250 -0.005688 -0.004049 0.000000 0.001016 0.000000
# 2 -0.005688 0.031900 -0.007337 0.000000 -0.006295 0.000000
# 3 -0.004049 -0.007337 0.012846 0.000000 -0.001095 0.000000
# 4 0.000000 0.000000 0.000000 0.030617 0.000000 -0.011321
# 5 0.001016 -0.006295 -0.001095 0.000000 0.028881 0.000000
# 6 0.000000 0.000000 0.000000 -0.011321 0.000000 0.051914
#
#
# Mechanical properties :
#
#
# Convention : Reuss Voigt Hill
#
# Bulk Modulus (GPa) = 47.96584 73.57349 60.76967
# Shear Modulus (GPa) = 24.09591 29.86623 26.98107
#
# Velocity S-wave (km/s) = 3.63007 4.04141 3.84125
# Velocity P-wave (km/s) = 6.61824 7.87481 7.27371
#
# Compressibility (1/GPa) = 0.02084817
#
# Stress axis : x y z
#
# Youngs Moduli (GPa) = 97.56300 31.34786 77.84743
#
# Poissons Ratio (x) = 0.17831 0.31520
# Poissons Ratio (y) = 0.55495 0.57114
# Poissons Ratio (z) = 0.39503 0.22999
#
# Static dielectric constant tensor:
#      x y z
#    x 3.381120 0.000000 -0.299910 
#    y 0.000000 3.358840 0.000000 
#    z -0.299910 0.000000 3.529150 
# 
# 
# High freq. dielectric constant tensor:
#      x y z
#    x 1.712570 0.000000 -0.004570 
#    y 0.000000 1.690640 0.000000 
#    z -0.004570 0.000000 1.722670 
# 
# From -- ./inp_files/221666.got.cif
#   From: 2010.06.25/outbox.cif.g09.slc.cpg/sg12_111_cif.got.tgz:221666.got - 2010.06.28 00:19:55.
