data_PCOD8092426
_publ_section_title
;
Structure prediction by ZEFSAII (Michael W. Deem and Ramdas Pophale) SiO2 
 PCOD8092426
Probable space group: C 2/M
;
_chemical_formula_sum "Si O2"
_cell_formula_units_Z 64
_cell_length_a 20.611015
_cell_length_b 9.253323
_cell_length_c 26.993324
_cell_angle_alpha 90.000000
_cell_angle_beta 48.243947
_cell_angle_gamma 90.000000
_cell_volume 3840.473230
_symmetry_space_group_name_H-M "C 2/M"
_symmetry_group_IT_number 12
_symmetry_cell_setting 'monoclinic'
loop_
_space_group_symop_operation_xyz
x,y,z
-x,y,-z
-x,-y,-z
x,-y,z
1/2+x,1/2+y,z
1/2-x,1/2+y,-z
1/2-x,1/2-y,-z
1/2+x,1/2-y,z
loop_
_atom_site_type_symbol
_atom_site_label
_atom_site_fract_x
_atom_site_fract_y
_atom_site_fract_z
Si Si1 0.484593 0.168022 0.950415
Si Si2 0.857021 0.173235 0.170257
Si Si3 0.728758 0.330040 0.163319
Si Si4 0.141324 0.663486 0.426040
Si Si5 0.410972 0.341320 0.692812
Si Si6 0.248119 0.162750 0.301905
Si Si7 0.514918 0.839094 0.571664
Si Si8 0.711867 0.833277 0.973450
O O1 0.544890 0.271084 0.886517
O O2 0.504353 0.000000 0.928766
O O3 0.500000 0.200944 0.000000
O O4 0.386847 0.212223 0.986677
O O5 0.801427 0.233341 0.152643
O O6 0.822187 0.237557 0.239832
O O7 0.852934 0.000000 0.173842
O O8 0.749477 0.500000 0.163774
O O9 0.632935 0.288037 0.233247
O O10 0.730146 0.297374 0.104380
O O11 0.175990 0.500000 0.415719
O O12 0.220012 0.766985 0.368867
O O13 0.067821 0.662242 0.421705
O O14 0.098518 0.723324 0.499087
O O15 0.450064 0.500000 0.679998
O O16 0.334481 0.341437 0.691700
O O17 0.492721 0.246652 0.633290
O O18 0.282972 0.000000 0.293411
O O19 0.537125 0.000000 0.577431
O O20 0.717524 0.000000 0.983862
O O21 0.750000 0.750000 0.000000
#
# Coordination Sequence:
#
# PCOD8092426 Si02
#       8
#     8   8   8   8   8   8   8   8
#     4  10  19  35  55  70  91 126 159 188 233 287
#     4  11  20  28  44  69  92 113 147 199 237 268
#     4   9  17  32  47  62  87 122 154 184 231 285
#     4   8  13  21  31  45  69 103 140 178 219 265
#     4   8  14  22  35  52  72 101 144 185 214 259
#     4   9  16  25  36  52  77 110 145 181 223 275
#     4   8  13  20  30  45  70 102 136 176 224 267
#     4  10  21  36  54  72  95 125 155 193 237 286
#
# _framework density 16.664612000000002
#
# number of rings (size 3 to 8) (size 9 to 14) (size 15 to 20)
#    0.000    2.875    1.250    3.000    0.000    4.750 
#    0.000    2.500    0.000    0.000    0.000    0.000 
#    0.000    0.000    0.000    1.125    0.000   15.000 
#
# Total GULP energy -396563.670551 kJ/mol
# GULP energy per Si atom -12392.614705 kJ/mol
# Density = 1.662668 g / cm^3
# Si number density = 16.664612 Si / 1000 Ang^3
#
#
#
# Elastic Constant Matrix: (Units=GPa)
#
#
# Indices 1 2 3 4 5 6 
#
# 1 47.5706 27.7416 40.1765 0.0000 3.0596 0.0002
# 2 27.7416 98.2535 79.8416 0.0000 -0.7713 0.0005
# 3 40.1765 79.8416 175.7193 0.0000 2.3522 -0.0001
# 4 0.0000 0.0000 0.0000 34.1296 0.0000 -1.2110
# 5 3.0596 -0.7713 2.3522 0.0000 8.0410 0.0000
# 6 0.0002 0.0005 -0.0001 -1.2110 0.0000 15.3061
#
#
#
# Elastic Compliance Matrix: (Units=1/GPa)
#
#
# Indices 1 2 3 4 5 6 
#
# 1 0.027821 -0.004550 -0.004162 0.000000 -0.009805 0.000000
# 2 -0.004550 0.016990 -0.006751 0.000000 0.005336 0.000000
# 3 -0.004162 -0.006751 0.009736 0.000000 -0.001912 0.000000
# 4 0.000000 0.000000 0.000000 0.029383 0.000000 0.002325
# 5 -0.009805 0.005336 -0.001912 0.000000 0.129164 0.000000
# 6 0.000000 0.000000 0.000000 0.002325 0.000000 0.065517
#
#
# Mechanical properties :
#
#
# Convention : Reuss Voigt Hill
#
# Bulk Modulus (GPa) = 42.33655 68.56255 55.44955
# Shear Modulus (GPa) = 15.75251 23.08093 19.41672
#
# Velocity S-wave (km/s) = 3.07786 3.72563 3.41713
# Velocity P-wave (km/s) = 6.17180 7.72910 6.99393
#
# Compressibility (1/GPa) = 0.02362025
#
# Stress axis : x y z
#
# Youngs Moduli (GPa) = 35.94455 58.85769 102.71528
#
# Poissons Ratio (x) = 0.26778 0.42755
# Poissons Ratio (y) = 0.16353 0.69343
# Poissons Ratio (z) = 0.14962 0.39735
#
# Static dielectric constant tensor:
#      x y z
#    x 2.467110 0.000000 -0.044710 
#    y 0.000000 3.227300 0.000000 
#    z -0.044710 0.000000 3.641150 
# 
# 
# High freq. dielectric constant tensor:
#      x y z
#    x 1.554650 0.000000 -0.004760 
#    y 0.000000 1.641170 0.000000 
#    z -0.004760 0.000000 1.667650 
# 
# From -- ./inp_files/365156.got.cif
#   From: 2010.06.25/outbox.cif.g09.slc.cpg/sg12_183_cif.got.tgz:365156.got - 2010.06.28 00:19:55.
