data_PCOD8092409
_publ_section_title
;
Structure prediction by ZEFSAII (Michael W. Deem and Ramdas Pophale) SiO2 
 PCOD8092409
Probable space group: C 2/M
;
_chemical_formula_sum "Si O2"
_cell_formula_units_Z 64
_cell_length_a 15.259612
_cell_length_b 26.447528
_cell_length_c 9.049212
_cell_angle_alpha 90.000000
_cell_angle_beta 66.080994
_cell_angle_gamma 90.000000
_cell_volume 3338.430341
_symmetry_space_group_name_H-M "C 2/M"
_symmetry_group_IT_number 12
_symmetry_cell_setting 'monoclinic'
loop_
_space_group_symop_operation_xyz
x,y,z
-x,y,-z
-x,-y,-z
x,-y,z
1/2+x,1/2+y,z
1/2-x,1/2+y,-z
1/2-x,1/2-y,-z
1/2+x,1/2-y,z
loop_
_atom_site_type_symbol
_atom_site_label
_atom_site_fract_x
_atom_site_fract_y
_atom_site_fract_z
Si Si1 0.437177 0.167792 0.167887
Si Si2 0.269452 0.364909 0.237035
Si Si3 0.073079 0.678082 0.340832
Si Si4 0.402925 0.440892 0.644978
Si Si5 0.596015 0.716869 0.493780
Si Si6 0.597535 0.558973 0.012368
Si Si7 0.590866 0.276645 0.845870
Si Si8 0.259505 0.368712 0.589998
O O1 0.514367 0.188538 0.233012
O O2 0.390017 0.217953 0.125119
O O3 0.353003 0.132739 0.290232
O O4 0.500000 0.138284 0.000000
O O5 0.162283 0.358259 0.249050
O O6 0.314180 0.411440 0.118679
O O7 0.322133 0.312305 0.165581
O O8 0.270278 0.378133 0.409155
O O9 0.107687 0.729424 0.401816
O O10 0.000000 0.648926 0.500000
O O11 0.500000 0.421948 0.500000
O O12 0.387916 0.500000 0.629080
O O13 0.309757 0.414409 0.640659
O O14 0.412051 0.426981 0.810044
O O15 0.500000 0.689013 0.500000
O O16 0.578610 0.722521 0.678631
O O17 0.690384 0.683968 0.396989
O O18 0.617543 0.500000 0.973707
O O19 0.500000 0.576160 0.000000
O O20 0.500000 0.297438 0.000000
#
# Coordination Sequence:
#
# PCOD8092409 Si02
#       8
#     8   8   8   8   8   8   8   8
#     4  11  23  39  54  80 118 158 197 237 277 330
#     4  11  22  35  61  87 112 152 196 238 283 341
#     4  11  20  39  57  77 116 161 196 231 280 328
#     4  10  22  41  63  88 119 149 181 230 293 351
#     4  10  19  35  54  78 114 154 188 231 280 335
#     4  10  22  41  63  89 118 146 182 234 292 346
#     4  10  20  35  51  80 118 148 189 235 279 333
#     4  11  22  36  59  87 114 151 196 235 287 342
#
# _framework density 19.170687000000001
#
# number of rings (size 3 to 8) (size 9 to 14) (size 15 to 20)
#    0.000    1.500    3.750    2.250    1.750    6.500 
#    0.000    1.875    0.000    1.500    0.000    0.000 
#    0.000    0.000    0.000    0.000    0.000    0.000 
#
# Total GULP energy -396675.199472 kJ/mol
# GULP energy per Si atom -12396.099983 kJ/mol
# Density = 1.912705 g / cm^3
# Si number density = 19.170687 Si / 1000 Ang^3
#
#
#
# Elastic Constant Matrix: (Units=GPa)
#
#
# Indices 1 2 3 4 5 6 
#
# 1 113.7316 47.9776 53.0443 0.0000 -15.6398 0.0000
# 2 47.9776 63.2994 48.9375 0.0000 -8.3380 0.0000
# 3 53.0443 48.9375 126.4124 0.0000 -21.7109 0.0000
# 4 0.0000 0.0000 0.0000 25.4384 0.0000 -2.2434
# 5 -15.6398 -8.3380 -21.7109 0.0000 28.3587 0.0000
# 6 0.0000 0.0000 0.0000 -2.2434 0.0000 25.7404
#
#
#
# Elastic Compliance Matrix: (Units=1/GPa)
#
#
# Indices 1 2 3 4 5 6 
#
# 1 0.013747 -0.008511 -0.001844 0.000000 0.003668 0.000000
# 2 -0.008511 0.027815 -0.007597 0.000000 -0.002332 0.000000
# 3 -0.001844 -0.007597 0.012742 0.000000 0.006505 0.000000
# 4 0.000000 0.000000 0.000000 0.039615 0.000000 0.003453
# 5 0.003668 -0.002332 0.006505 0.000000 0.041580 0.000000
# 6 0.000000 0.000000 0.000000 0.003453 0.000000 0.039150
#
#
# Mechanical properties :
#
#
# Convention : Reuss Voigt Hill
#
# Bulk Modulus (GPa) = 54.34492 67.04024 60.69258
# Shear Modulus (GPa) = 23.07467 26.13977 24.60722
#
# Velocity S-wave (km/s) = 3.47312 3.69660 3.58660
# Velocity P-wave (km/s) = 6.67030 7.29835 6.99138
#
# Compressibility (1/GPa) = 0.01840098
#
# Stress axis : x y z
#
# Youngs Moduli (GPa) = 72.74125 35.95160 78.47756
#
# Poissons Ratio (x) = 0.30599 0.14469
# Poissons Ratio (y) = 0.61912 0.59620
# Poissons Ratio (z) = 0.13412 0.27313
#
# Static dielectric constant tensor:
#      x y z
#    x 3.583860 0.000000 -0.067150 
#    y 0.000000 3.252420 0.000000 
#    z -0.067150 0.000000 3.728580 
# 
# 
# High freq. dielectric constant tensor:
#      x y z
#    x 1.744490 0.000000 -0.002530 
#    y 0.000000 1.712220 0.000000 
#    z -0.002530 0.000000 1.761880 
# 
# From -- ./inp_files/66928.got.cif
#   From: 2010.06.25/outbox.cif.g09.slc.cpg/sg12_34_cif.got.tgz:66928.got - 2010.06.28 00:19:55.
