data_PCOD8092591
_publ_section_title
;
Structure prediction by ZEFSAII (Michael W. Deem and Ramdas Pophale) SiO2 
 PCOD8092591
Probable space group: C 2/M
;
_chemical_formula_sum "Si O2"
_cell_formula_units_Z 64
_cell_length_a 25.636359
_cell_length_b 8.754948
_cell_length_c 16.104585
_cell_angle_alpha 90.000000
_cell_angle_beta 65.954875
_cell_angle_gamma 90.000000
_cell_volume 3300.936485
_symmetry_space_group_name_H-M "C 2/M"
_symmetry_group_IT_number 12
_symmetry_cell_setting 'monoclinic'
loop_
_space_group_symop_operation_xyz
x,y,z
-x,y,-z
-x,-y,-z
x,-y,z
1/2+x,1/2+y,z
1/2-x,1/2+y,-z
1/2-x,1/2-y,-z
1/2+x,1/2-y,z
loop_
_atom_site_type_symbol
_atom_site_label
_atom_site_fract_x
_atom_site_fract_y
_atom_site_fract_z
Si Si1 0.719242 0.178930 0.396100
Si Si2 0.440287 0.164879 0.073312
Si Si3 0.949766 0.319094 0.252972
Si Si4 0.924536 0.318137 0.786392
Si Si5 0.125108 0.823880 0.015786
Si Si6 0.328393 0.820917 0.393519
Si Si7 0.835404 0.819290 0.728786
Si Si8 0.761542 0.319989 0.080995
O O1 0.687927 0.219935 0.502165
O O2 0.784468 0.240085 0.357992
O O3 0.681350 0.260064 0.350944
O O4 0.720860 0.000000 0.377056
O O5 0.443417 0.237867 0.162765
O O6 0.405443 0.000000 0.096089
O O7 0.500000 0.113533 0.000000
O O8 0.422028 0.299493 0.023232
O O9 0.953148 0.500000 0.252409
O O10 0.893415 0.261058 0.338471
O O11 0.009523 0.257652 0.253420
O O12 0.921987 0.500000 0.787621
O O13 0.889605 0.259539 0.888783
O O14 0.894993 0.253917 0.721915
O O15 0.135585 0.000000 0.030365
O O16 0.177999 0.748454 0.932492
O O17 0.324007 0.000000 0.378079
O O18 0.785647 0.765603 0.823148
O O19 0.842747 0.000000 0.721275
O O20 0.763397 0.500000 0.073623
O O21 0.750000 0.250000 0.000000
#
# Coordination Sequence:
#
# PCOD8092591 Si02
#       8
#     8   8   8   8   8   8   8   8
#     4  10  21  38  62  90 118 149 187 234 290 347
#     4  10  19  35  56  80 110 150 197 236 279 335
#     4   9  19  36  60  86 112 149 195 239 285 336
#     4  11  21  38  61  83 112 153 197 240 283 336
#     4  12  24  36  51  78 117 155 191 236 288 339
#     4   9  19  39  64  89 117 149 188 236 288 343
#     4  11  24  40  59  85 115 151 193 237 290 344
#     4  11  23  38  57  80 110 151 195 240 283 334
#
# _framework density 19.388439000000002
#
# number of rings (size 3 to 8) (size 9 to 14) (size 15 to 20)
#    0.000    1.625    2.500    2.625    1.750    2.250 
#    0.000    1.875    0.000    3.750    0.000    0.000 
#    0.000    0.000    0.000    0.000    0.000    0.000 
#
# Total GULP energy -396632.515850 kJ/mol
# GULP energy per Si atom -12394.766120 kJ/mol
# Density = 1.934431 g / cm^3
# Si number density = 19.388439 Si / 1000 Ang^3
#
#
#
# Elastic Constant Matrix: (Units=GPa)
#
#
# Indices 1 2 3 4 5 6 
#
# 1 125.3780 35.9656 54.9496 0.0000 8.1276 0.0000
# 2 35.9656 66.2241 29.3114 0.0000 4.4938 0.0000
# 3 54.9496 29.3114 85.5258 0.0000 5.5453 0.0000
# 4 0.0000 0.0000 0.0000 24.8032 0.0000 6.7755
# 5 8.1276 4.4938 5.5453 0.0000 36.2459 0.0000
# 6 0.0000 0.0000 0.0000 6.7755 0.0000 34.5549
#
#
#
# Elastic Compliance Matrix: (Units=1/GPa)
#
#
# Indices 1 2 3 4 5 6 
#
# 1 0.011841 -0.003554 -0.006309 0.000000 -0.001249 0.000000
# 2 -0.003554 0.018926 -0.004144 0.000000 -0.000916 0.000000
# 3 -0.006309 -0.004144 0.017212 0.000000 -0.000705 0.000000
# 4 0.000000 0.000000 0.000000 0.042599 0.000000 -0.008353
# 5 -0.001249 -0.000916 -0.000705 0.000000 0.028091 0.000000
# 6 0.000000 0.000000 0.000000 -0.008353 0.000000 0.030577
#
#
# Mechanical properties :
#
#
# Convention : Reuss Voigt Hill
#
# Bulk Modulus (GPa) = 50.08428 57.50904 53.79666
# Shear Modulus (GPa) = 27.18639 29.58089 28.38364
#
# Velocity S-wave (km/s) = 3.74865 3.91025 3.83031
# Velocity P-wave (km/s) = 6.68017 7.07903 6.88249
#
# Compressibility (1/GPa) = 0.01996635
#
# Stress axis : x y z
#
# Youngs Moduli (GPa) = 84.44984 52.83605 58.09980
#
# Poissons Ratio (x) = 0.18776 0.36655
# Poissons Ratio (y) = 0.30011 0.24076
# Poissons Ratio (z) = 0.53280 0.21895
#
# Static dielectric constant tensor:
#      x y z
#    x 3.792750 0.000000 -0.123010 
#    y 0.000000 3.392740 0.000000 
#    z -0.123010 0.000000 3.562940 
# 
# 
# High freq. dielectric constant tensor:
#      x y z
#    x 1.766090 0.000000 0.002810 
#    y 0.000000 1.747130 0.000000 
#    z 0.002810 0.000000 1.740200 
# 
# From -- ./inp_files/243799.got.cif
#   From: 2010.06.25/outbox.cif.g09.slc.cpg/sg12_122_cif.got.tgz:243799.got - 2010.06.28 00:19:55.
