data_PCOD8092824
_publ_section_title
;
Structure prediction by ZEFSAII (Michael W. Deem and Ramdas Pophale) SiO2 
 PCOD8092824
Probable space group: C 2/M
;
_chemical_formula_sum "Si O2"
_cell_formula_units_Z 64
_cell_length_a 21.519068
_cell_length_b 23.234745
_cell_length_c 12.479030
_cell_angle_alpha 90.000000
_cell_angle_beta 145.790013
_cell_angle_gamma 90.000000
_cell_volume 3507.957378
_symmetry_space_group_name_H-M "C 2/M"
_symmetry_group_IT_number 12
_symmetry_cell_setting 'monoclinic'
loop_
_space_group_symop_operation_xyz
x,y,z
-x,y,-z
-x,-y,-z
x,-y,z
1/2+x,1/2+y,z
1/2-x,1/2+y,-z
1/2-x,1/2-y,-z
1/2+x,1/2-y,z
loop_
_atom_site_type_symbol
_atom_site_label
_atom_site_fract_x
_atom_site_fract_y
_atom_site_fract_z
Si Si1 0.675322 0.798275 0.442093
Si Si2 0.744011 0.563606 0.730708
Si Si3 0.066295 0.435274 0.835430
Si Si4 0.096303 0.599129 0.214788
Si Si5 0.260970 0.782701 0.233198
Si Si6 0.092203 0.331700 0.717379
Si Si7 0.042036 0.758239 0.817542
Si Si8 0.913132 0.171221 0.470933
O O1 0.750000 0.750000 0.500000
O O2 0.683597 0.853231 0.378463
O O3 0.712922 0.812268 0.616238
O O4 0.547585 0.781102 0.252263
O O5 0.689999 0.500000 0.667295
O O6 0.823717 0.558130 0.740067
O O7 0.649836 0.611981 0.591395
O O8 0.820857 0.578764 0.941646
O O9 0.067006 0.500000 0.790756
O O10 0.062742 0.392641 0.728756
O O11 0.959607 0.430122 0.760996
O O12 0.000000 0.623678 0.000000
O O13 0.294400 0.828770 0.188459
O O14 0.325924 0.721704 0.316975
O O15 0.129634 0.775731 0.033347
O O16 0.104062 0.281047 0.819728
O O17 0.000000 0.313874 0.500000
O O18 0.981780 0.812316 0.675558
O O19 0.000000 0.160577 0.500000
#
# Coordination Sequence:
#
# PCOD8092824 Si02
#       8
#     8   8   8   8   8   8   8   8
#     4  11  23  35  52  85 117 143 188 236 280 342
#     4  10  22  38  56  81 113 148 190 240 286 335
#     4  10  21  35  57  85 111 147 191 236 287 340
#     4  10  19  35  58  79 111 150 187 234 290 342
#     4  11  22  36  56  82 116 154 183 230 280 345
#     4  12  19  36  55  81 116 148 188 229 280 343
#     4  11  21  35  56  84 113 153 186 223 283 342
#     4  11  21  35  55  85 111 148 192 230 280 340
#
# _framework density 18.244236000000001
#
# number of rings (size 3 to 8) (size 9 to 14) (size 15 to 20)
#    0.000    1.250    5.000    3.000    5.250    2.000 
#    0.000    0.000    0.000    0.000    0.000    0.875 
#    0.000    0.000    0.000    0.000    0.000    0.000 
#
# Total GULP energy -396657.931523 kJ/mol
# GULP energy per Si atom -12395.560360 kJ/mol
# Density = 1.820271 g / cm^3
# Si number density = 18.244236 Si / 1000 Ang^3
#
#
#
# Elastic Constant Matrix: (Units=GPa)
#
#
# Indices 1 2 3 4 5 6 
#
# 1 60.8213 11.9883 22.0964 0.0000 -9.5455 0.0000
# 2 11.9883 83.9423 30.4947 0.0000 -6.3797 0.0000
# 3 22.0964 30.4947 88.4909 0.0000 13.9166 0.0000
# 4 0.0000 0.0000 0.0000 24.7885 0.0000 0.4549
# 5 -9.5455 -6.3797 13.9166 0.0000 15.5465 0.0000
# 6 0.0000 0.0000 0.0000 0.4549 0.0000 24.6202
#
#
#
# Elastic Compliance Matrix: (Units=1/GPa)
#
#
# Indices 1 2 3 4 5 6 
#
# 1 0.023839 0.002425 -0.010762 0.000000 0.025265 0.000000
# 2 0.002425 0.015851 -0.008525 0.000000 0.015625 0.000000
# 3 -0.010762 -0.008525 0.021549 0.000000 -0.029395 0.000000
# 4 0.000000 0.000000 0.000000 0.040355 0.000000 -0.000746
# 5 0.025265 0.015625 -0.029395 0.000000 0.112561 0.000000
# 6 0.000000 0.000000 0.000000 -0.000746 0.000000 0.040631
#
#
# Mechanical properties :
#
#
# Convention : Reuss Voigt Hill
#
# Bulk Modulus (GPa) = 36.34420 40.26816 38.30618
# Shear Modulus (GPa) = 16.79651 24.23605 20.51628
#
# Velocity S-wave (km/s) = 3.03751 3.64871 3.35705
# Velocity P-wave (km/s) = 5.68033 6.31430 6.00568
#
# Compressibility (1/GPa) = 0.02751471
#
# Stress axis : x y z
#
# Youngs Moduli (GPa) = 41.94885 63.08656 46.40667
#
# Poissons Ratio (x) = -0.15300 0.49941
# Poissons Ratio (y) = -0.10173 0.39563
# Poissons Ratio (z) = 0.45144 0.53784
#
# Static dielectric constant tensor:
#      x y z
#    x 3.556150 0.000000 -0.111560 
#    y 0.000000 3.225690 0.000000 
#    z -0.111560 0.000000 3.426470 
# 
# 
# High freq. dielectric constant tensor:
#      x y z
#    x 1.712660 0.000000 -0.003030 
#    y 0.000000 1.687600 0.000000 
#    z -0.003030 0.000000 1.697640 
# 
# From -- ./inp_files/170181.got.cif
#   From: 2010.06.25/outbox.cif.g09.slc.cpg/sg12_86_cif.got.tgz:170181.got - 2010.06.28 00:19:55.
