data_PCOD8092956
_publ_section_title
;
Structure prediction by ZEFSAII (Michael W. Deem and Ramdas Pophale) SiO2 
 PCOD8092956
Probable space group: C 2/M
;
_chemical_formula_sum "Si O2"
_cell_formula_units_Z 64
_cell_length_a 32.375889
_cell_length_b 8.601616
_cell_length_c 15.206501
_cell_angle_alpha 90.000000
_cell_angle_beta 133.050781
_cell_angle_gamma 90.000000
_cell_volume 3094.562476
_symmetry_space_group_name_H-M "C 2/M"
_symmetry_group_IT_number 12
_symmetry_cell_setting 'monoclinic'
loop_
_space_group_symop_operation_xyz
x,y,z
-x,y,-z
-x,-y,-z
x,-y,z
1/2+x,1/2+y,z
1/2-x,1/2+y,-z
1/2-x,1/2-y,-z
1/2+x,1/2-y,z
loop_
_atom_site_type_symbol
_atom_site_label
_atom_site_fract_x
_atom_site_fract_y
_atom_site_fract_z
Si Si1 0.708501 0.683583 0.083033
Si Si2 0.881716 0.183225 0.522873
Si Si3 0.650769 0.318669 0.168874
Si Si4 0.187551 0.184897 0.408629
Si Si5 0.035039 0.678455 0.967883
Si Si6 0.613936 0.316564 0.812530
Si Si7 0.501426 0.820969 0.726335
Si Si8 0.165021 0.682773 0.720022
O O1 0.699963 0.500000 0.070906
O O2 0.695046 0.748706 0.161554
O O3 0.772653 0.730270 0.153294
O O4 0.663634 0.752274 0.947627
O O5 0.848688 0.246046 0.561082
O O6 0.942471 0.263725 0.601398
O O7 0.845119 0.227002 0.385074
O O8 0.890914 0.000000 0.541740
O O9 0.659924 0.500000 0.191734
O O10 0.659278 0.246535 0.278226
O O11 0.589643 0.284829 0.040644
O O12 0.250000 0.250000 0.500000
O O13 0.189811 0.000000 0.413758
O O14 0.053627 0.500000 0.007372
O O15 0.998435 0.702450 0.827037
O O16 0.000000 0.738600 0.000000
O O17 0.619598 0.500000 0.808192
O O18 0.552579 0.278052 0.761200
O O19 0.619615 0.234791 0.726268
O O20 0.511036 0.000000 0.714834
O O21 0.160541 0.500000 0.695237
#
# Coordination Sequence:
#
# PCOD8092956 Si02
#       8
#     8   8   8   8   8   8   8   8
#     4   9  19  36  61  91 124 157 195 245 303 362
#     4  11  24  42  61  89 124 163 209 256 305 361
#     4  10  19  35  58  86 117 155 198 238 290 355
#     4  10  22  38  60  89 124 163 207 252 300 358
#     4  10  21  36  55  84 119 153 193 242 295 349
#     4  11  22  40  64  92 124 159 199 252 309 364
#     4  11  23  40  62  89 122 162 205 251 304 365
#     4  11  23  41  64  90 120 160 205 254 308 367
#
# _framework density 20.681439000000001
#
# number of rings (size 3 to 8) (size 9 to 14) (size 15 to 20)
#    0.000    1.625    1.250    3.375    0.000    3.750 
#    0.000    5.625    0.000    0.000    0.000    0.000 
#    0.000    0.000    0.000    0.000    0.000    0.000 
#
# Total GULP energy -396865.837155 kJ/mol
# GULP energy per Si atom -12402.057411 kJ/mol
# Density = 2.063437 g / cm^3
# Si number density = 20.681439 Si / 1000 Ang^3
#
#
#
# Elastic Constant Matrix: (Units=GPa)
#
#
# Indices 1 2 3 4 5 6 
#
# 1 120.9628 16.5776 30.3427 0.0000 -5.5657 0.0000
# 2 16.5776 26.9510 15.9657 0.0000 -5.6791 0.0000
# 3 30.3427 15.9657 93.8050 0.0000 1.0029 0.0000
# 4 0.0000 0.0000 0.0000 30.2298 0.0000 4.4333
# 5 -5.5657 -5.6791 1.0029 0.0000 41.4067 0.0000
# 6 0.0000 0.0000 0.0000 4.4333 0.0000 28.7097
#
#
#
# Elastic Compliance Matrix: (Units=1/GPa)
#
#
# Indices 1 2 3 4 5 6 
#
# 1 0.009476 -0.004284 -0.002344 0.000000 0.000743 0.000000
# 2 -0.004284 0.044659 -0.006276 0.000000 0.005701 0.000000
# 3 -0.002344 -0.006276 0.012503 0.000000 -0.001479 0.000000
# 4 0.000000 0.000000 0.000000 0.033846 0.000000 -0.005227
# 5 0.000743 0.005701 -0.001479 0.000000 0.025068 0.000000
# 6 0.000000 0.000000 0.000000 -0.005227 0.000000 0.035639
#
#
# Mechanical properties :
#
#
# Convention : Reuss Voigt Hill
#
# Bulk Modulus (GPa) = 24.49208 40.83231 32.66219
# Shear Modulus (GPa) = 24.92413 31.99142 28.45778
#
# Velocity S-wave (km/s) = 3.47529 3.93729 3.71348
# Velocity P-wave (km/s) = 5.28883 6.36050 5.84926
#
# Compressibility (1/GPa) = 0.04082953
#
# Stress axis : x y z
#
# Youngs Moduli (GPa) = 105.52689 22.39208 79.98283
#
# Poissons Ratio (x) = 0.09592 0.18749
# Poissons Ratio (y) = 0.45204 0.50199
# Poissons Ratio (z) = 0.24737 0.14054
#
# Static dielectric constant tensor:
#      x y z
#    x 3.910420 0.000000 -0.177590 
#    y 0.000000 3.512290 0.000000 
#    z -0.177590 0.000000 3.810180 
# 
# 
# High freq. dielectric constant tensor:
#      x y z
#    x 1.822310 0.000000 -0.005850 
#    y 0.000000 1.791480 0.000000 
#    z -0.005850 0.000000 1.814480 
# 
# From -- ./inp_files/243774.got.cif
#   From: 2010.06.25/outbox.cif.g09.slc.cpg/sg12_122_cif.got.tgz:243774.got - 2010.06.28 00:19:55.
