data_PCOD8092681
_publ_section_title
;
Structure prediction by ZEFSAII (Michael W. Deem and Ramdas Pophale) SiO2 
 PCOD8092681
Probable space group: C 2/M
;
_chemical_formula_sum "Si O2"
_cell_formula_units_Z 64
_cell_length_a 24.253595
_cell_length_b 20.704177
_cell_length_c 18.428822
_cell_angle_alpha 90.000000
_cell_angle_beta 159.618444
_cell_angle_gamma 90.000000
_cell_volume 3222.909577
_symmetry_space_group_name_H-M "C 2/M"
_symmetry_group_IT_number 12
_symmetry_cell_setting 'monoclinic'
loop_
_space_group_symop_operation_xyz
x,y,z
-x,y,-z
-x,-y,-z
x,-y,z
1/2+x,1/2+y,z
1/2-x,1/2+y,-z
1/2-x,1/2-y,-z
1/2+x,1/2-y,z
loop_
_atom_site_type_symbol
_atom_site_label
_atom_site_fract_x
_atom_site_fract_y
_atom_site_fract_z
Si Si1 0.758414 0.605239 0.009730
Si Si2 0.134298 0.070666 0.011277
Si Si3 0.689165 0.572037 0.455493
Si Si4 0.236228 0.698790 0.767193
Si Si5 0.566095 0.348410 0.430265
Si Si6 0.362723 0.831652 0.888278
Si Si7 0.947355 0.286300 0.316293
Si Si8 0.041427 0.570444 0.871640
O O1 0.721897 0.571946 0.041388
O O2 0.851395 0.671829 0.139724
O O3 0.871601 0.564101 0.098138
O O4 0.594515 0.610183 0.761808
O O5 0.185596 0.129009 0.125569
O O6 0.174056 0.000000 0.094608
O O7 0.945907 0.078456 0.771567
O O8 0.679675 0.500000 0.479520
O O9 0.668123 0.628350 0.488059
O O10 0.858080 0.583806 0.626908
O O11 0.362366 0.753939 0.899220
O O12 0.163612 0.728381 0.751426
O O13 0.107204 0.682434 0.546216
O O14 0.684917 0.352734 0.644916
O O15 0.501640 0.276337 0.338858
O O16 0.500000 0.849181 0.000000
O O17 0.391848 0.871832 0.997078
O O18 0.059649 0.500000 0.933000
#
# Coordination Sequence:
#
# PCOD8092681 Si02
#       8
#     8   8   8   8   8   8   8   8
#     4  10  20  35  58  86 113 142 186 231 276 327
#     4   9  18  37  62  85 111 147 187 226 276 337
#     4   9  19  35  54  77 110 149 187 230 278 326
#     4   9  19  36  58  85 114 146 183 231 279 333
#     4  10  19  35  57  79 107 148 188 228 274 333
#     4  11  22  38  56  81 113 151 187 230 281 327
#     4   9  18  35  58  83 115 145 179 230 288 324
#     4  11  23  38  55  81 115 150 189 233 281 328
#
# _framework density 19.857832999999999
#
# number of rings (size 3 to 8) (size 9 to 14) (size 15 to 20)
#    0.000    2.250    1.250    1.500    0.000    4.750 
#    4.500    7.500    0.000    0.375    0.000    0.000 
#    0.000    0.000    0.000    0.000    0.000    0.000 
#
# Total GULP energy -396504.566885 kJ/mol
# GULP energy per Si atom -12390.767715 kJ/mol
# Density = 1.981264 g / cm^3
# Si number density = 19.857833 Si / 1000 Ang^3
#
#
#
# Elastic Constant Matrix: (Units=GPa)
#
#
# Indices 1 2 3 4 5 6 
#
# 1 50.9930 16.5547 33.2313 0.0000 11.9360 0.0000
# 2 16.5547 78.8535 37.9007 0.0000 5.1842 0.0000
# 3 33.2313 37.9007 101.8640 0.0000 18.3783 -0.0001
# 4 0.0000 0.0000 0.0000 19.7653 0.0000 1.0604
# 5 11.9360 5.1842 18.3783 0.0000 22.5929 0.0000
# 6 0.0000 0.0000 -0.0001 1.0604 0.0000 23.4794
#
#
#
# Elastic Compliance Matrix: (Units=1/GPa)
#
#
# Indices 1 2 3 4 5 6 
#
# 1 0.026330 -0.001915 -0.006384 0.000000 -0.008278 0.000000
# 2 -0.001915 0.015617 -0.005534 0.000000 0.001930 0.000000
# 3 -0.006384 -0.005534 0.015378 0.000000 -0.007867 0.000000
# 4 0.000000 0.000000 0.000000 0.050717 0.000000 -0.002291
# 5 -0.008278 0.001930 -0.007867 0.000000 0.054592 0.000000
# 6 0.000000 0.000000 0.000000 -0.002291 0.000000 0.042694
#
#
# Mechanical properties :
#
#
# Convention : Reuss Voigt Hill
#
# Bulk Modulus (GPa) = 33.71640 45.23155 39.47397
# Shear Modulus (GPa) = 20.58637 22.76910 21.67774
#
# Velocity S-wave (km/s) = 3.22326 3.38983 3.30759
# Velocity P-wave (km/s) = 5.55592 6.17644 5.87438
#
# Compressibility (1/GPa) = 0.02965916
#
# Stress axis : x y z
#
# Youngs Moduli (GPa) = 37.97945 64.03338 65.02830
#
# Poissons Ratio (x) = 0.12264 0.41511
# Poissons Ratio (y) = 0.07274 0.35986
# Poissons Ratio (z) = 0.24244 0.35436
#
# Static dielectric constant tensor:
#      x y z
#    x 3.308430 0.000000 0.142770 
#    y 0.000000 3.626080 0.000000 
#    z 0.142770 0.000000 3.864510 
# 
# 
# High freq. dielectric constant tensor:
#      x y z
#    x 1.742400 0.000000 0.014220 
#    y 0.000000 1.775360 0.000000 
#    z 0.014220 0.000000 1.787130 
# 
# From -- ./inp_files/290939.got.cif
#   From: 2010.06.25/outbox.cif.g09.slc.cpg/sg12_146_cif.got.tgz:290939.got - 2010.06.28 00:19:55.
