data_PCOD8092972
_publ_section_title
;
Structure prediction by ZEFSAII (Michael W. Deem and Ramdas Pophale) SiO2 
 PCOD8092972
Probable space group: C 2/M
;
_chemical_formula_sum "Si O2"
_cell_formula_units_Z 56
_cell_length_a 20.142299
_cell_length_b 8.884887
_cell_length_c 29.652394
_cell_angle_alpha 90.000000
_cell_angle_beta 146.425949
_cell_angle_gamma 90.000000
_cell_volume 2934.654944
_symmetry_space_group_name_H-M "C 2/M"
_symmetry_group_IT_number 12
_symmetry_cell_setting 'monoclinic'
loop_
_space_group_symop_operation_xyz
x,y,z
-x,y,-z
-x,-y,-z
x,-y,z
1/2+x,1/2+y,z
1/2-x,1/2+y,-z
1/2-x,1/2-y,-z
1/2+x,1/2-y,z
loop_
_atom_site_type_symbol
_atom_site_label
_atom_site_fract_x
_atom_site_fract_y
_atom_site_fract_z
Si Si1 0.691644 0.674772 0.738614
Si Si2 0.312085 0.323485 0.159526
Si Si3 0.458569 0.177830 0.754747
Si Si4 0.075842 0.824608 0.999709
Si Si5 0.789725 0.175261 0.592251
Si Si6 0.586223 0.675465 0.177506
Si Si7 0.582139 0.325923 0.427494
O O1 0.721540 0.500000 0.748142
O O2 0.709095 0.719399 0.800498
O O3 0.779074 0.773902 0.757665
O O4 0.557398 0.712631 0.646530
O O5 0.334754 0.500000 0.166068
O O6 0.428005 0.237272 0.208211
O O7 0.197448 0.271301 0.065950
O O8 0.336828 0.236901 0.662603
O O9 0.465367 0.234882 0.809525
O O10 0.458784 0.000000 0.754492
O O11 0.000421 0.785653 0.912909
O O12 0.109111 0.000000 0.021791
O O13 0.000000 0.772583 0.000000
O O14 0.654470 0.227592 0.504773
O O15 0.876500 0.215311 0.599593
O O16 0.789964 0.000000 0.603640
O O17 0.587067 0.500000 0.189283
O O18 0.609251 0.500000 0.452521
#
# Coordination Sequence:
#
# PCOD8092972 Si02
#       7
#     8   8   8   8   8   8   8
#     4  10  20  37  60  89 122 155 197 243 292 352
#     4  11  22  38  63  91 120 156 199 247 295 349
#     4  12  25  41  61  86 121 161 201 244 300 358
#     4  10  21  39  61  90 121 154 198 247 297 351
#     4  10  19  35  58  88 122 155 196 244 295 350
#     4  11  24  41  62  86 121 159 197 246 300 356
#     4   9  18  34  57  88 122 155 194 242 292 348
#
# _framework density 19.082311000000001
#
# number of rings (size 3 to 8) (size 9 to 14) (size 15 to 20)
#    0.000    1.571    2.857    2.571    0.000    3.714 
#    0.000    0.714    0.000    4.286    0.000    0.000 
#    0.000    0.000    0.000    0.000    0.000    0.000 
#
# Total GULP energy -347370.184169 kJ/mol
# GULP energy per Si atom -12406.078006 kJ/mol
# Density = 1.903888 g / cm^3
# Si number density = 19.082311 Si / 1000 Ang^3
#
#
#
# Elastic Constant Matrix: (Units=GPa)
#
#
# Indices 1 2 3 4 5 6 
#
# 1 36.4542 30.7358 28.4511 0.0000 -5.3915 0.0003
# 2 30.7358 97.3791 49.6932 -0.0001 -5.0546 0.0005
# 3 28.4511 49.6932 108.2774 0.0000 0.2307 0.0000
# 4 0.0000 -0.0001 0.0000 35.4839 0.0000 2.2938
# 5 -5.3915 -5.0546 0.2307 0.0000 27.7061 -0.0001
# 6 0.0003 0.0005 0.0000 2.2938 -0.0001 33.4337
#
#
#
# Elastic Compliance Matrix: (Units=1/GPa)
#
#
# Indices 1 2 3 4 5 6 
#
# 1 0.041436 -0.009380 -0.006597 0.000000 0.006407 0.000000
# 2 -0.009380 0.015708 -0.004747 0.000000 0.001080 0.000000
# 3 -0.006597 -0.004747 0.013152 0.000000 -0.002259 0.000000
# 4 0.000000 0.000000 0.000000 0.028307 0.000000 -0.001942
# 5 0.006407 0.001080 -0.002259 0.000000 0.037556 0.000000
# 6 0.000000 0.000000 0.000000 -0.001942 0.000000 0.030043
#
#
# Mechanical properties :
#
#
# Convention : Reuss Voigt Hill
#
# Bulk Modulus (GPa) = 34.66202 51.09678 42.87940
# Shear Modulus (GPa) = 23.01333 28.20677 25.61005
#
# Velocity S-wave (km/s) = 3.47652 3.84886 3.66742
# Velocity P-wave (km/s) = 5.85823 6.82545 6.36025
#
# Compressibility (1/GPa) = 0.02885002
#
# Stress axis : x y z
#
# Youngs Moduli (GPa) = 24.13362 63.66176 76.03266
#
# Poissons Ratio (x) = 0.59712 0.50157
# Poissons Ratio (y) = 0.22636 0.36091
# Poissons Ratio (z) = 0.15920 0.30219
#
# Static dielectric constant tensor:
#      x y z
#    x 3.336070 0.000000 -0.016620 
#    y 0.000000 3.478210 0.000000 
#    z -0.016620 0.000000 3.642610 
# 
# 
# High freq. dielectric constant tensor:
#      x y z
#    x 1.725520 0.000000 0.003010 
#    y 0.000000 1.746950 0.000000 
#    z 0.003010 0.000000 1.755110 
# 
# From -- ./inp_files/380777.got.cif
#   From: 2010.06.25/outbox.cif.g09.slc.cpg/sg12_191_cif.got.tgz:380777.got - 2010.06.28 00:19:55.
