data_PCOD8092157
_publ_section_title
;
Structure prediction by ZEFSAII (Michael W. Deem and Ramdas Pophale) SiO2 
 PCOD8092157
Probable space group: C 2/M
;
_chemical_formula_sum "Si O2"
_cell_formula_units_Z 64
_cell_length_a 18.265798
_cell_length_b 19.512772
_cell_length_c 18.116512
_cell_angle_alpha 90.000000
_cell_angle_beta 30.746371
_cell_angle_gamma 90.000000
_cell_volume 3301.078770
_symmetry_space_group_name_H-M "C 2/M"
_symmetry_group_IT_number 12
_symmetry_cell_setting 'monoclinic'
loop_
_space_group_symop_operation_xyz
x,y,z
-x,y,-z
-x,-y,-z
x,-y,z
1/2+x,1/2+y,z
1/2-x,1/2+y,-z
1/2-x,1/2-y,-z
1/2+x,1/2-y,z
loop_
_atom_site_type_symbol
_atom_site_label
_atom_site_fract_x
_atom_site_fract_y
_atom_site_fract_z
Si Si1 0.828174 0.077149 0.520239
Si Si2 0.196854 0.352089 0.030197
Si Si3 0.665969 0.661937 0.351084
Si Si4 0.618097 0.282680 0.010281
Si Si5 0.652782 0.578331 0.224937
Si Si6 0.691946 0.698233 0.776841
Si Si7 0.444677 0.078494 0.335106
Si Si8 0.368208 0.076546 0.561061
O O1 0.762428 0.123346 0.642327
O O2 0.719101 0.085405 0.548000
O O3 0.986548 0.099245 0.355779
O O4 0.833289 0.000000 0.546087
O O5 0.316416 0.336559 0.988583
O O6 0.261283 0.413516 0.925765
O O7 0.167849 0.290911 0.997485
O O8 0.050190 0.373640 0.196924
O O9 0.500000 0.645436 0.500000
O O10 0.723261 0.628678 0.225302
O O11 0.693236 0.742210 0.336335
O O12 0.446786 0.285164 0.152550
O O13 0.671475 0.302571 0.882469
O O14 0.667321 0.500000 0.238894
O O15 0.748338 0.625686 0.699089
O O16 0.435694 0.105123 0.426637
O O17 0.499367 0.000000 0.282671
O O18 0.500000 0.071910 0.500000
O O19 0.301265 0.000000 0.607814
#
# Coordination Sequence:
#
# PCOD8092157 Si02
#       8
#     8   8   8   8   8   8   8   8
#     4   9  19  35  55  86 125 155 192 244 289 343
#     4  11  21  40  58  85 119 162 194 245 292 363
#     4  10  19  34  59  87 119 157 199 240 290 354
#     4  10  24  38  59  80 122 155 199 243 304 341
#     4  10  20  35  60  89 121 160 198 236 294 356
#     4  11  21  41  59  87 114 158 198 254 291 353
#     4  10  21  38  60  87 118 154 196 247 301 352
#     4  10  22  40  62  85 114 149 197 253 306 355
#
# _framework density 19.387602000000001
#
# number of rings (size 3 to 8) (size 9 to 14) (size 15 to 20)
#    0.000    1.875    1.250    2.625    1.750    1.500 
#    2.250    3.750    0.000    3.000    0.000    0.000 
#    0.000    0.000    0.000    0.000    0.000    0.000 
#
# Total GULP energy -396685.121902 kJ/mol
# GULP energy per Si atom -12396.410059 kJ/mol
# Density = 1.934347 g / cm^3
# Si number density = 19.387602 Si / 1000 Ang^3
#
#
#
# Elastic Constant Matrix: (Units=GPa)
#
#
# Indices 1 2 3 4 5 6 
#
# 1 104.6453 31.8290 42.3507 0.0109 10.7404 -0.0071
# 2 31.8290 83.7137 36.8824 0.0247 11.8446 -0.0189
# 3 42.3507 36.8824 88.6557 0.0340 19.1937 -0.0261
# 4 0.0109 0.0247 0.0340 44.1401 -0.0086 -3.5285
# 5 10.7404 11.8446 19.1937 -0.0086 27.1120 0.0033
# 6 -0.0071 -0.0189 -0.0261 -3.5285 0.0033 41.5021
#
#
#
# Elastic Compliance Matrix: (Units=1/GPa)
#
#
# Indices 1 2 3 4 5 6 
#
# 1 0.012280 -0.002529 -0.004724 0.000002 -0.000415 -0.000002
# 2 -0.002529 0.015287 -0.004633 -0.000005 -0.002397 0.000003
# 3 -0.004724 -0.004633 0.017267 -0.000011 -0.008328 0.000008
# 4 0.000002 -0.000005 -0.000011 0.022810 0.000016 0.001939
# 5 -0.000415 -0.002397 -0.008328 0.000016 0.043992 -0.000009
# 6 -0.000002 0.000003 0.000008 0.001939 -0.000009 0.024260
#
#
# Mechanical properties :
#
#
# Convention : Reuss Voigt Hill
#
# Bulk Modulus (GPa) = 47.47808 55.45990 51.46899
# Shear Modulus (GPa) = 29.99617 33.61435 31.80526
#
# Velocity S-wave (km/s) = 3.93769 4.16842 4.05470
# Velocity P-wave (km/s) = 6.72428 7.19969 6.96604
#
# Compressibility (1/GPa) = 0.02106235
#
# Stress axis : x y z
#
# Youngs Moduli (GPa) = 81.43486 65.41406 57.91498
#
# Poissons Ratio (x) = 0.16542 0.27359
# Poissons Ratio (y) = 0.20593 0.26831
# Poissons Ratio (z) = 0.38470 0.30305
#
# Static dielectric constant tensor:
#      x y z
#    x 3.685080 -0.000020 0.117800 
#    y -0.000020 3.560950 -0.000070 
#    z 0.117800 -0.000070 3.803160 
# 
# 
# High freq. dielectric constant tensor:
#      x y z
#    x 1.767390 0.000000 0.006730 
#    y 0.000000 1.751340 0.000000 
#    z 0.006730 0.000000 1.745780 
# 
# From -- ./inp_files/279080.got.cif
#   From: 2010.06.25/outbox.cif.g09.slc.cpg/sg12_140_cif.got.tgz:279080.got - 2010.06.28 00:19:55.
