data_PCOD8092800
_publ_section_title
;
Structure prediction by ZEFSAII (Michael W. Deem and Ramdas Pophale) SiO2 
 PCOD8092800
Probable space group: C 2/M
;
_chemical_formula_sum "Si O2"
_cell_formula_units_Z 44
_cell_length_a 14.094235
_cell_length_b 13.088615
_cell_length_c 13.002784
_cell_angle_alpha 90.000000
_cell_angle_beta 61.964390
_cell_angle_gamma 90.000000
_cell_volume 2117.204705
_symmetry_space_group_name_H-M "C 2/M"
_symmetry_group_IT_number 12
_symmetry_cell_setting 'monoclinic'
loop_
_space_group_symop_operation_xyz
x,y,z
-x,y,-z
-x,-y,-z
x,-y,z
1/2+x,1/2+y,z
1/2-x,1/2+y,-z
1/2-x,1/2-y,-z
1/2+x,1/2-y,z
loop_
_atom_site_type_symbol
_atom_site_label
_atom_site_fract_x
_atom_site_fract_y
_atom_site_fract_z
Si Si1 0.126339 0.798197 0.938259
Si Si2 0.848199 0.204898 0.309501
Si Si3 0.000000 0.744005 0.500000
Si Si4 0.941113 0.118295 0.707848
Si Si5 0.256608 0.888177 0.046400
Si Si6 0.671367 0.117728 0.535838
O O1 0.176072 0.800655 0.798858
O O2 0.145364 0.690070 0.986772
O O3 0.194426 0.879625 0.969141
O O4 0.000000 0.823927 0.000000
O O5 0.777959 0.125310 0.411979
O O6 0.819115 0.319990 0.362035
O O7 0.971201 0.172599 0.264241
O O8 0.930858 0.819183 0.607226
O O9 0.925078 0.669055 0.475711
O O10 0.827285 0.128817 0.819767
O O11 0.971004 0.000000 0.671965
O O12 0.308698 0.000000 0.023968
O O13 0.647259 0.000000 0.573875
#
# Coordination Sequence:
#
# PCOD8092800 Si02
#       6
#     8   8   4   8   8   8
#     4  11  22  41  64  86 125 161 195 252 302 353
#     4  10  21  37  60  87 114 155 202 244 299 356
#     4  10  20  34  56  84 118 156 194 242 302 354
#     4  10  19  35  57  85 118 153 199 250 295 349
#     4  10  23  39  60  90 120 158 205 245 298 360
#     4  10  21  37  57  84 117 154 197 244 297 357
#
# _framework density 20.782118000000001
#
# number of rings (size 3 to 8) (size 9 to 14) (size 15 to 20)
#    0.000    1.818    1.818    2.182    0.000    2.909 
#    0.000    4.545    0.000    0.000    0.000    0.000 
#    0.000    0.000    0.000    0.000    0.000    0.000 
#
# Total GULP energy -272785.714601 kJ/mol
# GULP energy per Si atom -12399.350664 kJ/mol
# Density = 2.073482 g / cm^3
# Si number density = 20.782118 Si / 1000 Ang^3
#
#
#
# Elastic Constant Matrix: (Units=GPa)
#
#
# Indices 1 2 3 4 5 6 
#
# 1 26.5481 -9.8694 -0.2206 0.0000 1.0401 0.0000
# 2 -9.8694 116.0084 19.6272 0.0000 1.5118 0.0000
# 3 -0.2206 19.6272 89.6386 0.0000 22.9573 0.0000
# 4 0.0000 0.0000 0.0000 20.0592 0.0000 0.5142
# 5 1.0401 1.5118 22.9573 0.0000 19.8544 0.0000
# 6 0.0000 0.0000 0.0000 0.5142 0.0000 20.6998
#
#
#
# Elastic Compliance Matrix: (Units=1/GPa)
#
#
# Indices 1 2 3 4 5 6 
#
# 1 0.039003 0.003359 -0.000072 0.000000 -0.002216 0.000000
# 2 0.003359 0.009312 -0.002563 0.000000 0.002079 0.000000
# 3 -0.000072 -0.002563 0.016574 0.000000 -0.018966 0.000000
# 4 0.000000 0.000000 0.000000 0.049884 0.000000 -0.001239
# 5 -0.002216 0.002079 -0.018966 0.000000 0.072254 0.000000
# 6 0.000000 0.000000 0.000000 -0.001239 0.000000 0.048340
#
#
# Mechanical properties :
#
#
# Convention : Reuss Voigt Hill
#
# Bulk Modulus (GPa) = 15.07449 27.91882 21.49665
# Shear Modulus (GPa) = 19.52881 26.96655 23.24768
#
# Velocity S-wave (km/s) = 3.06877 3.60611 3.34823
# Velocity P-wave (km/s) = 4.45261 5.54995 5.03129
#
# Compressibility (1/GPa) = 0.06633723
#
# Stress axis : x y z
#
# Youngs Moduli (GPa) = 25.63936 107.38359 60.33468
#
# Poissons Ratio (x) = -0.36072 0.00435
# Poissons Ratio (y) = -0.08613 0.15465
# Poissons Ratio (z) = 0.00185 0.27524
#
# Static dielectric constant tensor:
#      x y z
#    x 3.662480 0.000000 0.135840 
#    y 0.000000 3.756350 0.000000 
#    z 0.135840 0.000000 3.781370 
# 
# 
# High freq. dielectric constant tensor:
#      x y z
#    x 1.812290 0.000000 0.008980 
#    y 0.000000 1.811640 0.000000 
#    z 0.008980 0.000000 1.814980 
# 
# From -- ./inp_files/142610.got.cif
#   From: 2010.06.25/outbox.cif.g09.slc.cpg/sg12_72_cif.got.tgz:142610.got - 2010.06.28 00:19:55.
