data_PCOD8092227
_publ_section_title
;
Structure prediction by ZEFSAII (Michael W. Deem and Ramdas Pophale) SiO2 
 PCOD8092227
Probable space group: C 2/M
;
_chemical_formula_sum "Si O2"
_cell_formula_units_Z 56
_cell_length_a 32.475236
_cell_length_b 18.918584
_cell_length_c 6.176802
_cell_angle_alpha 90.000000
_cell_angle_beta 126.159423
_cell_angle_gamma 90.000000
_cell_volume 3063.950453
_symmetry_space_group_name_H-M "C 2/M"
_symmetry_group_IT_number 12
_symmetry_cell_setting 'monoclinic'
loop_
_space_group_symop_operation_xyz
x,y,z
-x,y,-z
-x,-y,-z
x,-y,z
1/2+x,1/2+y,z
1/2-x,1/2+y,-z
1/2-x,1/2-y,-z
1/2+x,1/2-y,z
loop_
_atom_site_type_symbol
_atom_site_label
_atom_site_fract_x
_atom_site_fract_y
_atom_site_fract_z
Si Si1 0.171206 0.672157 0.275639
Si Si2 0.829979 0.582417 0.112058
Si Si3 0.854998 0.794297 0.123334
Si Si4 0.599977 0.815349 0.434284
Si Si5 0.250313 0.826219 0.111600
Si Si6 0.024513 0.000000 0.829242
Si Si7 0.546993 0.650806 0.808305
Si Si8 0.500000 0.244318 0.000000
O O1 0.119045 0.673355 0.249762
O O2 0.221755 0.679394 0.572721
O O3 0.172425 0.597550 0.151581
O O4 0.171086 0.735481 0.106163
O O5 0.832076 0.500000 0.167400
O O6 0.881795 0.618183 0.365800
O O7 0.779051 0.614937 0.060387
O O8 0.875182 0.757352 0.403172
O O9 0.900673 0.833995 0.149554
O O10 0.809125 0.848756 0.039860
O O11 0.538571 0.806808 0.251823
O O12 0.250000 0.750000 0.000000
O O13 0.055637 0.927051 0.935202
O O14 0.000000 0.000000 0.500000
O O15 0.000000 0.000000 0.000000
O O16 0.500000 0.653189 0.500000
O O17 0.535805 0.707673 0.959833
#
# Coordination Sequence:
#
# PCOD8092227 Si02
#       8
#     8   8   8   8   8   4   8   4
#     4  10  19  34  60  85 111 154 191 243 309 360
#     4  10  23  41  59  84 125 167 200 243 312 383
#     4  11  20  34  56  90 117 150 196 257 306 349
#     4  10  21  35  61  92 118 151 205 259 303 366
#     4  11  20  35  62  89 117 148 202 255 296 362
#     4  10  22  40  60  84 120 176 214 248 312 395
#     4  11  22  36  59  83 123 160 207 253 314 373
#     4  12  20  35  63  94 116 152 214 268 308 352
#
# _framework density 18.277056999999999
#
# number of rings (size 3 to 8) (size 9 to 14) (size 15 to 20)
#    0.000    1.429    7.857    0.429    0.000    2.286 
#    1.286    0.357    0.000    0.857    0.000    0.000 
#    0.000    0.000    0.000    0.000    0.000    0.000 
#
# Total GULP energy -346907.355599 kJ/mol
# GULP energy per Si atom -12389.548414 kJ/mol
# Density = 1.823546 g / cm^3
# Si number density = 18.277057 Si / 1000 Ang^3
#
#
#
# Elastic Constant Matrix: (Units=GPa)
#
#
# Indices 1 2 3 4 5 6 
#
# 1 137.0076 60.4824 52.8090 0.0000 12.2549 0.0000
# 2 60.4824 119.9590 39.5959 0.0000 9.2671 0.0000
# 3 52.8090 39.5959 99.8275 0.0000 4.5900 0.0000
# 4 0.0000 0.0000 0.0000 11.0692 0.0000 3.3318
# 5 12.2549 9.2671 4.5900 0.0000 38.2700 0.0000
# 6 0.0000 0.0000 0.0000 3.3318 0.0000 17.1613
#
#
#
# Elastic Compliance Matrix: (Units=1/GPa)
#
#
# Indices 1 2 3 4 5 6 
#
# 1 0.010779 -0.003944 -0.004045 0.000000 -0.002011 0.000000
# 2 -0.003944 0.011171 -0.002291 0.000000 -0.001167 0.000000
# 3 -0.004045 -0.002291 0.013053 0.000000 0.000285 0.000000
# 4 0.000000 0.000000 0.000000 0.095948 0.000000 -0.018628
# 5 -0.002011 -0.001167 0.000285 0.000000 0.027023 0.000000
# 6 0.000000 0.000000 0.000000 -0.018628 0.000000 0.061887
#
#
# Mechanical properties :
#
#
# Convention : Reuss Voigt Hill
#
# Bulk Modulus (GPa) = 69.23968 73.61875 71.42921
# Shear Modulus (GPa) = 20.38855 26.89388 23.64122
#
# Velocity S-wave (km/s) = 3.34357 3.84012 3.60042
# Velocity P-wave (km/s) = 7.27129 7.74782 7.51333
#
# Compressibility (1/GPa) = 0.01444259
#
# Stress axis : x y z
#
# Youngs Moduli (GPa) = 92.77144 89.51665 76.61185
#
# Poissons Ratio (x) = 0.35306 0.30992
# Poissons Ratio (y) = 0.36590 0.17550
# Poissons Ratio (z) = 0.37529 0.20507
#
# Static dielectric constant tensor:
#      x y z
#    x 3.526400 0.000000 -0.118020 
#    y 0.000000 3.264750 0.000000 
#    z -0.118020 0.000000 3.596230 
# 
# 
# High freq. dielectric constant tensor:
#      x y z
#    x 1.714230 0.000000 -0.012500 
#    y 0.000000 1.680800 0.000000 
#    z -0.012500 0.000000 1.716250 
# 
# From -- ./inp_files/32113.got.cif
#   From: 2010.06.25/outbox.cif.g09.slc.cpg/sg12_17_cif.got.tgz:32113.got - 2010.06.28 00:19:55.
