data_PCOD8092659
_publ_section_title
;
Structure prediction by ZEFSAII (Michael W. Deem and Ramdas Pophale) SiO2 
 PCOD8092659
Probable space group: C 2/M
;
_chemical_formula_sum "Si O2"
_cell_formula_units_Z 56
_cell_length_a 19.067964
_cell_length_b 8.702186
_cell_length_c 27.345661
_cell_angle_alpha 90.000000
_cell_angle_beta 40.570866
_cell_angle_gamma 90.000000
_cell_volume 2951.166195
_symmetry_space_group_name_H-M "C 2/M"
_symmetry_group_IT_number 12
_symmetry_cell_setting 'monoclinic'
loop_
_space_group_symop_operation_xyz
x,y,z
-x,y,-z
-x,-y,-z
x,-y,z
1/2+x,1/2+y,z
1/2-x,1/2+y,-z
1/2-x,1/2-y,-z
1/2+x,1/2-y,z
loop_
_atom_site_type_symbol
_atom_site_label
_atom_site_fract_x
_atom_site_fract_y
_atom_site_fract_z
Si Si1 0.812082 0.319353 0.287662
Si Si2 0.276521 0.820382 0.933702
Si Si3 0.309136 0.331697 0.190421
Si Si4 0.021406 0.681475 0.235893
Si Si5 0.442344 0.832987 0.677319
Si Si6 0.623379 0.823209 0.939839
Si Si7 0.580076 0.816137 0.415257
O O1 0.803010 0.500000 0.283444
O O2 0.856116 0.240151 0.215140
O O3 0.696818 0.255011 0.365617
O O4 0.902014 0.279633 0.280577
O O5 0.385772 0.752918 0.849972
O O6 0.175067 0.785146 0.953178
O O7 0.289956 0.000000 0.934240
O O8 0.250000 0.750000 0.000000
O O9 0.362808 0.500000 0.152053
O O10 0.183711 0.356564 0.262222
O O11 0.324901 0.209170 0.139656
O O12 0.043041 0.500000 0.229041
O O13 0.030617 0.755985 0.286081
O O14 0.471633 0.753853 0.609338
O O15 0.499785 0.000000 0.649645
O O16 0.640845 0.000000 0.945407
O O17 0.500000 0.778090 0.000000
O O18 0.500000 0.761068 0.500000
O O19 0.591776 0.000000 0.407090
#
# Coordination Sequence:
#
# PCOD8092659 Si02
#       7
#     8   8   8   8   8   8   8
#     4  10  20  33  54  82 111 143 180 225 277 332
#     4  11  23  40  58  80 111 149 193 238 289 340
#     4  10  19  35  57  78 103 140 185 231 275 330
#     4   9  18  34  55  77 107 145 183 225 276 333
#     4   8  14  30  55  77  99 136 179 216 263 324
#     4  11  24  39  55  78 110 145 186 238 291 337
#     4   9  18  34  57  83 111 143 182 229 275 324
#
# _framework density 18.975549999999998
#
# number of rings (size 3 to 8) (size 9 to 14) (size 15 to 20)
#    0.000    2.286    1.429    2.571    2.000    1.429 
#    0.000    2.857    0.000    0.000    0.000    0.000 
#    0.000    0.000    0.000    0.000    0.000    0.000 
#
# Total GULP energy -346939.852603 kJ/mol
# GULP energy per Si atom -12390.709022 kJ/mol
# Density = 1.893236 g / cm^3
# Si number density = 18.975550 Si / 1000 Ang^3
#
#
#
# Elastic Constant Matrix: (Units=GPa)
#
#
# Indices 1 2 3 4 5 6 
#
# 1 146.0365 28.4128 73.5415 -0.0006 21.3241 0.0040
# 2 28.4128 42.0720 21.9396 -0.0008 -1.5801 0.0062
# 3 73.5415 21.9396 117.0041 0.0001 27.5721 -0.0004
# 4 -0.0006 -0.0008 0.0001 23.6200 -0.0003 -0.7829
# 5 21.3241 -1.5801 27.5721 -0.0003 31.5380 -0.0004
# 6 0.0040 0.0062 -0.0004 -0.7829 -0.0004 25.9294
#
#
#
# Elastic Compliance Matrix: (Units=1/GPa)
#
#
# Indices 1 2 3 4 5 6 
#
# 1 0.010828 -0.004704 -0.005218 0.000000 -0.002995 -0.000001
# 2 -0.004704 0.029715 -0.004680 0.000001 0.008761 -0.000006
# 3 -0.005218 -0.004680 0.015023 0.000000 -0.009840 0.000002
# 4 0.000000 0.000001 0.000000 0.042379 0.000001 0.001280
# 5 -0.002995 0.008761 -0.009840 0.000001 0.042774 -0.000001
# 6 -0.000001 -0.000006 0.000002 0.001280 -0.000001 0.038605
#
#
# Mechanical properties :
#
#
# Convention : Reuss Voigt Hill
#
# Bulk Modulus (GPa) = 37.93287 61.43336 49.68311
# Shear Modulus (GPa) = 23.00815 28.29874 25.65345
#
# Velocity S-wave (km/s) = 3.48590 3.86596 3.68084
# Velocity P-wave (km/s) = 6.01961 7.23691 6.65615
#
# Compressibility (1/GPa) = 0.02636236
#
# Stress axis : x y z
#
# Youngs Moduli (GPa) = 92.35548 33.65316 66.56628
#
# Poissons Ratio (x) = 0.15830 0.34733
# Poissons Ratio (y) = 0.43443 0.31151
# Poissons Ratio (z) = 0.48189 0.15749
#
# Static dielectric constant tensor:
#      x y z
#    x 3.665230 0.000000 0.352430 
#    y 0.000000 3.423090 -0.000010 
#    z 0.352430 -0.000010 3.450270 
# 
# 
# High freq. dielectric constant tensor:
#      x y z
#    x 1.744410 0.000000 0.017220 
#    y 0.000000 1.713110 0.000000 
#    z 0.017220 0.000000 1.727680 
# 
# From -- ./inp_files/342286.got.cif
#   From: 2010.06.25/outbox.cif.g09.slc.cpg/sg12_172_cif.got.tgz:342286.got - 2010.06.28 00:19:55.
