data_PCOD8092303
_publ_section_title
;
Structure prediction by ZEFSAII (Michael W. Deem and Ramdas Pophale) SiO2 
 PCOD8092303
Probable space group: C 2/M
;
_chemical_formula_sum "Si O2"
_cell_formula_units_Z 48
_cell_length_a 22.080141
_cell_length_b 12.714030
_cell_length_c 16.565973
_cell_angle_alpha 90.000000
_cell_angle_beta 29.232328
_cell_angle_gamma 90.000000
_cell_volume 2271.093907
_symmetry_space_group_name_H-M "C 2/M"
_symmetry_group_IT_number 12
_symmetry_cell_setting 'monoclinic'
loop_
_space_group_symop_operation_xyz
x,y,z
-x,y,-z
-x,-y,-z
x,-y,z
1/2+x,1/2+y,z
1/2-x,1/2+y,-z
1/2-x,1/2-y,-z
1/2+x,1/2-y,z
loop_
_atom_site_type_symbol
_atom_site_label
_atom_site_fract_x
_atom_site_fract_y
_atom_site_fract_z
Si Si1 0.126614 0.881931 0.899078
Si Si2 0.236319 0.115329 0.003314
Si Si3 0.396996 0.224813 0.931165
Si Si4 0.704664 0.195262 0.431719
Si Si5 0.336176 0.122100 0.352632
Si Si6 0.524918 0.120785 0.378876
O O1 0.236934 0.872220 0.707598
O O2 0.132056 0.000000 0.931341
O O3 0.143694 0.789287 0.943099
O O4 0.000000 0.863623 0.000000
O O5 0.301524 0.132697 0.015350
O O6 0.333413 0.132233 0.815489
O O7 0.180153 0.000000 0.068455
O O8 0.119346 0.192917 0.125191
O O9 0.531089 0.176572 0.789291
O O10 0.736507 0.134754 0.478350
O O11 0.759508 0.314395 0.373144
O O12 0.557494 0.193762 0.585235
O O13 0.348382 0.000000 0.312787
O O14 0.500000 0.157190 0.500000
O O15 0.482677 0.000000 0.417007
#
# Coordination Sequence:
#
# PCOD8092303 Si02
#       6
#     8   8   8   8   8   8
#     4  11  22  37  58  91 125 153 198 259 312 354
#     4  10  21  37  59  87 122 162 207 254 302 362
#     4  11  21  38  60  88 123 162 202 251 304 368
#     4  11  22  40  64  92 123 157 202 258 306 366
#     4  11  23  41  65  91 122 163 206 252 308 370
#     4  10  19  34  61  92 122 158 200 252 308 359
#
# _framework density 21.135190000000001
#
# number of rings (size 3 to 8) (size 9 to 14) (size 15 to 20)
#    0.000    1.333    3.333    3.500    0.000    1.333 
#    0.000    3.333    0.000    0.500    0.000    0.000 
#    0.000    0.000    0.000    0.000    0.000    0.000 
#
# Total GULP energy -297381.357766 kJ/mol
# GULP energy per Si atom -12390.889907 kJ/mol
# Density = 2.108709 g / cm^3
# Si number density = 21.135190 Si / 1000 Ang^3
#
#
#
# Elastic Constant Matrix: (Units=GPa)
#
#
# Indices 1 2 3 4 5 6 
#
# 1 82.7511 47.2771 9.2911 0.0000 -4.5460 0.0000
# 2 47.2771 128.2464 31.8797 0.0000 -18.7709 0.0000
# 3 9.2911 31.8797 39.9870 0.0000 0.9594 0.0000
# 4 0.0000 0.0000 0.0000 10.0691 0.0000 -13.2967
# 5 -4.5460 -18.7709 0.9594 0.0000 39.9217 0.0000
# 6 0.0000 0.0000 0.0000 -13.2967 0.0000 20.4752
#
#
#
# Elastic Compliance Matrix: (Units=1/GPa)
#
#
# Indices 1 2 3 4 5 6 
#
# 1 0.015404 -0.006200 0.001392 0.000000 -0.001194 0.000000
# 2 -0.006200 0.013217 -0.009234 0.000000 0.005731 0.000000
# 3 0.001392 -0.009234 0.032166 0.000000 -0.004957 0.000000
# 4 0.000000 0.000000 0.000000 0.697241 0.000000 0.452791
# 5 -0.001194 0.005731 -0.004957 0.000000 0.027727 0.000000
# 6 0.000000 0.000000 0.000000 0.452791 0.000000 0.342883
#
#
# Mechanical properties :
#
#
# Convention : Reuss Voigt Hill
#
# Bulk Modulus (GPa) = 30.57782 47.54225 39.06004
# Shear Modulus (GPa) = 4.28220 24.92898 14.60559
#
# Velocity S-wave (km/s) = 1.42496 3.43811 2.63165
# Velocity P-wave (km/s) = 4.14807 6.18902 5.26832
#
# Compressibility (1/GPa) = 0.03270344
#
# Stress axis : x y z
#
# Youngs Moduli (GPa) = 64.91631 75.65905 31.08889
#
# Poissons Ratio (x) = 0.46905 -0.04328
# Poissons Ratio (y) = 0.40245 0.28709
# Poissons Ratio (z) = -0.09036 0.69867
#
# Static dielectric constant tensor:
#      x y z
#    x 2.791440 0.000000 2.923860 
#    y 0.000000 3.895710 0.000000 
#    z 2.923860 0.000000 -3.598520 
# 
# 
# High freq. dielectric constant tensor:
#      x y z
#    x 1.837060 0.000000 -0.012650 
#    y 0.000000 1.820600 0.000000 
#    z -0.012650 0.000000 1.809220 
# 
# From -- ./inp_files/289316.got.cif
#   From: 2010.06.25/outbox.cif.g09.slc.cpg/sg12_145_cif.got.tgz:289316.got - 2010.06.28 00:19:55.
