data_PCOD8092947
_publ_section_title
;
Structure prediction by ZEFSAII (Michael W. Deem and Ramdas Pophale) SiO2 
 PCOD8092947
Probable space group: C 2/M
;
_chemical_formula_sum "Si O2"
_cell_formula_units_Z 32
_cell_length_a 9.751221
_cell_length_b 19.113454
_cell_length_c 15.998763
_cell_angle_alpha 90.000000
_cell_angle_beta 145.910600
_cell_angle_gamma 90.000000
_cell_volume 1671.279885
_symmetry_space_group_name_H-M "C 2/M"
_symmetry_group_IT_number 12
_symmetry_cell_setting 'monoclinic'
loop_
_space_group_symop_operation_xyz
x,y,z
-x,y,-z
-x,-y,-z
x,-y,z
1/2+x,1/2+y,z
1/2-x,1/2+y,-z
1/2-x,1/2-y,-z
1/2+x,1/2-y,z
loop_
_atom_site_type_symbol
_atom_site_label
_atom_site_fract_x
_atom_site_fract_y
_atom_site_fract_z
Si Si1 0.972079 0.791854 0.649244
Si Si2 0.930154 0.856720 0.055192
Si Si3 0.289428 0.579986 0.648507
Si Si4 0.532855 0.784354 0.181624
O O1 0.750000 0.750000 0.500000
O O2 0.902182 0.871439 0.634410
O O3 0.044309 0.748935 0.768509
O O4 0.180813 0.801086 0.684139
O O5 0.084146 0.901783 0.199137
O O6 0.991377 0.774311 0.089878
O O7 0.632000 0.854774 0.917389
O O8 0.000000 0.887571 0.000000
O O9 0.348763 0.500000 0.656715
O O10 0.000000 0.594030 0.500000
#
# Coordination Sequence:
#
# PCOD8092947 Si02
#       4
#     8   8   8   8
#     4  11  20  36  60  91 118 155 195 245 294 350
#     4  10  19  35  58  85 120 154 188 245 299 345
#     4  10  23  40  58  82 118 161 200 240 295 363
#     4  10  20  32  56  90 120 146 192 249 294 340
#
# _framework density 19.147003000000002
#
# number of rings (size 3 to 8) (size 9 to 14) (size 15 to 20)
#    0.000    1.750    2.500    3.750    0.000    0.500 
#    0.000    2.500    0.000    3.000    0.000    0.000 
#    0.000    0.000    0.000    0.000    0.000    0.000 
#
# Total GULP energy -198219.680195 kJ/mol
# GULP energy per Si atom -12388.730012 kJ/mol
# Density = 1.910342 g / cm^3
# Si number density = 19.147003 Si / 1000 Ang^3
#
#
#
# Elastic Constant Matrix: (Units=GPa)
#
#
# Indices 1 2 3 4 5 6 
#
# 1 98.0461 32.5756 41.9996 -0.0007 21.5066 -0.0002
# 2 32.5756 84.1208 40.6194 0.0013 5.5694 -0.0006
# 3 41.9996 40.6194 120.3355 -0.0040 17.4795 -0.0049
# 4 -0.0007 0.0013 -0.0040 21.2681 -0.0013 -0.3642
# 5 21.5066 5.5694 17.4795 -0.0013 36.8362 -0.0025
# 6 -0.0002 -0.0006 -0.0049 -0.3642 -0.0025 11.4272
#
#
#
# Elastic Compliance Matrix: (Units=1/GPa)
#
#
# Indices 1 2 3 4 5 6 
#
# 1 0.013970 -0.003680 -0.002717 0.000000 -0.006311 -0.000002
# 2 -0.003680 0.015173 -0.004098 -0.000002 0.001799 -0.000001
# 3 -0.002717 -0.004098 0.011085 0.000002 -0.003054 0.000004
# 4 0.000000 -0.000002 0.000002 0.047045 0.000001 0.001499
# 5 -0.006311 0.001799 -0.003054 0.000001 0.032009 0.000006
# 6 -0.000002 -0.000001 0.000004 0.001499 0.000006 0.087558
#
#
# Mechanical properties :
#
#
# Convention : Reuss Voigt Hill
#
# Bulk Modulus (GPa) = 51.98282 59.21016 55.59649
# Shear Modulus (GPa) = 21.34529 26.39347 23.86938
#
# Velocity S-wave (km/s) = 3.34250 3.71680 3.53461
# Velocity P-wave (km/s) = 6.48881 7.02926 6.76444
#
# Compressibility (1/GPa) = 0.01923712
#
# Stress axis : x y z
#
# Youngs Moduli (GPa) = 71.58132 65.90785 90.20803
#
# Poissons Ratio (x) = 0.24255 0.24509
# Poissons Ratio (y) = 0.26343 0.36972
# Poissons Ratio (z) = 0.19448 0.27012
#
# Static dielectric constant tensor:
#      x y z
#    x 4.389140 -0.003070 -0.272100 
#    y -0.003070 3.495070 0.001840 
#    z -0.272100 0.001840 4.053420 
# 
# 
# High freq. dielectric constant tensor:
#      x y z
#    x 1.741180 0.000000 0.006450 
#    y 0.000000 1.703550 0.000000 
#    z 0.006450 0.000000 1.768180 
# 
# From -- ./inp_files/62459.got.cif
#   From: 2010.06.25/outbox.cif.g09.slc.cpg/sg12_32_cif.got.tgz:62459.got - 2010.06.28 00:19:55.
