data_PCOD8092476
_publ_section_title
;
Structure prediction by ZEFSAII (Michael W. Deem and Ramdas Pophale) SiO2 
 PCOD8092476
Probable space group: C 2/M
;
_chemical_formula_sum "Si O2"
_cell_formula_units_Z 56
_cell_length_a 25.277174
_cell_length_b 14.553772
_cell_length_c 25.012344
_cell_angle_alpha 90.000000
_cell_angle_beta 162.466087
_cell_angle_gamma 90.000000
_cell_volume 2772.137192
_symmetry_space_group_name_H-M "C 2/M"
_symmetry_group_IT_number 12
_symmetry_cell_setting 'monoclinic'
loop_
_space_group_symop_operation_xyz
x,y,z
-x,y,-z
-x,-y,-z
x,-y,z
1/2+x,1/2+y,z
1/2-x,1/2+y,-z
1/2-x,1/2-y,-z
1/2+x,1/2-y,z
loop_
_atom_site_type_symbol
_atom_site_label
_atom_site_fract_x
_atom_site_fract_y
_atom_site_fract_z
Si Si1 0.139180 0.100720 0.767503
Si Si2 0.318476 0.606809 0.072108
Si Si3 0.266625 0.263722 0.822334
Si Si4 0.653671 0.715084 0.220920
Si Si5 0.015448 0.289551 0.274646
Si Si6 0.711365 0.692901 0.548146
Si Si7 0.530145 0.901445 0.466697
O O1 0.234217 0.109958 0.916311
O O2 0.235485 0.165807 0.818543
O O3 0.930733 0.115236 0.574992
O O4 0.165051 0.000000 0.768322
O O5 0.369259 0.500000 0.104731
O O6 0.469841 0.684801 0.209081
O O7 0.150494 0.643441 0.877248
O O8 0.271189 0.247382 0.763062
O O9 0.107526 0.327800 0.688955
O O10 0.448283 0.309240 0.017869
O O11 0.684356 0.789044 0.296691
O O12 0.767033 0.626446 0.347357
O O13 0.147618 0.338526 0.360460
O O14 0.106060 0.280104 0.420490
O O15 0.500000 0.911477 0.500000
O O16 0.498974 0.000000 0.408616
#
# Coordination Sequence:
#
# PCOD8092476 Si02
#       7
#     8   8   8   8   8   8   8
#     4  10  20  35  59  86 117 155 195 238 286 347
#     4   9  18  35  58  83 112 148 189 236 292 350
#     4  10  20  36  58  83 117 154 194 238 288 339
#     4  10  20  35  58  81 115 156 190 238 292 341
#     4   9  19  34  57  80 107 148 189 236 289 343
#     4  10  19  35  55  78 112 148 192 238 286 339
#     4   9  18  34  57  81 108 144 189 236 286 344
#
# _framework density 20.20102
#
# number of rings (size 3 to 8) (size 9 to 14) (size 15 to 20)
#    0.000    2.429    1.429    0.857    0.000    1.143 
#    0.000   10.000    0.000    0.000    0.000    0.000 
#    0.000    0.000    0.000    0.000    0.000    0.000 
#
# Total GULP energy -346921.390176 kJ/mol
# GULP energy per Si atom -12390.049649 kJ/mol
# Density = 2.015504 g / cm^3
# Si number density = 20.201020 Si / 1000 Ang^3
#
#
#
# Elastic Constant Matrix: (Units=GPa)
#
#
# Indices 1 2 3 4 5 6 
#
# 1 55.1153 21.6854 31.0419 -0.0093 -0.3696 0.0190
# 2 21.6854 108.2588 32.3709 -0.0003 8.3350 -0.0050
# 3 31.0419 32.3709 117.8579 -0.0584 0.2116 0.0584
# 4 -0.0093 -0.0003 -0.0584 0.1012 -0.0152 23.4159
# 5 -0.3696 8.3350 0.2116 -0.0152 32.7645 0.0243
# 6 0.0190 -0.0050 0.0584 23.4159 0.0243 -17.7977
#
#
#
# Elastic Compliance Matrix: (Units=1/GPa)
#
#
# Indices 1 2 3 4 5 6 
#
# 1 0.022161 -0.003022 -0.005009 -0.000009 0.001051 -0.000003
# 2 -0.003022 0.010692 -0.002136 0.000007 -0.002740 -0.000008
# 3 -0.005009 -0.002136 0.010390 -0.000004 0.000420 0.000024
# 4 -0.000009 0.000007 -0.000004 0.032353 -0.000018 0.042566
# 5 0.001051 -0.002740 0.000420 -0.000018 0.031227 0.000022
# 6 -0.000003 -0.000008 0.000024 0.042566 0.000022 -0.000184
#
#
# Mechanical properties :
#
#
# Convention : Reuss Voigt Hill
#
# Bulk Modulus (GPa) = 43.65007 50.15869 46.90438
# Shear Modulus (GPa) = 37.14463 16.08920 26.61691
#
# Velocity S-wave (km/s) = 4.29272 2.82521 3.63382
# Velocity P-wave (km/s) = 6.79887 5.96038 6.39339
#
# Compressibility (1/GPa) = 0.02290947
#
# Stress axis : x y z
#
# Youngs Moduli (GPa) = 45.12450 93.52674 96.24809
#
# Poissons Ratio (x) = 0.28267 0.48207
# Poissons Ratio (y) = 0.13638 0.20556
# Poissons Ratio (z) = 0.22601 0.19975
#
# Static dielectric constant tensor:
#      x y z
#    x 3.514280 -0.000030 -0.072330 
#    y -0.000030 3.587860 -0.000060 
#    z -0.072330 -0.000060 3.846230 
# 
# 
# High freq. dielectric constant tensor:
#      x y z
#    x 1.775000 0.000000 -0.003160 
#    y 0.000000 1.757970 -0.000010 
#    z -0.003160 -0.000010 1.801110 
# 
# From -- ./inp_files/349805.got.cif
#   From: 2010.06.25/outbox.cif.g09.slc.cpg/sg12_175_cif.got.tgz:349805.got - 2010.06.28 00:19:55.
