data_PCOD8092310
_publ_section_title
;
Structure prediction by ZEFSAII (Michael W. Deem and Ramdas Pophale) SiO2 
 PCOD8092310
Probable space group: C 2/M
;
_chemical_formula_sum "Si O2"
_cell_formula_units_Z 48
_cell_length_a 20.775669
_cell_length_b 14.006559
_cell_length_c 21.834740
_cell_angle_alpha 90.000000
_cell_angle_beta 159.572316
_cell_angle_gamma 90.000000
_cell_volume 2217.639167
_symmetry_space_group_name_H-M "C 2/M"
_symmetry_group_IT_number 12
_symmetry_cell_setting 'monoclinic'
loop_
_space_group_symop_operation_xyz
x,y,z
-x,y,-z
-x,-y,-z
x,-y,z
1/2+x,1/2+y,z
1/2-x,1/2+y,-z
1/2-x,1/2-y,-z
1/2+x,1/2-y,z
loop_
_atom_site_type_symbol
_atom_site_label
_atom_site_fract_x
_atom_site_fract_y
_atom_site_fract_z
Si Si1 0.614139 0.264427 0.434390
Si Si2 0.148906 0.387779 0.270711
Si Si3 0.608455 0.890818 0.535455
Si Si4 0.218218 0.717674 0.083189
Si Si5 0.215136 0.603408 0.197372
Si Si6 0.983245 0.107277 0.054034
O O1 0.750000 0.250000 0.500000
O O2 0.705665 0.354301 0.549738
O O3 0.578691 0.175582 0.449236
O O4 0.415902 0.288468 0.225401
O O5 0.117953 0.500000 0.247530
O O6 0.246664 0.356574 0.294037
O O7 0.943975 0.341608 0.094424
O O8 0.500000 0.855813 0.500000
O O9 0.546917 0.000000 0.465104
O O10 0.823858 0.887159 0.740397
O O11 0.279336 0.678643 0.204629
O O12 0.158963 0.827563 0.035869
O O13 0.314764 0.500000 0.276924
O O14 0.000000 0.585723 0.000000
O O15 0.903232 0.000000 0.981536
O O16 0.000000 0.147143 0.000000
#
# Coordination Sequence:
#
# PCOD8092310 Si02
#       6
#     8   8   8   8   8   8
#     4  12  28  43  64  95 136 176 221 272 335 395
#     4  10  22  42  65  95 132 166 213 264 320 392
#     4  10  22  42  69  99 133 172 223 282 334 393
#     4  11  21  38  67  90 130 171 213 262 326 390
#     4   8  16  32  59  94 124 154 198 257 313 373
#     4  10  19  34  61  99 131 162 215 277 338 390
#
# _framework density 21.644638
#
# number of rings (size 3 to 8) (size 9 to 14) (size 15 to 20)
#    0.000    1.833    1.667    4.000    2.333    4.667 
#    0.000    1.667    0.000    0.000    0.000    0.000 
#    0.000    0.000    0.000    0.000    0.000    0.000 
#
# Total GULP energy -297414.031349 kJ/mol
# GULP energy per Si atom -12392.251306 kJ/mol
# Density = 2.159537 g / cm^3
# Si number density = 21.644638 Si / 1000 Ang^3
#
#
#
# Elastic Constant Matrix: (Units=GPa)
#
#
# Indices 1 2 3 4 5 6 
#
# 1 60.9592 28.7262 9.8658 -0.0208 20.8772 0.0042
# 2 28.7262 89.0256 38.4109 -0.0949 13.8154 0.0142
# 3 9.8658 38.4109 109.8751 -0.0887 20.4958 0.0349
# 4 -0.0208 -0.0949 -0.0887 26.1689 -0.0128 -18.0180
# 5 20.8772 13.8154 20.4958 -0.0128 32.5933 0.0136
# 6 0.0042 0.0142 0.0349 -18.0180 0.0136 25.6026
#
#
#
# Elastic Compliance Matrix: (Units=1/GPa)
#
#
# Indices 1 2 3 4 5 6 
#
# 1 0.024043 -0.006777 0.002886 -0.000001 -0.014342 0.000003
# 2 -0.006777 0.015413 -0.004952 0.000065 0.000922 0.000044
# 3 0.002886 -0.004952 0.011925 0.000028 -0.007249 0.000009
# 4 -0.000001 0.000065 0.000028 0.074137 -0.000037 0.052174
# 5 -0.014342 0.000922 -0.007249 -0.000037 0.044035 -0.000038
# 6 0.000003 0.000044 0.000009 0.052174 -0.000038 0.075776
#
#
# Mechanical properties :
#
#
# Convention : Reuss Voigt Hill
#
# Bulk Modulus (GPa) = 29.67793 45.98508 37.83151
# Shear Modulus (GPa) = 18.23168 29.06344 23.64756
#
# Velocity S-wave (km/s) = 2.90542 3.66834 3.30894
# Velocity P-wave (km/s) = 4.99965 6.26369 5.66703
#
# Compressibility (1/GPa) = 0.03369507
#
# Stress axis : x y z
#
# Youngs Moduli (GPa) = 41.59191 64.88007 83.85545
#
# Poissons Ratio (x) = 0.43972 -0.24199
# Poissons Ratio (y) = 0.28189 0.41521
# Poissons Ratio (z) = -0.12003 0.32126
#
# Static dielectric constant tensor:
#      x y z
#    x 4.084440 0.000010 -0.128340 
#    y 0.000010 4.119030 0.000000 
#    z -0.128340 0.000000 4.012640 
# 
# 
# High freq. dielectric constant tensor:
#      x y z
#    x 1.807070 0.000000 -0.003400 
#    y 0.000000 1.859580 -0.000010 
#    z -0.003400 -0.000010 1.860760 
# 
# From -- ./inp_files/347555.got.cif
#   From: 2010.06.25/outbox.cif.g09.slc.cpg/sg12_174_cif.got.tgz:347555.got - 2010.06.28 00:19:55.
