data_PCOD8092238
_publ_section_title
;
Structure prediction by ZEFSAII (Michael W. Deem and Ramdas Pophale) SiO2 
 PCOD8092238
Probable space group: C 2/M
;
_chemical_formula_sum "Si O2"
_cell_formula_units_Z 48
_cell_length_a 18.428803
_cell_length_b 13.478278
_cell_length_c 19.690400
_cell_angle_alpha 90.000000
_cell_angle_beta 152.345615
_cell_angle_gamma 90.000000
_cell_volume 2270.033543
_symmetry_space_group_name_H-M "C 2/M"
_symmetry_group_IT_number 12
_symmetry_cell_setting 'monoclinic'
loop_
_space_group_symop_operation_xyz
x,y,z
-x,y,-z
-x,-y,-z
x,-y,z
1/2+x,1/2+y,z
1/2-x,1/2+y,-z
1/2-x,1/2-y,-z
1/2+x,1/2-y,z
loop_
_atom_site_type_symbol
_atom_site_label
_atom_site_fract_x
_atom_site_fract_y
_atom_site_fract_z
Si Si1 0.526255 0.387643 0.650668
Si Si2 0.232130 0.717456 0.354108
Si Si3 0.698325 0.693231 0.040246
Si Si4 0.325454 0.788684 0.848057
Si Si5 0.577584 0.115261 0.873041
Si Si6 0.439321 0.387955 0.730197
O O1 0.478040 0.500000 0.596802
O O2 0.406555 0.319754 0.509611
O O3 0.699272 0.370778 0.765219
O O4 0.519318 0.362013 0.724689
O O5 0.204649 0.746591 0.253233
O O6 0.207460 0.815837 0.379115
O O7 0.107830 0.632923 0.274189
O O8 0.689728 0.691518 0.115137
O O9 0.864788 0.647402 0.154850
O O10 0.675428 0.810942 0.003270
O O11 0.563929 0.628655 0.893471
O O12 0.500000 0.834819 0.000000
O O13 0.617281 0.000000 0.921965
O O14 0.377495 0.500000 0.680515
#
# Coordination Sequence:
#
# PCOD8092238 Si02
#       6
#     8   8   8   8   8   8
#     4  11  25  42  63  93 128 167 207 255 314 372
#     4  11  23  41  63  92 129 165 203 256 313 371
#     4  10  21  38  57  93 127 159 203 261 313 355
#     4  12  23  41  61  88 128 172 205 250 311 373
#     4  10  19  34  60  86 117 158 204 252 303 363
#     4  10  21  40  68  95 123 162 211 260 311 366
#
# _framework density 21.145061999999999
#
# number of rings (size 3 to 8) (size 9 to 14) (size 15 to 20)
#    0.000    1.333    3.333    5.000    0.000    4.333 
#    0.000    2.500    0.000    3.000    0.000    0.000 
#    0.000    0.000    0.000    0.000    0.000    0.000 
#
# Total GULP energy -297504.105200 kJ/mol
# GULP energy per Si atom -12396.004383 kJ/mol
# Density = 2.109693 g / cm^3
# Si number density = 21.145062 Si / 1000 Ang^3
#
#
#
# Elastic Constant Matrix: (Units=GPa)
#
#
# Indices 1 2 3 4 5 6 
#
# 1 136.9683 44.9066 49.6889 0.0015 9.4882 0.0038
# 2 44.9066 103.9841 21.6581 0.0188 0.8458 0.0173
# 3 49.6889 21.6581 95.1271 0.0055 7.9265 0.0054
# 4 0.0015 0.0188 0.0055 22.6879 -0.0013 2.4591
# 5 9.4882 0.8458 7.9265 -0.0013 30.5631 -0.0005
# 6 0.0038 0.0173 0.0054 2.4591 -0.0005 16.0755
#
#
#
# Elastic Compliance Matrix: (Units=1/GPa)
#
#
# Indices 1 2 3 4 5 6 
#
# 1 0.010148 -0.003460 -0.004352 0.000003 -0.001926 0.000002
# 2 -0.003460 0.011279 -0.000842 -0.000008 0.000981 -0.000010
# 3 -0.004352 -0.000842 0.013147 -0.000002 -0.002035 -0.000002
# 4 0.000003 -0.000008 -0.000002 0.044820 0.000002 -0.006856
# 5 -0.001926 0.000981 -0.002035 0.000002 0.033818 0.000001
# 6 0.000002 -0.000010 -0.000002 -0.006856 0.000001 0.063255
#
#
# Mechanical properties :
#
#
# Convention : Reuss Voigt Hill
#
# Bulk Modulus (GPa) = 57.92415 63.17631 60.55023
# Shear Modulus (GPa) = 25.05885 28.52033 26.78959
#
# Velocity S-wave (km/s) = 3.44625 3.67658 3.56328
# Velocity P-wave (km/s) = 6.57942 6.92571 6.75478
#
# Compressibility (1/GPa) = 0.01726396
#
# Stress axis : x y z
#
# Youngs Moduli (GPa) = 98.54378 88.66326 76.06307
#
# Poissons Ratio (x) = 0.30680 0.33105
# Poissons Ratio (y) = 0.34099 0.06406
# Poissons Ratio (z) = 0.42890 0.07467
#
# Static dielectric constant tensor:
#      x y z
#    x 4.278620 0.000000 0.021770 
#    y 0.000000 3.625700 0.000000 
#    z 0.021770 0.000000 3.651000 
# 
# 
# High freq. dielectric constant tensor:
#      x y z
#    x 1.843370 0.000000 0.005190 
#    y 0.000000 1.802060 0.000000 
#    z 0.005190 0.000000 1.818300 
# 
# From -- ./inp_files/278232.got.cif
#   From: 2010.06.25/outbox.cif.g09.slc.cpg/sg12_140_cif.got.tgz:278232.got - 2010.06.28 00:19:55.
