data_PCOD8092088
_publ_section_title
;
Structure prediction by ZEFSAII (Michael W. Deem and Ramdas Pophale) SiO2 
 PCOD8092088
Probable space group: C 2/M
;
_chemical_formula_sum "Si O2"
_cell_formula_units_Z 48
_cell_length_a 33.211040
_cell_length_b 13.537928
_cell_length_c 10.339774
_cell_angle_alpha 90.000000
_cell_angle_beta 32.386985
_cell_angle_gamma 90.000000
_cell_volume 2490.087796
_symmetry_space_group_name_H-M "C 2/M"
_symmetry_group_IT_number 12
_symmetry_cell_setting 'monoclinic'
loop_
_space_group_symop_operation_xyz
x,y,z
-x,y,-z
-x,-y,-z
x,-y,z
1/2+x,1/2+y,z
1/2-x,1/2+y,-z
1/2-x,1/2-y,-z
1/2+x,1/2-y,z
loop_
_atom_site_type_symbol
_atom_site_label
_atom_site_fract_x
_atom_site_fract_y
_atom_site_fract_z
Si Si1 0.298877 0.892484 0.079318
Si Si2 0.070150 0.112952 0.071704
Si Si3 0.664484 0.682529 0.042106
Si Si4 0.417865 0.713850 0.480695
Si Si5 0.686683 0.110980 0.251310
Si Si6 0.862526 0.889076 0.380600
O O1 0.226936 0.881432 0.365642
O O2 0.338379 0.000000 0.000120
O O3 0.350950 0.796601 0.961665
O O4 0.274006 0.889335 0.996256
O O5 0.127978 0.112628 0.034441
O O6 0.005064 0.193484 0.275997
O O7 0.039690 0.000000 0.141726
O O8 0.113755 0.148496 0.825266
O O9 0.628406 0.660266 0.279732
O O10 0.754116 0.661393 0.810268
O O11 0.392108 0.828783 0.542605
O O12 0.404458 0.671833 0.375586
O O13 0.667971 0.000000 0.348487
O O14 0.890501 0.000000 0.324016
#
# Coordination Sequence:
#
# PCOD8092088 Si02
#       6
#     8   8   8   8   8   8
#     4   9  17  33  58  85 107 138 185 224 261 319
#     4  11  25  36  52  84 117 143 172 224 284 323
#     4  11  20  36  57  85 112 139 176 228 281 313
#     4  11  20  37  56  81 107 147 187 217 263 325
#     4  10  19  34  59  84 107 140 184 228 265 313
#     4  10  19  35  57  80 108 144 183 217 264 327
#
# _framework density 19.276429
#
# number of rings (size 3 to 8) (size 9 to 14) (size 15 to 20)
#    0.000    1.667    3.333    3.000    0.000    4.667 
#    0.000    0.833    0.000    6.000    0.000    0.000 
#    0.000    0.000    0.000    0.000    0.000    0.000 
#
# Total GULP energy -297423.539579 kJ/mol
# GULP energy per Si atom -12392.647482 kJ/mol
# Density = 1.923255 g / cm^3
# Si number density = 19.276429 Si / 1000 Ang^3
#
#
#
# Elastic Constant Matrix: (Units=GPa)
#
#
# Indices 1 2 3 4 5 6 
#
# 1 76.8880 35.0389 32.4057 0.0000 5.6766 0.0000
# 2 35.0389 105.4290 48.9770 0.0000 2.5075 0.0000
# 3 32.4057 48.9770 81.3647 0.0000 -0.9666 0.0000
# 4 0.0000 0.0000 0.0000 25.5012 0.0000 -2.2131
# 5 5.6766 2.5075 -0.9666 0.0000 22.5258 0.0000
# 6 0.0000 0.0000 0.0000 -2.2131 0.0000 23.2674
#
#
#
# Elastic Compliance Matrix: (Units=1/GPa)
#
#
# Indices 1 2 3 4 5 6 
#
# 1 0.016810 -0.003272 -0.004774 0.000000 -0.004077 0.000000
# 2 -0.003272 0.013878 -0.007063 0.000000 -0.001023 0.000000
# 3 -0.004774 -0.007063 0.018476 0.000000 0.002782 0.000000
# 4 0.000000 0.000000 0.000000 0.039540 0.000000 0.003761
# 5 -0.004077 -0.001023 0.002782 0.000000 0.045654 0.000000
# 6 0.000000 0.000000 0.000000 0.003761 0.000000 0.043336
#
#
# Mechanical properties :
#
#
# Convention : Reuss Voigt Hill
#
# Bulk Modulus (GPa) = 52.77959 55.16943 53.97451
# Shear Modulus (GPa) = 23.33971 24.07625 23.70798
#
# Velocity S-wave (km/s) = 3.48342 3.53795 3.51079
# Velocity P-wave (km/s) = 6.60445 6.73586 6.67048
#
# Compressibility (1/GPa) = 0.01894672
#
# Stress axis : x y z
#
# Youngs Moduli (GPa) = 59.48808 72.05762 54.12433
#
# Poissons Ratio (x) = 0.23578 0.25838
# Poissons Ratio (y) = 0.19465 0.38226
# Poissons Ratio (z) = 0.28399 0.50891
#
# Static dielectric constant tensor:
#      x y z
#    x 3.257420 0.000000 0.129840 
#    y 0.000000 3.720850 0.000000 
#    z 0.129840 0.000000 3.491670 
# 
# 
# High freq. dielectric constant tensor:
#      x y z
#    x 1.727050 0.000000 0.014440 
#    y 0.000000 1.750820 0.000000 
#    z 0.014440 0.000000 1.732830 
# 
# From -- ./inp_files/104946.got.cif
#   From: 2010.06.25/outbox.cif.g09.slc.cpg/sg12_53_cif.got.tgz:104946.got - 2010.06.28 00:19:55.
