data_PCOD8092658
_publ_section_title
;
Structure prediction by ZEFSAII (Michael W. Deem and Ramdas Pophale) SiO2 
 PCOD8092658
Probable space group: C 2/M
;
_chemical_formula_sum "Si O2"
_cell_formula_units_Z 48
_cell_length_a 19.135398
_cell_length_b 28.046286
_cell_length_c 8.779485
_cell_angle_alpha 90.000000
_cell_angle_beta 148.577475
_cell_angle_gamma 90.000000
_cell_volume 2456.446099
_symmetry_space_group_name_H-M "C 2/M"
_symmetry_group_IT_number 12
_symmetry_cell_setting 'monoclinic'
loop_
_space_group_symop_operation_xyz
x,y,z
-x,y,-z
-x,-y,-z
x,-y,z
1/2+x,1/2+y,z
1/2-x,1/2+y,-z
1/2-x,1/2-y,-z
1/2+x,1/2-y,z
loop_
_atom_site_type_symbol
_atom_site_label
_atom_site_fract_x
_atom_site_fract_y
_atom_site_fract_z
Si Si1 0.960119 0.387444 0.099668
Si Si2 0.619757 0.303750 0.835412
Si Si3 0.290489 0.945758 0.364918
Si Si4 0.112763 0.699290 0.836894
Si Si5 0.291464 0.444838 0.443309
Si Si6 0.045553 0.903036 0.759688
O O1 0.929051 0.335112 0.104405
O O2 0.080793 0.411841 0.418338
O O3 0.830478 0.420924 0.874956
O O4 0.000000 0.381239 0.000000
O O5 0.500000 0.294028 0.500000
O O6 0.638890 0.252680 0.955955
O O7 0.581809 0.348210 0.873536
O O8 0.750870 0.319210 0.985426
O O9 0.224876 0.937580 0.407544
O O10 0.339689 0.000000 0.438367
O O11 0.178565 0.934672 0.029948
O O12 0.000000 0.698901 0.500000
O O13 0.295543 0.500000 0.404777
O O14 0.430018 0.420356 0.656246
O O15 0.000000 0.906825 0.500000
#
# Coordination Sequence:
#
# PCOD8092658 Si02
#       6
#     8   8   8   8   8   8
#     4  10  20  35  56  81 107 136 176 223 262 303
#     4   9  19  34  55  77 103 139 176 210 256 319
#     4  10  21  37  55  76 106 144 179 212 260 319
#     4  10  19  35  57  78 103 139 176 211 261 319
#     4  10  21  37  55  75 105 145 180 211 259 320
#     4  11  21  35  55  80 107 136 176 224 263 303
#
# _framework density 19.540424999999999
#
# number of rings (size 3 to 8) (size 9 to 14) (size 15 to 20)
#    0.000    2.000    0.000    4.500    0.000    4.667 
#    0.000    1.667    0.000   17.000    0.000    0.000 
#    0.000    0.000    0.000    0.000    0.000    0.000 
#
# Total GULP energy -297561.347761 kJ/mol
# GULP energy per Si atom -12398.389490 kJ/mol
# Density = 1.949595 g / cm^3
# Si number density = 19.540425 Si / 1000 Ang^3
#
#
#
# Elastic Constant Matrix: (Units=GPa)
#
#
# Indices 1 2 3 4 5 6 
#
# 1 30.1021 44.4009 26.2644 0.0000 11.4807 0.0000
# 2 44.4009 137.3808 28.4876 0.0000 12.1393 0.0000
# 3 26.2644 28.4876 118.4912 0.0000 16.2859 0.0000
# 4 0.0000 0.0000 0.0000 23.4609 0.0000 2.8577
# 5 11.4807 12.1393 16.2859 0.0000 28.3075 0.0000
# 6 0.0000 0.0000 0.0000 2.8577 0.0000 40.1441
#
#
#
# Elastic Compliance Matrix: (Units=1/GPa)
#
#
# Indices 1 2 3 4 5 6 
#
# 1 0.083361 -0.023198 -0.010447 0.000000 -0.017850 0.000000
# 2 -0.023198 0.014272 0.001367 0.000000 0.002502 0.000000
# 3 -0.010447 0.001367 0.010777 0.000000 -0.002549 0.000000
# 4 0.000000 0.000000 0.000000 0.042997 0.000000 -0.003061
# 5 -0.017850 0.002502 -0.002549 0.000000 0.042960 0.000000
# 6 0.000000 0.000000 0.000000 -0.003061 0.000000 0.025128
#
#
# Mechanical properties :
#
#
# Convention : Reuss Voigt Hill
#
# Bulk Modulus (GPa) = 22.80331 53.80889 38.30610
# Shear Modulus (GPa) = 16.74099 30.83726 23.78913
#
# Velocity S-wave (km/s) = 2.93018 3.97687 3.49296
# Velocity P-wave (km/s) = 4.81073 6.97742 5.99281
#
# Compressibility (1/GPa) = 0.04385328
#
# Stress axis : x y z
#
# Youngs Moduli (GPa) = 11.99608 70.06660 92.79186
#
# Poissons Ratio (x) = 1.62543 0.96937
# Poissons Ratio (y) = 0.27829 -0.12684
# Poissons Ratio (z) = 0.12532 -0.09577
#
# Static dielectric constant tensor:
#      x y z
#    x 3.252520 0.000000 0.214790 
#    y 0.000000 3.983050 0.000000 
#    z 0.214790 0.000000 3.705410 
# 
# 
# High freq. dielectric constant tensor:
#      x y z
#    x 1.729350 0.000000 0.024050 
#    y 0.000000 1.778950 0.000000 
#    z 0.024050 0.000000 1.775550 
# 
# From -- ./inp_files/42195.got.cif
#   From: 2010.06.25/outbox.cif.g09.slc.cpg/sg12_22_cif.got.tgz:42195.got - 2010.06.28 00:19:55.
