data_PCOD8092917
_publ_section_title
;
Structure prediction by ZEFSAII (Michael W. Deem and Ramdas Pophale) SiO2 
 PCOD8092917
Probable space group: C 2/M
;
_chemical_formula_sum "Si O2"
_cell_formula_units_Z 44
_cell_length_a 12.712636
_cell_length_b 13.543626
_cell_length_c 21.333625
_cell_angle_alpha 90.000000
_cell_angle_beta 40.279242
_cell_angle_gamma 90.000000
_cell_volume 2374.721966
_symmetry_space_group_name_H-M "C 2/M"
_symmetry_group_IT_number 12
_symmetry_cell_setting 'monoclinic'
loop_
_space_group_symop_operation_xyz
x,y,z
-x,y,-z
-x,-y,-z
x,-y,z
1/2+x,1/2+y,z
1/2-x,1/2+y,-z
1/2-x,1/2-y,-z
1/2+x,1/2-y,z
loop_
_atom_site_type_symbol
_atom_site_label
_atom_site_fract_x
_atom_site_fract_y
_atom_site_fract_z
Si Si1 0.293634 0.114136 0.384039
Si Si2 0.921250 0.385538 0.650432
Si Si3 0.210260 0.824411 0.963536
Si Si4 0.448440 0.108188 0.180884
Si Si5 0.000000 0.748694 0.500000
Si Si6 0.359901 0.703921 0.142111
O O1 0.422068 0.139823 0.379455
O O2 0.370815 0.139825 0.282001
O O3 0.137608 0.181869 0.467458
O O4 0.240734 0.000000 0.411711
O O5 0.917223 0.500000 0.633129
O O6 0.759349 0.360924 0.762234
O O7 0.922210 0.320113 0.588063
O O8 0.355556 0.903889 0.899808
O O9 0.214258 0.774685 0.892761
O O10 0.250000 0.750000 0.000000
O O11 0.026109 0.861808 0.060823
O O12 0.394929 0.187933 0.154185
O O13 0.384193 0.000000 0.189273
#
# Coordination Sequence:
#
# PCOD8092917 Si02
#       6
#     8   8   8   8   4   8
#     4  10  21  37  59  86 110 145 191 233 280 338
#     4  11  23  38  58  84 115 150 190 234 283 336
#     4   9  19  34  57  83 113 149 185 225 275 335
#     4  10  19  35  58  84 113 147 187 230 277 333
#     4  12  22  40  60  82 114 150 190 238 286 330
#     4  10  19  36  57  84 115 150 186 227 281 338
#
# _framework density 18.528485
#
# number of rings (size 3 to 8) (size 9 to 14) (size 15 to 20)
#    0.000    1.818    3.636    1.091    0.000    0.727 
#    0.000    9.091    0.000    6.545    0.000    0.000 
#    0.000    0.000    0.000    0.000    0.000    0.000 
#
# Total GULP energy -272663.371072 kJ/mol
# GULP energy per Si atom -12393.789594 kJ/mol
# Density = 1.848631 g / cm^3
# Si number density = 18.528485 Si / 1000 Ang^3
#
#
#
# Elastic Constant Matrix: (Units=GPa)
#
#
# Indices 1 2 3 4 5 6 
#
# 1 82.1546 34.0246 26.9416 -0.0001 1.0148 0.0000
# 2 34.0246 74.9129 30.3728 -0.0001 -6.9391 0.0000
# 3 26.9416 30.3728 93.1467 -0.0005 -4.4806 0.0001
# 4 -0.0001 -0.0001 -0.0005 14.7258 0.0001 -10.1476
# 5 1.0148 -6.9391 -4.4806 0.0001 34.1574 0.0000
# 6 0.0000 0.0000 0.0001 -10.1476 0.0000 20.5433
#
#
#
# Elastic Compliance Matrix: (Units=1/GPa)
#
#
# Indices 1 2 3 4 5 6 
#
# 1 0.015631 -0.006243 -0.002585 0.000000 -0.002072 0.000000
# 2 -0.006243 0.018088 -0.003931 0.000000 0.003344 0.000000
# 3 -0.002585 -0.003931 0.012811 0.000001 0.000959 0.000000
# 4 0.000000 0.000000 0.000001 0.102952 0.000000 0.050854
# 5 -0.002072 0.003344 0.000959 0.000000 0.030143 0.000000
# 6 0.000000 0.000000 0.000000 0.050854 0.000000 0.073798
#
#
# Mechanical properties :
#
#
# Convention : Reuss Voigt Hill
#
# Bulk Modulus (GPa) = 47.59333 48.09916 47.84625
# Shear Modulus (GPa) = 17.48577 24.47698 20.98138
#
# Velocity S-wave (km/s) = 3.07534 3.63856 3.36874
# Velocity P-wave (km/s) = 6.19295 6.60819 6.40393
#
# Compressibility (1/GPa) = 0.02101135
#
# Stress axis : x y z
#
# Youngs Moduli (GPa) = 63.97465 55.28450 78.05493
#
# Poissons Ratio (x) = 0.34516 0.20177
# Poissons Ratio (y) = 0.39942 0.30687
# Poissons Ratio (z) = 0.16537 0.21735
#
# Static dielectric constant tensor:
#      x y z
#    x 3.574810 0.000000 -0.175490 
#    y 0.000000 3.202190 0.000000 
#    z -0.175490 0.000000 3.693510 
# 
# 
# High freq. dielectric constant tensor:
#      x y z
#    x 1.722760 0.000000 -0.002580 
#    y 0.000000 1.703230 0.000000 
#    z -0.002580 0.000000 1.733820 
# 
# From -- ./inp_files/214054.got.cif
#   From: 2010.06.25/outbox.cif.g09.slc.cpg/sg12_108_cif.got.tgz:214054.got - 2010.06.28 00:19:55.
