data_PCOD8092704
_publ_section_title
;
Structure prediction by ZEFSAII (Michael W. Deem and Ramdas Pophale) SiO2 
 PCOD8092704
Probable space group: C 2/M
;
_chemical_formula_sum "Si O2"
_cell_formula_units_Z 64
_cell_length_a 23.458679
_cell_length_b 9.052378
_cell_length_c 28.564876
_cell_angle_alpha 90.000000
_cell_angle_beta 148.393505
_cell_angle_gamma 90.000000
_cell_volume 3179.056129
_symmetry_space_group_name_H-M "C 2/M"
_symmetry_group_IT_number 12
_symmetry_cell_setting 'monoclinic'
loop_
_space_group_symop_operation_xyz
x,y,z
-x,y,-z
-x,-y,-z
x,-y,z
1/2+x,1/2+y,z
1/2-x,1/2+y,-z
1/2-x,1/2-y,-z
1/2+x,1/2-y,z
loop_
_atom_site_type_symbol
_atom_site_label
_atom_site_fract_x
_atom_site_fract_y
_atom_site_fract_z
Si Si1 0.562969 0.324827 0.182269
Si Si2 0.059142 0.824144 0.994605
Si Si3 0.483572 0.324397 0.228122
Si Si4 0.183888 0.669068 0.413477
Si Si5 0.070615 0.671060 0.660186
Si Si6 0.807108 0.327183 0.347793
Si Si7 0.192947 0.325987 0.839827
Si Si8 0.120769 0.166299 0.515083
O O1 0.565994 0.500000 0.180821
O O2 0.504629 0.274999 0.189348
O O3 0.685483 0.262930 0.266963
O O4 0.499680 0.260656 0.092927
O O5 0.183635 0.770694 0.079525
O O6 0.053930 0.000000 0.991979
O O7 0.000000 0.761756 0.000000
O O8 0.489105 0.500000 0.237808
O O9 0.571371 0.251942 0.324459
O O10 0.364559 0.262716 0.158217
O O11 0.158528 0.500000 0.410676
O O12 0.250000 0.750000 0.500000
O O13 0.256264 0.673665 0.417432
O O14 0.040257 0.500000 0.638533
O O15 0.150206 0.712470 0.673494
O O16 0.131574 0.717480 0.749590
O O17 0.958445 0.760000 0.578441
O O18 0.809982 0.500000 0.360337
O O19 0.885995 0.251339 0.440582
O O20 0.187769 0.500000 0.846902
O O21 0.081743 0.000000 0.495903
#
# Coordination Sequence:
#
# PCOD8092704 Si02
#       8
#     8   8   8   8   8   8   8   8
#     4   9  18  33  56  84 113 148 191 238 287 338
#     4   9  17  33  60  91 118 146 188 241 292 342
#     4  11  22  37  57  82 115 155 195 235 286 346
#     4  11  23  38  57  81 112 152 198 242 287 339
#     4  10  21  35  54  80 110 147 190 233 281 336
#     4  10  19  35  57  80 109 147 189 232 279 336
#     4  10  21  37  58  86 117 148 188 241 290 337
#     4  11  23  36  52  79 112 145 184 231 286 341
#
# _framework density 20.131761999999998
#
# number of rings (size 3 to 8) (size 9 to 14) (size 15 to 20)
#    0.000    1.875    1.250    3.000    0.000    9.500 
#    0.000    0.000    0.000    1.875    0.000    0.000 
#    0.000    0.000    0.000    0.000    0.000    0.000 
#
# Total GULP energy -396895.797208 kJ/mol
# GULP energy per Si atom -12402.993663 kJ/mol
# Density = 2.008594 g / cm^3
# Si number density = 20.131762 Si / 1000 Ang^3
#
#
#
# Elastic Constant Matrix: (Units=GPa)
#
#
# Indices 1 2 3 4 5 6 
#
# 1 102.5622 24.7262 38.6466 0.0001 5.4585 0.0000
# 2 24.7262 50.5677 24.6293 0.0001 1.7532 -0.0003
# 3 38.6466 24.6293 116.8394 -0.0004 1.9673 -0.0001
# 4 0.0001 0.0001 -0.0004 16.7708 -0.0001 6.7985
# 5 5.4585 1.7532 1.9673 -0.0001 39.7747 0.0000
# 6 0.0000 -0.0003 -0.0001 6.7985 0.0000 26.7646
#
#
#
# Elastic Compliance Matrix: (Units=1/GPa)
#
#
# Indices 1 2 3 4 5 6 
#
# 1 0.012012 -0.004350 -0.003034 0.000000 -0.001307 0.000000
# 2 -0.004350 0.023636 -0.003539 0.000000 -0.000270 0.000000
# 3 -0.003034 -0.003539 0.010307 0.000000 0.000063 0.000000
# 4 0.000000 0.000000 0.000000 0.066472 0.000000 -0.016885
# 5 -0.001307 -0.000270 0.000063 0.000000 0.025330 0.000000
# 6 0.000000 0.000000 0.000000 -0.016885 0.000000 0.041652
#
#
# Mechanical properties :
#
#
# Convention : Reuss Voigt Hill
#
# Bulk Modulus (GPa) = 41.47969 49.55262 45.51616
# Shear Modulus (GPa) = 23.89023 28.79319 26.34171
#
# Velocity S-wave (km/s) = 3.44858 3.78595 3.62120
# Velocity P-wave (km/s) = 6.04200 6.61656 6.33579
#
# Compressibility (1/GPa) = 0.02410818
#
# Stress axis : x y z
#
# Youngs Moduli (GPa) = 83.25148 42.30899 97.01929
#
# Poissons Ratio (x) = 0.18406 0.29436
# Poissons Ratio (y) = 0.36218 0.34333
# Poissons Ratio (z) = 0.25259 0.14972
#
# Static dielectric constant tensor:
#      x y z
#    x 3.835790 0.000000 0.058580 
#    y 0.000000 3.340480 0.000000 
#    z 0.058580 0.000000 3.778810 
# 
# 
# High freq. dielectric constant tensor:
#      x y z
#    x 1.802840 0.000000 0.003090 
#    y 0.000000 1.751410 0.000000 
#    z 0.003090 0.000000 1.787850 
# 
# From -- ./inp_files/382502.got.cif
#   From: 2010.06.25/outbox.cif.g09.slc.cpg/sg12_192_cif.got.tgz:382502.got - 2010.06.28 00:19:55.
