data_PCOD8092971
_publ_section_title
;
Structure prediction by ZEFSAII (Michael W. Deem and Ramdas Pophale) SiO2 
 PCOD8092971
Probable space group: C 2/M
;
_chemical_formula_sum "Si O2"
_cell_formula_units_Z 56
_cell_length_a 13.590747
_cell_length_b 28.431172
_cell_length_c 8.806726
_cell_angle_alpha 90.000000
_cell_angle_beta 125.111617
_cell_angle_gamma 90.000000
_cell_volume 2783.706607
_symmetry_space_group_name_H-M "C 2/M"
_symmetry_group_IT_number 12
_symmetry_cell_setting 'monoclinic'
loop_
_space_group_symop_operation_xyz
x,y,z
-x,y,-z
-x,-y,-z
x,-y,z
1/2+x,1/2+y,z
1/2-x,1/2+y,-z
1/2-x,1/2-y,-z
1/2+x,1/2-y,z
loop_
_atom_site_type_symbol
_atom_site_label
_atom_site_fract_x
_atom_site_fract_y
_atom_site_fract_z
Si Si1 0.357064 0.689060 0.370017
Si Si2 0.737904 0.399134 0.863809
Si Si3 0.448228 0.553485 0.110214
Si Si4 0.540374 0.845090 0.875938
Si Si5 0.209967 0.644204 0.506156
Si Si6 0.369412 0.791938 0.312475
Si Si7 0.183022 0.053513 0.497613
O O1 0.500000 0.686886 0.500000
O O2 0.312799 0.653127 0.204022
O O3 0.300139 0.674383 0.480899
O O4 0.309548 0.740654 0.278896
O O5 0.674226 0.420225 0.954920
O O6 0.711175 0.432265 0.695585
O O7 0.880546 0.392441 0.021753
O O8 0.412686 0.500000 0.044897
O O9 0.541194 0.557276 0.333815
O O10 0.500000 0.575792 0.000000
O O11 0.423276 0.859352 0.679339
O O12 0.619076 0.806841 0.853161
O O13 0.500000 0.822079 0.000000
O O14 0.209792 0.668922 0.669965
O O15 0.251904 0.590005 0.558546
O O16 0.500000 0.789141 0.500000
O O17 0.227805 0.000000 0.508779
#
# Coordination Sequence:
#
# PCOD8092971 Si02
#       7
#     8   8   8   8   8   8   8
#     4  10  19  35  58  88 113 150 202 246 283 351
#     4  11  21  36  60  84 120 152 198 233 292 348
#     4  10  22  39  60  89 121 150 188 243 300 348
#     4  11  21  40  56  83 116 162 194 240 290 348
#     4  10  20  39  61  83 118 158 195 241 296 349
#     4   9  21  36  60  81 113 158 202 239 297 344
#     4  10  20  36  62  86 113 151 192 232 291 352
#
# _framework density 20.117062000000001
#
# number of rings (size 3 to 8) (size 9 to 14) (size 15 to 20)
#    0.000    1.857    2.857    3.000    2.000    1.714 
#    0.000    2.857    0.000    3.857    0.000    0.000 
#    0.000    0.000    0.000    0.000    0.000    0.000 
#
# Total GULP energy -347085.266343 kJ/mol
# GULP energy per Si atom -12395.902369 kJ/mol
# Density = 2.007127 g / cm^3
# Si number density = 20.117062 Si / 1000 Ang^3
#
#
#
# Elastic Constant Matrix: (Units=GPa)
#
#
# Indices 1 2 3 4 5 6 
#
# 1 136.5081 65.9411 39.4942 0.0000 -19.8504 0.0000
# 2 65.9411 150.6266 24.3825 0.0000 -13.5981 0.0000
# 3 39.4942 24.3825 62.5338 0.0000 -5.3215 0.0000
# 4 0.0000 0.0000 0.0000 20.4912 0.0000 -1.5903
# 5 -19.8504 -13.5981 -5.3215 0.0000 37.9723 0.0000
# 6 0.0000 0.0000 0.0000 -1.5903 0.0000 27.7561
#
#
#
# Elastic Compliance Matrix: (Units=1/GPa)
#
#
# Indices 1 2 3 4 5 6 
#
# 1 0.011200 -0.003702 -0.005308 0.000000 0.003785 0.000000
# 2 -0.003702 0.008492 -0.000890 0.000000 0.000981 0.000000
# 3 -0.005308 -0.000890 0.019662 0.000000 -0.000338 0.000000
# 4 0.000000 0.000000 0.000000 0.049019 0.000000 0.002809
# 5 0.003785 0.000981 -0.000338 0.000000 0.028618 0.000000
# 6 0.000000 0.000000 0.000000 0.002809 0.000000 0.036189
#
#
# Mechanical properties :
#
#
# Convention : Reuss Voigt Hill
#
# Bulk Modulus (GPa) = 51.13851 67.70045 59.41948
# Shear Modulus (GPa) = 27.85548 31.90063 29.87806
#
# Velocity S-wave (km/s) = 3.72515 3.98647 3.85802
# Velocity P-wave (km/s) = 6.63159 7.41050 7.03184
#
# Compressibility (1/GPa) = 0.01955474
#
# Stress axis : x y z
#
# Youngs Moduli (GPa) = 89.28511 117.75452 50.86014
#
# Poissons Ratio (x) = 0.43595 0.26996
# Poissons Ratio (y) = 0.33055 0.04524
# Poissons Ratio (z) = 0.47392 0.10474
#
# Static dielectric constant tensor:
#      x y z
#    x 3.827090 0.000000 -0.057590 
#    y 0.000000 3.806020 0.000000 
#    z -0.057590 0.000000 3.603010 
# 
# 
# High freq. dielectric constant tensor:
#      x y z
#    x 1.786720 0.000000 -0.003530 
#    y 0.000000 1.778760 0.000000 
#    z -0.003530 0.000000 1.775100 
# 
# From -- ./inp_files/54782.got.cif
#   From: 2010.06.25/outbox.cif.g09.slc.cpg/sg12_28_cif.got.tgz:54782.got - 2010.06.28 00:19:55.
