data_PCOD8092980
_publ_section_title
;
Structure prediction by ZEFSAII (Michael W. Deem and Ramdas Pophale) SiO2 
 PCOD8092980
Probable space group: C 2/M
;
_chemical_formula_sum "Si O2"
_cell_formula_units_Z 52
_cell_length_a 13.026509
_cell_length_b 18.255631
_cell_length_c 11.125132
_cell_angle_alpha 90.000000
_cell_angle_beta 103.261318
_cell_angle_gamma 90.000000
_cell_volume 2575.087220
_symmetry_space_group_name_H-M "C 2/M"
_symmetry_group_IT_number 12
_symmetry_cell_setting 'monoclinic'
loop_
_space_group_symop_operation_xyz
x,y,z
-x,y,-z
-x,-y,-z
x,-y,z
1/2+x,1/2+y,z
1/2-x,1/2+y,-z
1/2-x,1/2-y,-z
1/2+x,1/2-y,z
loop_
_atom_site_type_symbol
_atom_site_label
_atom_site_fract_x
_atom_site_fract_y
_atom_site_fract_z
Si Si1 0.860779 0.738824 0.891536
Si Si2 0.903598 0.136764 0.552881
Si Si3 0.340293 0.500000 0.190565
Si Si4 0.741247 0.500000 0.098281
Si Si5 0.789637 0.146636 0.287840
Si Si6 0.908225 0.000000 0.715518
Si Si7 0.476794 0.735006 0.247853
Si Si8 0.329142 0.156823 0.121833
O O1 0.815983 0.691369 0.767660
O O2 0.971756 0.770121 0.871593
O O3 0.786695 0.808054 0.897783
O O4 0.874960 0.683488 0.006115
O O5 0.808948 0.155038 0.436082
O O6 0.937771 0.213423 0.626748
O O7 0.000000 0.104791 0.500000
O O8 0.870007 0.073612 0.636930
O O9 0.279941 0.564028 0.243569
O O10 0.466039 0.500000 0.239466
O O11 0.316745 0.500000 0.043868
O O12 0.649722 0.500000 0.172706
O O13 0.818624 0.569902 0.130994
O O14 0.884940 0.174925 0.228488
O O15 0.414781 0.813458 0.244218
#
# Coordination Sequence:
#
# PCOD8092980 Si02
#       8
#     8   8   4   4   8   4   8   8
#     4  10  20  38  58  84 118 151 198 242 291 348
#     4  10  19  35  58  90 120 153 191 236 299 352
#     4  12  20  38  57  87 120 154 187 238 300 353
#     4  12  25  39  56  87 120 155 201 237 295 353
#     4  10  21  36  61  88 120 154 192 243 294 344
#     4  12  21  34  59  90 120 156 185 236 301 367
#     4  10  20  36  58  84 109 158 195 234 288 342
#     4  10  22  38  56  83 121 154 190 248 291 343
#
# _framework density 20.193491999999999
#
# number of rings (size 3 to 8) (size 9 to 14) (size 15 to 20)
#    0.000    1.538    4.615    2.308    0.000    0.615 
#    2.769    5.385    0.000    0.000    0.000   14.538 
#    0.000    0.000    0.000    0.000    0.000    0.000 
#
# Total GULP energy -322209.518932 kJ/mol
# GULP energy per Si atom -12392.673805 kJ/mol
# Density = 2.014753 g / cm^3
# Si number density = 20.193492 Si / 1000 Ang^3
#
#
#
# Elastic Constant Matrix: (Units=GPa)
#
#
# Indices 1 2 3 4 5 6 
#
# 1 31.7020 17.8623 10.6330 0.0000 -10.0883 0.0000
# 2 17.8623 135.3463 48.2702 0.0000 7.1804 0.0000
# 3 10.6330 48.2702 89.4731 0.0000 8.7520 0.0000
# 4 0.0000 0.0000 0.0000 34.4081 0.0000 -1.1941
# 5 -10.0883 7.1804 8.7520 0.0000 29.8553 0.0000
# 6 0.0000 0.0000 0.0000 -1.1941 0.0000 17.8711
#
#
#
# Elastic Compliance Matrix: (Units=1/GPa)
#
#
# Indices 1 2 3 4 5 6 
#
# 1 0.040647 -0.004869 -0.003770 0.000000 0.016011 0.000000
# 2 -0.004869 0.009750 -0.004418 0.000000 -0.002695 0.000000
# 3 -0.003770 -0.004418 0.014443 0.000000 -0.004445 0.000000
# 4 0.000000 0.000000 0.000000 0.029130 0.000000 0.001947
# 5 0.016011 -0.002695 -0.004445 0.000000 0.040856 0.000000
# 6 0.000000 0.000000 0.000000 0.001947 0.000000 0.056086
#
#
# Mechanical properties :
#
#
# Convention : Reuss Voigt Hill
#
# Bulk Modulus (GPa) = 25.82249 45.56136 35.69193
# Shear Modulus (GPa) = 21.74540 28.41064 25.07802
#
# Velocity S-wave (km/s) = 3.28510 3.75496 3.52786
# Velocity P-wave (km/s) = 5.21579 6.43514 5.85728
#
# Compressibility (1/GPa) = 0.03872593
#
# Stress axis : x y z
#
# Youngs Moduli (GPa) = 24.60218 102.56894 69.23981
#
# Poissons Ratio (x) = 0.49944 0.26101
# Poissons Ratio (y) = 0.11980 0.30587
# Poissons Ratio (z) = 0.09274 0.45310
#
# Static dielectric constant tensor:
#      x y z
#    x 3.487010 0.000000 0.116600 
#    y 0.000000 3.756450 0.000000 
#    z 0.116600 0.000000 3.909220 
# 
# 
# High freq. dielectric constant tensor:
#      x y z
#    x 1.766750 0.000000 0.000080 
#    y 0.000000 1.780020 0.000000 
#    z 0.000080 0.000000 1.791690 
# 
# From -- ./inp_files/144943.got.cif
#   From: 2010.06.25/outbox.cif.g09.slc.cpg/sg12_73_cif.got.tgz:144943.got - 2010.06.28 00:19:55.
