data_PCOD8092759
_publ_section_title
;
Structure prediction by ZEFSAII (Michael W. Deem and Ramdas Pophale) SiO2 
 PCOD8092759
Probable space group: C 2/M
;
_chemical_formula_sum "Si O2"
_cell_formula_units_Z 56
_cell_length_a 20.550052
_cell_length_b 8.874224
_cell_length_c 27.921378
_cell_angle_alpha 90.000000
_cell_angle_beta 34.702786
_cell_angle_gamma 90.000000
_cell_volume 2898.919923
_symmetry_space_group_name_H-M "C 2/M"
_symmetry_group_IT_number 12
_symmetry_cell_setting 'monoclinic'
loop_
_space_group_symop_operation_xyz
x,y,z
-x,y,-z
-x,-y,-z
x,-y,z
1/2+x,1/2+y,z
1/2-x,1/2+y,-z
1/2-x,1/2-y,-z
1/2+x,1/2-y,z
loop_
_atom_site_type_symbol
_atom_site_label
_atom_site_fract_x
_atom_site_fract_y
_atom_site_fract_z
Si Si1 0.809800 0.177437 0.508887
Si Si2 0.556662 0.678509 0.334214
Si Si3 0.769437 0.823573 0.039399
Si Si4 0.070500 0.820986 0.217125
Si Si5 0.650588 0.178281 0.691450
Si Si6 0.512733 0.674648 0.937725
Si Si7 0.713453 0.178415 0.758805
O O1 0.750000 0.250000 0.500000
O O2 0.747192 0.228734 0.595187
O O3 0.941752 0.231461 0.431052
O O4 0.802948 0.000000 0.505986
O O5 0.565272 0.500000 0.328494
O O6 0.552900 0.736917 0.281911
O O7 0.666096 0.746579 0.295549
O O8 0.688431 0.747627 0.127434
O O9 0.742225 0.000000 0.052851
O O10 0.750000 0.750000 0.000000
O O11 0.898291 0.792081 0.977545
O O12 0.967410 0.761919 0.247170
O O13 0.076028 0.000000 0.209907
O O14 0.693442 0.235187 0.717010
O O15 0.629074 0.000000 0.702990
O O16 0.546263 0.500000 0.915472
O O17 0.613612 0.769295 0.853788
O O18 0.500000 0.728886 0.000000
O O19 0.717349 0.000000 0.757661
#
# Coordination Sequence:
#
# PCOD8092759 Si02
#       7
#     8   8   8   8   8   8   8
#     4  10  19  35  57  83 113 146 186 230 276 326
#     4   9  19  35  56  82 111 144 185 229 274 325
#     4  11  23  38  57  82 112 145 184 231 279 331
#     4  11  21  35  57  82 110 146 186 230 277 329
#     4  10  21  35  56  84 114 148 186 231 279 330
#     4  10  22  40  59  80 109 146 186 228 277 330
#     4  10  21  37  56  82 113 145 184 228 278 332
#
# _framework density 19.317539
#
# number of rings (size 3 to 8) (size 9 to 14) (size 15 to 20)
#    0.000    1.857    1.429    2.571    0.000    4.857 
#    0.000    4.286    0.000    0.000    0.000    3.000 
#    0.000    0.000    0.000    0.000    0.000    0.000 
#
# Total GULP energy -347282.868721 kJ/mol
# GULP energy per Si atom -12402.959597 kJ/mol
# Density = 1.927357 g / cm^3
# Si number density = 19.317539 Si / 1000 Ang^3
#
#
#
# Elastic Constant Matrix: (Units=GPa)
#
#
# Indices 1 2 3 4 5 6 
#
# 1 144.1380 23.1085 45.5383 -0.0099 -4.2830 0.0166
# 2 23.1085 28.1022 12.3725 0.0011 -3.5046 -0.0084
# 3 45.5383 12.3725 113.1118 0.0076 -4.6478 -0.0152
# 4 -0.0099 0.0011 0.0076 27.3056 -0.0046 0.7522
# 5 -4.2830 -3.5046 -4.6478 -0.0046 36.2794 -0.0028
# 6 0.0166 -0.0084 -0.0152 0.7522 -0.0028 26.7501
#
#
#
# Elastic Compliance Matrix: (Units=1/GPa)
#
#
# Indices 1 2 3 4 5 6 
#
# 1 0.008809 -0.005959 -0.002891 0.000005 0.000094 -0.000009
# 2 -0.005959 0.041767 -0.002043 -0.000003 0.003069 0.000016
# 3 -0.002891 -0.002043 0.010260 -0.000004 0.000776 0.000007
# 4 0.000005 -0.000003 -0.000004 0.036651 0.000004 -0.001031
# 5 0.000094 0.003069 0.000776 0.000004 0.027971 0.000004
# 6 -0.000009 0.000016 0.000007 -0.001031 0.000004 0.037412
#
#
# Mechanical properties :
#
#
# Convention : Reuss Voigt Hill
#
# Bulk Modulus (GPa) = 25.60855 49.71008 37.65932
# Shear Modulus (GPa) = 25.29415 31.68920 28.49168
#
# Velocity S-wave (km/s) = 3.62247 4.05462 3.84463
# Velocity P-wave (km/s) = 5.54814 6.90717 6.26461
#
# Compressibility (1/GPa) = 0.03904946
#
# Stress axis : x y z
#
# Youngs Moduli (GPa) = 113.51556 23.94219 97.46548
#
# Poissons Ratio (x) = 0.14268 0.28176
# Poissons Ratio (y) = 0.67650 0.19914
# Poissons Ratio (z) = 0.32816 0.04892
#
# Static dielectric constant tensor:
#      x y z
#    x 3.811790 -0.000010 0.087390 
#    y -0.000010 3.355530 0.000050 
#    z 0.087390 0.000050 3.880730 
# 
# 
# High freq. dielectric constant tensor:
#      x y z
#    x 1.763660 0.000000 -0.001190 
#    y 0.000000 1.732550 0.000000 
#    z -0.001190 0.000000 1.768960 
# 
# From -- ./inp_files/380576.got.cif
#   From: 2010.06.25/outbox.cif.g09.slc.cpg/sg12_191_cif.got.tgz:380576.got - 2010.06.28 00:19:55.
