data_PCOD8092690
_publ_section_title
;
Structure prediction by ZEFSAII (Michael W. Deem and Ramdas Pophale) SiO2 
 PCOD8092690
Probable space group: C 2/M
;
_chemical_formula_sum "Si O2"
_cell_formula_units_Z 64
_cell_length_a 24.836008
_cell_length_b 9.432772
_cell_length_c 28.342735
_cell_angle_alpha 90.000000
_cell_angle_beta 149.210469
_cell_angle_gamma 90.000000
_cell_volume 3398.881776
_symmetry_space_group_name_H-M "C 2/M"
_symmetry_group_IT_number 12
_symmetry_cell_setting 'monoclinic'
loop_
_space_group_symop_operation_xyz
x,y,z
-x,y,-z
-x,-y,-z
x,-y,z
1/2+x,1/2+y,z
1/2-x,1/2+y,-z
1/2-x,1/2-y,-z
1/2+x,1/2-y,z
loop_
_atom_site_type_symbol
_atom_site_label
_atom_site_fract_x
_atom_site_fract_y
_atom_site_fract_z
Si Si1 0.089210 0.339993 0.533576
Si Si2 0.406055 0.166855 0.706634
Si Si3 0.933864 0.663179 0.834810
Si Si4 0.831370 0.162737 0.488799
Si Si5 0.991312 0.837141 0.688926
Si Si6 0.249268 0.338284 0.733465
Si Si7 0.915277 0.336817 0.972429
Si Si8 0.187313 0.831721 0.772282
O O1 0.058462 0.500000 0.495697
O O2 0.095195 0.247901 0.491444
O O3 0.198886 0.335796 0.643748
O O4 0.000000 0.274942 0.500000
O O5 0.435417 0.214556 0.781872
O O6 0.288443 0.217068 0.604075
O O7 0.487352 0.244525 0.733284
O O8 0.419671 0.000000 0.710055
O O9 0.895449 0.500000 0.808059
O O10 0.858461 0.756028 0.810960
O O11 0.048082 0.681554 0.945365
O O12 0.881881 0.185351 0.578217
O O13 0.836025 0.000000 0.476539
O O14 0.091734 0.787442 0.734297
O O15 0.004321 0.000000 0.713608
O O16 0.267283 0.500000 0.763945
O O17 0.174335 0.255203 0.713857
O O18 0.907599 0.500000 0.952340
O O19 0.797234 0.276397 0.878090
O O20 0.000000 0.265609 0.000000
O O21 0.184055 0.000000 0.759771
#
# Coordination Sequence:
#
# PCOD8092690 Si02
#       8
#     8   8   8   8   8   8   8   8
#     4  10  21  34  48  73 110 147 177 210 262 322
#     4  10  21  36  56  78 105 141 182 224 265 315
#     4  10  19  35  57  80 105 137 179 221 259 312
#     4  10  20  35  54  79 104 136 183 224 262 310
#     4  10  22  37  55  79 108 140 179 227 270 311
#     4  11  21  32  51  80 111 141 172 215 269 318
#     4   9  16  30  57  83 103 137 180 217 258 315
#     4  10  20  36  56  79 107 142 181 219 264 319
#
# _framework density 18.829722
#
# number of rings (size 3 to 8) (size 9 to 14) (size 15 to 20)
#    0.000    2.000    2.500    1.500    0.000    2.750 
#    0.000    1.875    0.000    0.000    0.000    0.000 
#    0.000    0.000    0.000    0.000    0.000    0.000 
#
# Total GULP energy -396761.611547 kJ/mol
# GULP energy per Si atom -12398.800361 kJ/mol
# Density = 1.878686 g / cm^3
# Si number density = 18.829722 Si / 1000 Ang^3
#
#
#
# Elastic Constant Matrix: (Units=GPa)
#
#
# Indices 1 2 3 4 5 6 
#
# 1 121.9931 47.8915 23.8096 0.0000 -2.5770 0.0000
# 2 47.8915 57.9591 8.8893 0.0001 -0.9887 0.0000
# 3 23.8096 8.8893 67.9785 0.0001 -5.1493 0.0000
# 4 0.0000 0.0001 0.0001 11.3219 0.0000 2.1018
# 5 -2.5770 -0.9887 -5.1493 0.0000 22.1560 0.0000
# 6 0.0000 0.0000 0.0000 2.1018 0.0000 37.1677
#
#
#
# Elastic Compliance Matrix: (Units=1/GPa)
#
#
# Indices 1 2 3 4 5 6 
#
# 1 0.012765 -0.010062 -0.003132 0.000000 0.000308 0.000000
# 2 -0.010062 0.025540 0.000186 0.000000 0.000012 0.000000
# 3 -0.003132 0.000186 0.016039 0.000000 0.003372 0.000000
# 4 0.000000 0.000000 0.000000 0.089262 0.000000 -0.005048
# 5 0.000308 0.000012 0.003372 0.000000 0.045954 0.000000
# 6 0.000000 0.000000 0.000000 -0.005048 0.000000 0.027191
#
#
# Mechanical properties :
#
#
# Convention : Reuss Voigt Hill
#
# Bulk Modulus (GPa) = 35.30290 45.45683 40.37986
# Shear Modulus (GPa) = 19.82480 25.28514 22.55497
#
# Velocity S-wave (km/s) = 3.24828 3.66844 3.46474
# Velocity P-wave (km/s) = 5.73216 6.49128 6.12349
#
# Compressibility (1/GPa) = 0.02832628
#
# Stress axis : x y z
#
# Youngs Moduli (GPa) = 78.33844 39.15472 62.34948
#
# Poissons Ratio (x) = 0.39398 0.19527
# Poissons Ratio (y) = 0.78826 -0.01157
# Poissons Ratio (z) = 0.24535 -0.00726
#
# Static dielectric constant tensor:
#      x y z
#    x 3.292460 0.000000 -0.017710 
#    y 0.000000 3.264280 0.000000 
#    z -0.017710 0.000000 3.528890 
# 
# 
# High freq. dielectric constant tensor:
#      x y z
#    x 1.721960 0.000000 -0.005180 
#    y 0.000000 1.711790 0.000000 
#    z -0.005180 0.000000 1.731050 
# 
# From -- ./inp_files/238678.got.cif
#   From: 2010.06.25/outbox.cif.g09.slc.cpg/sg12_120_cif.got.tgz:238678.got - 2010.06.28 00:19:55.
