data_PCOD8092769
_publ_section_title
;
Structure prediction by ZEFSAII (Michael W. Deem and Ramdas Pophale) SiO2 
 PCOD8092769
Probable space group: C 2/M
;
_chemical_formula_sum "Si O2"
_cell_formula_units_Z 56
_cell_length_a 21.207343
_cell_length_b 8.537665
_cell_length_c 15.285395
_cell_angle_alpha 90.000000
_cell_angle_beta 63.164082
_cell_angle_gamma 90.000000
_cell_volume 2469.530457
_symmetry_space_group_name_H-M "C 2/M"
_symmetry_group_IT_number 12
_symmetry_cell_setting 'monoclinic'
loop_
_space_group_symop_operation_xyz
x,y,z
-x,y,-z
-x,-y,-z
x,-y,z
1/2+x,1/2+y,z
1/2-x,1/2+y,-z
1/2-x,1/2-y,-z
1/2+x,1/2-y,z
loop_
_atom_site_type_symbol
_atom_site_label
_atom_site_fract_x
_atom_site_fract_y
_atom_site_fract_z
Si Si1 0.743264 0.685945 0.768389
Si Si2 0.353393 0.312412 0.813291
Si Si3 0.180862 0.825820 0.983109
Si Si4 0.006134 0.680416 0.729566
Si Si5 0.514187 0.324228 0.084820
Si Si6 0.221222 0.815133 0.427377
Si Si7 0.437659 0.316731 0.477068
O O1 0.738175 0.500000 0.764372
O O2 0.820683 0.752177 0.743457
O O3 0.726296 0.758016 0.683785
O O4 0.695703 0.756513 0.879548
O O5 0.366435 0.500000 0.804897
O O6 0.299242 0.261016 0.929530
O O7 0.424083 0.214854 0.772695
O O8 0.096973 0.828705 0.052716
O O9 0.211936 0.000000 0.954752
O O10 0.023484 0.500000 0.702216
O O11 0.028554 0.729180 0.814078
O O12 0.047741 0.783091 0.633484
O O13 0.482422 0.500000 0.103673
O O14 0.500000 0.243304 0.000000
O O15 0.250000 0.750000 0.500000
O O16 0.141658 0.751581 0.456074
O O17 0.222569 0.000000 0.432762
O O18 0.500000 0.241527 0.500000
O O19 0.437611 0.500000 0.494505
#
# Coordination Sequence:
#
# PCOD8092769 Si02
#       7
#     8   8   8   8   8   8   8
#     4  11  21  35  57  85 117 152 194 244 297 350
#     4  10  19  35  57  83 118 156 195 235 284 353
#     4   8  17  32  52  81 114 149 188 230 279 342
#     4  11  22  35  56  87 119 148 185 243 306 354
#     4   9  18  35  57  79 109 151 194 231 275 344
#     4  11  25  44  64  88 121 162 206 253 305 362
#     4  10  22  42  67  90 115 155 206 254 302 363
#
# _framework density 22.676376000000001
#
# number of rings (size 3 to 8) (size 9 to 14) (size 15 to 20)
#    0.000    2.000    0.000    4.714    0.000    4.000 
#    0.000    9.286    0.000    0.000    0.000    0.000 
#    0.000    0.000    0.000    0.000    0.000    0.000 
#
# Total GULP energy -346866.510514 kJ/mol
# GULP energy per Si atom -12388.089661 kJ/mol
# Density = 2.262476 g / cm^3
# Si number density = 22.676376 Si / 1000 Ang^3
#
#
#
# Elastic Constant Matrix: (Units=GPa)
#
#
# Indices 1 2 3 4 5 6 
#
# 1 46.2039 22.5073 35.9364 0.0000 17.2746 0.0000
# 2 22.5073 36.1787 14.0390 -0.0001 6.9597 -0.0001
# 3 35.9364 14.0390 157.6148 0.0000 24.6643 0.0000
# 4 0.0000 -0.0001 0.0000 32.3753 0.0000 9.1012
# 5 17.2746 6.9597 24.6643 0.0000 35.5193 0.0000
# 6 0.0000 -0.0001 0.0000 9.1012 0.0000 21.3315
#
#
#
# Elastic Compliance Matrix: (Units=1/GPa)
#
#
# Indices 1 2 3 4 5 6 
#
# 1 0.040460 -0.020759 -0.005534 0.000000 -0.011767 0.000000
# 2 -0.020759 0.039881 0.000924 0.000000 0.001640 0.000000
# 3 -0.005534 0.000924 0.008001 0.000000 -0.003045 0.000000
# 4 0.000000 0.000000 0.000000 0.035097 0.000000 -0.014975
# 5 -0.011767 0.001640 -0.003045 0.000000 0.035669 0.000000
# 6 0.000000 0.000000 0.000000 -0.014975 0.000000 0.053268
#
#
# Mechanical properties :
#
#
# Convention : Reuss Voigt Hill
#
# Bulk Modulus (GPa) = 26.59421 42.77363 34.68392
# Shear Modulus (GPa) = 18.13896 29.01285 23.57590
#
# Velocity S-wave (km/s) = 2.83133 3.58079 3.22789
# Velocity P-wave (km/s) = 4.73727 5.99997 5.40562
#
# Compressibility (1/GPa) = 0.03760217
#
# Stress axis : x y z
#
# Youngs Moduli (GPa) = 24.71598 25.07446 124.99024
#
# Poissons Ratio (x) = 0.52053 0.69175
# Poissons Ratio (y) = 0.51309 -0.11552
# Poissons Ratio (z) = 0.13679 -0.02317
#
# Static dielectric constant tensor:
#      x y z
#    x 4.190380 0.000000 0.045310 
#    y 0.000000 3.734990 0.000000 
#    z 0.045310 0.000000 4.848020 
# 
# 
# High freq. dielectric constant tensor:
#      x y z
#    x 1.886740 0.000000 0.014010 
#    y 0.000000 1.862080 0.000000 
#    z 0.014010 0.000000 1.925240 
# 
# From -- ./inp_files/238252.got.cif
#   From: 2010.06.25/outbox.cif.g09.slc.cpg/sg12_120_cif.got.tgz:238252.got - 2010.06.28 00:19:55.
