data_PCOD8092694
_publ_section_title
;
Structure prediction by ZEFSAII (Michael W. Deem and Ramdas Pophale) SiO2 
 PCOD8092694
Probable space group: C 2/M
;
_chemical_formula_sum "Si O2"
_cell_formula_units_Z 64
_cell_length_a 28.387634
_cell_length_b 8.902919
_cell_length_c 30.874701
_cell_angle_alpha 90.000000
_cell_angle_beta 27.264685
_cell_angle_gamma 90.000000
_cell_volume 3574.590830
_symmetry_space_group_name_H-M "C 2/M"
_symmetry_group_IT_number 12
_symmetry_cell_setting 'monoclinic'
loop_
_space_group_symop_operation_xyz
x,y,z
-x,y,-z
-x,-y,-z
x,-y,z
1/2+x,1/2+y,z
1/2-x,1/2+y,-z
1/2-x,1/2-y,-z
1/2+x,1/2-y,z
loop_
_atom_site_type_symbol
_atom_site_label
_atom_site_fract_x
_atom_site_fract_y
_atom_site_fract_z
Si Si1 0.679114 0.177690 0.021118
Si Si2 0.092267 0.171866 0.554449
Si Si3 0.263756 0.174791 0.350001
Si Si4 0.989649 0.829716 0.288617
Si Si5 0.108807 0.324431 0.312092
Si Si6 0.113902 0.822892 0.395565
Si Si7 0.536168 0.673221 0.786988
Si Si8 0.810689 0.675489 0.845545
O O1 0.562382 0.229091 0.120752
O O2 0.686542 0.000000 0.019318
O O3 0.750000 0.250000 0.000000
O O4 0.717932 0.230391 0.942149
O O5 0.203506 0.210808 0.443972
O O6 0.093521 0.199267 0.605262
O O7 0.007698 0.274100 0.600733
O O8 0.063886 0.000000 0.565964
O O9 0.193043 0.227229 0.367939
O O10 0.367809 0.270227 0.263474
O O11 0.292265 0.000000 0.323375
O O12 0.084010 0.715665 0.215817
O O13 0.935725 0.803600 0.286619
O O14 0.033198 0.000000 0.256284
O O15 0.108943 0.500000 0.319810
O O16 0.154097 0.245467 0.317602
O O17 0.179770 0.281073 0.212901
O O18 0.000000 0.761146 0.500000
O O19 0.110544 0.000000 0.393514
O O20 0.513810 0.500000 0.816244
O O21 0.789587 0.500000 0.869367
#
# Coordination Sequence:
#
# PCOD8092694 Si02
#       8
#     8   8   8   8   8   8   8   8
#     4  12  23  37  59  84 110 143 184 227 273 322
#     4   9  17  33  53  74 106 148 190 224 263 319
#     4  10  21  36  54  77 108 148 191 229 273 324
#     4   9  18  32  52  76 106 147 188 223 263 319
#     4  10  20  32  52  84 114 140 177 227 280 326
#     4  10  19  35  57  80 107 146 190 229 273 327
#     4  11  23  37  53  79 113 147 186 227 275 327
#     4  10  20  34  54  82 113 142 177 224 276 327
#
# _framework density 17.904146999999998
#
# number of rings (size 3 to 8) (size 9 to 14) (size 15 to 20)
#    0.000    1.875    2.500    2.250    0.000    3.750 
#    0.000    0.000    0.000    0.750    0.000    5.250 
#    0.000    0.000    0.000    0.000    0.000    0.000 
#
# Total GULP energy -396832.419549 kJ/mol
# GULP energy per Si atom -12401.013111 kJ/mol
# Density = 1.786340 g / cm^3
# Si number density = 17.904147 Si / 1000 Ang^3
#
#
#
# Elastic Constant Matrix: (Units=GPa)
#
#
# Indices 1 2 3 4 5 6 
#
# 1 104.7462 47.3500 58.7768 0.0322 1.8296 -0.0197
# 2 47.3500 79.7959 47.4965 0.0188 1.9420 -0.0090
# 3 58.7768 47.4965 104.3282 0.0440 -0.1001 -0.0181
# 4 0.0322 0.0188 0.0440 28.7360 -0.0218 0.5671
# 5 1.8296 1.9420 -0.1001 -0.0218 23.9613 0.0069
# 6 -0.0197 -0.0090 -0.0181 0.5671 0.0069 27.5709
#
#
#
# Elastic Compliance Matrix: (Units=1/GPa)
#
#
# Indices 1 2 3 4 5 6 
#
# 1 0.015556 -0.005480 -0.006270 -0.000005 -0.000770 0.000006
# 2 -0.005480 0.019170 -0.005641 0.000001 -0.001159 -0.000001
# 3 -0.006270 -0.005641 0.015686 -0.000013 0.001001 0.000004
# 4 -0.000005 0.000001 -0.000013 0.034814 0.000032 -0.000716
# 5 -0.000770 -0.001159 0.001001 0.000032 0.041891 -0.000011
# 6 0.000006 -0.000001 0.000004 -0.000716 -0.000011 0.036285
#
#
# Mechanical properties :
#
#
# Convention : Reuss Voigt Hill
#
# Bulk Modulus (GPa) = 63.97767 66.23519 65.10643
# Shear Modulus (GPa) = 24.58299 25.07010 24.82655
#
# Velocity S-wave (km/s) = 3.70947 3.74604 3.72780
# Velocity P-wave (km/s) = 7.35920 7.46894 7.41427
#
# Compressibility (1/GPa) = 0.01563045
#
# Stress axis : x y z
#
# Youngs Moduli (GPa) = 64.28510 52.16611 63.74913
#
# Poissons Ratio (x) = 0.28587 0.39969
# Poissons Ratio (y) = 0.35228 0.35960
# Poissons Ratio (z) = 0.40305 0.29427
#
# Static dielectric constant tensor:
#      x y z
#    x 3.344290 -0.000030 0.325360 
#    y -0.000030 3.328260 0.000070 
#    z 0.325360 0.000070 3.293680 
# 
# 
# High freq. dielectric constant tensor:
#      x y z
#    x 1.682280 0.000000 0.021490 
#    y 0.000000 1.697450 0.000000 
#    z 0.021490 0.000000 1.678200 
# 
# From -- ./inp_files/243989.got.cif
#   From: 2010.06.25/outbox.cif.g09.slc.cpg/sg12_122_cif.got.tgz:243989.got - 2010.06.28 00:19:55.
