data_PCOD8092123
_publ_section_title
;
Structure prediction by ZEFSAII (Michael W. Deem and Ramdas Pophale) SiO2 
 PCOD8092123
Probable space group: C 2/M
;
_chemical_formula_sum "Si O2"
_cell_formula_units_Z 56
_cell_length_a 15.804379
_cell_length_b 14.905704
_cell_length_c 24.368262
_cell_angle_alpha 90.000000
_cell_angle_beta 28.685757
_cell_angle_gamma 90.000000
_cell_volume 2755.501419
_symmetry_space_group_name_H-M "C 2/M"
_symmetry_group_IT_number 12
_symmetry_cell_setting 'monoclinic'
loop_
_space_group_symop_operation_xyz
x,y,z
-x,y,-z
-x,-y,-z
x,-y,z
1/2+x,1/2+y,z
1/2-x,1/2+y,-z
1/2-x,1/2-y,-z
1/2+x,1/2-y,z
loop_
_atom_site_type_symbol
_atom_site_label
_atom_site_fract_x
_atom_site_fract_y
_atom_site_fract_z
Si Si1 0.727882 0.335286 0.974069
Si Si2 0.112987 0.099536 0.491048
Si Si3 0.662687 0.102670 0.367389
Si Si4 0.846517 0.223335 0.693674
Si Si5 0.807097 0.714306 0.100111
Si Si6 0.116539 0.602688 0.746638
Si Si7 0.954194 0.900810 0.824392
O O1 0.589016 0.397671 0.085465
O O2 0.750000 0.250000 0.000000
O O3 0.656893 0.306823 0.954142
O O4 0.908720 0.388277 0.863290
O O5 0.308678 0.124898 0.357445
O O6 0.000000 0.101509 0.500000
O O7 0.033822 0.171415 0.579031
O O8 0.109958 0.000000 0.519807
O O9 0.500000 0.114075 0.500000
O O10 0.634811 0.173451 0.334682
O O11 0.841753 0.128370 0.298447
O O12 0.674276 0.000000 0.338191
O O13 0.796841 0.228413 0.785030
O O14 0.694553 0.170487 0.747369
O O15 0.679871 0.657026 0.134312
O O16 0.000000 0.669151 0.000000
O O17 0.168226 0.500000 0.733094
O O18 0.928994 0.000000 0.815980
#
# Coordination Sequence:
#
# PCOD8092123 Si02
#       7
#     8   8   8   8   8   8   8
#     4  10  20  36  54  75 108 149 191 228 270 335
#     4   8  16  30  51  82 113 142 182 229 281 342
#     4  10  21  39  62  84 110 152 203 242 274 331
#     4  11  19  33  58  84 116 151 183 236 299 345
#     4  11  23  36  54  84 119 149 182 234 294 347
#     4  10  19  34  59  86 110 146 196 241 284 340
#     4  10  21  38  59  81 108 147 194 238 283 340
#
# _framework density 20.322980000000001
#
# number of rings (size 3 to 8) (size 9 to 14) (size 15 to 20)
#    0.000    2.000    0.000    7.286    0.000    1.429 
#    0.000    4.286    0.000    7.286    0.000    0.000 
#    0.000    0.000    0.000    0.000    0.000    0.000 
#
# Total GULP energy -346972.123191 kJ/mol
# GULP energy per Si atom -12391.861543 kJ/mol
# Density = 2.027672 g / cm^3
# Si number density = 20.322980 Si / 1000 Ang^3
#
#
#
# Elastic Constant Matrix: (Units=GPa)
#
#
# Indices 1 2 3 4 5 6 
#
# 1 81.7947 42.7243 62.5903 0.0003 16.0802 -0.0014
# 2 42.7243 96.4079 44.6181 -0.0037 9.3833 0.0017
# 3 62.5903 44.6181 164.4816 -0.0259 -1.0530 -0.0097
# 4 0.0003 -0.0037 -0.0259 33.4538 0.0020 -1.3341
# 5 16.0802 9.3833 -1.0530 0.0020 33.6041 0.0022
# 6 -0.0014 0.0017 -0.0097 -1.3341 0.0022 9.6889
#
#
#
# Elastic Compliance Matrix: (Units=1/GPa)
#
#
# Indices 1 2 3 4 5 6 
#
# 1 0.022481 -0.005792 -0.007044 -0.000006 -0.009361 -0.000002
# 2 -0.005792 0.013759 -0.001535 0.000000 -0.001118 -0.000005
# 3 -0.007044 -0.001535 0.009203 0.000007 0.004088 0.000009
# 4 -0.000006 0.000000 0.000007 0.030057 0.000001 0.004139
# 5 -0.009361 -0.001118 0.004088 0.000001 0.034678 -0.000005
# 6 -0.000002 -0.000005 0.000009 0.004139 -0.000005 0.103781
#
#
# Mechanical properties :
#
#
# Convention : Reuss Voigt Hill
#
# Bulk Modulus (GPa) = 59.87714 71.39440 65.63577
# Shear Modulus (GPa) = 20.13956 28.19945 24.16951
#
# Velocity S-wave (km/s) = 3.15139 3.72904 3.45232
# Velocity P-wave (km/s) = 6.53976 7.33125 6.94678
#
# Compressibility (1/GPa) = 0.01670087
#
# Stress axis : x y z
#
# Youngs Moduli (GPa) = 44.48155 72.68070 108.66376
#
# Poissons Ratio (x) = 0.42096 0.76538
# Poissons Ratio (y) = 0.25763 0.16685
# Poissons Ratio (z) = 0.31331 0.11160
#
# Static dielectric constant tensor:
#      x y z
#    x 3.435350 -0.000210 0.155100 
#    y -0.000210 4.317010 -0.001490 
#    z 0.155100 -0.001490 4.535370 
# 
# 
# High freq. dielectric constant tensor:
#      x y z
#    x 1.743410 0.000000 0.001510 
#    y 0.000000 1.794690 0.000000 
#    z 0.001510 0.000000 1.823170 
# 
# From -- ./inp_files/340305.got.cif
#   From: 2010.06.25/outbox.cif.g09.slc.cpg/sg12_171_cif.got.tgz:340305.got - 2010.06.28 00:19:55.
