data_PCOD8092594
_publ_section_title
;
Structure prediction by ZEFSAII (Michael W. Deem and Ramdas Pophale) SiO2 
 PCOD8092594
Probable space group: C 2/M
;
_chemical_formula_sum "Si O2"
_cell_formula_units_Z 40
_cell_length_a 9.673840
_cell_length_b 14.816150
_cell_length_c 18.757813
_cell_angle_alpha 90.000000
_cell_angle_beta 48.726036
_cell_angle_gamma 90.000000
_cell_volume 2020.609637
_symmetry_space_group_name_H-M "C 2/M"
_symmetry_group_IT_number 12
_symmetry_cell_setting 'monoclinic'
loop_
_space_group_symop_operation_xyz
x,y,z
-x,y,-z
-x,-y,-z
x,-y,z
1/2+x,1/2+y,z
1/2-x,1/2+y,-z
1/2-x,1/2-y,-z
1/2+x,1/2-y,z
loop_
_atom_site_type_symbol
_atom_site_label
_atom_site_fract_x
_atom_site_fract_y
_atom_site_fract_z
Si Si1 0.539051 0.402058 0.563291
Si Si2 0.080465 0.751063 0.148294
Si Si3 0.160800 0.106491 0.003215
Si Si4 0.665920 0.738853 0.277460
Si Si5 0.602806 0.830883 0.539555
O O1 0.500000 0.353647 0.500000
O O2 0.446344 0.500000 0.593731
O O3 0.442142 0.349027 0.659748
O O4 0.760161 0.415710 0.500211
O O5 0.157900 0.660740 0.083927
O O6 0.189784 0.762814 0.184598
O O7 0.868996 0.737199 0.240986
O O8 0.099003 0.843297 0.096549
O O9 0.205351 0.000000 0.002047
O O10 0.000000 0.115724 0.000000
O O11 0.552674 0.825993 0.345495
O O12 0.500000 0.830672 0.500000
O O13 0.750000 0.750000 0.500000
#
# Coordination Sequence:
#
# PCOD8092594 Si02
#       5
#     8   8   8   8   8
#     4  10  21  37  55  80 121 162 195 239 296 349
#     4  11  22  38  63  92 115 154 198 249 299 360
#     4  10  22  43  63  84 121 158 190 241 310 372
#     4  11  20  35  59  87 114 147 201 246 288 343
#     4  10  19  35  56  80 112 154 190 231 287 342
#
# _framework density 19.796005999999998
#
# number of rings (size 3 to 8) (size 9 to 14) (size 15 to 20)
#    0.000    1.600    2.000    6.000    0.000    2.000 
#    0.000    3.000    0.000    0.000    0.000    0.000 
#    0.000    0.000    0.000    0.000    0.000    0.000 
#
# Total GULP energy -247810.097639 kJ/mol
# GULP energy per Si atom -12390.504882 kJ/mol
# Density = 1.975095 g / cm^3
# Si number density = 19.796006 Si / 1000 Ang^3
#
#
#
# Elastic Constant Matrix: (Units=GPa)
#
#
# Indices 1 2 3 4 5 6 
#
# 1 104.7247 17.8175 26.4171 0.0004 3.4688 -0.0002
# 2 17.8175 111.1388 38.9373 0.0000 1.5152 -0.0001
# 3 26.4171 38.9373 105.2817 0.0002 -4.0596 -0.0003
# 4 0.0004 0.0000 0.0002 15.4108 -0.0001 0.4958
# 5 3.4688 1.5152 -4.0596 -0.0001 49.2583 0.0001
# 6 -0.0002 -0.0001 -0.0003 0.4958 0.0001 17.2012
#
#
#
# Elastic Compliance Matrix: (Units=1/GPa)
#
#
# Indices 1 2 3 4 5 6 
#
# 1 0.010303 -0.000829 -0.002313 0.000000 -0.000891 0.000000
# 2 -0.000829 0.010424 -0.003669 0.000000 -0.000565 0.000000
# 3 -0.002313 -0.003669 0.011483 0.000000 0.001222 0.000000
# 4 0.000000 0.000000 0.000000 0.064950 0.000000 -0.001872
# 5 -0.000891 -0.000565 0.001222 0.000000 0.020482 0.000000
# 6 0.000000 0.000000 0.000000 -0.001872 0.000000 0.058189
#
#
# Mechanical properties :
#
#
# Convention : Reuss Voigt Hill
#
# Bulk Modulus (GPa) = 53.79975 54.16544 53.98259
# Shear Modulus (GPa) = 25.55611 32.23896 28.89754
#
# Velocity S-wave (km/s) = 3.59691 4.03992 3.82483
# Velocity P-wave (km/s) = 6.66981 7.01302 6.84357
#
# Compressibility (1/GPa) = 0.01858745
#
# Stress axis : x y z
#
# Youngs Moduli (GPa) = 97.06048 95.93467 87.08802
#
# Poissons Ratio (x) = 0.07956 0.20142
# Poissons Ratio (y) = 0.08049 0.31951
# Poissons Ratio (z) = 0.22448 0.35197
#
# Static dielectric constant tensor:
#      x y z
#    x 4.070030 0.000000 -0.258710 
#    y 0.000000 3.835780 0.000000 
#    z -0.258710 0.000000 3.697000 
# 
# 
# High freq. dielectric constant tensor:
#      x y z
#    x 1.787090 0.000000 -0.002540 
#    y 0.000000 1.756550 0.000000 
#    z -0.002540 0.000000 1.772870 
# 
# From -- ./inp_files/256389.got.cif
#   From: 2010.06.25/outbox.cif.g09.slc.cpg/sg12_129_cif.got.tgz:256389.got - 2010.06.28 00:19:55.
