data_PCOD8092280
_publ_section_title
;
Structure prediction by ZEFSAII (Michael W. Deem and Ramdas Pophale) SiO2 
 PCOD8092280
Probable space group: C 2/M
;
_chemical_formula_sum "Si O2"
_cell_formula_units_Z 56
_cell_length_a 15.615057
_cell_length_b 26.659664
_cell_length_c 11.432653
_cell_angle_alpha 90.000000
_cell_angle_beta 33.504840
_cell_angle_gamma 90.000000
_cell_volume 2627.182164
_symmetry_space_group_name_H-M "C 2/M"
_symmetry_group_IT_number 12
_symmetry_cell_setting 'monoclinic'
loop_
_space_group_symop_operation_xyz
x,y,z
-x,y,-z
-x,-y,-z
x,-y,z
1/2+x,1/2+y,z
1/2-x,1/2+y,-z
1/2-x,1/2-y,-z
1/2+x,1/2-y,z
loop_
_atom_site_type_symbol
_atom_site_label
_atom_site_fract_x
_atom_site_fract_y
_atom_site_fract_z
Si Si1 0.663323 0.793943 0.856436
Si Si2 0.926202 0.879529 0.960823
Si Si3 0.963742 0.646297 0.802913
Si Si4 0.337348 0.200684 0.748216
Si Si5 0.334244 0.556958 0.652711
Si Si6 0.209775 0.141417 0.478246
Si Si7 0.717261 0.944051 0.044827
O O1 0.765481 0.755368 0.813581
O O2 0.776873 0.810580 0.622032
O O3 0.500000 0.768703 0.000000
O O4 0.612985 0.845306 0.981701
O O5 0.863121 0.927313 0.958643
O O6 0.053708 0.854175 0.730759
O O7 0.790984 0.840185 0.144279
O O8 0.000000 0.897758 0.000000
O O9 0.886751 0.694163 0.826450
O O10 0.148599 0.645595 0.592387
O O11 0.920122 0.595764 0.781758
O O12 0.500000 0.191258 0.500000
O O13 0.500000 0.579419 0.500000
O O14 0.347958 0.500000 0.588713
O O15 0.269091 0.590239 0.620634
O O16 0.237979 0.557535 0.881511
O O17 0.669202 0.000000 0.138839
#
# Coordination Sequence:
#
# PCOD8092280 Si02
#       7
#     8   8   8   8   8   8   8
#     4  10  22  39  61  92 124 159 204 252 310 368
#     4  11  24  42  64  90 124 166 210 255 306 366
#     4  10  22  39  60  92 130 162 202 251 306 368
#     4  11  24  42  62  85 120 164 209 251 306 369
#     4  10  19  34  60  95 130 161 203 252 306 365
#     4  11  22  39  65  94 128 162 203 257 309 366
#     4  10  21  38  61  91 127 166 206 253 304 363
#
# _framework density 21.315614
#
# number of rings (size 3 to 8) (size 9 to 14) (size 15 to 20)
#    0.000    1.571    2.857    1.714    0.000    4.857 
#    0.000    5.000    0.000   14.571    0.000    0.000 
#    0.000    0.000    0.000    0.000    0.000    0.000 
#
# Total GULP energy -346947.667737 kJ/mol
# GULP energy per Si atom -12390.988133 kJ/mol
# Density = 2.126710 g / cm^3
# Si number density = 21.315614 Si / 1000 Ang^3
#
#
#
# Elastic Constant Matrix: (Units=GPa)
#
#
# Indices 1 2 3 4 5 6 
#
# 1 116.6224 53.7406 30.3316 0.0001 -20.9047 -0.0001
# 2 53.7406 117.6425 43.2417 0.0000 -18.9657 -0.0004
# 3 30.3316 43.2417 104.3443 -0.0013 -6.9523 -0.0013
# 4 0.0001 0.0000 -0.0013 12.8867 0.0003 -3.4940
# 5 -20.9047 -18.9657 -6.9523 0.0003 32.4713 0.0008
# 6 -0.0001 -0.0004 -0.0013 -3.4940 0.0008 20.7469
#
#
#
# Elastic Compliance Matrix: (Units=1/GPa)
#
#
# Indices 1 2 3 4 5 6 
#
# 1 0.011667 -0.004033 -0.001396 0.000000 0.004856 0.000000
# 2 -0.004033 0.012307 -0.003674 0.000000 0.003805 0.000000
# 3 -0.001396 -0.003674 0.011473 0.000001 -0.000588 0.000001
# 4 0.000000 0.000000 0.000001 0.081312 -0.000001 0.013694
# 5 0.004856 0.003805 -0.000588 -0.000001 0.036019 -0.000002
# 6 0.000000 0.000000 0.000001 0.013694 -0.000002 0.050506
#
#
# Mechanical properties :
#
#
# Convention : Reuss Voigt Hill
#
# Bulk Modulus (GPa) = 58.00861 65.91523 61.96192
# Shear Modulus (GPa) = 22.00331 27.30733 24.65532
#
# Velocity S-wave (km/s) = 3.21637 3.58312 3.40469
# Velocity P-wave (km/s) = 6.40832 6.93606 6.67741
#
# Compressibility (1/GPa) = 0.01723882
#
# Stress axis : x y z
#
# Youngs Moduli (GPa) = 85.71174 81.25642 87.16164
#
# Poissons Ratio (x) = 0.32775 0.12171
# Poissons Ratio (y) = 0.34572 0.32024
# Poissons Ratio (z) = 0.11968 0.29854
#
# Static dielectric constant tensor:
#      x y z
#    x 4.255460 0.000000 -0.027340 
#    y 0.000000 3.716600 0.000000 
#    z -0.027340 0.000000 3.709130 
# 
# 
# High freq. dielectric constant tensor:
#      x y z
#    x 1.845910 0.000000 -0.005740 
#    y 0.000000 1.823540 0.000000 
#    z -0.005740 0.000000 1.827700 
# 
# From -- ./inp_files/150409.got.cif
#   From: 2010.06.25/outbox.cif.g09.slc.cpg/sg12_76_cif.got.tgz:150409.got - 2010.06.28 00:19:55.
