data_PCOD8092458
_publ_section_title
;
Structure prediction by ZEFSAII (Michael W. Deem and Ramdas Pophale) SiO2 
 PCOD8092458
Probable space group: C 2/M
;
_chemical_formula_sum "Si O2"
_cell_formula_units_Z 48
_cell_length_a 30.965184
_cell_length_b 9.022330
_cell_length_c 9.552262
_cell_angle_alpha 90.000000
_cell_angle_beta 78.557480
_cell_angle_gamma 90.000000
_cell_volume 2615.650538
_symmetry_space_group_name_H-M "C 2/M"
_symmetry_group_IT_number 12
_symmetry_cell_setting 'monoclinic'
loop_
_space_group_symop_operation_xyz
x,y,z
-x,y,-z
-x,-y,-z
x,-y,z
1/2+x,1/2+y,z
1/2-x,1/2+y,-z
1/2-x,1/2-y,-z
1/2+x,1/2-y,z
loop_
_atom_site_type_symbol
_atom_site_label
_atom_site_fract_x
_atom_site_fract_y
_atom_site_fract_z
Si Si1 0.239785 0.673619 0.360419
Si Si2 0.451928 0.326569 0.066338
Si Si3 0.374812 0.326259 0.906819
Si Si4 0.606777 0.828131 0.686706
Si Si5 0.685031 0.174270 0.842874
Si Si6 0.638571 0.828357 0.364758
O O1 0.249677 0.500000 0.368620
O O2 0.250000 0.750000 0.500000
O O3 0.269227 0.744561 0.219151
O O4 0.189831 0.704919 0.351127
O O5 0.454989 0.500000 0.089369
O O6 0.434615 0.258149 0.222512
O O7 0.500000 0.260515 0.000000
O O8 0.419408 0.285489 0.960365
O O9 0.364746 0.500000 0.919529
O O10 0.381262 0.273311 0.744191
O O11 0.333791 0.238173 0.999995
O O12 0.651694 0.787382 0.738500
O O13 0.612509 0.783010 0.521822
O O14 0.596712 0.000000 0.710678
O O15 0.693315 0.000000 0.853843
O O16 0.630701 0.000000 0.333356
#
# Coordination Sequence:
#
# PCOD8092458 Si02
#       6
#     8   8   8   8   8   8
#     4  11  21  34  53  78 108 143 186 227 262 309
#     4   9  19  37  59  82 107 134 170 218 268 321
#     4  10  21  36  55  81 107 139 180 220 267 323
#     4   9  18  34  55  79 106 138 179 217 260 317
#     4  10  19  35  55  77 106 144 183 226 268 308
#     4  10  21  37  53  76 111 146 176 219 269 312
#
# _framework density 18.351075000000002
#
# number of rings (size 3 to 8) (size 9 to 14) (size 15 to 20)
#    0.000    2.167    1.667    1.500    0.000    4.333 
#    0.000    0.833    0.000    5.000    0.000    0.000 
#    0.000    0.000    0.000    0.000    0.000    0.000 
#
# Total GULP energy -297689.167889 kJ/mol
# GULP energy per Si atom -12403.715329 kJ/mol
# Density = 1.830931 g / cm^3
# Si number density = 18.351075 Si / 1000 Ang^3
#
#
#
# Elastic Constant Matrix: (Units=GPa)
#
#
# Indices 1 2 3 4 5 6 
#
# 1 101.3327 50.5493 57.2079 0.0000 -28.6114 0.0000
# 2 50.5493 74.5957 49.6080 0.0000 -8.6056 0.0000
# 3 57.2079 49.6080 128.4481 0.0000 -13.1154 0.0000
# 4 0.0000 0.0000 0.0000 38.0510 0.0000 -4.2560
# 5 -28.6114 -8.6056 -13.1154 0.0000 27.2770 0.0000
# 6 0.0000 0.0000 0.0000 -4.2560 0.0000 25.6786
#
#
#
# Elastic Compliance Matrix: (Units=1/GPa)
#
#
# Indices 1 2 3 4 5 6 
#
# 1 0.022638 -0.010442 -0.004166 0.000000 0.018448 0.000000
# 2 -0.010442 0.023014 -0.004853 0.000000 -0.006025 0.000000
# 3 -0.004166 -0.004853 0.011476 0.000000 -0.000383 0.000000
# 4 0.000000 0.000000 0.000000 0.026777 0.000000 0.004438
# 5 0.018448 -0.006025 -0.000383 0.000000 0.053927 0.000000
# 6 0.000000 0.000000 0.000000 0.004438 0.000000 0.039678
#
#
# Mechanical properties :
#
#
# Convention : Reuss Voigt Hill
#
# Bulk Modulus (GPa) = 54.92642 68.78965 61.85804
# Shear Modulus (GPa) = 22.47193 28.00208 25.23700
#
# Velocity S-wave (km/s) = 3.50316 3.91053 3.71244
# Velocity P-wave (km/s) = 6.80873 7.61291 7.22202
#
# Compressibility (1/GPa) = 0.01820617
#
# Stress axis : x y z
#
# Youngs Moduli (GPa) = 44.17303 43.45264 87.13986
#
# Poissons Ratio (x) = 0.45373 0.36303
# Poissons Ratio (y) = 0.46125 0.42287
# Poissons Ratio (z) = 0.18403 0.21086
#
# Static dielectric constant tensor:
#      x y z
#    x 3.400640 0.000000 -0.141830 
#    y 0.000000 3.373220 0.000000 
#    z -0.141830 0.000000 3.443200 
# 
# 
# High freq. dielectric constant tensor:
#      x y z
#    x 1.695300 0.000000 -0.012290 
#    y 0.000000 1.715530 0.000000 
#    z -0.012290 0.000000 1.715520 
# 
# From -- ./inp_files/108711.got.cif
#   From: 2010.06.25/outbox.cif.g09.slc.cpg/sg12_55_cif.got.tgz:108711.got - 2010.06.28 00:19:55.
