data_PCOD8092206
_publ_section_title
;
Structure prediction by ZEFSAII (Michael W. Deem and Ramdas Pophale) SiO2 
 PCOD8092206
Probable space group: C 2/M
;
_chemical_formula_sum "Si O2"
_cell_formula_units_Z 56
_cell_length_a 23.268036
_cell_length_b 8.800090
_cell_length_c 15.541873
_cell_angle_alpha 90.000000
_cell_angle_beta 56.577819
_cell_angle_gamma 90.000000
_cell_volume 2656.113500
_symmetry_space_group_name_H-M "C 2/M"
_symmetry_group_IT_number 12
_symmetry_cell_setting 'monoclinic'
loop_
_space_group_symop_operation_xyz
x,y,z
-x,y,-z
-x,-y,-z
x,-y,z
1/2+x,1/2+y,z
1/2-x,1/2+y,-z
1/2-x,1/2-y,-z
1/2+x,1/2-y,z
loop_
_atom_site_type_symbol
_atom_site_label
_atom_site_fract_x
_atom_site_fract_y
_atom_site_fract_z
Si Si1 0.579764 0.173000 0.451316
Si Si2 0.072850 0.678843 0.978432
Si Si3 0.787634 0.675029 0.389197
Si Si4 0.332825 0.323184 0.763556
Si Si5 0.206659 0.821015 0.793497
Si Si6 0.067351 0.672762 0.655250
Si Si7 0.566574 0.322613 0.167112
O O1 0.500000 0.198816 0.500000
O O2 0.622370 0.286369 0.357287
O O3 0.595361 0.213443 0.537416
O O4 0.601818 0.000000 0.411658
O O5 0.081945 0.500000 0.962371
O O6 0.131438 0.757104 0.874042
O O7 0.079260 0.725551 0.071901
O O8 0.000000 0.732708 0.000000
O O9 0.765287 0.500000 0.401283
O O10 0.750000 0.750000 0.500000
O O11 0.765484 0.760756 0.320875
O O12 0.869928 0.690660 0.330619
O O13 0.315631 0.500000 0.777895
O O14 0.260758 0.232512 0.821707
O O15 0.374258 0.275213 0.814559
O O16 0.202830 0.000000 0.794970
O O17 0.038343 0.500000 0.680106
O O18 0.007506 0.786953 0.731380
O O19 0.569909 0.500000 0.141836
#
# Coordination Sequence:
#
# PCOD8092206 Si02
#       7
#     8   8   8   8   8   8   8
#     4  10  19  34  59  90 127 169 212 256 307 369
#     4  11  25  46  71  96 124 161 206 258 316 378
#     4  11  23  40  63  93 129 169 213 259 311 374
#     4  11  24  41  62  92 130 168 212 261 314 379
#     4  12  26  44  67  93 126 168 212 262 320 375
#     4  10  21  37  59  89 125 166 209 256 312 372
#     4  11  24  40  63  95 126 161 207 258 313 374
#
# _framework density 21.083435999999999
#
# number of rings (size 3 to 8) (size 9 to 14) (size 15 to 20)
#    0.000    1.143    1.429    4.714    0.000   10.000 
#    0.000    0.000    0.000    0.000    0.000    0.000 
#    0.000    0.000    0.000    0.000    0.000    0.000 
#
# Total GULP energy -347401.193980 kJ/mol
# GULP energy per Si atom -12407.185499 kJ/mol
# Density = 2.103545 g / cm^3
# Si number density = 21.083436 Si / 1000 Ang^3
#
#
#
# Elastic Constant Matrix: (Units=GPa)
#
#
# Indices 1 2 3 4 5 6 
#
# 1 105.2351 49.6186 48.3360 0.0000 5.9633 0.0000
# 2 49.6186 104.4975 48.5956 0.0000 -3.8128 0.0001
# 3 48.3360 48.5956 103.5942 0.0000 -0.0381 0.0000
# 4 0.0000 0.0000 0.0000 39.7464 0.0000 -2.1922
# 5 5.9633 -3.8128 -0.0381 0.0000 32.1588 0.0000
# 6 0.0000 0.0001 0.0000 -2.1922 0.0000 31.1296
#
#
#
# Elastic Compliance Matrix: (Units=1/GPa)
#
#
# Indices 1 2 3 4 5 6 
#
# 1 0.013858 -0.004716 -0.004255 0.000000 -0.003134 0.000000
# 2 -0.004716 0.013912 -0.004325 0.000000 0.002519 0.000000
# 3 -0.004255 -0.004325 0.013667 0.000000 0.000292 0.000000
# 4 0.000000 0.000000 0.000000 0.025258 0.000000 0.001779
# 5 -0.003134 0.002519 0.000292 0.000000 0.031976 0.000000
# 6 0.000000 0.000000 0.000000 0.001779 0.000000 0.032249
#
#
# Mechanical properties :
#
#
# Convention : Reuss Voigt Hill
#
# Bulk Modulus (GPa) = 67.35804 67.38082 67.36943
# Shear Modulus (GPa) = 30.77693 31.72540 31.25116
#
# Velocity S-wave (km/s) = 3.82484 3.88332 3.85419
# Velocity P-wave (km/s) = 7.17799 7.22049 7.19927
#
# Compressibility (1/GPa) = 0.01484604
#
# Stress axis : x y z
#
# Youngs Moduli (GPa) = 72.16033 71.88091 73.16783
#
# Poissons Ratio (x) = 0.33898 0.31133
# Poissons Ratio (y) = 0.34029 0.31643
# Poissons Ratio (z) = 0.30704 0.31087
#
# Static dielectric constant tensor:
#      x y z
#    x 3.150300 0.000000 0.144790 
#    y 0.000000 3.781540 0.000000 
#    z 0.144790 0.000000 3.752570 
# 
# 
# High freq. dielectric constant tensor:
#      x y z
#    x 1.844630 0.000000 0.004240 
#    y 0.000000 1.828360 0.000000 
#    z 0.004240 0.000000 1.824540 
# 
# From -- ./inp_files/238259.got.cif
#   From: 2010.06.25/outbox.cif.g09.slc.cpg/sg12_120_cif.got.tgz:238259.got - 2010.06.28 00:19:55.
