data_PCOD8092381
_publ_section_title
;
Structure prediction by ZEFSAII (Michael W. Deem and Ramdas Pophale) SiO2 
 PCOD8092381
Probable space group: C 2/M
;
_chemical_formula_sum "Si O2"
_cell_formula_units_Z 64
_cell_length_a 18.436481
_cell_length_b 21.691742
_cell_length_c 17.990396
_cell_angle_alpha 90.000000
_cell_angle_beta 29.891670
_cell_angle_gamma 90.000000
_cell_volume 3585.566999
_symmetry_space_group_name_H-M "C 2/M"
_symmetry_group_IT_number 12
_symmetry_cell_setting 'monoclinic'
loop_
_space_group_symop_operation_xyz
x,y,z
-x,y,-z
-x,-y,-z
x,-y,z
1/2+x,1/2+y,z
1/2-x,1/2+y,-z
1/2-x,1/2-y,-z
1/2+x,1/2-y,z
loop_
_atom_site_type_symbol
_atom_site_label
_atom_site_fract_x
_atom_site_fract_y
_atom_site_fract_z
Si Si1 0.325499 0.628513 0.165744
Si Si2 0.410701 0.172737 0.853750
Si Si3 0.856016 0.204361 0.817095
Si Si4 0.387781 0.928796 0.756405
Si Si5 0.706896 0.072095 0.422097
Si Si6 0.299464 0.216123 0.349317
Si Si7 0.343606 0.252874 0.669033
Si Si8 0.130863 0.834223 0.633424
O O1 0.254759 0.585756 0.165268
O O2 0.281897 0.599828 0.283057
O O3 0.258090 0.696219 0.216221
O O4 0.500000 0.630300 0.000000
O O5 0.400650 0.226450 0.801377
O O6 0.383059 0.108339 0.837538
O O7 0.566980 0.170513 0.754281
O O8 0.303898 0.185514 0.016611
O O9 0.865686 0.201728 0.719343
O O10 0.959937 0.155591 0.768511
O O11 0.534485 0.913010 0.578834
O O12 0.386650 0.000000 0.779756
O O13 0.785768 0.102366 0.423837
O O14 0.737332 0.000000 0.397902
O O15 0.237665 0.207165 0.321697
O O16 0.176591 0.199822 0.517424
O O17 0.344780 0.288106 0.318407
O O18 0.500000 0.229108 0.500000
#
# Coordination Sequence:
#
# PCOD8092381 Si02
#       8
#     8   8   8   8   8   8   8   8
#     4  12  27  37  54  85 123 157 195 233 279 340
#     4  10  21  37  55  85 116 147 186 247 281 337
#     4  10  22  34  57  82 118 148 186 232 302 338
#     4  11  23  41  62  82 112 160 202 232 278 340
#     4  11  23  40  61  82 113 159 202 236 278 335
#     4  10  20  32  58  80 115 145 185 239 287 339
#     4  12  22  36  59  89 116 160 189 231 290 358
#     4  10  19  35  53  86 107 147 191 237 282 337
#
# _framework density 17.849337999999999
#
# number of rings (size 3 to 8) (size 9 to 14) (size 15 to 20)
#    0.000    1.250    5.000    1.500    3.500    2.000 
#    0.000    0.000    0.000    0.000    0.000    5.250 
#    0.000    0.000    0.000    0.000    0.000    0.000 
#
# Total GULP energy -396802.222398 kJ/mol
# GULP energy per Si atom -12400.069450 kJ/mol
# Density = 1.780871 g / cm^3
# Si number density = 17.849338 Si / 1000 Ang^3
#
#
#
# Elastic Constant Matrix: (Units=GPa)
#
#
# Indices 1 2 3 4 5 6 
#
# 1 117.3314 36.0800 42.4847 -0.0117 -3.8427 0.0039
# 2 36.0800 62.9531 23.4792 -0.0039 -3.7061 0.0024
# 3 42.4847 23.4792 93.6107 -0.0032 -8.8778 -0.0028
# 4 -0.0117 -0.0039 -0.0032 16.7813 -0.0059 -1.4421
# 5 -3.8427 -3.7061 -8.8778 -0.0059 25.1661 0.0061
# 6 0.0039 0.0024 -0.0028 -1.4421 0.0061 20.8333
#
#
#
# Elastic Compliance Matrix: (Units=1/GPa)
#
#
# Indices 1 2 3 4 5 6 
#
# 1 0.011535 -0.005150 -0.003982 0.000006 -0.000402 -0.000002
# 2 -0.005150 0.019851 -0.002524 0.000001 0.001247 -0.000002
# 3 -0.003982 -0.002524 0.013481 0.000001 0.003776 0.000002
# 4 0.000006 0.000001 0.000001 0.059947 0.000014 0.004149
# 5 -0.000402 0.001247 0.003776 0.000014 0.041190 -0.000011
# 6 -0.000002 -0.000002 0.000002 0.004149 -0.000011 0.048287
#
#
# Mechanical properties :
#
#
# Convention : Reuss Voigt Hill
#
# Bulk Modulus (GPa) = 46.38888 53.10922 49.74905
# Shear Modulus (GPa) = 22.24341 24.01290 23.12816
#
# Velocity S-wave (km/s) = 3.53395 3.67183 3.60355
# Velocity P-wave (km/s) = 6.53432 6.91341 6.72653
#
# Compressibility (1/GPa) = 0.02155689
#
# Stress axis : x y z
#
# Youngs Moduli (GPa) = 86.69321 50.37571 74.18074
#
# Poissons Ratio (x) = 0.25942 0.29535
# Poissons Ratio (y) = 0.44644 0.18720
# Poissons Ratio (z) = 0.34517 0.12713
#
# Static dielectric constant tensor:
#      x y z
#    x 3.359980 -0.000020 -0.162000 
#    y -0.000020 3.017760 0.000040 
#    z -0.162000 0.000040 3.399830 
# 
# 
# High freq. dielectric constant tensor:
#      x y z
#    x 1.694700 0.000000 -0.011580 
#    y 0.000000 1.649710 0.000000 
#    z -0.011580 0.000000 1.702650 
# 
# From -- ./inp_files/77533.got.cif
#   From: 2010.06.25/outbox.cif.g09.slc.cpg/sg12_39_cif.got.tgz:77533.got - 2010.06.28 00:19:55.
