data_PCOD8092288
_publ_section_title
;
Structure prediction by ZEFSAII (Michael W. Deem and Ramdas Pophale) SiO2 
 PCOD8092288
Probable space group: C 2/M
;
_chemical_formula_sum "Si O2"
_cell_formula_units_Z 64
_cell_length_a 26.336343
_cell_length_b 18.585656
_cell_length_c 18.903090
_cell_angle_alpha 90.000000
_cell_angle_beta 20.067078
_cell_angle_gamma 90.000000
_cell_volume 3174.769843
_symmetry_space_group_name_H-M "C 2/M"
_symmetry_group_IT_number 12
_symmetry_cell_setting 'monoclinic'
loop_
_space_group_symop_operation_xyz
x,y,z
-x,y,-z
-x,-y,-z
x,-y,z
1/2+x,1/2+y,z
1/2-x,1/2+y,-z
1/2-x,1/2-y,-z
1/2+x,1/2-y,z
loop_
_atom_site_type_symbol
_atom_site_label
_atom_site_fract_x
_atom_site_fract_y
_atom_site_fract_z
Si Si1 0.462540 0.324803 0.734354
Si Si2 0.168275 0.630822 0.935846
Si Si3 0.561365 0.306207 0.757846
Si Si4 0.732586 0.582554 0.342564
Si Si5 0.257249 0.796205 0.797672
Si Si6 0.031710 0.315480 0.351919
Si Si7 0.848663 0.652160 0.326837
Si Si8 0.299621 0.916822 0.953771
O O1 0.518678 0.287153 0.732655
O O2 0.582669 0.372933 0.537680
O O3 0.410309 0.260567 0.752793
O O4 0.325904 0.377566 0.928586
O O5 0.202390 0.585577 0.821203
O O6 0.224719 0.712074 0.853188
O O7 0.238478 0.594781 0.913483
O O8 0.992022 0.623028 0.179559
O O9 0.697996 0.363399 0.570338
O O10 0.627114 0.238264 0.714298
O O11 0.406255 0.334390 0.996108
O O12 0.702500 0.500000 0.402363
O O13 0.841990 0.616862 0.257798
O O14 0.355499 0.808502 0.598800
O O15 0.360671 0.830688 0.722606
O O16 0.048668 0.379011 0.271602
O O17 0.305311 0.000000 0.927304
#
# Coordination Sequence:
#
# PCOD8092288 Si02
#       8
#     8   8   8   8   8   8   8   8
#     4  11  20  38  60  86 120 160 204 249 302 371
#     4  11  21  38  57  86 123 164 206 244 294 366
#     4   9  18  36  60  86 110 147 203 257 298 351
#     4  11  23  37  56  85 127 166 199 249 307 364
#     4  10  19  34  61  88 114 148 205 251 302 355
#     4  11  20  36  60  89 118 157 195 251 305 362
#     4   9  20  35  58  82 115 155 204 250 297 348
#     4  12  25  38  59  91 128 162 199 250 312 376
#
# _framework density 20.158942
#
# number of rings (size 3 to 8) (size 9 to 14) (size 15 to 20)
#    0.000    1.500    3.750    3.000    0.000    2.000 
#    0.000    2.500    0.000    0.000    0.000    0.875 
#    0.000    0.000    0.000    0.000    0.000    0.000 
#
# Total GULP energy -396496.643491 kJ/mol
# GULP energy per Si atom -12390.520109 kJ/mol
# Density = 2.011306 g / cm^3
# Si number density = 20.158942 Si / 1000 Ang^3
#
#
#
# Elastic Constant Matrix: (Units=GPa)
#
#
# Indices 1 2 3 4 5 6 
#
# 1 52.4763 32.3891 14.3739 -0.0001 4.8000 -0.0002
# 2 32.3891 95.5156 41.3913 0.0007 16.4026 0.0000
# 3 14.3739 41.3913 137.2329 0.0009 -5.8140 -0.0007
# 4 -0.0001 0.0007 0.0009 21.5597 -0.0013 4.2565
# 5 4.8000 16.4026 -5.8140 -0.0013 24.7697 0.0018
# 6 -0.0002 0.0000 -0.0007 4.2565 0.0018 16.9243
#
#
#
# Elastic Compliance Matrix: (Units=1/GPa)
#
#
# Indices 1 2 3 4 5 6 
#
# 1 0.024116 -0.008334 0.000024 0.000000 0.000851 0.000000
# 2 -0.008334 0.017250 -0.004793 -0.000001 -0.010933 0.000001
# 3 0.000024 -0.004793 0.008953 0.000000 0.005271 0.000000
# 4 0.000000 -0.000001 0.000000 0.048806 0.000004 -0.012275
# 5 0.000851 -0.010933 0.005271 0.000004 0.048684 -0.000006
# 6 0.000000 0.000001 0.000000 -0.012275 -0.000006 0.062174
#
#
# Mechanical properties :
#
#
# Convention : Reuss Voigt Hill
#
# Bulk Modulus (GPa) = 41.47233 51.28150 46.37692
# Shear Modulus (GPa) = 20.47268 25.78876 23.13072
#
# Velocity S-wave (km/s) = 3.19025 3.58057 3.39103
# Velocity P-wave (km/s) = 5.84701 6.52593 6.19578
#
# Compressibility (1/GPa) = 0.02411246
#
# Stress axis : x y z
#
# Youngs Moduli (GPa) = 41.46671 57.97050 111.68966
#
# Poissons Ratio (x) = 0.48313 -0.00266
# Poissons Ratio (y) = 0.34559 0.53535
# Poissons Ratio (z) = -0.00099 0.27786
#
# Static dielectric constant tensor:
#      x y z
#    x 3.503530 0.000000 -0.097990 
#    y 0.000000 3.300160 0.000000 
#    z -0.097990 0.000000 4.225460 
# 
# 
# High freq. dielectric constant tensor:
#      x y z
#    x 1.774880 0.000000 -0.007750 
#    y 0.000000 1.743680 0.000000 
#    z -0.007750 0.000000 1.805130 
# 
# From -- ./inp_files/294144.got.cif
#   From: 2010.06.25/outbox.cif.g09.slc.cpg/sg12_148_cif.got.tgz:294144.got - 2010.06.28 00:19:55.
