data_PCOD8092439
_publ_section_title
;
Structure prediction by ZEFSAII (Michael W. Deem and Ramdas Pophale) SiO2 
 PCOD8092439
Probable space group: C 2/M
;
_chemical_formula_sum "Si O2"
_cell_formula_units_Z 48
_cell_length_a 15.293471
_cell_length_b 8.939509
_cell_length_c 19.409470
_cell_angle_alpha 90.000000
_cell_angle_beta 101.530028
_cell_angle_gamma 90.000000
_cell_volume 2600.038289
_symmetry_space_group_name_H-M "C 2/M"
_symmetry_group_IT_number 12
_symmetry_cell_setting 'monoclinic'
loop_
_space_group_symop_operation_xyz
x,y,z
-x,y,-z
-x,-y,-z
x,-y,z
1/2+x,1/2+y,z
1/2-x,1/2+y,-z
1/2-x,1/2-y,-z
1/2+x,1/2-y,z
loop_
_atom_site_type_symbol
_atom_site_label
_atom_site_fract_x
_atom_site_fract_y
_atom_site_fract_z
Si Si1 0.818807 0.176361 0.419876
Si Si2 0.417480 0.322668 0.171171
Si Si3 0.140577 0.823662 0.419928
Si Si4 0.456606 0.321595 0.329049
Si Si5 0.736502 0.177724 0.071825
Si Si6 0.445930 0.324349 0.922625
O O1 0.860511 0.223328 0.499980
O O2 0.722905 0.249901 0.393320
O O3 0.882202 0.238968 0.369895
O O4 0.807529 0.000000 0.413264
O O5 0.420583 0.500000 0.172715
O O6 0.436626 0.256844 0.250016
O O7 0.319743 0.269889 0.131734
O O8 0.494315 0.265551 0.131476
O O9 0.051774 0.761369 0.369931
O O10 0.148667 0.000000 0.413341
O O11 0.456321 0.500000 0.329107
O O12 0.646623 0.235104 0.093654
O O13 0.733365 0.000000 0.062986
O O14 0.750000 0.250000 0.000000
O O15 0.424730 0.500000 0.914492
O O16 0.500000 0.286825 0.000000
#
# Coordination Sequence:
#
# PCOD8092439 Si02
#       6
#     8   8   8   8   8   8
#     4   9  17  30  50  75 101 130 166 206 246 289
#     4   9  19  34  51  73 102 134 166 203 254 302
#     4   9  17  30  50  75 100 129 168 207 243 290
#     4   9  17  31  51  72  98 135 172 202 240 297
#     4  11  21  35  55  78 101 129 167 210 254 302
#     4  10  19  35  55  75 100 131 165 207 254 302
#
# _framework density 18.461268
#
# number of rings (size 3 to 8) (size 9 to 14) (size 15 to 20)
#    0.000    2.500    1.667    1.000    0.000    3.667 
#    0.000    0.833    0.000    8.000    0.000    0.000 
#    0.000    0.000    0.000    0.000    0.000    0.000 
#
# Total GULP energy -297606.951544 kJ/mol
# GULP energy per Si atom -12400.289648 kJ/mol
# Density = 1.841925 g / cm^3
# Si number density = 18.461268 Si / 1000 Ang^3
#
#
#
# Elastic Constant Matrix: (Units=GPa)
#
#
# Indices 1 2 3 4 5 6 
#
# 1 200.7652 38.2007 110.0526 0.0000 -4.6889 0.0000
# 2 38.2007 27.5246 26.1138 0.0000 0.5614 0.0000
# 3 110.0526 26.1138 155.4296 0.0000 -0.8173 0.0000
# 4 0.0000 0.0000 0.0000 13.8754 0.0000 -1.8099
# 5 -4.6889 0.5614 -0.8173 0.0000 23.2267 0.0000
# 6 0.0000 0.0000 0.0000 -1.8099 0.0000 33.8289
#
#
#
# Elastic Compliance Matrix: (Units=1/GPa)
#
#
# Indices 1 2 3 4 5 6 
#
# 1 0.009515 -0.008164 -0.005355 0.000000 0.001930 0.000000
# 2 -0.008164 0.050265 -0.002680 0.000000 -0.002957 0.000000
# 3 -0.005355 -0.002680 0.010673 0.000000 -0.000641 0.000000
# 4 0.000000 0.000000 0.000000 0.072577 0.000000 0.003883
# 5 0.001930 -0.002957 -0.000641 0.000000 0.043492 0.000000
# 6 0.000000 0.000000 0.000000 0.003883 0.000000 0.029768
#
#
# Mechanical properties :
#
#
# Convention : Reuss Voigt Hill
#
# Bulk Modulus (GPa) = 26.27873 81.38374 53.83123
# Shear Modulus (GPa) = 19.12972 28.14301 23.63636
#
# Velocity S-wave (km/s) = 3.22251 3.90864 3.58204
# Velocity P-wave (km/s) = 5.30203 8.03425 6.80664
#
# Compressibility (1/GPa) = 0.03805358
#
# Stress axis : x y z
#
# Youngs Moduli (GPa) = 105.09597 19.89460 93.69820
#
# Poissons Ratio (x) = 0.16242 0.50179
# Poissons Ratio (y) = 0.85803 0.25110
# Poissons Ratio (z) = 0.56283 0.05331
#
# Static dielectric constant tensor:
#      x y z
#    x 3.703880 0.000000 -0.013190 
#    y 0.000000 3.014240 0.000000 
#    z -0.013190 0.000000 3.615540 
# 
# 
# High freq. dielectric constant tensor:
#      x y z
#    x 1.732200 0.000000 -0.002360 
#    y 0.000000 1.676870 0.000000 
#    z -0.002360 0.000000 1.717530 
# 
# From -- ./inp_files/267613.got.cif
#   From: 2010.06.25/outbox.cif.g09.slc.cpg/sg12_134_cif.got.tgz:267613.got - 2010.06.28 00:19:55.
