data_PCOD8092651
_publ_section_title
;
Structure prediction by ZEFSAII (Michael W. Deem and Ramdas Pophale) SiO2 
 PCOD8092651
Probable space group: C 2/M
;
_chemical_formula_sum "Si O2"
_cell_formula_units_Z 64
_cell_length_a 20.165109
_cell_length_b 8.631220
_cell_length_c 19.005470
_cell_angle_alpha 90.000000
_cell_angle_beta 80.116696
_cell_angle_gamma 90.000000
_cell_volume 3258.801241
_symmetry_space_group_name_H-M "C 2/M"
_symmetry_group_IT_number 12
_symmetry_cell_setting 'monoclinic'
loop_
_space_group_symop_operation_xyz
x,y,z
-x,y,-z
-x,-y,-z
x,-y,z
1/2+x,1/2+y,z
1/2-x,1/2+y,-z
1/2-x,1/2-y,-z
1/2+x,1/2-y,z
loop_
_atom_site_type_symbol
_atom_site_label
_atom_site_fract_x
_atom_site_fract_y
_atom_site_fract_z
Si Si1 0.956883 0.178303 0.596485
Si Si2 0.304493 0.816715 0.129227
Si Si3 0.077089 0.317455 0.991546
Si Si4 0.262773 0.321751 0.277726
Si Si5 0.131481 0.826420 0.261317
Si Si6 0.089866 0.680118 0.524939
Si Si7 0.341166 0.676401 0.898008
Si Si8 0.790933 0.182024 0.427426
O O1 0.935499 0.201873 0.681080
O O2 0.898450 0.231572 0.552169
O O3 0.015079 0.299252 0.568028
O O4 0.977656 0.000000 0.578369
O O5 0.372681 0.754685 0.079043
O O6 0.307320 0.761436 0.209530
O O7 0.235560 0.759601 0.101559
O O8 0.301754 0.000000 0.129395
O O9 0.070994 0.500000 0.986721
O O10 0.115192 0.277808 0.056708
O O11 0.000000 0.248030 0.000000
O O12 0.283700 0.500000 0.273027
O O13 0.184843 0.302198 0.273464
O O14 0.272492 0.250092 0.353851
O O15 0.115792 0.812350 0.181800
O O16 0.160113 0.000000 0.272049
O O17 0.108716 0.500000 0.513627
O O18 0.132890 0.766741 0.575846
O O19 0.337919 0.500000 0.926258
O O20 0.750000 0.250000 0.500000
O O21 0.780305 0.000000 0.429502
#
# Coordination Sequence:
#
# PCOD8092651 Si02
#       8
#     8   8   8   8   8   8   8   8
#     4  10  19  35  57  77 105 144 181 225 278 326
#     4   9  19  37  59  80 110 148 185 228 275 335
#     4  10  21  37  56  82 115 147 180 224 279 333
#     4  10  21  35  55  83 110 138 181 231 272 320
#     4   9  19  35  56  81 109 141 176 219 272 327
#     4  11  22  35  52  77 107 141 185 230 272 329
#     4   9  18  34  56  83 109 140 185 225 267 325
#     4  11  23  38  55  79 110 144 184 230 280 331
#
# _framework density 19.639123999999999
#
# number of rings (size 3 to 8) (size 9 to 14) (size 15 to 20)
#    0.000    2.125    0.000    4.875    0.000    7.750 
#    2.250    0.000    0.000    0.000    0.000    0.000 
#    0.000    0.000    0.000    0.000    0.000    0.000 
#
# Total GULP energy -396532.792432 kJ/mol
# GULP energy per Si atom -12391.649764 kJ/mol
# Density = 1.959442 g / cm^3
# Si number density = 19.639124 Si / 1000 Ang^3
#
#
#
# Elastic Constant Matrix: (Units=GPa)
#
#
# Indices 1 2 3 4 5 6 
#
# 1 92.2138 14.2442 65.5682 0.0000 -7.3814 0.0000
# 2 14.2442 33.2555 27.2660 0.0000 -1.0456 0.0000
# 3 65.5682 27.2660 152.9655 0.0000 -11.5168 0.0000
# 4 0.0000 0.0000 0.0000 29.3900 0.0000 3.3396
# 5 -7.3814 -1.0456 -11.5168 0.0000 34.2640 0.0000
# 6 0.0000 0.0000 0.0000 3.3396 0.0000 24.0049
#
#
#
# Elastic Compliance Matrix: (Units=1/GPa)
#
#
# Indices 1 2 3 4 5 6 
#
# 1 0.015702 -0.001456 -0.006381 0.000000 0.001193 0.000000
# 2 -0.001456 0.035390 -0.005772 0.000000 -0.001174 0.000000
# 3 -0.006381 -0.005772 0.010449 0.000000 0.001961 0.000000
# 4 0.000000 0.000000 0.000000 0.034572 0.000000 -0.004810
# 5 0.001193 -0.001174 0.001961 0.000000 0.030066 0.000000
# 6 0.000000 0.000000 0.000000 -0.004810 0.000000 0.042327
#
#
# Mechanical properties :
#
#
# Convention : Reuss Voigt Hill
#
# Bulk Modulus (GPa) = 29.13615 54.73240 41.93428
# Shear Modulus (GPa) = 24.13522 28.95556 26.54539
#
# Velocity S-wave (km/s) = 3.50942 3.84393 3.68048
# Velocity P-wave (km/s) = 5.59369 6.90150 6.28172
#
# Compressibility (1/GPa) = 0.03432162
#
# Stress axis : x y z
#
# Youngs Moduli (GPa) = 63.68534 28.25673 95.69978
#
# Poissons Ratio (x) = 0.04115 0.61069
# Poissons Ratio (y) = 0.09273 0.55242
# Poissons Ratio (z) = 0.40639 0.16311
#
# Static dielectric constant tensor:
#      x y z
#    x 3.917340 0.000000 0.260230 
#    y 0.000000 3.436000 0.000000 
#    z 0.260230 0.000000 4.308350 
# 
# 
# High freq. dielectric constant tensor:
#      x y z
#    x 1.747990 0.000000 -0.008810 
#    y 0.000000 1.756080 0.000000 
#    z -0.008810 0.000000 1.775890 
# 
# From -- ./inp_files/281281.got.cif
#   From: 2010.06.25/outbox.cif.g09.slc.cpg/sg12_141_cif.got.tgz:281281.got - 2010.06.28 00:19:55.
