data_PCOD8092665
_publ_section_title
;
Structure prediction by ZEFSAII (Michael W. Deem and Ramdas Pophale) SiO2 
 PCOD8092665
Probable space group: C 2/M
;
_chemical_formula_sum "Si O2"
_cell_formula_units_Z 64
_cell_length_a 25.295921
_cell_length_b 9.538940
_cell_length_c 14.343991
_cell_angle_alpha 90.000000
_cell_angle_beta 82.072333
_cell_angle_gamma 90.000000
_cell_volume 3428.073264
_symmetry_space_group_name_H-M "C 2/M"
_symmetry_group_IT_number 12
_symmetry_cell_setting 'monoclinic'
loop_
_space_group_symop_operation_xyz
x,y,z
-x,y,-z
-x,-y,-z
x,-y,z
1/2+x,1/2+y,z
1/2-x,1/2+y,-z
1/2-x,1/2-y,-z
1/2+x,1/2-y,z
loop_
_atom_site_type_symbol
_atom_site_label
_atom_site_fract_x
_atom_site_fract_y
_atom_site_fract_z
Si Si1 0.825644 0.336204 0.926177
Si Si2 0.854582 0.835495 0.272019
Si Si3 0.888684 0.844955 0.589025
Si Si4 0.590083 0.338240 0.204758
Si Si5 0.199614 0.844063 0.526649
Si Si6 0.046436 0.349842 0.556290
Si Si7 0.209997 0.836588 0.889153
Si Si8 0.527755 0.338531 0.729517
O O1 0.837380 0.500000 0.941006
O O2 0.877487 0.265309 0.868912
O O3 0.774097 0.316892 0.871726
O O4 0.815635 0.259639 0.025753
O O5 0.837522 0.781898 0.379519
O O6 0.814782 0.778750 0.201716
O O7 0.916510 0.791905 0.234404
O O8 0.850558 0.000000 0.271067
O O9 0.894994 0.793939 0.693276
O O10 0.827889 0.852200 0.568383
O O11 0.910367 0.736130 0.509965
O O12 0.915454 0.000000 0.573358
O O13 0.606707 0.500000 0.182831
O O14 0.526645 0.317984 0.197385
O O15 0.250000 0.750000 0.500000
O O16 0.217861 0.000000 0.552185
O O17 0.070101 0.500000 0.587594
O O18 0.019864 0.256609 0.642013
O O19 0.000000 0.391317 0.500000
O O20 0.195619 0.000000 0.911476
O O21 0.532225 0.500000 0.696355
#
# Coordination Sequence:
#
# PCOD8092665 Si02
#       8
#     8   8   8   8   8   8   8   8
#     4  10  21  37  59  84 110 139 172 222 280 327
#     4   9  18  35  59  82 106 141 184 226 268 318
#     4  10  20  35  53  74 105 148 189 223 260 312
#     4  10  21  34  55  83 109 142 182 224 269 317
#     4  10  21  35  52  77 112 148 184 224 268 319
#     4  11  21  31  47  74 107 142 182 226 269 310
#     4   9  19  38  62  84 106 137 178 224 272 326
#     4  10  19  35  57  78 106 145 186 224 267 322
#
# _framework density 18.669378999999999
#
# number of rings (size 3 to 8) (size 9 to 14) (size 15 to 20)
#    0.000    2.125    2.500    0.750    1.750    2.500 
#    0.000    1.875    0.000    3.750    0.000    0.000 
#    0.000    0.000    0.000    0.000    0.000    0.000 
#
# Total GULP energy -396467.706132 kJ/mol
# GULP energy per Si atom -12389.615817 kJ/mol
# Density = 1.862689 g / cm^3
# Si number density = 18.669379 Si / 1000 Ang^3
#
#
#
# Elastic Constant Matrix: (Units=GPa)
#
#
# Indices 1 2 3 4 5 6 
#
# 1 111.9536 31.8225 43.6762 0.0000 -6.0972 0.0000
# 2 31.8225 81.1388 23.3391 0.0000 -18.6379 0.0000
# 3 43.6762 23.3391 63.9958 0.0000 -2.7347 0.0000
# 4 0.0000 0.0000 0.0000 15.2277 0.0000 -2.6612
# 5 -6.0972 -18.6379 -2.7347 0.0000 33.3830 0.0000
# 6 0.0000 0.0000 0.0000 -2.6612 0.0000 26.2890
#
#
#
# Elastic Compliance Matrix: (Units=1/GPa)
#
#
# Indices 1 2 3 4 5 6 
#
# 1 0.012713 -0.002743 -0.007669 0.000000 0.000162 0.000000
# 2 -0.002743 0.016396 -0.003751 0.000000 0.008346 0.000000
# 3 -0.007669 -0.003751 0.022156 0.000000 -0.001680 0.000000
# 4 0.000000 0.000000 0.000000 0.066852 0.000000 0.006767
# 5 0.000162 0.008346 -0.001680 0.000000 0.034507 0.000000
# 6 0.000000 0.000000 0.000000 0.006767 0.000000 0.038724
#
#
# Mechanical properties :
#
#
# Convention : Reuss Voigt Hill
#
# Bulk Modulus (GPa) = 43.59298 50.52933 47.06115
# Shear Modulus (GPa) = 21.99536 25.52996 23.76266
#
# Velocity S-wave (km/s) = 3.43615 3.70195 3.57152
# Velocity P-wave (km/s) = 6.25647 6.73771 6.50155
#
# Compressibility (1/GPa) = 0.02293947
#
# Stress axis : x y z
#
# Youngs Moduli (GPa) = 78.66226 60.98923 45.13395
#
# Poissons Ratio (x) = 0.16727 0.34613
# Poissons Ratio (y) = 0.21574 0.16931
# Poissons Ratio (z) = 0.60326 0.22879
#
# Static dielectric constant tensor:
#      x y z
#    x 3.511700 0.000000 0.070740 
#    y 0.000000 3.432640 0.000000 
#    z 0.070740 0.000000 3.247550 
# 
# 
# High freq. dielectric constant tensor:
#      x y z
#    x 1.729160 0.000000 0.003370 
#    y 0.000000 1.719460 0.000000 
#    z 0.003370 0.000000 1.697650 
# 
# From -- ./inp_files/243988.got.cif
#   From: 2010.06.25/outbox.cif.g09.slc.cpg/sg12_122_cif.got.tgz:243988.got - 2010.06.28 00:19:55.
