data_PCOD8092964
_publ_section_title
;
Structure prediction by ZEFSAII (Michael W. Deem and Ramdas Pophale) SiO2 
 PCOD8092964
Probable space group: C 2/M
;
_chemical_formula_sum "Si O2"
_cell_formula_units_Z 48
_cell_length_a 26.523184
_cell_length_b 9.108820
_cell_length_c 20.047213
_cell_angle_alpha 90.000000
_cell_angle_beta 30.004875
_cell_angle_gamma 90.000000
_cell_volume 2422.009172
_symmetry_space_group_name_H-M "C 2/M"
_symmetry_group_IT_number 12
_symmetry_cell_setting 'monoclinic'
loop_
_space_group_symop_operation_xyz
x,y,z
-x,y,-z
-x,-y,-z
x,-y,z
1/2+x,1/2+y,z
1/2-x,1/2+y,-z
1/2-x,1/2-y,-z
1/2+x,1/2-y,z
loop_
_atom_site_type_symbol
_atom_site_label
_atom_site_fract_x
_atom_site_fract_y
_atom_site_fract_z
Si Si1 0.217068 0.161427 0.853745
Si Si2 0.028940 0.828732 0.639373
Si Si3 0.176516 0.662472 0.129245
Si Si4 0.853829 0.171280 0.360979
Si Si5 0.499640 0.325707 0.923087
Si Si6 0.405788 0.824155 0.561708
O O1 0.264805 0.144092 0.870297
O O2 0.301380 0.238892 0.711624
O O3 0.197136 0.000000 0.845610
O O4 0.107309 0.239241 0.981942
O O5 0.067214 0.799773 0.670087
O O6 0.098796 0.748575 0.505568
O O7 0.921527 0.758063 0.750627
O O8 0.023060 0.000000 0.630063
O O9 0.150120 0.500000 0.131432
O O10 0.250000 0.750000 0.000000
O O11 0.750000 0.250000 0.500000
O O12 0.907544 0.232185 0.230652
O O13 0.828587 0.000000 0.382733
O O14 0.504819 0.500000 0.910604
O O15 0.500000 0.274055 0.000000
O O16 0.500000 0.773170 0.500000
O O17 0.408066 0.000000 0.552921
#
# Coordination Sequence:
#
# PCOD8092964 Si02
#       6
#     8   8   8   8   8   8
#     4   9  18  33  54  81 117 150 187 242 294 345
#     4  11  23  38  56  84 122 157 191 243 306 367
#     4  11  21  36  57  83 115 154 196 244 300 362
#     4  10  23  41  61  87 119 154 199 253 307 360
#     4   9  18  34  58  87 112 145 196 247 294 348
#     4  10  19  35  58  87 116 151 199 245 291 352
#
# _framework density 19.818258
#
# number of rings (size 3 to 8) (size 9 to 14) (size 15 to 20)
#    0.000    2.000    1.667    2.000    2.333    4.333 
#    0.000    0.000    0.000    1.500    0.000    0.000 
#    0.000    0.000    0.000    0.000    0.000    0.000 
#
# Total GULP energy -297324.995099 kJ/mol
# GULP energy per Si atom -12388.541462 kJ/mol
# Density = 1.977315 g / cm^3
# Si number density = 19.818258 Si / 1000 Ang^3
#
#
#
# Elastic Constant Matrix: (Units=GPa)
#
#
# Indices 1 2 3 4 5 6 
#
# 1 81.7102 27.3291 57.1654 -0.0068 5.6603 0.0007
# 2 27.3291 37.7482 37.2802 0.0010 6.2439 0.0002
# 3 57.1654 37.2802 191.5248 -0.0070 10.6905 -0.0001
# 4 -0.0068 0.0010 -0.0070 22.4571 0.0021 2.4175
# 5 5.6603 6.2439 10.6905 0.0021 43.1558 0.0003
# 6 0.0007 0.0002 -0.0001 2.4175 0.0003 23.1539
#
#
#
# Elastic Compliance Matrix: (Units=1/GPa)
#
#
# Indices 1 2 3 4 5 6 
#
# 1 0.017845 -0.009467 -0.003477 0.000005 -0.000109 -0.000001
# 2 -0.009467 0.038262 -0.004444 -0.000006 -0.003193 0.000001
# 3 -0.003477 -0.004444 0.007162 0.000001 -0.000675 0.000000
# 4 0.000005 -0.000006 0.000001 0.045036 -0.000002 -0.004702
# 5 -0.000109 -0.003193 -0.000675 -0.000002 0.023815 0.000000
# 6 -0.000001 0.000001 0.000000 -0.004702 0.000000 0.043680
#
#
# Mechanical properties :
#
#
# Convention : Reuss Voigt Hill
#
# Bulk Modulus (GPa) = 35.09692 61.61472 48.35582
# Shear Modulus (GPa) = 22.71951 30.36726 26.54339
#
# Velocity S-wave (km/s) = 3.38952 3.91869 3.66367
# Velocity P-wave (km/s) = 5.75033 7.18556 6.50763
#
# Compressibility (1/GPa) = 0.02849253
#
# Stress axis : x y z
#
# Youngs Moduli (GPa) = 56.03722 26.13536 139.62875
#
# Poissons Ratio (x) = 0.24743 0.48555
# Poissons Ratio (y) = 0.53052 0.62048
# Poissons Ratio (z) = 0.19487 0.11614
#
# Static dielectric constant tensor:
#      x y z
#    x 3.676030 -0.000030 0.067880 
#    y -0.000030 2.999020 0.000010 
#    z 0.067880 0.000010 4.019270 
# 
# 
# High freq. dielectric constant tensor:
#      x y z
#    x 1.773840 0.000000 0.003330 
#    y 0.000000 1.729420 0.000000 
#    z 0.003330 0.000000 1.798300 
# 
# From -- ./inp_files/327164.got.cif
#   From: 2010.06.25/outbox.cif.g09.slc.cpg/sg12_164_cif.got.tgz:327164.got - 2010.06.28 00:19:55.
