data_PCOD8092926
_publ_section_title
;
Structure prediction by ZEFSAII (Michael W. Deem and Ramdas Pophale) SiO2 
 PCOD8092926
Probable space group: C 2/M
;
_chemical_formula_sum "Si O2"
_cell_formula_units_Z 56
_cell_length_a 15.203588
_cell_length_b 14.403550
_cell_length_c 13.563108
_cell_angle_alpha 90.000000
_cell_angle_beta 72.563804
_cell_angle_gamma 90.000000
_cell_volume 2833.652231
_symmetry_space_group_name_H-M "C 2/M"
_symmetry_group_IT_number 12
_symmetry_cell_setting 'monoclinic'
loop_
_space_group_symop_operation_xyz
x,y,z
-x,y,-z
-x,-y,-z
x,-y,z
1/2+x,1/2+y,z
1/2-x,1/2+y,-z
1/2-x,1/2-y,-z
1/2+x,1/2-y,z
loop_
_atom_site_type_symbol
_atom_site_label
_atom_site_fract_x
_atom_site_fract_y
_atom_site_fract_z
Si Si1 0.272025 0.893627 0.916478
Si Si2 0.578564 0.102213 0.285592
Si Si3 0.406845 0.699156 0.094881
Si Si4 0.814075 0.601159 0.556442
Si Si5 0.394807 0.899735 0.067537
Si Si6 0.444067 0.767274 0.418309
Si Si7 0.886703 0.107029 0.307405
O O1 0.340444 0.855516 0.808707
O O2 0.177484 0.835524 0.945492
O O3 0.246144 0.000000 0.901679
O O4 0.324475 0.883260 0.001468
O O5 0.607108 0.091766 0.388945
O O6 0.493139 0.172444 0.315929
O O7 0.549279 0.000000 0.254133
O O8 0.386804 0.806446 0.135860
O O9 0.417908 0.637781 0.188446
O O10 0.500000 0.691938 0.000000
O O11 0.804675 0.500000 0.505849
O O12 0.845310 0.682021 0.470570
O O13 0.721481 0.626256 0.645269
O O14 0.369280 0.000000 0.127270
O O15 0.500000 0.907708 0.000000
O O16 0.500000 0.755505 0.500000
O O17 0.434989 0.664521 0.377821
O O18 0.913845 0.000000 0.312727
#
# Coordination Sequence:
#
# PCOD8092926 Si02
#       7
#     8   8   8   8   8   8   8
#     4  10  19  35  58  84 116 155 192 238 292 339
#     4   9  17  31  57  87 113 138 181 237 291 342
#     4  11  23  38  61  85 114 157 204 247 281 337
#     4   9  17  35  59  85 114 140 179 237 292 341
#     4   9  20  37  57  84 116 150 188 236 295 350
#     4  10  21  35  57  87 114 147 186 234 292 355
#     4  11  23  39  58  81 115 155 195 238 286 341
#
# _framework density 19.762483
#
# number of rings (size 3 to 8) (size 9 to 14) (size 15 to 20)
#    0.000    2.143    1.429    1.714    4.000    3.143 
#    0.000    0.714    0.000    0.857    0.000    0.000 
#    0.000    0.000    0.000    0.000    0.000    0.000 
#
# Total GULP energy -346943.901250 kJ/mol
# GULP energy per Si atom -12390.853616 kJ/mol
# Density = 1.971750 g / cm^3
# Si number density = 19.762483 Si / 1000 Ang^3
#
#
#
# Elastic Constant Matrix: (Units=GPa)
#
#
# Indices 1 2 3 4 5 6 
#
# 1 61.1760 43.1333 39.2817 0.0000 -10.2243 0.0000
# 2 43.1333 152.3130 52.7199 0.0000 -16.0404 0.0000
# 3 39.2817 52.7199 67.1281 0.0000 -17.9823 0.0000
# 4 0.0000 0.0000 0.0000 29.7551 0.0000 4.4651
# 5 -10.2243 -16.0404 -17.9823 0.0000 27.2976 0.0000
# 6 0.0000 0.0000 0.0000 4.4651 0.0000 17.2860
#
#
#
# Elastic Compliance Matrix: (Units=1/GPa)
#
#
# Indices 1 2 3 4 5 6 
#
# 1 0.027161 -0.003019 -0.013689 0.000000 -0.000618 0.000000
# 2 -0.003019 0.009365 -0.005364 0.000000 0.000839 0.000000
# 3 -0.013689 -0.005364 0.030238 0.000000 0.011640 0.000000
# 4 0.000000 0.000000 0.000000 0.034963 0.000000 -0.009031
# 5 -0.000618 0.000839 0.011640 0.000000 0.044563 0.000000
# 6 0.000000 0.000000 0.000000 -0.009031 0.000000 0.060183
#
#
# Mechanical properties :
#
#
# Convention : Reuss Voigt Hill
#
# Bulk Modulus (GPa) = 44.20557 61.20964 52.70760
# Shear Modulus (GPa) = 19.36811 24.56657 21.96734
#
# Velocity S-wave (km/s) = 3.13396 3.52957 3.33764
# Velocity P-wave (km/s) = 5.95925 6.90293 6.44837
#
# Compressibility (1/GPa) = 0.02262159
#
# Stress axis : x y z
#
# Youngs Moduli (GPa) = 36.81738 106.77783 33.07098
#
# Poissons Ratio (x) = 0.32233 0.45270
# Poissons Ratio (y) = 0.11114 0.17739
# Poissons Ratio (z) = 0.50399 0.57274
#
# Static dielectric constant tensor:
#      x y z
#    x 3.539320 0.000000 -0.099420 
#    y 0.000000 4.042940 0.000000 
#    z -0.099420 0.000000 3.288840 
# 
# 
# High freq. dielectric constant tensor:
#      x y z
#    x 1.761300 0.000000 -0.004890 
#    y 0.000000 1.782840 0.000000 
#    z -0.004890 0.000000 1.743270 
# 
# From -- ./inp_files/214202.got.cif
#   From: 2010.06.25/outbox.cif.g09.slc.cpg/sg12_108_cif.got.tgz:214202.got - 2010.06.28 00:19:55.
