data_PCOD8092677
_publ_section_title
;
Structure prediction by ZEFSAII (Michael W. Deem and Ramdas Pophale) SiO2 
 PCOD8092677
Probable space group: C 2/M
;
_chemical_formula_sum "Si O2"
_cell_formula_units_Z 44
_cell_length_a 14.246682
_cell_length_b 10.350769
_cell_length_c 17.859321
_cell_angle_alpha 90.000000
_cell_angle_beta 65.954676
_cell_angle_gamma 90.000000
_cell_volume 2405.073381
_symmetry_space_group_name_H-M "C 2/M"
_symmetry_group_IT_number 12
_symmetry_cell_setting 'monoclinic'
loop_
_space_group_symop_operation_xyz
x,y,z
-x,y,-z
-x,-y,-z
x,-y,z
1/2+x,1/2+y,z
1/2-x,1/2+y,-z
1/2-x,1/2-y,-z
1/2+x,1/2-y,z
loop_
_atom_site_type_symbol
_atom_site_label
_atom_site_fract_x
_atom_site_fract_y
_atom_site_fract_z
Si Si1 0.000000 0.216941 0.000000
Si Si2 0.445585 0.851348 0.589487
Si Si3 0.900643 0.648182 0.891787
Si Si4 0.785079 0.848489 0.300855
Si Si5 0.449170 0.848877 0.294433
Si Si6 0.790313 0.143932 0.131726
O O1 0.057049 0.298073 0.044636
O O2 0.908019 0.134596 0.065805
O O3 0.500000 0.782633 0.500000
O O4 0.324318 0.831290 0.624495
O O5 0.486847 0.799241 0.654993
O O6 0.476037 0.000000 0.577699
O O7 0.882288 0.500000 0.915239
O O8 0.790519 0.711042 0.900305
O O9 0.983087 0.673672 0.800822
O O10 0.855374 0.750598 0.324013
O O11 0.784192 0.793432 0.215941
O O12 0.821162 0.000000 0.292414
O O13 0.414439 0.000000 0.310705
O O14 0.746694 0.000000 0.156863
#
# Coordination Sequence:
#
# PCOD8092677 Si02
#       6
#     4   8   8   8   8   8
#     4  12  20  32  52  76 102 132 176 232 258 306
#     4   9  18  34  59  84 105 139 183 215 253 323
#     4  10  20  34  51  73 102 140 179 216 261 312
#     4  10  19  35  57  79 107 141 178 219 264 314
#     4  10  19  35  57  79 107 141 178 219 264 314
#     4  10  20  34  51  73 102 140 179 216 261 312
#
# _framework density 18.29466
#
# number of rings (size 3 to 8) (size 9 to 14) (size 15 to 20)
#    0.000    2.000    3.636    1.091    0.000    0.727 
#    0.000    0.909    0.000    3.273    0.000    0.000 
#    0.000    0.000    0.000    0.000    0.000    0.000 
#
# Total GULP energy -272571.592655 kJ/mol
# GULP energy per Si atom -12389.617848 kJ/mol
# Density = 1.825302 g / cm^3
# Si number density = 18.294660 Si / 1000 Ang^3
#
#
#
# Elastic Constant Matrix: (Units=GPa)
#
#
# Indices 1 2 3 4 5 6 
#
# 1 95.1981 30.8853 9.0332 0.0000 -8.1643 0.0000
# 2 30.8853 47.3848 7.2245 0.0000 -1.9172 0.0000
# 3 9.0332 7.2245 70.6225 0.0000 -12.9388 0.0000
# 4 0.0000 0.0000 0.0000 19.8811 0.0000 0.3197
# 5 -8.1643 -1.9172 -12.9388 0.0000 25.5429 0.0000
# 6 0.0000 0.0000 0.0000 0.3197 0.0000 28.3670
#
#
#
# Elastic Compliance Matrix: (Units=1/GPa)
#
#
# Indices 1 2 3 4 5 6 
#
# 1 0.013665 -0.008732 -0.000192 0.000000 0.003615 0.000000
# 2 -0.008732 0.027024 -0.001970 0.000000 -0.001761 0.000000
# 3 -0.000192 -0.001970 0.015815 0.000000 0.007802 0.000000
# 4 0.000000 0.000000 0.000000 0.050308 0.000000 -0.000567
# 5 0.003615 -0.001761 0.007802 0.000000 0.044125 0.000000
# 6 0.000000 0.000000 0.000000 -0.000567 0.000000 0.035259
#
#
# Mechanical properties :
#
#
# Convention : Reuss Voigt Hill
#
# Bulk Modulus (GPa) = 28.80456 34.16570 31.48513
# Shear Modulus (GPa) = 22.77306 25.82901 24.30104
#
# Velocity S-wave (km/s) = 3.53199 3.76151 3.64856
# Velocity P-wave (km/s) = 5.69317 6.13034 5.91580
#
# Compressibility (1/GPa) = 0.03471672
#
# Stress axis : x y z
#
# Youngs Moduli (GPa) = 73.17701 37.00389 63.22971
#
# Poissons Ratio (x) = 0.32310 0.01216
# Poissons Ratio (y) = 0.63895 0.12458
# Poissons Ratio (z) = 0.01408 0.07291
#
# Static dielectric constant tensor:
#      x y z
#    x 3.572550 0.000000 0.120210 
#    y 0.000000 2.983900 0.000000 
#    z 0.120210 0.000000 3.517060 
# 
# 
# High freq. dielectric constant tensor:
#      x y z
#    x 1.722850 0.000000 0.003330 
#    y 0.000000 1.663650 0.000000 
#    z 0.003330 0.000000 1.718870 
# 
# From -- ./inp_files/203395.got.cif
#   From: 2010.06.25/outbox.cif.g09.slc.cpg/sg12_102_cif.got.tgz:203395.got - 2010.06.28 00:19:55.
