data_PCOD8092349
_publ_section_title
;
Structure prediction by ZEFSAII (Michael W. Deem and Ramdas Pophale) SiO2 
 PCOD8092349
Probable space group: C 2/M
;
_chemical_formula_sum "Si O2"
_cell_formula_units_Z 64
_cell_length_a 26.851525
_cell_length_b 20.077509
_cell_length_c 9.175202
_cell_angle_alpha 90.000000
_cell_angle_beta 134.613065
_cell_angle_gamma 90.000000
_cell_volume 3521.215622
_symmetry_space_group_name_H-M "C 2/M"
_symmetry_group_IT_number 12
_symmetry_cell_setting 'monoclinic'
loop_
_space_group_symop_operation_xyz
x,y,z
-x,y,-z
-x,-y,-z
x,-y,z
1/2+x,1/2+y,z
1/2-x,1/2+y,-z
1/2-x,1/2-y,-z
1/2+x,1/2-y,z
loop_
_atom_site_type_symbol
_atom_site_label
_atom_site_fract_x
_atom_site_fract_y
_atom_site_fract_z
Si Si1 0.016246 0.299536 0.692655
Si Si2 0.257841 0.924935 0.081635
Si Si3 0.746792 0.645395 0.344585
Si Si4 0.617452 0.260781 0.118963
Si Si5 0.711357 0.304655 0.820949
Si Si6 0.617408 0.233572 0.433380
Si Si7 0.701146 0.136412 0.250263
Si Si8 0.113649 0.574008 0.846618
O O1 0.054505 0.370370 0.744386
O O2 0.000000 0.269161 0.500000
O O3 0.945778 0.313382 0.640747
O O4 0.058754 0.243367 0.871754
O O5 0.249746 0.915291 0.237665
O O6 0.338268 0.910614 0.196491
O O7 0.236366 0.000000 0.995889
O O8 0.204670 0.873901 0.894582
O O9 0.674756 0.686280 0.184192
O O10 0.810777 0.694019 0.441986
O O11 0.752384 0.612588 0.517186
O O12 0.593881 0.275118 0.238988
O O13 0.641662 0.184658 0.190007
O O14 0.634749 0.282796 0.606194
O O15 0.756510 0.315896 0.769692
O O16 0.750000 0.250000 0.000000
O O17 0.666178 0.074608 0.094089
O O18 0.079964 0.500000 0.767634
#
# Coordination Sequence:
#
# PCOD8092349 Si02
#       8
#     8   8   8   8   8   8   8   8
#     4  11  24  33  51  80 112 149 194 238 280 336
#     4  10  21  33  53  83 118 146 184 238 285 336
#     4  11  18  33  57  79 107 143 187 237 298 340
#     4  10  19  35  51  78 110 139 180 242 298 333
#     4  11  18  31  57  83 108 143 188 238 292 345
#     4  11  20  33  54  82 108 146 187 240 284 335
#     4   9  17  30  53  80 101 137 189 235 279 330
#     4   9  20  38  52  71 113 163 198 226 268 332
#
# _framework density 18.175542
#
# number of rings (size 3 to 8) (size 9 to 14) (size 15 to 20)
#    0.000    1.750    3.750    1.875    5.250    0.750 
#    0.000    0.625    0.000    9.750    0.000    1.750 
#    0.000    2.000    0.000    0.000    0.000    0.000 
#
# Total GULP energy -396417.555529 kJ/mol
# GULP energy per Si atom -12388.048610 kJ/mol
# Density = 1.813417 g / cm^3
# Si number density = 18.175542 Si / 1000 Ang^3
#
#
#
# Elastic Constant Matrix: (Units=GPa)
#
#
# Indices 1 2 3 4 5 6 
#
# 1 97.1786 37.6143 46.4221 0.0000 -12.1461 0.0000
# 2 37.6143 77.4500 39.2887 0.0000 -5.4193 0.0000
# 3 46.4221 39.2887 128.1361 0.0000 -23.4469 0.0000
# 4 0.0000 0.0000 0.0000 17.9988 0.0000 1.8026
# 5 -12.1461 -5.4193 -23.4469 0.0000 32.2240 0.0000
# 6 0.0000 0.0000 0.0000 1.8026 0.0000 22.1607
#
#
#
# Elastic Compliance Matrix: (Units=1/GPa)
#
#
# Indices 1 2 3 4 5 6 
#
# 1 0.014017 -0.005069 -0.003130 0.000000 0.002153 0.000000
# 2 -0.005069 0.017149 -0.003742 0.000000 -0.001749 0.000000
# 3 -0.003130 -0.003742 0.011253 0.000000 0.006379 0.000000
# 4 0.000000 0.000000 0.000000 0.056015 0.000000 -0.004556
# 5 0.002153 -0.001749 0.006379 0.000000 0.036192 0.000000
# 6 0.000000 0.000000 0.000000 -0.004556 0.000000 0.045496
#
#
# Mechanical properties :
#
#
# Convention : Reuss Voigt Hill
#
# Bulk Modulus (GPa) = 53.94578 61.04612 57.49595
# Shear Modulus (GPa) = 23.78902 26.43934 25.11418
#
# Velocity S-wave (km/s) = 3.62173 3.81815 3.72123
# Velocity P-wave (km/s) = 6.87270 7.28681 7.08278
#
# Compressibility (1/GPa) = 0.01853713
#
# Stress axis : x y z
#
# Youngs Moduli (GPa) = 71.34411 58.31211 88.86847
#
# Poissons Ratio (x) = 0.29558 0.27814
# Poissons Ratio (y) = 0.36164 0.33253
# Poissons Ratio (z) = 0.22329 0.21820
#
# Static dielectric constant tensor:
#      x y z
#    x 3.464490 0.000000 -0.389200 
#    y 0.000000 3.016540 0.000000 
#    z -0.389200 0.000000 3.832580 
# 
# 
# High freq. dielectric constant tensor:
#      x y z
#    x 1.700610 0.000000 -0.029490 
#    y 0.000000 1.660540 0.000000 
#    z -0.029490 0.000000 1.710160 
# 
# From -- ./inp_files/99127.got.cif
#   From: 2010.06.25/outbox.cif.g09.slc.cpg/sg12_50_cif.got.tgz:99127.got - 2010.06.28 00:19:55.
