data_PCOD8092149
_publ_section_title
;
Structure prediction by ZEFSAII (Michael W. Deem and Ramdas Pophale) SiO2 
 PCOD8092149
Probable space group: C 2/M
;
_chemical_formula_sum "Si O2"
_cell_formula_units_Z 40
_cell_length_a 7.825692
_cell_length_b 29.211723
_cell_length_c 9.108853
_cell_angle_alpha 90.000000
_cell_angle_beta 122.730985
_cell_angle_gamma 90.000000
_cell_volume 1751.670575
_symmetry_space_group_name_H-M "C 2/M"
_symmetry_group_IT_number 12
_symmetry_cell_setting 'monoclinic'
loop_
_space_group_symop_operation_xyz
x,y,z
-x,y,-z
-x,-y,-z
x,-y,z
1/2+x,1/2+y,z
1/2-x,1/2+y,-z
1/2-x,1/2-y,-z
1/2+x,1/2-y,z
loop_
_atom_site_type_symbol
_atom_site_label
_atom_site_fract_x
_atom_site_fract_y
_atom_site_fract_z
Si Si1 0.721583 0.705060 0.175194
Si Si2 0.466536 0.708381 0.315091
Si Si3 0.578267 0.888983 0.801810
Si Si4 0.701002 0.608614 0.795803
Si Si5 0.619356 0.552070 0.208757
O O1 0.683736 0.707471 0.333557
O O2 0.827570 0.752227 0.175646
O O3 0.875790 0.663935 0.212367
O O4 0.500000 0.696807 0.000000
O O5 0.500000 0.718066 0.500000
O O6 0.355616 0.661322 0.231971
O O7 0.336662 0.899090 0.711093
O O8 0.667554 0.921141 0.714422
O O9 0.674070 0.902487 0.001095
O O10 0.503436 0.575805 0.713349
O O11 0.663587 0.500000 0.273854
O O12 0.500000 0.555650 0.000000
#
# Coordination Sequence:
#
# PCOD8092149 Si02
#       5
#     8   8   8   8   8
#     4  12  22  39  60  84 120 162 208 245 291 355
#     4  12  25  38  56  87 126 160 199 250 301 351
#     4  10  19  34  59  87 114 154 203 247 287 354
#     4  10  20  35  56  85 119 154 197 243 298 355
#     4   9  17  33  56  86 121 151 191 253 305 345
#
# _framework density 22.835342000000001
#
# number of rings (size 3 to 8) (size 9 to 14) (size 15 to 20)
#    0.000    1.400    4.000    3.000    2.800    0.800 
#    0.000    4.000    0.000    0.600    0.000    1.400 
#    0.000    0.000    0.000    0.000    0.000    0.000 
#
# Total GULP energy -247900.751891 kJ/mol
# GULP energy per Si atom -12395.037595 kJ/mol
# Density = 2.278337 g / cm^3
# Si number density = 22.835342 Si / 1000 Ang^3
#
#
#
# Elastic Constant Matrix: (Units=GPa)
#
#
# Indices 1 2 3 4 5 6 
#
# 1 217.9844 103.8734 4.2495 0.0000 -20.7688 0.0000
# 2 103.8734 195.1375 -2.8788 0.0000 -0.9820 0.0000
# 3 4.2495 -2.8788 32.0566 0.0000 -12.6267 0.0000
# 4 0.0000 0.0000 0.0000 -14.1830 0.0000 -13.6300
# 5 -20.7688 -0.9820 -12.6267 0.0000 13.2237 0.0000
# 6 0.0000 0.0000 0.0000 -13.6300 0.0000 34.4201
#
#
#
# Elastic Compliance Matrix: (Units=1/GPa)
#
#
# Indices 1 2 3 4 5 6 
#
# 1 0.008168 -0.004176 0.005567 0.000000 0.017834 0.000000
# 2 -0.004176 0.007281 -0.001864 0.000000 -0.007798 0.000000
# 3 0.005567 -0.001864 0.053981 0.000000 0.060148 0.000000
# 4 0.000000 0.000000 0.000000 -0.051072 0.000000 -0.020224
# 5 0.017834 -0.007798 0.060148 0.000000 0.160483 0.000000
# 6 0.000000 0.000000 0.000000 -0.020224 0.000000 0.021044
#
#
# Mechanical properties :
#
#
# Convention : Reuss Voigt Hill
#
# Bulk Modulus (GPa) = 14.60220 72.85186 43.72703
# Shear Modulus (GPa) = 22.35529 29.35447 25.85488
#
# Velocity S-wave (km/s) = 3.13226 3.58925 3.36851
# Velocity P-wave (km/s) = 4.41473 7.01066 5.85829
#
# Compressibility (1/GPa) = 0.06848282
#
# Stress axis : x y z
#
# Youngs Moduli (GPa) = 122.42825 137.34763 18.52502
#
# Poissons Ratio (x) = 0.57357 -0.10312
# Poissons Ratio (y) = 0.51127 0.03453
# Poissons Ratio (z) = -0.68151 0.25603
#
# Static dielectric constant tensor:
#      x y z
#    x 4.980420 0.000000 -0.426540 
#    y 0.000000 3.986600 0.000000 
#    z -0.426540 0.000000 3.650810 
# 
# 
# High freq. dielectric constant tensor:
#      x y z
#    x 1.927150 0.000000 -0.020350 
#    y 0.000000 1.893440 0.000000 
#    z -0.020350 0.000000 1.853220 
# 
# From -- ./inp_files/41876.got.cif
#   From: 2010.06.25/outbox.cif.g09.slc.cpg/sg12_21_cif.got.tgz:41876.got - 2010.06.28 00:19:55.
