data_PCOD8092146
_publ_section_title
;
Structure prediction by ZEFSAII (Michael W. Deem and Ramdas Pophale) SiO2 
 PCOD8092146
Probable space group: C 2/M
;
_chemical_formula_sum "Si O2"
_cell_formula_units_Z 56
_cell_length_a 18.886139
_cell_length_b 8.565794
_cell_length_c 19.886633
_cell_angle_alpha 90.000000
_cell_angle_beta 115.969439
_cell_angle_gamma 90.000000
_cell_volume 2892.312134
_symmetry_space_group_name_H-M "C 2/M"
_symmetry_group_IT_number 12
_symmetry_cell_setting 'monoclinic'
loop_
_space_group_symop_operation_xyz
x,y,z
-x,y,-z
-x,-y,-z
x,-y,z
1/2+x,1/2+y,z
1/2-x,1/2+y,-z
1/2-x,1/2-y,-z
1/2+x,1/2-y,z
loop_
_atom_site_type_symbol
_atom_site_label
_atom_site_fract_x
_atom_site_fract_y
_atom_site_fract_z
Si Si1 0.873360 0.182873 0.258536
Si Si2 0.162210 0.327067 0.309239
Si Si3 0.208467 0.179008 0.196332
Si Si4 0.988792 0.677465 0.202471
Si Si5 0.575834 0.683270 0.571781
Si Si6 0.039482 0.820128 0.083562
Si Si7 0.779429 0.322883 0.444590
O O1 0.793722 0.273716 0.203596
O O2 0.930213 0.212891 0.219393
O O3 0.910168 0.246228 0.345459
O O4 0.856100 0.000000 0.257652
O O5 0.189554 0.500000 0.344558
O O6 0.190184 0.305268 0.245298
O O7 0.202277 0.187826 0.366659
O O8 0.069223 0.311131 0.277820
O O9 0.134533 0.197702 0.114526
O O10 0.211455 0.000000 0.223670
O O11 0.957380 0.500000 0.187945
O O12 0.002628 0.732562 0.132165
O O13 0.500000 0.755181 0.500000
O O14 0.564296 0.500000 0.571863
O O15 0.650980 0.722860 0.558295
O O16 0.016020 0.000000 0.082908
O O17 0.000000 0.749838 0.000000
O O18 0.807466 0.500000 0.465041
O O19 0.750000 0.250000 0.500000
#
# Coordination Sequence:
#
# PCOD8092146 Si02
#       7
#     8   8   8   8   8   8   8
#     4  11  22  37  59  84 118 156 194 242 291 344
#     4  10  20  37  57  81 111 146 189 237 285 337
#     4  10  19  34  59  87 114 149 189 230 282 340
#     4  10  22  37  58  87 119 151 193 240 283 340
#     4  10  23  42  60  83 115 153 196 244 297 346
#     4   9  19  38  63  90 120 152 189 233 284 345
#     4  12  25  39  58  82 112 148 191 242 292 345
#
# _framework density 19.361673
#
# number of rings (size 3 to 8) (size 9 to 14) (size 15 to 20)
#    0.000    1.714    1.429    3.000    2.000    3.429 
#    0.000    0.714    0.000    0.000    0.000    0.000 
#    0.000    0.000    0.000    0.000    0.000    0.000 
#
# Total GULP energy -347002.722521 kJ/mol
# GULP energy per Si atom -12392.954376 kJ/mol
# Density = 1.931760 g / cm^3
# Si number density = 19.361673 Si / 1000 Ang^3
#
#
#
# Elastic Constant Matrix: (Units=GPa)
#
#
# Indices 1 2 3 4 5 6 
#
# 1 116.5648 24.8021 58.1538 0.0000 -0.9808 0.0000
# 2 24.8021 46.7746 23.2884 0.0000 8.8352 0.0000
# 3 58.1538 23.2884 118.2692 0.0000 11.7269 0.0000
# 4 0.0000 0.0000 0.0000 24.1169 0.0000 -0.4128
# 5 -0.9808 8.8352 11.7269 0.0000 25.2251 0.0000
# 6 0.0000 0.0000 0.0000 -0.4128 0.0000 26.0314
#
#
#
# Elastic Compliance Matrix: (Units=1/GPa)
#
#
# Indices 1 2 3 4 5 6 
#
# 1 0.012441 -0.004673 -0.005669 0.000000 0.004756 0.000000
# 2 -0.004673 0.026496 -0.002077 0.000000 -0.008496 0.000000
# 3 -0.005669 -0.002077 0.012162 0.000000 -0.005147 0.000000
# 4 0.000000 0.000000 0.000000 0.041476 0.000000 0.000658
# 5 0.004756 -0.008496 -0.005147 0.000000 0.045197 0.000000
# 6 0.000000 0.000000 0.000000 0.000658 0.000000 0.038426
#
#
# Mechanical properties :
#
#
# Convention : Reuss Voigt Hill
#
# Bulk Modulus (GPa) = 38.07861 54.89967 46.48914
# Shear Modulus (GPa) = 23.83341 26.76563 25.29952
#
# Velocity S-wave (km/s) = 3.51231 3.72210 3.61872
# Velocity P-wave (km/s) = 6.01316 6.84751 6.44385
#
# Compressibility (1/GPa) = 0.02626146
#
# Stress axis : x y z
#
# Youngs Moduli (GPa) = 80.37656 37.74162 82.22250
#
# Poissons Ratio (x) = 0.17636 0.46612
# Poissons Ratio (y) = 0.37559 0.17079
# Poissons Ratio (z) = 0.45565 0.07840
#
# Static dielectric constant tensor:
#      x y z
#    x 3.548470 0.000000 0.255440 
#    y 0.000000 3.512280 0.000000 
#    z 0.255440 0.000000 3.625030 
# 
# 
# High freq. dielectric constant tensor:
#      x y z
#    x 1.755440 0.000000 0.009730 
#    y 0.000000 1.755760 0.000000 
#    z 0.009730 0.000000 1.741780 
# 
# From -- ./inp_files/275003.got.cif
#   From: 2010.06.25/outbox.cif.g09.slc.cpg/sg12_138_cif.got.tgz:275003.got - 2010.06.28 00:19:55.
