data_PCOD8092343
_publ_section_title
;
Structure prediction by ZEFSAII (Michael W. Deem and Ramdas Pophale) SiO2 
 PCOD8092343
Probable space group: C 2/M
;
_chemical_formula_sum "Si O2"
_cell_formula_units_Z 64
_cell_length_a 15.114964
_cell_length_b 25.290791
_cell_length_c 20.493369
_cell_angle_alpha 90.000000
_cell_angle_beta 153.168687
_cell_angle_gamma 90.000000
_cell_volume 3535.990125
_symmetry_space_group_name_H-M "C 2/M"
_symmetry_group_IT_number 12
_symmetry_cell_setting 'monoclinic'
loop_
_space_group_symop_operation_xyz
x,y,z
-x,y,-z
-x,-y,-z
x,-y,z
1/2+x,1/2+y,z
1/2-x,1/2+y,-z
1/2-x,1/2-y,-z
1/2+x,1/2-y,z
loop_
_atom_site_type_symbol
_atom_site_label
_atom_site_fract_x
_atom_site_fract_y
_atom_site_fract_z
Si Si1 0.189275 0.438632 0.283418
Si Si2 0.854111 0.825132 0.957944
Si Si3 0.983583 0.139661 0.714784
Si Si4 0.819668 0.633303 0.035788
Si Si5 0.667153 0.209512 0.558982
Si Si6 0.067462 0.734908 0.171148
Si Si7 0.458567 0.561779 0.579056
Si Si8 0.117361 0.240292 0.725676
O O1 0.140497 0.500000 0.253981
O O2 0.335147 0.426052 0.319883
O O3 0.286177 0.420909 0.415775
O O4 0.989249 0.408876 0.137473
O O5 0.750902 0.869512 0.934868
O O6 0.694834 0.789920 0.816878
O O7 0.000000 0.851024 0.000000
O O8 0.972995 0.789812 0.087424
O O9 0.066534 0.193256 0.739722
O O10 0.777527 0.155067 0.612983
O O11 0.941506 0.094904 0.633795
O O12 0.140617 0.118054 0.870409
O O13 0.901546 0.691496 0.073305
O O14 0.500000 0.192691 0.500000
O O15 0.816145 0.253124 0.685936
O O16 0.575937 0.239152 0.437312
O O17 0.219363 0.716398 0.215549
O O18 0.440726 0.500000 0.584583
#
# Coordination Sequence:
#
# PCOD8092343 Si02
#       8
#     8   8   8   8   8   8   8   8
#     4   9  21  41  60  81 108 137 173 217 268 322
#     4  10  20  35  51  74 112 151 180 210 262 316
#     4  12  22  34  54  83 109 139 184 222 266 317
#     4  12  22  33  56  82 108 142 180 223 267 316
#     4  10  22  36  50  75 113 149 182 221 260 308
#     4  10  19  35  50  75 115 147 174 215 267 314
#     4   9  21  41  60  80 109 139 170 217 270 320
#     4  10  21  32  51  78 110 147 182 218 256 314
#
# _framework density 18.099598
#
# number of rings (size 3 to 8) (size 9 to 14) (size 15 to 20)
#    0.000    1.750    2.500    3.000    3.500    2.000 
#    0.000    1.250    0.000    0.750    0.000    0.000 
#    0.000    0.000    0.000    0.000    0.000    0.000 
#
# Total GULP energy -396812.980890 kJ/mol
# GULP energy per Si atom -12400.405653 kJ/mol
# Density = 1.805840 g / cm^3
# Si number density = 18.099598 Si / 1000 Ang^3
#
#
#
# Elastic Constant Matrix: (Units=GPa)
#
#
# Indices 1 2 3 4 5 6 
#
# 1 90.1406 27.5963 21.9363 0.0031 -2.2995 -0.0007
# 2 27.5963 38.3524 8.9665 0.0072 -3.0178 -0.0001
# 3 21.9363 8.9665 81.7163 0.0175 -9.9395 0.0055
# 4 0.0031 0.0072 0.0175 22.6813 0.0034 5.5952
# 5 -2.2995 -3.0178 -9.9395 0.0034 28.5641 0.0006
# 6 -0.0007 -0.0001 0.0055 5.5952 0.0006 27.2906
#
#
#
# Elastic Compliance Matrix: (Units=1/GPa)
#
#
# Indices 1 2 3 4 5 6 
#
# 1 0.014888 -0.010082 -0.003001 0.000004 -0.000911 0.000000
# 2 -0.010082 0.033686 -0.000685 -0.000010 0.002509 0.000002
# 3 -0.003001 -0.000685 0.013658 -0.000010 0.004439 -0.000001
# 4 0.000004 -0.000010 -0.000010 0.046438 -0.000010 -0.009521
# 5 -0.000911 0.002509 0.004439 -0.000010 0.036745 0.000000
# 6 0.000000 0.000002 -0.000001 -0.009521 0.000000 0.038595
#
#
# Mechanical properties :
#
#
# Convention : Reuss Voigt Hill
#
# Bulk Modulus (GPa) = 28.82175 36.35640 32.58907
# Shear Modulus (GPa) = 22.41042 25.82122 24.11582
#
# Velocity S-wave (km/s) = 3.52258 3.78116 3.65416
# Velocity P-wave (km/s) = 5.70117 6.26046 5.98735
#
# Compressibility (1/GPa) = 0.03469602
#
# Stress axis : x y z
#
# Youngs Moduli (GPa) = 67.17033 29.68583 73.21680
#
# Poissons Ratio (x) = 0.29930 0.21972
# Poissons Ratio (y) = 0.67723 0.05012
# Poissons Ratio (z) = 0.20158 0.02032
#
# Static dielectric constant tensor:
#      x y z
#    x 3.637730 -0.000010 0.057920 
#    y -0.000010 2.939580 -0.000020 
#    z 0.057920 -0.000020 3.566690 
# 
# 
# High freq. dielectric constant tensor:
#      x y z
#    x 1.710190 0.000000 -0.002220 
#    y 0.000000 1.656820 0.000000 
#    z -0.002220 0.000000 1.719560 
# 
# From -- ./inp_files/66905.got.cif
#   From: 2010.06.25/outbox.cif.g09.slc.cpg/sg12_34_cif.got.tgz:66905.got - 2010.06.28 00:19:55.
