data_PCOD8092656
_publ_section_title
;
Structure prediction by ZEFSAII (Michael W. Deem and Ramdas Pophale) SiO2 
 PCOD8092656
Probable space group: C 2/M
;
_chemical_formula_sum "Si O2"
_cell_formula_units_Z 64
_cell_length_a 20.445265
_cell_length_b 9.216311
_cell_length_c 18.569182
_cell_angle_alpha 90.000000
_cell_angle_beta 97.012549
_cell_angle_gamma 90.000000
_cell_volume 3472.815077
_symmetry_space_group_name_H-M "C 2/M"
_symmetry_group_IT_number 12
_symmetry_cell_setting 'monoclinic'
loop_
_space_group_symop_operation_xyz
x,y,z
-x,y,-z
-x,-y,-z
x,-y,z
1/2+x,1/2+y,z
1/2-x,1/2+y,-z
1/2-x,1/2-y,-z
1/2+x,1/2-y,z
loop_
_atom_site_type_symbol
_atom_site_label
_atom_site_fract_x
_atom_site_fract_y
_atom_site_fract_z
Si Si1 0.813011 0.330227 0.423475
Si Si2 0.188689 0.170191 0.026251
Si Si3 0.549029 0.668836 0.942054
Si Si4 0.303930 0.672013 0.810094
Si Si5 0.914375 0.170718 0.714955
Si Si6 0.335653 0.332474 0.563730
Si Si7 0.964594 0.672658 0.206502
Si Si8 0.333150 0.172302 0.267326
O O1 0.823949 0.500000 0.433736
O O2 0.735983 0.288259 0.415888
O O3 0.852916 0.254222 0.493366
O O4 0.840607 0.273376 0.350689
O O5 0.179659 0.223257 0.107033
O O6 0.203057 0.000000 0.025898
O O7 0.250000 0.250000 0.000000
O O8 0.123047 0.211004 0.974120
O O9 0.543203 0.500000 0.920407
O O10 0.526769 0.764923 0.872060
O O11 0.500000 0.706846 0.000000
O O12 0.301177 0.500000 0.803639
O O13 0.360941 0.729342 0.765175
O O14 0.233359 0.737619 0.776774
O O15 0.889229 0.204795 0.631399
O O16 0.980477 0.261600 0.733919
O O17 0.927855 0.000000 0.727831
O O18 0.337033 0.500000 0.543543
O O19 0.970670 0.500000 0.205403
O O20 0.894665 0.725538 0.228595
O O21 0.328425 0.000000 0.266879
#
# Coordination Sequence:
#
# PCOD8092656 Si02
#       8
#     8   8   8   8   8   8   8   8
#     4   9  16  30  53  79 105 136 174 216 259 309
#     4  10  20  33  53  79 105 133 169 216 265 311
#     4  10  21  39  59  78 102 141 188 221 256 316
#     4   9  16  31  56  78  96 130 179 217 248 303
#     4  10  19  35  57  78 103 138 179 218 258 312
#     4   9  17  30  52  81 106 133 173 220 264 304
#     4  11  23  36  54  80 110 140 173 220 273 316
#     4   9  17  32  53  78 106 140 179 213 257 318
#
# _framework density 18.428854000000001
#
# number of rings (size 3 to 8) (size 9 to 14) (size 15 to 20)
#    0.000    2.375    1.250    1.875    0.000    4.250 
#    0.000    3.750    0.000    6.000    0.000    0.000 
#    0.000    0.000    0.000    0.000    0.000    0.000 
#
# Total GULP energy -396836.850725 kJ/mol
# GULP energy per Si atom -12401.151585 kJ/mol
# Density = 1.838691 g / cm^3
# Si number density = 18.428854 Si / 1000 Ang^3
#
#
#
# Elastic Constant Matrix: (Units=GPa)
#
#
# Indices 1 2 3 4 5 6 
#
# 1 85.8849 27.8890 26.6516 0.0000 11.2183 0.0000
# 2 27.8890 40.1738 35.3841 0.0000 7.1935 0.0000
# 3 26.6516 35.3841 108.8622 0.0000 12.9725 0.0000
# 4 0.0000 0.0000 0.0000 28.8300 0.0000 1.4418
# 5 11.2183 7.1935 12.9725 0.0000 28.4960 0.0000
# 6 0.0000 0.0000 0.0000 1.4418 0.0000 27.4183
#
#
#
# Elastic Compliance Matrix: (Units=1/GPa)
#
#
# Indices 1 2 3 4 5 6 
#
# 1 0.015362 -0.009939 -0.000115 0.000000 -0.003486 0.000000
# 2 -0.009939 0.041711 -0.010929 0.000000 -0.001642 0.000000
# 3 -0.000115 -0.010929 0.013145 0.000000 -0.003180 0.000000
# 4 0.000000 0.000000 0.000000 0.034778 0.000000 -0.001829
# 5 -0.003486 -0.001642 -0.003180 0.000000 0.038327 0.000000
# 6 0.000000 0.000000 0.000000 -0.001829 0.000000 0.036568
#
#
# Mechanical properties :
#
#
# Convention : Reuss Voigt Hill
#
# Bulk Modulus (GPa) = 35.39417 46.08559 40.73988
# Shear Modulus (GPa) = 21.61932 26.61527 24.11730
#
# Velocity S-wave (km/s) = 3.42880 3.80441 3.62148
# Velocity P-wave (km/s) = 5.90958 6.66030 6.29614
#
# Compressibility (1/GPa) = 0.02825324
#
# Stress axis : x y z
#
# Youngs Moduli (GPa) = 65.09586 23.97431 76.07296
#
# Poissons Ratio (x) = 0.23828 0.00875
# Poissons Ratio (y) = 0.64698 0.83139
# Poissons Ratio (z) = 0.00748 0.26201
#
# Static dielectric constant tensor:
#      x y z
#    x 3.423650 0.000000 0.059860 
#    y 0.000000 3.073630 0.000000 
#    z 0.059860 0.000000 3.692570 
# 
# 
# High freq. dielectric constant tensor:
#      x y z
#    x 1.711080 0.000000 0.004860 
#    y 0.000000 1.681620 0.000000 
#    z 0.004860 0.000000 1.729930 
# 
# From -- ./inp_files/281391.got.cif
#   From: 2010.06.25/outbox.cif.g09.slc.cpg/sg12_141_cif.got.tgz:281391.got - 2010.06.28 00:19:55.
