data_PCOD8092373
_publ_section_title
;
Structure prediction by ZEFSAII (Michael W. Deem and Ramdas Pophale) SiO2 
 PCOD8092373
Probable space group: C 2/M
;
_chemical_formula_sum "Si O2"
_cell_formula_units_Z 56
_cell_length_a 25.368210
_cell_length_b 15.363840
_cell_length_c 11.823187
_cell_angle_alpha 90.000000
_cell_angle_beta 142.087203
_cell_angle_gamma 90.000000
_cell_volume 2831.514457
_symmetry_space_group_name_H-M "C 2/M"
_symmetry_group_IT_number 12
_symmetry_cell_setting 'monoclinic'
loop_
_space_group_symop_operation_xyz
x,y,z
-x,y,-z
-x,-y,-z
x,-y,z
1/2+x,1/2+y,z
1/2-x,1/2+y,-z
1/2-x,1/2-y,-z
1/2+x,1/2-y,z
loop_
_atom_site_type_symbol
_atom_site_label
_atom_site_fract_x
_atom_site_fract_y
_atom_site_fract_z
Si Si1 0.903796 0.274410 0.604716
Si Si2 0.386869 0.636806 0.408630
Si Si3 0.773984 0.597773 0.498712
Si Si4 0.591090 0.341162 0.174686
Si Si5 0.090396 0.737821 0.958409
Si Si6 0.284725 0.904052 0.775272
Si Si7 0.078410 0.901216 0.783694
O O1 0.881310 0.237528 0.441707
O O2 0.834195 0.345903 0.519390
O O3 0.901410 0.191560 0.684416
O O4 0.001725 0.308854 0.769665
O O5 0.309745 0.583936 0.334276
O O6 0.379062 0.631216 0.260779
O O7 0.475853 0.595004 0.600511
O O8 0.806838 0.500000 0.542400
O O9 0.674939 0.601526 0.289807
O O10 0.781155 0.630395 0.639957
O O11 0.500000 0.392862 0.000000
O O12 0.587297 0.257027 0.086736
O O13 0.108477 0.830090 0.926767
O O14 0.163712 0.665811 0.061475
O O15 0.328188 0.000000 0.852680
O O16 0.109566 0.000000 0.866732
#
# Coordination Sequence:
#
# PCOD8092373 Si02
#       7
#     8   8   8   8   8   8   8
#     4  10  19  36  57  79 111 152 188 227 279 335
#     4  10  19  36  61  81 106 146 187 236 281 331
#     4  11  22  34  54  83 114 152 191 226 272 335
#     4  10  19  35  53  79 111 143 179 226 288 343
#     4  10  22  35  56  82 114 153 183 231 288 323
#     4  11  21  34  55  84 114 149 196 234 268 326
#     4  10  21  38  59  84 111 142 188 237 285 341
#
# _framework density 19.777401999999999
#
# number of rings (size 3 to 8) (size 9 to 14) (size 15 to 20)
#    0.000    1.714    2.857    3.000    0.000    2.000 
#    0.000    1.429    0.000    0.857    0.000    4.000 
#    0.000    0.000    0.000    0.000    0.000    0.000 
#
# Total GULP energy -347017.603851 kJ/mol
# GULP energy per Si atom -12393.485852 kJ/mol
# Density = 1.973239 g / cm^3
# Si number density = 19.777402 Si / 1000 Ang^3
#
#
#
# Elastic Constant Matrix: (Units=GPa)
#
#
# Indices 1 2 3 4 5 6 
#
# 1 95.8824 55.6478 31.6458 0.0000 7.1968 0.0000
# 2 55.6478 104.3127 57.4882 0.0000 12.3096 0.0000
# 3 31.6458 57.4882 72.8563 0.0000 13.3701 0.0000
# 4 0.0000 0.0000 0.0000 21.6613 0.0000 -4.4932
# 5 7.1968 12.3096 13.3701 0.0000 22.3497 0.0000
# 6 0.0000 0.0000 0.0000 -4.4932 0.0000 17.9812
#
#
#
# Elastic Compliance Matrix: (Units=1/GPa)
#
#
# Indices 1 2 3 4 5 6 
#
# 1 0.015115 -0.007855 -0.000301 0.000000 -0.000361 0.000000
# 2 -0.007855 0.021090 -0.012988 0.000000 -0.001317 0.000000
# 3 -0.000301 -0.012988 0.025583 0.000000 -0.008054 0.000000
# 4 0.000000 0.000000 0.000000 0.048689 0.000000 0.012167
# 5 -0.000361 -0.001317 -0.008054 0.000000 0.050403 0.000000
# 6 0.000000 0.000000 0.000000 0.012167 0.000000 0.058654
#
#
# Mechanical properties :
#
#
# Convention : Reuss Voigt Hill
#
# Bulk Modulus (GPa) = 51.28247 62.51280 56.89763
# Shear Modulus (GPa) = 18.63445 20.94976 19.79211
#
# Velocity S-wave (km/s) = 3.07287 3.25819 3.16688
# Velocity P-wave (km/s) = 6.21097 6.76987 6.49644
#
# Compressibility (1/GPa) = 0.01949984
#
# Stress axis : x y z
#
# Youngs Moduli (GPa) = 66.16143 47.41575 39.08886
#
# Poissons Ratio (x) = 0.37243 0.01177
# Poissons Ratio (y) = 0.51967 0.50769
# Poissons Ratio (z) = 0.01992 0.61583
#
# Static dielectric constant tensor:
#      x y z
#    x 3.670650 0.000000 0.078420 
#    y 0.000000 3.307510 0.000000 
#    z 0.078420 0.000000 3.565390 
# 
# 
# High freq. dielectric constant tensor:
#      x y z
#    x 1.769400 0.000000 0.009480 
#    y 0.000000 1.748840 0.000000 
#    z 0.009480 0.000000 1.756830 
# 
# From -- ./inp_files/183558.got.cif
#   From: 2010.06.25/outbox.cif.g09.slc.cpg/sg12_92_cif.got.tgz:183558.got - 2010.06.28 00:19:55.
