data_PCOD8092093
_publ_section_title
;
Structure prediction by ZEFSAII (Michael W. Deem and Ramdas Pophale) SiO2 
 PCOD8092093
Probable space group: C 2/M
;
_chemical_formula_sum "Si O2"
_cell_formula_units_Z 48
_cell_length_a 9.939842
_cell_length_b 14.872210
_cell_length_c 18.306903
_cell_angle_alpha 90.000000
_cell_angle_beta 84.095671
_cell_angle_gamma 90.000000
_cell_volume 2691.905603
_symmetry_space_group_name_H-M "C 2/M"
_symmetry_group_IT_number 12
_symmetry_cell_setting 'monoclinic'
loop_
_space_group_symop_operation_xyz
x,y,z
-x,y,-z
-x,-y,-z
x,-y,z
1/2+x,1/2+y,z
1/2-x,1/2+y,-z
1/2-x,1/2-y,-z
1/2+x,1/2-y,z
loop_
_atom_site_type_symbol
_atom_site_label
_atom_site_fract_x
_atom_site_fract_y
_atom_site_fract_z
Si Si1 0.102587 0.168575 0.183187
Si Si2 0.060979 0.103614 0.346123
Si Si3 0.711092 0.337293 0.823816
Si Si4 0.632816 0.246092 0.448718
Si Si5 0.683622 0.500000 0.924194
Si Si6 0.749823 0.101542 0.340291
Si Si7 0.631941 0.500000 0.088037
O O1 0.114480 0.142465 0.267070
O O2 0.196914 0.252942 0.161223
O O3 0.947480 0.189587 0.169667
O O4 0.166509 0.088087 0.132640
O O5 0.127735 0.157848 0.408669
O O6 0.900644 0.115334 0.361646
O O7 0.104390 0.000000 0.350844
O O8 0.743664 0.410582 0.884084
O O9 0.756599 0.379482 0.744982
O O10 0.500000 0.221942 0.500000
O O11 0.750000 0.250000 0.500000
O O12 0.650645 0.168209 0.387925
O O13 0.525043 0.500000 0.920340
O O14 0.718389 0.500000 0.008381
O O15 0.700726 0.000000 0.357163
#
# Coordination Sequence:
#
# PCOD8092093 Si02
#       7
#     8   8   8   8   4   8   4
#     4  10  19  34  59  85 110 146 187 228 271 326
#     4  10  20  37  61  81 106 148 192 224 270 338
#     4  10  19  34  59  84 110 147 189 225 272 327
#     4  12  24  38  57  83 113 142 180 239 287 321
#     4   9  18  34  57  87 115 147 188 225 267 325
#     4  10  20  37  60  81 108 147 189 228 273 333
#     4   9  18  34  57  87 117 144 186 232 263 321
#
# _framework density 17.831235
#
# number of rings (size 3 to 8) (size 9 to 14) (size 15 to 20)
#    0.000    1.833    5.000    0.000    0.000    2.000 
#    0.000    0.833    0.000    1.000    0.000    0.000 
#    0.000    0.000    0.000    0.000    0.000    0.000 
#
# Total GULP energy -297639.589999 kJ/mol
# GULP energy per Si atom -12401.649583 kJ/mol
# Density = 1.779065 g / cm^3
# Si number density = 17.831235 Si / 1000 Ang^3
#
#
#
# Elastic Constant Matrix: (Units=GPa)
#
#
# Indices 1 2 3 4 5 6 
#
# 1 67.8898 55.9700 46.6935 0.0000 -8.2899 0.0000
# 2 55.9700 156.8426 60.2725 0.0000 -15.7574 0.0000
# 3 46.6935 60.2725 110.5408 0.0000 -17.8417 0.0000
# 4 0.0000 0.0000 0.0000 37.0691 0.0000 -3.1018
# 5 -8.2899 -15.7574 -17.8417 0.0000 19.3854 0.0000
# 6 0.0000 0.0000 0.0000 -3.1018 0.0000 29.0080
#
#
#
# Elastic Compliance Matrix: (Units=1/GPa)
#
#
# Indices 1 2 3 4 5 6 
#
# 1 0.024615 -0.006112 -0.007244 0.000000 -0.001109 0.000000
# 2 -0.006112 0.009729 -0.002195 0.000000 0.003275 0.000000
# 3 -0.007244 -0.002195 0.014699 0.000000 0.008646 0.000000
# 4 0.000000 0.000000 0.000000 0.027220 0.000000 0.002911
# 5 -0.001109 0.003275 0.008646 0.000000 0.061731 0.000000
# 6 0.000000 0.000000 0.000000 0.002911 0.000000 0.034784
#
#
# Mechanical properties :
#
#
# Convention : Reuss Voigt Hill
#
# Bulk Modulus (GPa) = 55.73511 73.46056 64.59784
# Shear Modulus (GPa) = 23.82530 28.58167 26.20348
#
# Velocity S-wave (km/s) = 3.65931 4.00797 3.83760
# Velocity P-wave (km/s) = 7.01277 7.91868 7.47945
#
# Compressibility (1/GPa) = 0.01794201
#
# Stress axis : x y z
#
# Youngs Moduli (GPa) = 40.62482 102.78374 68.03306
#
# Poissons Ratio (x) = 0.62817 0.49286
# Poissons Ratio (y) = 0.24828 0.14931
# Poissons Ratio (z) = 0.29430 0.22557
#
# Static dielectric constant tensor:
#      x y z
#    x 3.014070 0.000000 -0.098500 
#    y 0.000000 3.443630 0.000000 
#    z -0.098500 0.000000 3.512660 
# 
# 
# High freq. dielectric constant tensor:
#      x y z
#    x 1.659670 0.000000 -0.006510 
#    y 0.000000 1.700690 0.000000 
#    z -0.006510 0.000000 1.701910 
# 
# From -- ./inp_files/255801.got.cif
#   From: 2010.06.25/outbox.cif.g09.slc.cpg/sg12_128_cif.got.tgz:255801.got - 2010.06.28 00:19:55.
