data_PCOD8092500
_publ_section_title
;
Structure prediction by ZEFSAII (Michael W. Deem and Ramdas Pophale) SiO2 
 PCOD8092500
Probable space group: C 2/M
;
_chemical_formula_sum "Si O2"
_cell_formula_units_Z 56
_cell_length_a 13.314844
_cell_length_b 13.796759
_cell_length_c 19.652264
_cell_angle_alpha 90.000000
_cell_angle_beta 54.675942
_cell_angle_gamma 90.000000
_cell_volume 2945.506317
_symmetry_space_group_name_H-M "C 2/M"
_symmetry_group_IT_number 12
_symmetry_cell_setting 'monoclinic'
loop_
_space_group_symop_operation_xyz
x,y,z
-x,y,-z
-x,-y,-z
x,-y,z
1/2+x,1/2+y,z
1/2-x,1/2+y,-z
1/2-x,1/2-y,-z
1/2+x,1/2-y,z
loop_
_atom_site_type_symbol
_atom_site_label
_atom_site_fract_x
_atom_site_fract_y
_atom_site_fract_z
Si Si1 0.890182 0.387321 0.496488
Si Si2 0.570248 0.884194 0.795065
Si Si3 0.079350 0.107853 0.846180
Si Si4 0.137234 0.891855 0.668099
Si Si5 0.737815 0.743158 0.200216
Si Si6 0.978780 0.296073 0.328588
Si Si7 0.862029 0.235724 0.906122
O O1 0.903885 0.500000 0.473534
O O2 0.767611 0.363209 0.585372
O O3 0.897307 0.328963 0.423767
O O4 0.000000 0.350025 0.500000
O O5 0.694336 0.840516 0.781718
O O6 0.570785 0.861023 0.714596
O O7 0.447975 0.832141 0.872979
O O8 0.564840 0.000000 0.809785
O O9 0.141909 0.116949 0.747436
O O10 0.162783 0.175553 0.860934
O O11 0.939435 0.143743 0.901456
O O12 0.082218 0.000000 0.874223
O O13 0.038458 0.818080 0.677652
O O14 0.097755 0.000000 0.661523
O O15 0.626323 0.799575 0.283426
O O16 0.684640 0.703643 0.150104
O O17 0.750000 0.250000 0.000000
#
# Coordination Sequence:
#
# PCOD8092500 Si02
#       7
#     8   8   8   8   8   8   8
#     4  10  21  33  54  84 113 149 194 239 284 332
#     4  10  22  38  58  86 116 148 190 235 284 340
#     4  10  20  37  59  84 112 148 191 232 279 336
#     4  10  19  35  55  81 113 147 190 233 276 334
#     4  10  20  37  58  83 112 148 189 229 282 336
#     4  11  20  37  59  82 116 154 190 235 289 332
#     4  10  22  40  59  83 117 149 185 231 285 342
#
# _framework density 19.012011999999999
#
# number of rings (size 3 to 8) (size 9 to 14) (size 15 to 20)
#    0.000    1.857    4.286    1.714    0.000    8.000 
#    0.000    1.429    0.000    0.429    0.000    0.000 
#    0.000    0.000    0.000    0.000    0.000    0.000 
#
# Total GULP energy -347066.040051 kJ/mol
# GULP energy per Si atom -12395.215716 kJ/mol
# Density = 1.896874 g / cm^3
# Si number density = 19.012012 Si / 1000 Ang^3
#
#
#
# Elastic Constant Matrix: (Units=GPa)
#
#
# Indices 1 2 3 4 5 6 
#
# 1 93.6894 29.4841 5.1278 0.0000 -11.2179 0.0000
# 2 29.4841 99.6389 -5.1147 0.0000 -4.6555 0.0000
# 3 5.1278 -5.1147 76.5423 0.0000 -16.5295 0.0000
# 4 0.0000 0.0000 0.0000 22.6181 0.0000 -0.1888
# 5 -11.2179 -4.6555 -16.5295 0.0000 20.2616 0.0000
# 6 0.0000 0.0000 0.0000 -0.1888 0.0000 13.7869
#
#
#
# Elastic Compliance Matrix: (Units=1/GPa)
#
#
# Indices 1 2 3 4 5 6 
#
# 1 0.012485 -0.003379 0.000319 0.000000 0.006396 0.000000
# 2 -0.003379 0.011191 0.001366 0.000000 0.001815 0.000000
# 3 0.000319 0.001366 0.016072 0.000000 0.013602 0.000000
# 4 0.000000 0.000000 0.000000 0.044217 0.000000 0.000606
# 5 0.006396 0.001815 0.013602 0.000000 0.064410 0.000000
# 6 0.000000 0.000000 0.000000 0.000606 0.000000 0.072541
#
#
# Mechanical properties :
#
#
# Convention : Reuss Voigt Hill
#
# Bulk Modulus (GPa) = 27.50246 36.54055 32.02150
# Shear Modulus (GPa) = 21.14840 27.35823 24.25331
#
# Velocity S-wave (km/s) = 3.33884 3.79753 3.57555
# Velocity P-wave (km/s) = 5.41858 6.20401 5.82455
#
# Compressibility (1/GPa) = 0.03636039
#
# Stress axis : x y z
#
# Youngs Moduli (GPa) = 80.09319 89.35641 62.22002
#
# Poissons Ratio (x) = 0.30196 -0.01985
# Poissons Ratio (y) = 0.27066 -0.08500
# Poissons Ratio (z) = -0.02556 -0.12207
#
# Static dielectric constant tensor:
#      x y z
#    x 3.560360 0.000000 -0.172290 
#    y 0.000000 3.561460 0.000000 
#    z -0.172290 0.000000 3.484160 
# 
# 
# High freq. dielectric constant tensor:
#      x y z
#    x 1.742380 0.000000 -0.010740 
#    y 0.000000 1.734150 0.000000 
#    z -0.010740 0.000000 1.734540 
# 
# From -- ./inp_files/263215.got.cif
#   From: 2010.06.25/outbox.cif.g09.slc.cpg/sg12_132_cif.got.tgz:263215.got - 2010.06.28 00:19:55.
