data_PCOD8092003
_publ_section_title
;
Structure prediction by ZEFSAII (Michael W. Deem and Ramdas Pophale) SiO2 
 PCOD8092003
Probable space group: C 2/M
;
_chemical_formula_sum "Si O2"
_cell_formula_units_Z 56
_cell_length_a 27.493000
_cell_length_b 8.792681
_cell_length_c 12.199745
_cell_angle_alpha 90.000000
_cell_angle_beta 84.879476
_cell_angle_gamma 90.000000
_cell_volume 2937.362420
_symmetry_space_group_name_H-M "C 2/M"
_symmetry_group_IT_number 12
_symmetry_cell_setting 'monoclinic'
loop_
_space_group_symop_operation_xyz
x,y,z
-x,y,-z
-x,-y,-z
x,-y,z
1/2+x,1/2+y,z
1/2-x,1/2+y,-z
1/2-x,1/2-y,-z
1/2+x,1/2-y,z
loop_
_atom_site_type_symbol
_atom_site_label
_atom_site_fract_x
_atom_site_fract_y
_atom_site_fract_z
Si Si1 0.764813 0.319777 0.612145
Si Si2 0.922175 0.320150 0.837880
Si Si3 0.885837 0.822444 0.060300
Si Si4 0.525295 0.323692 0.798794
Si Si5 0.873872 0.680313 0.624625
Si Si6 0.320358 0.824082 0.246352
Si Si7 0.089848 0.676253 0.613775
O O1 0.763672 0.500000 0.601107
O O2 0.750000 0.250000 0.500000
O O3 0.818490 0.258982 0.633606
O O4 0.728519 0.266801 0.714938
O O5 0.917209 0.500000 0.850092
O O6 0.901379 0.258947 0.726543
O O7 0.978271 0.274006 0.837903
O O8 0.889883 0.242181 0.937769
O O9 0.935798 0.787691 0.114511
O O10 0.840887 0.739039 0.127984
O O11 0.874479 0.000000 0.059397
O O12 0.510942 0.500000 0.798301
O O13 0.546953 0.274421 0.677090
O O14 0.872855 0.500000 0.623018
O O15 0.903524 0.736202 0.511463
O O16 0.359066 0.797309 0.335334
O O17 0.307456 0.000000 0.234971
O O18 0.074284 0.500000 0.622182
#
# Coordination Sequence:
#
# PCOD8092003 Si02
#       7
#     8   8   8   8   8   8   8
#     4  11  20  35  58  85 114 145 181 224 274 326
#     4  11  22  37  57  79 107 148 190 226 269 324
#     4  10  21  38  58  81 111 145 182 229 279 323
#     4  10  21  36  55  81 111 142 180 229 279 324
#     4   9  20  37  55  79 113 148 182 223 272 327
#     4  10  19  34  58  87 112 140 183 230 272 323
#     4   9  17  34  56  79 109 144 181 222 269 326
#
# _framework density 19.064723000000001
#
# number of rings (size 3 to 8) (size 9 to 14) (size 15 to 20)
#    0.000    2.000    1.429    2.571    0.000    4.571 
#    0.000    7.857    0.000    0.000    0.000    0.000 
#    0.000    0.000    0.000    0.000    0.000    0.000 
#
# Total GULP energy -347306.599645 kJ/mol
# GULP energy per Si atom -12403.807130 kJ/mol
# Density = 1.902133 g / cm^3
# Si number density = 19.064723 Si / 1000 Ang^3
#
#
#
# Elastic Constant Matrix: (Units=GPa)
#
#
# Indices 1 2 3 4 5 6 
#
# 1 37.0872 17.0570 22.5707 0.0000 -10.7151 0.0000
# 2 17.0570 55.6312 24.4068 0.0000 1.1540 0.0000
# 3 22.5707 24.4068 138.0710 0.0000 -6.6303 0.0000
# 4 0.0000 0.0000 0.0000 34.3664 0.0000 -9.7527
# 5 -10.7151 1.1540 -6.6303 0.0000 23.8674 0.0000
# 6 0.0000 0.0000 0.0000 -9.7527 0.0000 24.6477
#
#
#
# Elastic Compliance Matrix: (Units=1/GPa)
#
#
# Indices 1 2 3 4 5 6 
#
# 1 0.039045 -0.010714 -0.003671 0.000000 0.017027 0.000000
# 2 -0.010714 0.022514 -0.002546 0.000000 -0.006606 0.000000
# 3 -0.003671 -0.002546 0.008331 0.000000 0.000789 0.000000
# 4 0.000000 0.000000 0.000000 0.032779 0.000000 0.012970
# 5 0.017027 -0.006606 0.000789 0.000000 0.050081 0.000000
# 6 0.000000 0.000000 0.000000 0.012970 0.000000 0.045704
#
#
# Mechanical properties :
#
#
# Convention : Reuss Voigt Hill
#
# Bulk Modulus (GPa) = 27.75610 39.87316 33.81463
# Shear Modulus (GPa) = 20.46460 27.69328 24.07894
#
# Velocity S-wave (km/s) = 3.27988 3.81542 3.55774
# Velocity P-wave (km/s) = 5.37903 6.35374 5.88659
#
# Compressibility (1/GPa) = 0.03602812
#
# Stress axis : x y z
#
# Youngs Moduli (GPa) = 25.61176 44.41601 120.03845
#
# Poissons Ratio (x) = 0.47587 0.44068
# Poissons Ratio (y) = 0.27440 0.30558
# Poissons Ratio (z) = 0.09402 0.11307
#
# Static dielectric constant tensor:
#      x y z
#    x 3.501930 0.000000 -0.109950 
#    y 0.000000 3.407490 0.000000 
#    z -0.109950 0.000000 3.687670 
# 
# 
# High freq. dielectric constant tensor:
#      x y z
#    x 1.727170 0.000000 -0.016660 
#    y 0.000000 1.736710 0.000000 
#    z -0.016660 0.000000 1.750580 
# 
# From -- ./inp_files/186426.got.cif
#   From: 2010.06.25/outbox.cif.g09.slc.cpg/sg12_94_cif.got.tgz:186426.got - 2010.06.28 00:19:55.
