data_PCOD8092213
_publ_section_title
;
Structure prediction by ZEFSAII (Michael W. Deem and Ramdas Pophale) SiO2 
 PCOD8092213
Probable space group: C 2/M
;
_chemical_formula_sum "Si O2"
_cell_formula_units_Z 56
_cell_length_a 14.569214
_cell_length_b 17.286757
_cell_length_c 12.648738
_cell_angle_alpha 90.000000
_cell_angle_beta 120.569094
_cell_angle_gamma 90.000000
_cell_volume 2742.889505
_symmetry_space_group_name_H-M "C 2/M"
_symmetry_group_IT_number 12
_symmetry_cell_setting 'monoclinic'
loop_
_space_group_symop_operation_xyz
x,y,z
-x,y,-z
-x,-y,-z
x,-y,z
1/2+x,1/2+y,z
1/2-x,1/2+y,-z
1/2-x,1/2-y,-z
1/2+x,1/2-y,z
loop_
_atom_site_type_symbol
_atom_site_label
_atom_site_fract_x
_atom_site_fract_y
_atom_site_fract_z
Si Si1 0.989251 0.411061 0.787815
Si Si2 0.118401 0.907973 0.086654
Si Si3 0.418524 0.825028 0.541022
Si Si4 0.779847 0.591812 0.004256
Si Si5 0.730407 0.088944 0.236756
Si Si6 0.604969 0.645726 0.503248
Si Si7 0.794367 0.088415 0.637768
O O1 0.998741 0.500000 0.754069
O O2 0.962484 0.355663 0.676172
O O3 0.896456 0.403561 0.820387
O O4 0.100230 0.380655 0.900949
O O5 0.197608 0.874323 0.043005
O O6 0.157006 0.880430 0.224294
O O7 0.116366 0.000000 0.079050
O O8 0.000000 0.874212 0.000000
O O9 0.500000 0.853260 0.500000
O O10 0.409878 0.733302 0.541842
O O11 0.303732 0.858761 0.449938
O O12 0.777076 0.500000 0.003574
O O13 0.745442 0.620421 0.867239
O O14 0.794374 0.139865 0.358970
O O15 0.766575 0.000000 0.271798
O O16 0.500000 0.613879 0.500000
O O17 0.619973 0.594649 0.406609
O O18 0.756889 0.000000 0.627672
#
# Coordination Sequence:
#
# PCOD8092213 Si02
#       7
#     8   8   8   8   8   8   8
#     4  10  19  34  59  92 118 147 196 245 300 352
#     4   9  19  34  54  82 114 151 191 238 294 342
#     4  11  23  39  60  84 122 161 194 243 299 356
#     4   9  18  33  56  87 122 151 185 243 301 352
#     4  10  20  35  59  89 119 153 195 244 294 350
#     4  11  25  40  58  85 122 164 201 237 296 357
#     4  11  22  38  63  90 116 151 201 253 295 346
#
# _framework density 20.416426999999999
#
# number of rings (size 3 to 8) (size 9 to 14) (size 15 to 20)
#    0.000    1.857    1.429    2.571    2.000    5.143 
#    0.000    0.000    3.143    2.571    0.000    0.000 
#    0.000    0.000    0.000    0.000    0.000    0.000 
#
# Total GULP energy -347260.762786 kJ/mol
# GULP energy per Si atom -12402.170099 kJ/mol
# Density = 2.036996 g / cm^3
# Si number density = 20.416427 Si / 1000 Ang^3
#
#
#
# Elastic Constant Matrix: (Units=GPa)
#
#
# Indices 1 2 3 4 5 6 
#
# 1 126.3053 11.6340 45.2550 0.0000 -17.1816 0.0000
# 2 11.6340 31.5576 21.9344 0.0000 -2.9577 0.0000
# 3 45.2550 21.9344 139.1432 0.0000 -26.7201 0.0000
# 4 0.0000 0.0000 0.0000 0.3274 0.0000 -0.6998
# 5 -17.1816 -2.9577 -26.7201 0.0000 35.9645 0.0000
# 6 0.0000 0.0000 0.0000 -0.6998 0.0000 25.7627
#
#
#
# Elastic Compliance Matrix: (Units=1/GPa)
#
#
# Indices 1 2 3 4 5 6 
#
# 1 0.009224 -0.001593 -0.002249 0.000000 0.002605 0.000000
# 2 -0.001593 0.035927 -0.005510 0.000000 -0.001900 0.000000
# 3 -0.002249 -0.005510 0.009907 0.000000 0.005833 0.000000
# 4 0.000000 0.000000 0.000000 3.242651 0.000000 0.088077
# 5 0.002605 -0.001900 0.005833 0.000000 0.033227 0.000000
# 6 0.000000 0.000000 0.000000 0.088077 0.000000 0.041208
#
#
# Mechanical properties :
#
#
# Convention : Reuss Voigt Hill
#
# Bulk Modulus (GPa) = 27.50744 50.51699 39.01221
# Shear Modulus (GPa) = 1.46931 26.95643 14.21287
#
# Velocity S-wave (km/s) = 0.84925 3.63758 2.64133
# Velocity P-wave (km/s) = 3.80317 6.51457 5.33403
#
# Compressibility (1/GPa) = 0.03635381
#
# Stress axis : x y z
#
# Youngs Moduli (GPa) = 108.41108 27.83390 100.93937
#
# Poissons Ratio (x) = 0.04435 0.22697
# Poissons Ratio (y) = 0.17275 0.55620
# Poissons Ratio (z) = 0.24377 0.15337
#
# Static dielectric constant tensor:
#      x y z
#    x 4.112520 0.000000 -0.122750 
#    y 0.000000 3.272050 0.000000 
#    z -0.122750 0.000000 3.686970 
# 
# 
# High freq. dielectric constant tensor:
#      x y z
#    x 1.814600 0.000000 -0.005500 
#    y 0.000000 1.758920 0.000000 
#    z -0.005500 0.000000 1.807220 
# 
# From -- ./inp_files/146224.got.cif
#   From: 2010.06.25/outbox.cif.g09.slc.cpg/sg12_74_cif.got.tgz:146224.got - 2010.06.28 00:19:55.
