data_PCOD8092136
_publ_section_title
;
Structure prediction by ZEFSAII (Michael W. Deem and Ramdas Pophale) SiO2 
 PCOD8092136
Probable space group: C 2/M
;
_chemical_formula_sum "Si O2"
_cell_formula_units_Z 48
_cell_length_a 10.477211
_cell_length_b 29.790774
_cell_length_c 15.952686
_cell_angle_alpha 90.000000
_cell_angle_beta 30.848619
_cell_angle_gamma 90.000000
_cell_volume 2553.202286
_symmetry_space_group_name_H-M "C 2/M"
_symmetry_group_IT_number 12
_symmetry_cell_setting 'monoclinic'
loop_
_space_group_symop_operation_xyz
x,y,z
-x,y,-z
-x,-y,-z
x,-y,z
1/2+x,1/2+y,z
1/2-x,1/2+y,-z
1/2-x,1/2-y,-z
1/2+x,1/2-y,z
loop_
_atom_site_type_symbol
_atom_site_label
_atom_site_fract_x
_atom_site_fract_y
_atom_site_fract_z
Si Si1 0.403480 0.371720 0.288347
Si Si2 0.038104 0.624927 0.344363
Si Si3 0.221157 0.551538 0.128533
Si Si4 0.964505 0.225027 0.826532
Si Si5 0.732227 0.782921 0.194227
Si Si6 0.263319 0.949751 0.074409
O O1 0.235050 0.386272 0.305512
O O2 0.573727 0.328215 0.169303
O O3 0.571759 0.413760 0.218106
O O4 0.230947 0.362644 0.466301
O O5 0.026162 0.582122 0.289706
O O6 0.127284 0.667465 0.240372
O O7 0.163643 0.500000 0.183075
O O8 0.500000 0.564545 0.000000
O O9 0.174724 0.561603 0.056993
O O10 0.968324 0.249011 0.733778
O O11 0.225582 0.229311 0.730777
O O12 0.750000 0.250000 0.000000
O O13 0.000000 0.779643 0.000000
O O14 0.148285 0.000000 0.144072
O O15 0.500000 0.946383 0.000000
#
# Coordination Sequence:
#
# PCOD8092136 Si02
#       6
#     8   8   8   8   8   8
#     4  10  21  36  55  84 116 147 185 229 286 335
#     4  10  20  34  57  84 115 146 181 239 284 320
#     4  10  19  34  59  87 109 142 194 230 267 335
#     4   9  19  33  53  78 103 142 185 227 268 323
#     4   9  18  33  54  77 107 144 184 223 273 326
#     4  10  22  39  59  82 113 148 182 229 281 337
#
# _framework density 18.799921000000001
#
# number of rings (size 3 to 8) (size 9 to 14) (size 15 to 20)
#    0.000    2.333    1.667    0.500    4.667    3.333 
#    0.000    2.500    0.000    3.000    0.000    0.000 
#    0.000    0.000    0.000    0.000    0.000    0.000 
#
# Total GULP energy -297457.677739 kJ/mol
# GULP energy per Si atom -12394.069906 kJ/mol
# Density = 1.875713 g / cm^3
# Si number density = 18.799921 Si / 1000 Ang^3
#
#
#
# Elastic Constant Matrix: (Units=GPa)
#
#
# Indices 1 2 3 4 5 6 
#
# 1 113.4296 60.9995 26.3396 0.0000 10.0224 0.0000
# 2 60.9995 127.2865 44.5350 0.0000 -1.9603 0.0000
# 3 26.3396 44.5350 54.2274 0.0000 2.6435 0.0000
# 4 0.0000 0.0000 0.0000 15.9374 0.0000 4.3916
# 5 10.0224 -1.9603 2.6435 0.0000 13.6783 0.0000
# 6 0.0000 0.0000 0.0000 4.3916 0.0000 33.1977
#
#
#
# Elastic Compliance Matrix: (Units=1/GPa)
#
#
# Indices 1 2 3 4 5 6 
#
# 1 0.013289 -0.006244 -0.000816 0.000000 -0.010474 0.000000
# 2 -0.006244 0.014113 -0.008964 0.000000 0.008330 0.000000
# 3 -0.000816 -0.008964 0.026482 0.000000 -0.005805 0.000000
# 4 0.000000 0.000000 0.000000 0.065119 0.000000 -0.008614
# 5 -0.010474 0.008330 -0.005805 0.000000 0.083099 0.000000
# 6 0.000000 0.000000 0.000000 -0.008614 0.000000 0.031262
#
#
# Mechanical properties :
#
#
# Convention : Reuss Voigt Hill
#
# Bulk Modulus (GPa) = 45.79606 62.07687 53.93646
# Shear Modulus (GPa) = 18.33572 23.43397 20.88484
#
# Velocity S-wave (km/s) = 3.12638 3.53440 3.33663
# Velocity P-wave (km/s) = 6.11923 7.05318 6.60274
#
# Compressibility (1/GPa) = 0.02183594
#
# Stress axis : x y z
#
# Youngs Moduli (GPa) = 75.24990 70.85513 37.76172
#
# Poissons Ratio (x) = 0.44244 0.03081
# Poissons Ratio (y) = 0.46988 0.33849
# Poissons Ratio (z) = 0.06140 0.63513
#
# Static dielectric constant tensor:
#      x y z
#    x 4.043180 0.000000 0.177490 
#    y 0.000000 3.560440 0.000000 
#    z 0.177490 0.000000 3.148950 
# 
# 
# High freq. dielectric constant tensor:
#      x y z
#    x 1.730820 0.000000 0.014630 
#    y 0.000000 1.740620 0.000000 
#    z 0.014630 0.000000 1.694690 
# 
# From -- ./inp_files/52787.got.cif
#   From: 2010.06.25/outbox.cif.g09.slc.cpg/sg12_27_cif.got.tgz:52787.got - 2010.06.28 00:19:55.
