data_PCOD8092232
_publ_section_title
;
Structure prediction by ZEFSAII (Michael W. Deem and Ramdas Pophale) SiO2 
 PCOD8092232
Probable space group: C 2/M
;
_chemical_formula_sum "Si O2"
_cell_formula_units_Z 64
_cell_length_a 30.375203
_cell_length_b 14.788464
_cell_length_c 21.602187
_cell_angle_alpha 90.000000
_cell_angle_beta 20.563858
_cell_angle_gamma 90.000000
_cell_volume 3408.455986
_symmetry_space_group_name_H-M "C 2/M"
_symmetry_group_IT_number 12
_symmetry_cell_setting 'monoclinic'
loop_
_space_group_symop_operation_xyz
x,y,z
-x,y,-z
-x,-y,-z
x,-y,z
1/2+x,1/2+y,z
1/2-x,1/2+y,-z
1/2-x,1/2-y,-z
1/2+x,1/2-y,z
loop_
_atom_site_type_symbol
_atom_site_label
_atom_site_fract_x
_atom_site_fract_y
_atom_site_fract_z
Si Si1 0.085421 0.602417 0.762590
Si Si2 0.503686 0.104515 0.423199
Si Si3 0.873692 0.274957 0.502619
Si Si4 0.230041 0.645632 0.037944
Si Si5 0.490611 0.600597 0.307493
Si Si6 0.528770 0.900081 0.212131
Si Si7 0.360396 0.395957 0.351605
Si Si8 0.903388 0.226786 0.177780
O O1 0.089738 0.500000 0.783115
O O2 0.218379 0.629084 0.556712
O O3 0.057606 0.671219 0.854620
O O4 0.975062 0.613429 0.856821
O O5 0.500000 0.125991 0.500000
O O6 0.397931 0.168887 0.533098
O O7 0.638249 0.128614 0.216784
O O8 0.471211 0.000000 0.452481
O O9 0.929591 0.173305 0.434515
O O10 0.728134 0.270758 0.683069
O O11 0.941644 0.324590 0.356659
O O12 0.169457 0.606128 0.054359
O O13 0.250000 0.750000 0.000000
O O14 0.359811 0.597764 0.882841
O O15 0.439220 0.500000 0.391132
O O16 0.451945 0.626284 0.288379
O O17 0.474112 0.000000 0.299472
O O18 0.370034 0.500000 0.318818
O O19 0.405215 0.336741 0.235094
O O20 0.000000 0.189227 0.000000
#
# Coordination Sequence:
#
# PCOD8092232 Si02
#       8
#     8   8   8   8   8   8   8   8
#     4  10  20  38  63  83 107 150 200 243 282 337
#     4  10  22  40  61  85 118 159 195 231 284 348
#     4  11  20  37  57  84 114 156 192 234 293 346
#     4  11  20  34  58  92 117 148 190 245 288 334
#     4  11  21  35  59  87 117 149 193 246 288 334
#     4  10  19  34  60  86 111 146 194 244 287 333
#     4  10  21  37  60  85 112 151 194 236 288 345
#     4  12  25  37  55  87 122 152 188 239 294 354
#
# _framework density 18.77683
#
# number of rings (size 3 to 8) (size 9 to 14) (size 15 to 20)
#    0.000    1.375    5.000    3.375    0.000    2.000 
#    0.000    1.250    0.000    0.375    0.000    0.000 
#    0.000    0.000    0.000    0.000    0.000    0.000 
#
# Total GULP energy -396770.939784 kJ/mol
# GULP energy per Si atom -12399.091868 kJ/mol
# Density = 1.873409 g / cm^3
# Si number density = 18.776830 Si / 1000 Ang^3
#
#
#
# Elastic Constant Matrix: (Units=GPa)
#
#
# Indices 1 2 3 4 5 6 
#
# 1 127.0129 49.8113 51.6525 0.0007 -17.2173 0.0000
# 2 49.8113 124.5519 23.6084 0.0009 7.5317 -0.0001
# 3 51.6525 23.6084 68.9306 0.0010 -17.6941 0.0000
# 4 0.0007 0.0009 0.0010 31.8124 -0.0006 -9.8754
# 5 -17.2173 7.5317 -17.6941 -0.0006 31.8609 0.0000
# 6 0.0000 -0.0001 0.0000 -9.8754 0.0000 35.4498
#
#
#
# Elastic Compliance Matrix: (Units=1/GPa)
#
#
# Indices 1 2 3 4 5 6 
#
# 1 0.012963 -0.004028 -0.007338 0.000000 0.003883 0.000000
# 2 -0.004028 0.010367 -0.002006 0.000000 -0.005742 0.000000
# 3 -0.007338 -0.002006 0.023088 0.000000 0.009331 0.000000
# 4 0.000000 0.000000 0.000000 0.034410 0.000001 0.009586
# 5 0.003883 -0.005742 0.009331 0.000001 0.040024 0.000000
# 6 0.000000 0.000000 0.000000 0.009586 0.000000 0.030879
#
#
# Mechanical properties :
#
#
# Convention : Reuss Voigt Hill
#
# Bulk Modulus (GPa) = 50.82677 63.40440 57.11559
# Shear Modulus (GPa) = 27.02212 32.85284 29.93748
#
# Velocity S-wave (km/s) = 3.79769 4.18742 3.99731
# Velocity P-wave (km/s) = 6.80864 7.56439 7.19644
#
# Compressibility (1/GPa) = 0.01967467
#
# Stress axis : x y z
#
# Youngs Moduli (GPa) = 77.14075 96.45786 43.31249
#
# Poissons Ratio (x) = 0.38856 0.31781
# Poissons Ratio (y) = 0.31075 0.08689
# Poissons Ratio (z) = 0.56603 0.19350
#
# Static dielectric constant tensor:
#      x y z
#    x 3.704500 0.000000 -0.270720 
#    y 0.000000 3.735180 0.000000 
#    z -0.270720 0.000000 3.284430 
# 
# 
# High freq. dielectric constant tensor:
#      x y z
#    x 1.733090 0.000000 -0.027190 
#    y 0.000000 1.752430 0.000000 
#    z -0.027190 0.000000 1.691740 
# 
# From -- ./inp_files/330342.got.cif
#   From: 2010.06.25/outbox.cif.g09.slc.cpg/sg12_166_cif.got.tgz:330342.got - 2010.06.28 00:19:55.
