data_PCOD8092112
_publ_section_title
;
Structure prediction by ZEFSAII (Michael W. Deem and Ramdas Pophale) SiO2 
 PCOD8092112
Probable space group: C 2/M
;
_chemical_formula_sum "Si O2"
_cell_formula_units_Z 56
_cell_length_a 19.138835
_cell_length_b 8.904802
_cell_length_c 19.008581
_cell_angle_alpha 90.000000
_cell_angle_beta 119.413600
_cell_angle_gamma 90.000000
_cell_volume 2821.994173
_symmetry_space_group_name_H-M "C 2/M"
_symmetry_group_IT_number 12
_symmetry_cell_setting 'monoclinic'
loop_
_space_group_symop_operation_xyz
x,y,z
-x,y,-z
-x,-y,-z
x,-y,z
1/2+x,1/2+y,z
1/2-x,1/2+y,-z
1/2-x,1/2-y,-z
1/2+x,1/2-y,z
loop_
_atom_site_type_symbol
_atom_site_label
_atom_site_fract_x
_atom_site_fract_y
_atom_site_fract_z
Si Si1 0.780861 0.323022 0.586411
Si Si2 0.801641 0.825537 0.311543
Si Si3 0.954557 0.668660 0.690237
Si Si4 0.461380 0.169156 0.409746
Si Si5 0.583499 0.177018 0.005024
Si Si6 0.599708 0.821936 0.851604
Si Si7 0.259720 0.678012 0.853608
O O1 0.788721 0.500000 0.576689
O O2 0.750000 0.250000 0.500000
O O3 0.720931 0.284333 0.619820
O O4 0.867168 0.254872 0.653680
O O5 0.893506 0.779841 0.348220
O O6 0.748564 0.732394 0.230530
O O7 0.789288 0.000000 0.288998
O O8 0.948650 0.500000 0.717360
O O9 0.970792 0.668656 0.615409
O O10 0.025710 0.748850 0.769876
O O11 0.500000 0.233184 0.500000
O O12 0.427241 0.000000 0.404495
O O13 0.656786 0.259194 0.077812
O O14 0.595785 0.000000 0.019218
O O15 0.500000 0.227452 0.000000
O O16 0.585035 0.226824 0.924429
O O17 0.684932 0.760412 0.863997
O O18 0.600880 0.000000 0.842596
O O19 0.262665 0.500000 0.857090
#
# Coordination Sequence:
#
# PCOD8092112 Si02
#       7
#     8   8   8   8   8   8   8
#     4  10  22  38  59  83 114 154 194 241 289 340
#     4  11  23  37  57  87 120 152 191 240 292 342
#     4   9  17  33  57  82 109 146 193 235 276 336
#     4  10  19  34  59  85 110 148 195 237 282 342
#     4  10  22  38  62  91 117 149 188 235 290 348
#     4   9  18  35  60  86 112 148 194 238 283 341
#     4  11  22  39  62  85 116 154 192 236 284 343
#
# _framework density 19.844124999999998
#
# number of rings (size 3 to 8) (size 9 to 14) (size 15 to 20)
#    0.000    2.000    1.429    2.143    2.000    2.857 
#    0.000    1.429    0.000    0.000    0.000    0.000 
#    0.000    0.000    0.000    0.000    0.000    0.000 
#
# Total GULP energy -347153.614192 kJ/mol
# GULP energy per Si atom -12398.343364 kJ/mol
# Density = 1.979896 g / cm^3
# Si number density = 19.844125 Si / 1000 Ang^3
#
#
#
# Elastic Constant Matrix: (Units=GPa)
#
#
# Indices 1 2 3 4 5 6 
#
# 1 107.7594 33.2471 43.8541 0.0000 10.6496 0.0000
# 2 33.2471 34.6855 34.0389 0.0000 2.2298 0.0000
# 3 43.8541 34.0389 138.7126 0.0000 8.1383 0.0000
# 4 0.0000 0.0000 0.0000 28.0878 0.0000 11.8866
# 5 10.6496 2.2298 8.1383 0.0000 39.2463 0.0000
# 6 0.0000 0.0000 0.0000 11.8866 0.0000 8.7816
#
#
#
# Elastic Compliance Matrix: (Units=1/GPa)
#
#
# Indices 1 2 3 4 5 6 
#
# 1 0.013681 -0.011658 -0.001301 0.000000 -0.002780 0.000000
# 2 -0.011658 0.047912 -0.008197 0.000000 0.002141 0.000000
# 3 -0.001301 -0.008197 0.009702 0.000000 -0.001193 0.000000
# 4 0.000000 0.000000 0.000000 0.083344 0.000000 -0.112811
# 5 -0.002780 0.002141 -0.001193 0.000000 0.026360 0.000000
# 6 0.000000 0.000000 0.000000 -0.112811 0.000000 0.266572
#
#
# Mechanical properties :
#
#
# Convention : Reuss Voigt Hill
#
# Bulk Modulus (GPa) = 34.50420 55.93754 45.22087
# Shear Modulus (GPa) = 10.00914 26.55765 18.28339
#
# Velocity S-wave (km/s) = 2.24829 3.66226 3.03867
# Velocity P-wave (km/s) = 4.91580 6.79210 5.92865
#
# Compressibility (1/GPa) = 0.02898198
#
# Stress axis : x y z
#
# Youngs Moduli (GPa) = 73.09327 20.87180 103.07062
#
# Poissons Ratio (x) = 0.24332 0.13414
# Poissons Ratio (y) = 0.85211 0.84488
# Poissons Ratio (z) = 0.09513 0.17109
#
# Static dielectric constant tensor:
#      x y z
#    x 3.808730 0.000000 0.005400 
#    y 0.000000 3.271390 0.000000 
#    z 0.005400 0.000000 3.833240 
# 
# 
# High freq. dielectric constant tensor:
#      x y z
#    x 1.784610 0.000000 0.001940 
#    y 0.000000 1.733450 0.000000 
#    z 0.001940 0.000000 1.789190 
# 
# From -- ./inp_files/275687.got.cif
#   From: 2010.06.25/outbox.cif.g09.slc.cpg/sg12_138_cif.got.tgz:275687.got - 2010.06.28 00:19:55.
