data_PCOD8092045
_publ_section_title
;
Structure prediction by ZEFSAII (Michael W. Deem and Ramdas Pophale) SiO2 
 PCOD8092045
Probable space group: C 2/M
;
_chemical_formula_sum "Si O2"
_cell_formula_units_Z 64
_cell_length_a 30.489961
_cell_length_b 8.487469
_cell_length_c 15.092619
_cell_angle_alpha 90.000000
_cell_angle_beta 51.079304
_cell_angle_gamma 90.000000
_cell_volume 3038.703719
_symmetry_space_group_name_H-M "C 2/M"
_symmetry_group_IT_number 12
_symmetry_cell_setting 'monoclinic'
loop_
_space_group_symop_operation_xyz
x,y,z
-x,y,-z
-x,-y,-z
x,-y,z
1/2+x,1/2+y,z
1/2-x,1/2+y,-z
1/2-x,1/2-y,-z
1/2+x,1/2-y,z
loop_
_atom_site_type_symbol
_atom_site_label
_atom_site_fract_x
_atom_site_fract_y
_atom_site_fract_z
Si Si1 0.509020 0.186906 0.740362
Si Si2 0.616795 0.815163 0.141326
Si Si3 0.550644 0.170213 0.873456
Si Si4 0.337165 0.683825 0.743501
Si Si5 0.287134 0.686965 0.107279
Si Si6 0.311280 0.312780 0.437460
Si Si7 0.847181 0.180748 0.202131
Si Si8 0.883400 0.315563 0.503919
O O1 0.445920 0.251295 0.801777
O O2 0.532426 0.254858 0.804125
O O3 0.553230 0.235541 0.606432
O O4 0.505831 0.000000 0.751627
O O5 0.626626 0.782263 0.232170
O O6 0.621127 0.000000 0.115861
O O7 0.665166 0.725748 0.025283
O O8 0.587423 0.279958 0.892908
O O9 0.579883 0.000000 0.815193
O O10 0.500000 0.131510 0.000000
O O11 0.342950 0.500000 0.756194
O O12 0.271740 0.729664 0.837482
O O13 0.363591 0.719623 0.614432
O O14 0.277564 0.500000 0.120212
O O15 0.308368 0.757193 0.175134
O O16 0.313941 0.500000 0.449648
O O17 0.250000 0.250000 0.500000
O O18 0.340084 0.255337 0.310542
O O19 0.339516 0.222247 0.482245
O O20 0.832690 0.000000 0.214532
O O21 0.880543 0.500000 0.529469
#
# Coordination Sequence:
#
# PCOD8092045 Si02
#       8
#     8   8   8   8   8   8   8   8
#     4   9  20  38  62  92 126 167 212 258 312 377
#     4  11  23  43  68  94 124 164 212 264 322 381
#     4  10  19  34  58  88 121 159 205 249 291 355
#     4  12  26  44  65  93 124 162 212 266 328 387
#     4  11  23  42  65  94 129 166 210 262 319 380
#     4  11  22  37  58  88 123 165 210 255 306 367
#     4  10  22  37  56  86 123 159 198 241 298 361
#     4  11  22  41  65  91 126 168 213 264 317 377
#
# _framework density 21.061613000000001
#
# number of rings (size 3 to 8) (size 9 to 14) (size 15 to 20)
#    0.000    1.375    1.250    4.500    0.000    4.250 
#    0.000    6.250    0.000    0.000    0.000    0.000 
#    0.000    0.000    0.000    0.000    0.000    0.000 
#
# Total GULP energy -396610.799999 kJ/mol
# GULP energy per Si atom -12394.087500 kJ/mol
# Density = 2.101368 g / cm^3
# Si number density = 21.061613 Si / 1000 Ang^3
#
#
#
# Elastic Constant Matrix: (Units=GPa)
#
#
# Indices 1 2 3 4 5 6 
#
# 1 126.8878 9.8930 25.1418 0.0000 -4.5302 0.0002
# 2 9.8930 37.7392 18.1310 -0.0002 -2.8731 0.0013
# 3 25.1418 18.1310 83.4359 0.0000 -8.4429 0.0001
# 4 0.0000 -0.0002 0.0000 9.6853 -0.0001 13.2247
# 5 -4.5302 -2.8731 -8.4429 -0.0001 39.5873 0.0000
# 6 0.0002 0.0013 0.0001 13.2247 0.0000 22.0504
#
#
#
# Elastic Compliance Matrix: (Units=1/GPa)
#
#
# Indices 1 2 3 4 5 6 
#
# 1 0.008429 -0.001092 -0.002262 0.000000 0.000403 0.000000
# 2 -0.001092 0.029752 -0.006061 0.000017 0.000742 -0.000012
# 3 -0.002262 -0.006061 0.014220 -0.000003 0.002334 0.000002
# 4 0.000000 0.000017 -0.000003 0.570181 0.000002 -0.341965
# 5 0.000403 0.000742 0.002334 0.000002 0.025858 -0.000001
# 6 0.000000 -0.000012 0.000002 -0.341965 -0.000001 0.250444
#
#
# Mechanical properties :
#
#
# Convention : Reuss Voigt Hill
#
# Bulk Modulus (GPa) = 29.78768 39.37717 34.58243
# Shear Modulus (GPa) = 5.38269 27.25776 16.32022
#
# Velocity S-wave (km/s) = 1.60039 3.60139 2.78669
# Velocity P-wave (km/s) = 4.19390 6.00251 5.17778
#
# Compressibility (1/GPa) = 0.03357093
#
# Stress axis : x y z
#
# Youngs Moduli (GPa) = 118.64288 33.61077 70.32323
#
# Poissons Ratio (x) = 0.03671 0.15905
# Poissons Ratio (y) = 0.12959 0.42624
# Poissons Ratio (z) = 0.26833 0.20372
#
# Static dielectric constant tensor:
#      x y z
#    x 4.027380 0.000000 0.026540 
#    y 0.000000 3.673730 0.000000 
#    z 0.026540 0.000000 3.946960 
# 
# 
# High freq. dielectric constant tensor:
#      x y z
#    x 1.837570 0.000000 -0.000390 
#    y 0.000000 1.811070 0.000000 
#    z -0.000390 0.000000 1.836630 
# 
# From -- ./inp_files/249731.got.cif
#   From: 2010.06.25/outbox.cif.g09.slc.cpg/sg12_125_cif.got.tgz:249731.got - 2010.06.28 00:19:55.
