data_PCOD8092074
_publ_section_title
;
Structure prediction by ZEFSAII (Michael W. Deem and Ramdas Pophale) SiO2 
 PCOD8092074
Probable space group: C 2/M
;
_chemical_formula_sum "Si O2"
_cell_formula_units_Z 48
_cell_length_a 14.895619
_cell_length_b 17.601670
_cell_length_c 10.207178
_cell_angle_alpha 90.000000
_cell_angle_beta 80.837498
_cell_angle_gamma 90.000000
_cell_volume 2642.050809
_symmetry_space_group_name_H-M "C 2/M"
_symmetry_group_IT_number 12
_symmetry_cell_setting 'monoclinic'
loop_
_space_group_symop_operation_xyz
x,y,z
-x,y,-z
-x,-y,-z
x,-y,z
1/2+x,1/2+y,z
1/2-x,1/2+y,-z
1/2-x,1/2-y,-z
1/2+x,1/2-y,z
loop_
_atom_site_type_symbol
_atom_site_label
_atom_site_fract_x
_atom_site_fract_y
_atom_site_fract_z
Si Si1 0.958846 0.410402 0.369654
Si Si2 0.570327 0.659679 0.094538
Si Si3 0.261690 0.912625 0.029308
Si Si4 0.568948 0.590716 0.372038
Si Si5 0.938236 0.338942 0.892586
Si Si6 0.231361 0.413397 0.670122
O O1 0.961854 0.500000 0.336457
O O2 0.854224 0.379235 0.390080
O O3 0.000000 0.391143 0.500000
O O4 0.017227 0.365393 0.251624
O O5 0.668301 0.631056 0.025026
O O6 0.538299 0.623402 0.239323
O O7 0.573839 0.749427 0.107977
O O8 0.500000 0.633631 0.000000
O O9 0.292186 0.903713 0.172107
O O10 0.247343 0.000000 0.994055
O O11 0.339477 0.877118 0.921287
O O12 0.500000 0.618649 0.500000
O O13 0.570598 0.500000 0.358624
O O14 0.669916 0.623562 0.384377
O O15 0.000000 0.365658 0.000000
O O16 0.240802 0.500000 0.626248
#
# Coordination Sequence:
#
# PCOD8092074 Si02
#       6
#     8   8   8   8   8   8
#     4  10  20  34  53  80 113 140 175 230 280 315
#     4  10  22  37  54  81 116 147 175 226 281 317
#     4  10  19  34  59  82 105 143 187 226 268 320
#     4   9  18  35  59  80 103 144 190 224 260 322
#     4  11  21  35  57  81 112 148 183 218 266 341
#     4   8  15  30  53  78 103 134 172 221 273 313
#
# _framework density 18.167705000000002
#
# number of rings (size 3 to 8) (size 9 to 14) (size 15 to 20)
#    0.000    2.333    1.667    2.500    0.000    2.667 
#    3.000    0.000    0.000    3.000    0.000    0.000 
#    0.000    0.000    0.000    0.000    0.000    0.000 
#
# Total GULP energy -297546.287683 kJ/mol
# GULP energy per Si atom -12397.761987 kJ/mol
# Density = 1.812635 g / cm^3
# Si number density = 18.167705 Si / 1000 Ang^3
#
#
#
# Elastic Constant Matrix: (Units=GPa)
#
#
# Indices 1 2 3 4 5 6 
#
# 1 166.3026 49.0817 94.7503 0.0000 -0.3278 0.0000
# 2 49.0817 56.6017 43.1121 0.0000 2.1610 0.0000
# 3 94.7503 43.1121 112.3093 0.0000 -1.7479 0.0000
# 4 0.0000 0.0000 0.0000 20.0308 0.0000 -1.1944
# 5 -0.3278 2.1610 -1.7479 0.0000 35.7175 0.0000
# 6 0.0000 0.0000 0.0000 -1.1944 0.0000 23.1004
#
#
#
# Elastic Compliance Matrix: (Units=1/GPa)
#
#
# Indices 1 2 3 4 5 6 
#
# 1 0.012146 -0.003848 -0.008771 0.000000 -0.000085 0.000000
# 2 -0.003848 0.026328 -0.006890 0.000000 -0.001965 0.000000
# 3 -0.008771 -0.006890 0.018968 0.000000 0.001265 0.000000
# 4 0.000000 0.000000 0.000000 0.050078 0.000000 0.002589
# 5 -0.000085 -0.001965 0.001265 0.000000 0.028177 0.000000
# 6 0.000000 0.000000 0.000000 0.002589 0.000000 0.043423
#
#
# Mechanical properties :
#
#
# Convention : Reuss Voigt Hill
#
# Bulk Modulus (GPa) = 54.28124 78.78909 66.53517
# Shear Modulus (GPa) = 22.29349 25.65437 23.97393
#
# Velocity S-wave (km/s) = 3.50679 3.76185 3.63656
# Velocity P-wave (km/s) = 6.80731 7.89497 7.37123
#
# Compressibility (1/GPa) = 0.01842257
#
# Stress axis : x y z
#
# Youngs Moduli (GPa) = 82.33104 37.98295 52.71912
#
# Poissons Ratio (x) = 0.14617 0.46241
# Poissons Ratio (y) = 0.31684 0.36325
# Poissons Ratio (z) = 0.72214 0.26171
#
# Static dielectric constant tensor:
#      x y z
#    x 3.756380 0.000000 0.051460 
#    y 0.000000 3.167330 0.000000 
#    z 0.051460 0.000000 3.211160 
# 
# 
# High freq. dielectric constant tensor:
#      x y z
#    x 1.722280 0.000000 -0.002420 
#    y 0.000000 1.686530 0.000000 
#    z -0.002420 0.000000 1.689530 
# 
# From -- ./inp_files/61732.got.cif
#   From: 2010.06.25/outbox.cif.g09.slc.cpg/sg12_31_cif.got.tgz:61732.got - 2010.06.28 00:19:55.
