data_PCOD8092065
_publ_section_title
;
Structure prediction by ZEFSAII (Michael W. Deem and Ramdas Pophale) SiO2 
 PCOD8092065
Probable space group: C 2/M
;
_chemical_formula_sum "Si O2"
_cell_formula_units_Z 56
_cell_length_a 18.026944
_cell_length_b 13.908435
_cell_length_c 12.620888
_cell_angle_alpha 90.000000
_cell_angle_beta 55.199348
_cell_angle_gamma 90.000000
_cell_volume 2598.417495
_symmetry_space_group_name_H-M "C 2/M"
_symmetry_group_IT_number 12
_symmetry_cell_setting 'monoclinic'
loop_
_space_group_symop_operation_xyz
x,y,z
-x,y,-z
-x,-y,-z
x,-y,z
1/2+x,1/2+y,z
1/2-x,1/2+y,-z
1/2-x,1/2-y,-z
1/2+x,1/2-y,z
loop_
_atom_site_type_symbol
_atom_site_label
_atom_site_fract_x
_atom_site_fract_y
_atom_site_fract_z
Si Si1 0.601293 0.205888 0.412842
Si Si2 0.884098 0.105435 0.868426
Si Si3 0.428250 0.191615 0.793961
Si Si4 0.308520 0.892575 0.067084
Si Si5 0.614614 0.890697 0.619397
Si Si6 0.292237 0.779590 0.283117
Si Si7 0.895551 0.109420 0.097205
O O1 0.500000 0.253797 0.500000
O O2 0.610731 0.158679 0.288674
O O3 0.610845 0.125453 0.496125
O O4 0.683320 0.279653 0.363203
O O5 0.949513 0.192767 0.778679
O O6 0.798160 0.110318 0.862589
O O7 0.931980 0.000000 0.816404
O O8 0.851525 0.117019 0.016654
O O9 0.517490 0.132718 0.749586
O O10 0.353223 0.173801 0.942479
O O11 0.332442 0.852089 0.163093
O O12 0.347341 0.000000 0.026823
O O13 0.685841 0.819967 0.617938
O O14 0.641627 0.000000 0.620205
O O15 0.338721 0.675406 0.225302
O O16 0.891142 0.000000 0.144577
O O17 0.000000 0.143075 0.000000
#
# Coordination Sequence:
#
# PCOD8092065 Si02
#       7
#     8   8   8   8   8   8   8
#     4  10  24  43  68  90 122 172 231 273 316 373
#     4  10  19  34  58  91 129 168 212 259 314 388
#     4  11  20  40  64  94 134 171 211 267 332 390
#     4  11  22  34  61  99 132 166 206 260 334 404
#     4  11  26  43  64  93 130 176 223 269 321 385
#     4  12  22  41  67  92 135 172 209 271 334 391
#     4  10  21  36  58  93 131 171 212 255 319 399
#
# _framework density 21.551580000000001
#
# number of rings (size 3 to 8) (size 9 to 14) (size 15 to 20)
#    0.000    1.286    2.857    3.429    0.000    3.714 
#    0.000    1.429    0.000   15.000    0.000    0.000 
#    0.000    0.000    0.000    0.000    0.000    0.000 
#
# Total GULP energy -347107.795728 kJ/mol
# GULP energy per Si atom -12396.706990 kJ/mol
# Density = 2.150253 g / cm^3
# Si number density = 21.551580 Si / 1000 Ang^3
#
#
#
# Elastic Constant Matrix: (Units=GPa)
#
#
# Indices 1 2 3 4 5 6 
#
# 1 106.3880 38.7190 27.8235 0.0000 -0.5231 0.0000
# 2 38.7190 132.0290 41.6790 0.0000 1.6895 0.0000
# 3 27.8235 41.6790 74.6555 0.0000 1.3081 0.0000
# 4 0.0000 0.0000 0.0000 25.4363 0.0000 3.6166
# 5 -0.5231 1.6895 1.3081 0.0000 30.4928 0.0000
# 6 0.0000 0.0000 0.0000 3.6166 0.0000 26.5810
#
#
#
# Elastic Compliance Matrix: (Units=1/GPa)
#
#
# Indices 1 2 3 4 5 6 
#
# 1 0.010986 -0.002346 -0.002792 0.000000 0.000438 0.000000
# 2 -0.002346 0.009698 -0.004533 0.000000 -0.000383 0.000000
# 3 -0.002792 -0.004533 0.016976 0.000000 -0.000525 0.000000
# 4 0.000000 0.000000 0.000000 0.040089 0.000000 -0.005455
# 5 0.000438 -0.000383 -0.000525 0.000000 0.032846 0.000000
# 6 0.000000 0.000000 0.000000 -0.005455 0.000000 0.038363
#
#
# Mechanical properties :
#
#
# Convention : Reuss Voigt Hill
#
# Bulk Modulus (GPa) = 54.59561 58.83505 56.71533
# Shear Modulus (GPa) = 28.66875 30.15876 29.41375
#
# Velocity S-wave (km/s) = 3.65120 3.74488 3.69834
# Velocity P-wave (km/s) = 6.56982 6.78659 6.67908
#
# Compressibility (1/GPa) = 0.01831649
#
# Stress axis : x y z
#
# Youngs Moduli (GPa) = 91.02721 103.11418 58.90819
#
# Poissons Ratio (x) = 0.24189 0.16449
# Poissons Ratio (y) = 0.21353 0.26705
# Poissons Ratio (z) = 0.25418 0.46744
#
# Static dielectric constant tensor:
#      x y z
#    x 3.970010 0.000000 0.165840 
#    y 0.000000 3.921530 0.000000 
#    z 0.165840 0.000000 3.771750 
# 
# 
# High freq. dielectric constant tensor:
#      x y z
#    x 1.850980 0.000000 0.016710 
#    y 0.000000 1.836510 0.000000 
#    z 0.016710 0.000000 1.830120 
# 
# From -- ./inp_files/156491.got.cif
#   From: 2010.06.25/outbox.cif.g09.slc.cpg/sg12_79_cif.got.tgz:156491.got - 2010.06.28 00:19:55.
