data_PCOD8092830
_publ_section_title
;
Structure prediction by ZEFSAII (Michael W. Deem and Ramdas Pophale) SiO2 
 PCOD8092830
Probable space group: C 2/M
;
_chemical_formula_sum "Si O2"
_cell_formula_units_Z 56
_cell_length_a 19.671829
_cell_length_b 17.685630
_cell_length_c 9.647903
_cell_angle_alpha 90.000000
_cell_angle_beta 62.699233
_cell_angle_gamma 90.000000
_cell_volume 2982.702473
_symmetry_space_group_name_H-M "C 2/M"
_symmetry_group_IT_number 12
_symmetry_cell_setting 'monoclinic'
loop_
_space_group_symop_operation_xyz
x,y,z
-x,y,-z
-x,-y,-z
x,-y,z
1/2+x,1/2+y,z
1/2-x,1/2+y,-z
1/2-x,1/2-y,-z
1/2+x,1/2-y,z
loop_
_atom_site_type_symbol
_atom_site_label
_atom_site_fract_x
_atom_site_fract_y
_atom_site_fract_z
Si Si1 0.759004 0.590290 0.176403
Si Si2 0.524694 0.643555 0.823677
Si Si3 0.061803 0.696543 0.761131
Si Si4 0.103534 0.682065 0.036071
Si Si5 0.721826 0.835802 0.544925
Si Si6 0.176881 0.084469 0.767373
Si Si7 0.362540 0.653416 0.914022
O O1 0.759718 0.500000 0.190976
O O2 0.755108 0.629971 0.328731
O O3 0.683842 0.619499 0.169493
O O4 0.833483 0.615574 0.016641
O O5 0.551947 0.717860 0.714900
O O6 0.594261 0.584440 0.765733
O O7 0.446621 0.612788 0.826089
O O8 0.500000 0.670831 0.000000
O O9 0.129441 0.657436 0.610187
O O10 0.979727 0.653184 0.828265
O O11 0.093333 0.705327 0.886980
O O12 0.130986 0.755165 0.098825
O O13 0.750000 0.750000 0.500000
O O14 0.756945 0.887271 0.393995
O O15 0.195783 0.000000 0.795063
O O16 0.178365 0.135040 0.902714
#
# Coordination Sequence:
#
# PCOD8092830 Si02
#       7
#     8   8   8   8   8   8   8
#     4  11  23  36  52  84 120 144 173 231 291 328
#     4   9  15  30  54  80 103 134 185 230 261 308
#     4   9  14  31  55  81  98 131 187 237 258 306
#     4   9  16  32  57  79 103 137 186 228 264 319
#     4  11  21  36  57  75 105 147 185 222 272 324
#     4  11  20  32  52  81 109 141 183 222 268 327
#     4  10  19  35  58  80 108 144 185 224 272 325
#
# _framework density 18.774920999999999
#
# number of rings (size 3 to 8) (size 9 to 14) (size 15 to 20)
#    0.000    2.000    5.714    2.143    0.000    3.143 
#    0.000    7.143    0.000    4.286    0.000    2.000 
#    0.000    0.000    0.000    0.000    0.000    0.000 
#
# Total GULP energy -346931.129614 kJ/mol
# GULP energy per Si atom -12390.397486 kJ/mol
# Density = 1.873219 g / cm^3
# Si number density = 18.774921 Si / 1000 Ang^3
#
#
#
# Elastic Constant Matrix: (Units=GPa)
#
#
# Indices 1 2 3 4 5 6 
#
# 1 110.8308 48.3186 51.6353 0.0000 -14.0341 0.0000
# 2 48.3186 88.9258 30.9822 0.0000 -5.3501 0.0000
# 3 51.6353 30.9822 79.3718 0.0000 -22.4565 0.0000
# 4 0.0000 0.0000 0.0000 16.7853 0.0000 -2.2726
# 5 -14.0341 -5.3501 -22.4565 0.0000 28.4496 0.0000
# 6 0.0000 0.0000 0.0000 -2.2726 0.0000 17.8898
#
#
#
# Elastic Compliance Matrix: (Units=1/GPa)
#
#
# Indices 1 2 3 4 5 6 
#
# 1 0.014949 -0.005500 -0.007448 0.000000 0.000461 0.000000
# 2 -0.005500 0.015129 -0.002949 0.000000 -0.002196 0.000000
# 3 -0.007448 -0.002949 0.022401 0.000000 0.013454 0.000000
# 4 0.000000 0.000000 0.000000 0.060618 0.000000 0.007701
# 5 0.000461 -0.002196 0.013454 0.000000 0.045584 0.000000
# 6 0.000000 0.000000 0.000000 0.007701 0.000000 0.056876
#
#
# Mechanical properties :
#
#
# Convention : Reuss Voigt Hill
#
# Bulk Modulus (GPa) = 48.33991 60.11116 54.22554
# Shear Modulus (GPa) = 19.66600 22.50444 21.08522
#
# Velocity S-wave (km/s) = 3.23996 3.46590 3.35483
# Velocity P-wave (km/s) = 6.30868 6.93562 6.62957
#
# Compressibility (1/GPa) = 0.02068684
#
# Stress axis : x y z
#
# Youngs Moduli (GPa) = 66.89523 66.09795 44.64005
#
# Poissons Ratio (x) = 0.36354 0.33246
# Poissons Ratio (y) = 0.36793 0.13163
# Poissons Ratio (z) = 0.49820 0.19490
#
# Static dielectric constant tensor:
#      x y z
#    x 3.942970 0.000000 -0.437480 
#    y 0.000000 3.238910 0.000000 
#    z -0.437480 0.000000 3.316100 
# 
# 
# High freq. dielectric constant tensor:
#      x y z
#    x 1.733880 0.000000 -0.028880 
#    y 0.000000 1.708810 0.000000 
#    z -0.028880 0.000000 1.699210 
# 
# From -- ./inp_files/75903.got.cif
#   From: 2010.06.25/outbox.cif.g09.slc.cpg/sg12_38_cif.got.tgz:75903.got - 2010.06.28 00:19:55.
