data_PCOD8092286
_publ_section_title
;
Structure prediction by ZEFSAII (Michael W. Deem and Ramdas Pophale) SiO2 
 PCOD8092286
Probable space group: C 2/M
;
_chemical_formula_sum "Si O2"
_cell_formula_units_Z 48
_cell_length_a 14.121016
_cell_length_b 13.587008
_cell_length_c 15.995907
_cell_angle_alpha 90.000000
_cell_angle_beta 136.686224
_cell_angle_gamma 90.000000
_cell_volume 2105.322011
_symmetry_space_group_name_H-M "C 2/M"
_symmetry_group_IT_number 12
_symmetry_cell_setting 'monoclinic'
loop_
_space_group_symop_operation_xyz
x,y,z
-x,y,-z
-x,-y,-z
x,-y,z
1/2+x,1/2+y,z
1/2-x,1/2+y,-z
1/2-x,1/2-y,-z
1/2+x,1/2-y,z
loop_
_atom_site_type_symbol
_atom_site_label
_atom_site_fract_x
_atom_site_fract_y
_atom_site_fract_z
Si Si1 0.381848 0.891719 0.725024
Si Si2 0.003931 0.393647 0.624391
Si Si3 0.224100 0.211210 0.156887
Si Si4 0.146681 0.212528 0.502937
Si Si5 0.414742 0.614206 0.253923
Si Si6 0.024691 0.786511 0.881724
O O1 0.408270 0.902395 0.644028
O O2 0.232459 0.834836 0.635492
O O3 0.504106 0.828946 0.845876
O O4 0.373221 0.000000 0.761660
O O5 0.006607 0.500000 0.580308
O O6 0.155818 0.367195 0.754067
O O7 0.939749 0.309495 0.522321
O O8 0.281865 0.323214 0.199160
O O9 0.110141 0.184234 0.152203
O O10 0.162298 0.199029 0.024080
O O11 0.250000 0.250000 0.500000
O O12 0.041659 0.131762 0.398583
O O13 0.374014 0.500000 0.226738
O O14 0.465015 0.648018 0.194387
#
# Coordination Sequence:
#
# PCOD8092286 Si02
#       6
#     8   8   8   8   8   8
#     4  10  19  34  61  87 113 154 198 239 298 360
#     4   9  18  34  59  83 111 152 192 236 291 350
#     4  10  23  40  59  84 126 154 200 254 296 346
#     4   9  16  35  58  88 118 149 192 245 296 353
#     4  11  22  38  62  91 119 156 200 249 302 354
#     4  11  22  40  60  86 119 164 198 245 300 356
#
# _framework density 22.799361999999999
#
# number of rings (size 3 to 8) (size 9 to 14) (size 15 to 20)
#    0.000    2.000    5.000    1.000    0.000    3.333 
#    0.000    6.667    0.000    6.000    0.000    0.000 
#    0.000    0.000    0.000    0.000    0.000    0.000 
#
# Total GULP energy -297432.519688 kJ/mol
# GULP energy per Si atom -12393.021654 kJ/mol
# Density = 2.274747 g / cm^3
# Si number density = 22.799362 Si / 1000 Ang^3
#
#
#
# Elastic Constant Matrix: (Units=GPa)
#
#
# Indices 1 2 3 4 5 6 
#
# 1 44.7369 10.0300 17.0081 0.0000 6.9094 0.0000
# 2 10.0300 161.0718 27.0686 0.0000 11.5627 0.0000
# 3 17.0081 27.0686 71.0995 0.0000 23.4472 0.0000
# 4 0.0000 0.0000 0.0000 14.0353 0.0000 9.5630
# 5 6.9094 11.5627 23.4472 0.0000 27.8161 0.0000
# 6 0.0000 0.0000 0.0000 9.5630 0.0000 5.9356
#
#
#
# Elastic Compliance Matrix: (Units=1/GPa)
#
#
# Indices 1 2 3 4 5 6 
#
# 1 0.024686 -0.000555 -0.005191 0.000000 -0.001526 0.000000
# 2 -0.000555 0.006661 -0.002126 0.000000 -0.000838 0.000000
# 3 -0.005191 -0.002126 0.021328 0.000000 -0.015805 0.000000
# 4 0.000000 0.000000 0.000000 -0.728980 0.000000 1.174472
# 5 -0.001526 -0.000838 -0.015805 0.000000 0.050001 0.000000
# 6 0.000000 0.000000 0.000000 1.174472 0.000000 -1.723736
#
#
# Mechanical properties :
#
#
# Convention : Reuss Voigt Hill
#
# Bulk Modulus (GPa) = 27.07830 42.79128 34.93479
# Shear Modulus (GPa) = -2.15333 24.41083 11.12875
#
# Velocity S-wave (km/s) = -0.97289 3.27568 2.21173
# Velocity P-wave (km/s) = 3.26198 5.75466 4.67743
#
# Compressibility (1/GPa) = 0.03692995
#
# Stress axis : x y z
#
# Youngs Moduli (GPa) = 40.50801 150.13818 46.88597
#
# Poissons Ratio (x) = 0.08338 0.24338
# Poissons Ratio (y) = 0.02250 0.09970
# Poissons Ratio (z) = 0.21027 0.31926
#
# Static dielectric constant tensor:
#      x y z
#    x 4.023790 0.000000 0.324280 
#    y 0.000000 4.861630 0.000000 
#    z 0.324280 0.000000 2.652240 
# 
# 
# High freq. dielectric constant tensor:
#      x y z
#    x 1.902390 0.000000 0.009500 
#    y 0.000000 1.889950 0.000000 
#    z 0.009500 0.000000 1.898200 
# 
# From -- ./inp_files/142888.got.cif
#   From: 2010.06.25/outbox.cif.g09.slc.cpg/sg12_72_cif.got.tgz:142888.got - 2010.06.28 00:19:55.
