data_PCOD8092331
_publ_section_title
;
Structure prediction by ZEFSAII (Michael W. Deem and Ramdas Pophale) SiO2 
 PCOD8092331
Probable space group: C 2/M
;
_chemical_formula_sum "Si O2"
_cell_formula_units_Z 56
_cell_length_a 8.713766
_cell_length_b 17.312928
_cell_length_c 15.501188
_cell_angle_alpha 90.000000
_cell_angle_beta 93.402716
_cell_angle_gamma 90.000000
_cell_volume 2334.398897
_symmetry_space_group_name_H-M "C 2/M"
_symmetry_group_IT_number 12
_symmetry_cell_setting 'monoclinic'
loop_
_space_group_symop_operation_xyz
x,y,z
-x,y,-z
-x,-y,-z
x,-y,z
1/2+x,1/2+y,z
1/2-x,1/2+y,-z
1/2-x,1/2-y,-z
1/2+x,1/2-y,z
loop_
_atom_site_type_symbol
_atom_site_label
_atom_site_fract_x
_atom_site_fract_y
_atom_site_fract_z
Si Si1 0.097953 0.726419 0.357382
Si Si2 0.569248 0.500000 0.600107
Si Si3 0.816800 0.590974 0.860973
Si Si4 0.686171 0.146146 0.612455
Si Si5 0.882350 0.853924 0.288546
Si Si6 0.856096 0.407954 0.197014
Si Si7 0.321466 0.000000 0.493198
Si Si8 0.832004 0.908333 0.972635
O O1 0.197949 0.787187 0.415370
O O2 0.212898 0.666815 0.317282
O O3 0.988169 0.674294 0.414822
O O4 0.989948 0.778069 0.289513
O O5 0.500000 0.500000 0.500000
O O6 0.533323 0.422222 0.653242
O O7 0.754137 0.500000 0.587763
O O8 0.829692 0.500000 0.854819
O O9 0.658423 0.616091 0.807868
O O10 0.976141 0.624022 0.826749
O O11 0.792397 0.617678 0.959044
O O12 0.694427 0.131951 0.715703
O O13 0.740648 0.072652 0.561670
O O14 0.857593 0.500000 0.209418
O O15 0.730685 0.380554 0.122269
O O16 0.500000 0.000000 0.500000
O O17 0.843314 0.000000 0.972895
O O18 0.000000 0.872883 0.000000
#
# Coordination Sequence:
#
# PCOD8092331 Si02
#       8
#     8   4   8   8   8   8   4   8
#     4  10  24  40  66  91 132 172 218 254 316 397
#     4  12  26  46  68 103 130 159 213 278 323 374
#     4  10  19  34  63  92 124 171 216 267 321 374
#     4  11  22  44  62  98 124 176 213 262 318 379
#     4  11  22  44  66  94 130 172 217 262 320 385
#     4  10  19  34  63  90 128 166 221 265 318 379
#     4  12  26  42  72  99 130 159 213 272 319 378
#     4   9  19  33  51  96 135 162 206 276 325 368
#
# _framework density 23.989045000000001
#
# number of rings (size 3 to 8) (size 9 to 14) (size 15 to 20)
#    0.000    1.571    2.857    2.143    2.000    1.714 
#    0.000   14.286    0.000    5.143    0.000    0.000 
#    0.000    0.000    0.000    0.000    0.000    0.000 
#
# Total GULP energy -346991.747182 kJ/mol
# GULP energy per Si atom -12392.562399 kJ/mol
# Density = 2.393444 g / cm^3
# Si number density = 23.989045 Si / 1000 Ang^3
#
#
#
# Elastic Constant Matrix: (Units=GPa)
#
#
# Indices 1 2 3 4 5 6 
#
# 1 69.0355 3.6538 -6.1291 0.0000 17.6015 0.0000
# 2 3.6538 77.8370 21.4247 0.0000 1.8154 0.0000
# 3 -6.1291 21.4247 76.9058 0.0000 9.7581 0.0000
# 4 0.0000 0.0000 0.0000 -24.0387 0.0000 18.0444
# 5 17.6015 1.8154 9.7581 0.0000 26.8953 0.0000
# 6 0.0000 0.0000 0.0000 18.0444 0.0000 35.1457
#
#
#
# Elastic Compliance Matrix: (Units=1/GPa)
#
#
# Indices 1 2 3 4 5 6 
#
# 1 0.018222 -0.001524 0.003540 0.000000 -0.013107 0.000000
# 2 -0.001524 0.014048 -0.004236 0.000000 0.001586 0.000000
# 3 0.003540 -0.004236 0.015433 0.000000 -0.007630 0.000000
# 4 0.000000 0.000000 0.000000 -0.030027 0.000000 0.015417
# 5 -0.013107 0.001586 -0.007630 0.000000 0.048420 0.000000
# 6 0.000000 0.000000 0.000000 0.015417 0.000000 0.020538
#
#
# Mechanical properties :
#
#
# Convention : Reuss Voigt Hill
#
# Bulk Modulus (GPa) = 23.11477 29.07522 26.09500
# Shear Modulus (GPa) = 47.39531 21.25572 34.32551
#
# Velocity S-wave (km/s) = 4.44971 2.97990 3.78681
# Velocity P-wave (km/s) = 6.00470 4.89758 5.47917
#
# Compressibility (1/GPa) = 0.04326238
#
# Stress axis : x y z
#
# Youngs Moduli (GPa) = 54.87879 71.18488 64.79483
#
# Poissons Ratio (x) = 0.10849 -0.22936
# Poissons Ratio (y) = 0.08364 0.27449
# Poissons Ratio (z) = -0.19426 0.30156
#
# Static dielectric constant tensor:
#      x y z
#    x 4.726200 0.000000 0.031520 
#    y 0.000000 4.408490 0.000000 
#    z 0.031520 0.000000 4.380660 
# 
# 
# High freq. dielectric constant tensor:
#      x y z
#    x 1.974360 0.000000 0.004570 
#    y 0.000000 1.932840 0.000000 
#    z 0.004570 0.000000 1.934430 
# 
# From -- ./inp_files/197590.got.cif
#   From: 2010.06.25/outbox.cif.g09.slc.cpg/sg12_99_cif.got.tgz:197590.got - 2010.06.28 00:19:55.
