data_PCOD8092498
_publ_section_title
;
Structure prediction by ZEFSAII (Michael W. Deem and Ramdas Pophale) SiO2 
 PCOD8092498
Probable space group: C 2/M
;
_chemical_formula_sum "Si O2"
_cell_formula_units_Z 40
_cell_length_a 21.060429
_cell_length_b 13.264557
_cell_length_c 9.339525
_cell_angle_alpha 90.000000
_cell_angle_beta 55.485532
_cell_angle_gamma 90.000000
_cell_volume 2149.824839
_symmetry_space_group_name_H-M "C 2/M"
_symmetry_group_IT_number 12
_symmetry_cell_setting 'monoclinic'
loop_
_space_group_symop_operation_xyz
x,y,z
-x,y,-z
-x,-y,-z
x,-y,z
1/2+x,1/2+y,z
1/2-x,1/2+y,-z
1/2-x,1/2-y,-z
1/2+x,1/2-y,z
loop_
_atom_site_type_symbol
_atom_site_label
_atom_site_fract_x
_atom_site_fract_y
_atom_site_fract_z
Si Si1 0.404931 0.686095 0.993969
Si Si2 0.708096 0.718853 0.409011
Si Si3 0.933065 0.117479 0.276053
Si Si4 0.740436 0.885576 0.147908
Si Si5 0.670250 0.113339 0.927841
O O1 0.480601 0.658462 0.806816
O O2 0.408184 0.635027 0.144831
O O3 0.329662 0.644421 0.009801
O O4 0.398304 0.807621 0.018610
O O5 0.750000 0.750000 0.500000
O O6 0.623092 0.676610 0.545671
O O7 0.700426 0.816791 0.318772
O O8 0.757806 0.632211 0.268860
O O9 0.929528 0.000000 0.316345
O O10 0.734295 0.000000 0.209389
O O11 0.697077 0.869339 0.055289
O O12 0.639378 0.000000 0.943127
#
# Coordination Sequence:
#
# PCOD8092498 Si02
#       5
#     8   8   8   8   8
#     4  10  19  35  55  81 112 146 181 221 275 331
#     4  11  20  34  56  85 114 138 183 234 272 320
#     4  11  21  34  55  84 115 142 174 228 284 328
#     4  10  20  37  59  81 109 152 188 221 271 328
#     4  10  21  38  58  79 112 151 188 223 268 327
#
# _framework density 18.606166000000002
#
# number of rings (size 3 to 8) (size 9 to 14) (size 15 to 20)
#    0.000    1.600    4.000    5.400    0.000    0.800 
#    0.000    7.000    0.000    9.600    0.000    0.000 
#    0.000    0.000    0.000    0.000    0.000    0.000 
#
# Total GULP energy -248016.348799 kJ/mol
# GULP energy per Si atom -12400.817440 kJ/mol
# Density = 1.856382 g / cm^3
# Si number density = 18.606166 Si / 1000 Ang^3
#
#
#
# Elastic Constant Matrix: (Units=GPa)
#
#
# Indices 1 2 3 4 5 6 
#
# 1 33.3048 41.4433 37.3797 0.0000 -18.6598 0.0000
# 2 41.4433 145.1772 72.4727 0.0000 -19.2308 0.0000
# 3 37.3797 72.4727 126.1387 0.0000 -20.6353 0.0000
# 4 0.0000 0.0000 0.0000 24.8968 0.0000 4.5089
# 5 -18.6598 -19.2308 -20.6353 0.0000 35.4349 0.0000
# 6 0.0000 0.0000 0.0000 4.5089 0.0000 28.7991
#
#
#
# Elastic Compliance Matrix: (Units=1/GPa)
#
#
# Indices 1 2 3 4 5 6 
#
# 1 0.069185 -0.011604 -0.009843 0.000000 0.024403 0.000000
# 2 -0.011604 0.011765 -0.003621 0.000000 -0.001834 0.000000
# 3 -0.009843 -0.003621 0.012994 0.000000 0.000418 0.000000
# 4 0.000000 0.000000 0.000000 0.041338 0.000000 -0.006472
# 5 0.024403 -0.001834 0.000418 0.000000 0.040319 0.000000
# 6 0.000000 0.000000 0.000000 -0.006472 0.000000 0.035737
#
#
# Mechanical properties :
#
#
# Convention : Reuss Voigt Hill
#
# Bulk Modulus (GPa) = 22.82704 67.46803 45.14753
# Shear Modulus (GPa) = 18.11095 28.04784 23.07939
#
# Velocity S-wave (km/s) = 3.12330 3.88680 3.52578
# Velocity P-wave (km/s) = 5.03009 7.51550 6.39471
#
# Compressibility (1/GPa) = 0.04380769
#
# Stress axis : x y z
#
# Youngs Moduli (GPa) = 14.45405 84.99517 76.96098
#
# Poissons Ratio (x) = 0.98627 0.75753
# Poissons Ratio (y) = 0.16772 0.27869
# Poissons Ratio (z) = 0.14227 0.30778
#
# Static dielectric constant tensor:
#      x y z
#    x 3.333200 0.000000 -0.125680 
#    y 0.000000 3.694960 0.000000 
#    z -0.125680 0.000000 3.879020 
# 
# 
# High freq. dielectric constant tensor:
#      x y z
#    x 1.707560 0.000000 0.002440 
#    y 0.000000 1.739200 0.000000 
#    z 0.002440 0.000000 1.714700 
# 
# From -- ./inp_files/85494.got.cif
#   From: 2010.06.25/outbox.cif.g09.slc.cpg/sg12_43_cif.got.tgz:85494.got - 2010.06.28 00:19:55.
