data_PCOD8092575
_publ_section_title
;
Structure prediction by ZEFSAII (Michael W. Deem and Ramdas Pophale) SiO2 
 PCOD8092575
Probable space group: C 2/M
;
_chemical_formula_sum "Si O2"
_cell_formula_units_Z 64
_cell_length_a 15.938762
_cell_length_b 8.648079
_cell_length_c 29.026558
_cell_angle_alpha 90.000000
_cell_angle_beta 127.988646
_cell_angle_gamma 90.000000
_cell_volume 3153.327970
_symmetry_space_group_name_H-M "C 2/M"
_symmetry_group_IT_number 12
_symmetry_cell_setting 'monoclinic'
loop_
_space_group_symop_operation_xyz
x,y,z
-x,y,-z
-x,-y,-z
x,-y,z
1/2+x,1/2+y,z
1/2-x,1/2+y,-z
1/2-x,1/2-y,-z
1/2+x,1/2-y,z
loop_
_atom_site_type_symbol
_atom_site_label
_atom_site_fract_x
_atom_site_fract_y
_atom_site_fract_z
Si Si1 0.136946 0.823627 0.965137
Si Si2 0.093355 0.683683 0.362908
Si Si3 0.058826 0.316714 0.768620
Si Si4 0.667191 0.683214 0.563580
Si Si5 0.985623 0.183064 0.569026
Si Si6 0.883579 0.335339 0.952682
Si Si7 0.024120 0.682820 0.160776
Si Si8 0.798779 0.183250 0.833772
O O1 0.054885 0.725543 0.907217
O O2 0.129360 0.000000 0.946730
O O3 0.250000 0.750000 0.000000
O O4 0.124856 0.808483 0.015609
O O5 0.097419 0.500000 0.364270
O O6 0.213084 0.752255 0.397376
O O7 0.024713 0.747754 0.296939
O O8 0.035167 0.736256 0.389607
O O9 0.057293 0.500000 0.768517
O O10 0.176516 0.259615 0.793754
O O11 0.025845 0.255243 0.808059
O O12 0.671673 0.500000 0.565024
O O13 0.600613 0.734977 0.586685
O O14 0.606007 0.739312 0.497139
O O15 0.981902 0.000000 0.574649
O O16 0.817236 0.500000 0.937778
O O17 0.861834 0.267588 0.895410
O O18 0.000000 0.396959 0.000000
O O19 0.040543 0.500000 0.167811
O O20 0.140066 0.762603 0.192093
O O21 0.807066 0.000000 0.842074
#
# Coordination Sequence:
#
# PCOD8092575 Si02
#       8
#     8   8   8   8   8   8   8   8
#     4  12  24  38  59  86 115 146 180 227 284 346
#     4  10  19  35  56  79 108 149 192 232 278 332
#     4   9  22  40  57  78 110 150 193 232 277 337
#     4   8  16  31  54  80 114 152 184 222 279 341
#     4   9  17  32  53  83 115 146 185 231 279 333
#     4  11  22  37  59  86 113 139 177 227 280 348
#     4  11  22  40  61  83 110 147 190 235 280 338
#     4  11  22  39  61  84 112 149 186 233 291 345
#
# _framework density 20.296019000000001
#
# number of rings (size 3 to 8) (size 9 to 14) (size 15 to 20)
#    0.000    1.875    1.250    4.125    0.000    2.500 
#    0.000    7.500    0.000    0.000    0.000    0.000 
#    0.000    0.000    0.000    0.000    0.000    0.000 
#
# Total GULP energy -396428.681691 kJ/mol
# GULP energy per Si atom -12388.396303 kJ/mol
# Density = 2.024982 g / cm^3
# Si number density = 20.296019 Si / 1000 Ang^3
#
#
#
# Elastic Constant Matrix: (Units=GPa)
#
#
# Indices 1 2 3 4 5 6 
#
# 1 165.5090 25.6274 68.2161 0.0000 6.9067 0.0000
# 2 25.6274 58.6309 24.4617 0.0000 1.9116 0.0000
# 3 68.2161 24.4617 96.1774 0.0000 7.1124 0.0000
# 4 0.0000 0.0000 0.0000 29.4921 0.0000 -5.4098
# 5 6.9067 1.9116 7.1124 0.0000 27.5648 0.0000
# 6 0.0000 0.0000 0.0000 -5.4098 0.0000 32.6745
#
#
#
# Elastic Compliance Matrix: (Units=1/GPa)
#
#
# Indices 1 2 3 4 5 6 
#
# 1 0.008644 -0.001364 -0.005740 0.000000 -0.000590 0.000000
# 2 -0.001364 0.019296 -0.003942 0.000000 0.000021 0.000000
# 3 -0.005740 -0.003942 0.015643 0.000000 -0.002325 0.000000
# 4 0.000000 0.000000 0.000000 0.034969 0.000000 0.005790
# 5 -0.000590 0.000021 -0.002325 0.000000 0.037024 0.000000
# 6 0.000000 0.000000 0.000000 0.005790 0.000000 0.031564
#
#
# Mechanical properties :
#
#
# Convention : Reuss Voigt Hill
#
# Bulk Modulus (GPa) = 46.53120 61.88084 54.20602
# Shear Modulus (GPa) = 28.34535 31.41375 29.87955
#
# Velocity S-wave (km/s) = 3.74116 3.93845 3.84107
# Velocity P-wave (km/s) = 6.45273 7.15802 6.81450
#
# Compressibility (1/GPa) = 0.02149095
#
# Stress axis : x y z
#
# Youngs Moduli (GPa) = 115.69184 51.82439 63.92532
#
# Poissons Ratio (x) = 0.07069 0.36694
# Poissons Ratio (y) = 0.15780 0.25198
# Poissons Ratio (z) = 0.66409 0.20428
#
# Static dielectric constant tensor:
#      x y z
#    x 4.068600 0.000000 0.184530 
#    y 0.000000 3.581940 0.000000 
#    z 0.184530 0.000000 3.747910 
# 
# 
# High freq. dielectric constant tensor:
#      x y z
#    x 1.810650 0.000000 0.003340 
#    y 0.000000 1.772750 0.000000 
#    z 0.003340 0.000000 1.780650 
# 
# From -- ./inp_files/375613.got.cif
#   From: 2010.06.25/outbox.cif.g09.slc.cpg/sg12_188_cif.got.tgz:375613.got - 2010.06.28 00:19:55.
