data_PCOD8092879
_publ_section_title
;
Structure prediction by ZEFSAII (Michael W. Deem and Ramdas Pophale) SiO2 
 PCOD8092879
Probable space group: C 2/M
;
_chemical_formula_sum "Si O2"
_cell_formula_units_Z 56
_cell_length_a 22.334506
_cell_length_b 20.036441
_cell_length_c 20.267564
_cell_angle_alpha 90.000000
_cell_angle_beta 162.307045
_cell_angle_gamma 90.000000
_cell_volume 2756.461542
_symmetry_space_group_name_H-M "C 2/M"
_symmetry_group_IT_number 12
_symmetry_cell_setting 'monoclinic'
loop_
_space_group_symop_operation_xyz
x,y,z
-x,y,-z
-x,-y,-z
x,-y,z
1/2+x,1/2+y,z
1/2-x,1/2+y,-z
1/2-x,1/2-y,-z
1/2+x,1/2-y,z
loop_
_atom_site_type_symbol
_atom_site_label
_atom_site_fract_x
_atom_site_fract_y
_atom_site_fract_z
Si Si1 0.002502 0.682791 0.578091
Si Si2 0.655900 0.785332 0.219553
Si Si3 0.675493 0.929492 0.234963
Si Si4 0.555890 0.077956 0.742160
Si Si5 0.603482 0.654037 0.842321
Si Si6 0.214914 0.574171 0.421969
Si Si7 0.154365 0.264328 0.999219
O O1 0.818121 0.729636 0.400104
O O2 0.000000 0.659667 0.500000
O O3 0.977505 0.616895 0.595938
O O4 0.205532 0.720941 0.805975
O O5 0.769402 0.855914 0.320981
O O6 0.532137 0.793254 0.157223
O O7 0.500000 0.764620 0.000000
O O8 0.599717 0.928893 0.231265
O O9 0.802150 0.000000 0.358802
O O10 0.500000 0.935104 0.000000
O O11 0.426302 0.100704 0.668717
O O12 0.544290 0.000000 0.714714
O O13 0.779352 0.098539 0.992695
O O14 0.397073 0.623805 0.603762
O O15 0.568810 0.719657 0.849963
O O16 0.721152 0.674239 0.899749
O O17 0.289823 0.500000 0.519983
#
# Coordination Sequence:
#
# PCOD8092879 Si02
#       7
#     8   8   8   8   8   8   8
#     4  11  22  38  58  85 118 152 200 249 293 348
#     4  11  20  35  59  79 112 152 189 237 290 342
#     4   9  19  34  55  84 114 148 187 230 286 349
#     4  10  22  38  59  85 116 157 197 243 298 347
#     4  10  20  35  57  83 117 143 191 240 285 349
#     4  10  19  35  58  82 114 152 191 235 284 346
#     4  10  21  35  54  86 112 148 189 238 293 344
#
# _framework density 20.315901
#
# number of rings (size 3 to 8) (size 9 to 14) (size 15 to 20)
#    0.000    1.857    1.429    3.000    0.000    0.286 
#    0.000    6.429    0.000    1.714    0.000    0.000 
#    0.000    0.000    0.000    0.000    0.000    0.000 
#
# Total GULP energy -346946.891396 kJ/mol
# GULP energy per Si atom -12390.960407 kJ/mol
# Density = 2.026966 g / cm^3
# Si number density = 20.315901 Si / 1000 Ang^3
#
#
#
# Elastic Constant Matrix: (Units=GPa)
#
#
# Indices 1 2 3 4 5 6 
#
# 1 106.6776 38.0070 41.7154 -0.1276 -12.9360 0.0397
# 2 38.0070 125.0892 43.2811 -0.0576 -0.4065 0.0317
# 3 41.7154 43.2811 73.2236 -0.2353 -10.3509 -0.0068
# 4 -0.1276 -0.0576 -0.2353 36.8735 -0.1511 -0.8767
# 5 -12.9360 -0.4065 -10.3509 -0.1511 33.6096 0.0198
# 6 0.0397 0.0317 -0.0068 -0.8767 0.0198 29.8854
#
#
#
# Elastic Compliance Matrix: (Units=1/GPa)
#
#
# Indices 1 2 3 4 5 6 
#
# 1 0.012625 -0.001872 -0.005648 0.000017 0.003097 -0.000018
# 2 -0.001872 0.010431 -0.005419 -0.000034 -0.002263 -0.000009
# 3 -0.005648 -0.005419 0.020661 0.000121 0.004124 0.000019
# 4 0.000017 -0.000034 0.000121 0.027140 0.000165 0.000796
# 5 0.003097 -0.002263 0.004124 0.000165 0.032189 -0.000017
# 6 -0.000018 -0.000009 0.000019 0.000796 -0.000017 0.033485
#
#
# Mechanical properties :
#
#
# Convention : Reuss Voigt Hill
#
# Bulk Modulus (GPa) = 56.05783 61.22194 58.63989
# Shear Modulus (GPa) = 29.69908 32.20616 30.95262
#
# Velocity S-wave (km/s) = 3.82758 3.98586 3.90752
# Velocity P-wave (km/s) = 6.86927 7.16821 7.02033
#
# Compressibility (1/GPa) = 0.01783872
#
# Stress axis : x y z
#
# Youngs Moduli (GPa) = 79.20651 95.87152 48.39981
#
# Poissons Ratio (x) = 0.17943 0.27338
# Poissons Ratio (y) = 0.14824 0.26229
# Poissons Ratio (z) = 0.44739 0.51954
#
# Static dielectric constant tensor:
#      x y z
#    x 3.675780 -0.000080 -0.241290 
#    y -0.000080 4.077910 -0.000170 
#    z -0.241290 -0.000170 3.497390 
# 
# 
# High freq. dielectric constant tensor:
#      x y z
#    x 1.786960 -0.000010 -0.025020 
#    y -0.000010 1.808210 -0.000020 
#    z -0.025020 -0.000020 1.778770 
# 
# From -- ./inp_files/286105.got.cif
#   From: 2010.06.25/outbox.cif.g09.slc.cpg/sg12_144_cif.got.tgz:286105.got - 2010.06.28 00:19:55.
