data_PCOD8092809
_publ_section_title
;
Structure prediction by ZEFSAII (Michael W. Deem and Ramdas Pophale) SiO2 
 PCOD8092809
Probable space group: C 2/M
;
_chemical_formula_sum "Si O2"
_cell_formula_units_Z 56
_cell_length_a 23.680766
_cell_length_b 13.948677
_cell_length_c 9.409835
_cell_angle_alpha 90.000000
_cell_angle_beta 59.237527
_cell_angle_gamma 90.000000
_cell_volume 2670.872153
_symmetry_space_group_name_H-M "C 2/M"
_symmetry_group_IT_number 12
_symmetry_cell_setting 'monoclinic'
loop_
_space_group_symop_operation_xyz
x,y,z
-x,y,-z
-x,-y,-z
x,-y,z
1/2+x,1/2+y,z
1/2-x,1/2+y,-z
1/2-x,1/2-y,-z
1/2+x,1/2-y,z
loop_
_atom_site_type_symbol
_atom_site_label
_atom_site_fract_x
_atom_site_fract_y
_atom_site_fract_z
Si Si1 0.595122 0.223240 0.226700
Si Si2 0.116340 0.106083 0.654130
Si Si3 0.614484 0.111154 0.490008
Si Si4 0.713380 0.216570 0.909844
Si Si5 0.233369 0.892110 0.698581
Si Si6 0.528116 0.220761 0.811440
Si Si7 0.662261 0.609524 0.288616
O O1 0.588977 0.164586 0.381271
O O2 0.526077 0.237535 0.239825
O O3 0.627068 0.327544 0.213182
O O4 0.643908 0.170092 0.050055
O O5 0.192234 0.112741 0.606393
O O6 0.067538 0.181151 0.790849
O O7 0.118020 0.125628 0.484604
O O8 0.088558 0.000000 0.723569
O O9 0.690594 0.135475 0.422270
O O10 0.577066 0.142202 0.681676
O O11 0.601615 0.000000 0.480610
O O12 0.699184 0.312187 0.838752
O O13 0.761992 0.139844 0.773482
O O14 0.750000 0.250000 0.000000
O O15 0.228840 0.000000 0.771020
O O16 0.500000 0.185091 0.000000
O O17 0.662128 0.500000 0.237827
#
# Coordination Sequence:
#
# PCOD8092809 Si02
#       7
#     8   8   8   8   8   8   8
#     4  11  23  42  63  93 128 173 212 250 317 376
#     4  10  22  40  64  96 128 167 210 254 316 381
#     4  11  24  44  68  94 123 167 218 261 313 375
#     4  10  19  35  57  92 123 158 205 259 304 369
#     4  10  20  38  66  94 128 167 207 260 319 370
#     4  12  26  43  64  91 129 170 212 264 311 372
#     4  10  21  38  62  96 129 161 208 263 312 370
#
# _framework density 20.966933999999998
#
# number of rings (size 3 to 8) (size 9 to 14) (size 15 to 20)
#    0.000    1.429    4.286    1.286    0.000    8.571 
#    0.000    1.429    0.000    0.000    0.000    0.000 
#    0.000    0.000    0.000    0.000    0.000    0.000 
#
# Total GULP energy -347041.695543 kJ/mol
# GULP energy per Si atom -12394.346269 kJ/mol
# Density = 2.091921 g / cm^3
# Si number density = 20.966934 Si / 1000 Ang^3
#
#
#
# Elastic Constant Matrix: (Units=GPa)
#
#
# Indices 1 2 3 4 5 6 
#
# 1 110.9528 30.6830 27.1928 0.0000 -0.1355 0.0000
# 2 30.6830 101.9664 46.0728 0.0000 2.9342 0.0000
# 3 27.1928 46.0728 116.7835 0.0000 -9.0904 0.0000
# 4 0.0000 0.0000 0.0000 20.2172 0.0000 -0.8595
# 5 -0.1355 2.9342 -9.0904 0.0000 23.9418 0.0000
# 6 0.0000 0.0000 0.0000 -0.8595 0.0000 25.9476
#
#
#
# Elastic Compliance Matrix: (Units=1/GPa)
#
#
# Indices 1 2 3 4 5 6 
#
# 1 0.010014 -0.002370 -0.001411 0.000000 -0.000189 0.000000
# 2 -0.002370 0.012762 -0.004746 0.000000 -0.003379 0.000000
# 3 -0.001411 -0.004746 0.011138 0.000000 0.004803 0.000000
# 4 0.000000 0.000000 0.000000 0.049533 0.000000 0.001641
# 5 -0.000189 -0.003379 0.004803 0.000000 0.044005 0.000000
# 6 0.000000 0.000000 0.000000 0.001641 0.000000 0.038594
#
#
# Mechanical properties :
#
#
# Convention : Reuss Voigt Hill
#
# Bulk Modulus (GPa) = 59.31674 59.73334 59.52504
# Shear Modulus (GPa) = 26.49442 29.07158 27.78300
#
# Velocity S-wave (km/s) = 3.55861 3.72767 3.64412
# Velocity P-wave (km/s) = 6.72584 6.86138 6.79395
#
# Compressibility (1/GPa) = 0.01685865
#
# Stress axis : x y z
#
# Youngs Moduli (GPa) = 99.86050 78.35723 89.78541
#
# Poissons Ratio (x) = 0.18572 0.12672
# Poissons Ratio (y) = 0.23669 0.42612
# Poissons Ratio (z) = 0.14094 0.37188
#
# Static dielectric constant tensor:
#      x y z
#    x 4.010900 0.000000 -0.445210 
#    y 0.000000 3.919830 0.000000 
#    z -0.445210 0.000000 3.957320 
# 
# 
# High freq. dielectric constant tensor:
#      x y z
#    x 1.817640 0.000000 -0.006270 
#    y 0.000000 1.814550 0.000000 
#    z -0.006270 0.000000 1.822290 
# 
# From -- ./inp_files/96799.got.cif
#   From: 2010.06.25/outbox.cif.g09.slc.cpg/sg12_49_cif.got.tgz:96799.got - 2010.06.28 00:19:55.
