data_PCOD8092293
_publ_section_title
;
Structure prediction by ZEFSAII (Michael W. Deem and Ramdas Pophale) SiO2 
 PCOD8092293
Probable space group: C 2/M
;
_chemical_formula_sum "Si O2"
_cell_formula_units_Z 64
_cell_length_a 25.663530
_cell_length_b 13.670807
_cell_length_c 18.028693
_cell_angle_alpha 90.000000
_cell_angle_beta 149.308738
_cell_angle_gamma 90.000000
_cell_volume 3228.460495
_symmetry_space_group_name_H-M "C 2/M"
_symmetry_group_IT_number 12
_symmetry_cell_setting 'monoclinic'
loop_
_space_group_symop_operation_xyz
x,y,z
-x,y,-z
-x,-y,-z
x,-y,z
1/2+x,1/2+y,z
1/2-x,1/2+y,-z
1/2-x,1/2-y,-z
1/2+x,1/2-y,z
loop_
_atom_site_type_symbol
_atom_site_label
_atom_site_fract_x
_atom_site_fract_y
_atom_site_fract_z
Si Si1 0.829079 0.612872 0.996313
Si Si2 0.896016 0.388838 0.331649
Si Si3 0.930657 0.109646 0.064642
Si Si4 0.222152 0.757353 0.188550
Si Si5 0.526380 0.198895 0.716386
Si Si6 0.131762 0.108281 0.850478
Si Si7 0.795294 0.733803 0.440694
Si Si8 0.160662 0.884801 0.381651
O O1 0.856521 0.500000 0.018120
O O2 0.793972 0.655543 0.874346
O O3 0.741394 0.629389 0.949909
O O4 0.928460 0.672136 0.147024
O O5 0.860405 0.500000 0.301991
O O6 0.811616 0.317204 0.259495
O O7 0.916863 0.374071 0.270196
O O8 0.000000 0.363008 0.500000
O O9 0.856754 0.113998 0.046332
O O10 0.042998 0.145302 0.225977
O O11 0.936820 0.000000 0.039809
O O12 0.882352 0.179118 0.942821
O O13 0.248775 0.732992 0.305533
O O14 0.550356 0.311501 0.723219
O O15 0.405543 0.183595 0.566326
O O16 0.091442 0.000000 0.777880
O O17 0.798635 0.830322 0.495376
O O18 0.724061 0.649958 0.388093
O O19 0.174342 0.000000 0.410384
#
# Coordination Sequence:
#
# PCOD8092293 Si02
#       8
#     8   8   8   8   8   8   8   8
#     4  11  23  36  57  89 124 164 203 236 281 349
#     4  11  23  36  55  88 127 163 197 241 297 349
#     4  10  20  37  63  87 113 152 197 248 296 339
#     4  12  22  39  59  88 126 153 195 246 293 354
#     4  12  20  40  60  84 125 165 202 240 286 351
#     4  10  19  34  61  90 115 155 206 242 279 335
#     4  11  25  39  64  90 113 154 193 242 309 357
#     4  10  23  45  65  86 112 146 199 251 298 359
#
# _framework density 19.823689999999999
#
# number of rings (size 3 to 8) (size 9 to 14) (size 15 to 20)
#    0.000    1.125    5.000    1.875    0.000    4.000 
#    0.000    1.250    0.000    2.250    0.000    5.250 
#    0.000    0.000    0.000    0.000    0.000    0.000 
#
# Total GULP energy -396918.225314 kJ/mol
# GULP energy per Si atom -12403.694541 kJ/mol
# Density = 1.977857 g / cm^3
# Si number density = 19.823690 Si / 1000 Ang^3
#
#
#
# Elastic Constant Matrix: (Units=GPa)
#
#
# Indices 1 2 3 4 5 6 
#
# 1 91.4617 34.7169 53.4094 0.0000 -11.3124 0.0000
# 2 34.7169 111.4394 55.3057 0.0000 0.1027 0.0000
# 3 53.4094 55.3057 111.3114 0.0000 -17.3686 0.0000
# 4 0.0000 0.0000 0.0000 25.7983 0.0000 -0.2957
# 5 -11.3124 0.1027 -17.3686 0.0000 25.2661 0.0000
# 6 0.0000 0.0000 0.0000 -0.2957 0.0000 23.3473
#
#
#
# Elastic Compliance Matrix: (Units=1/GPa)
#
#
# Indices 1 2 3 4 5 6 
#
# 1 0.015538 -0.001800 -0.006132 0.000000 0.002749 0.000000
# 2 -0.001800 0.012619 -0.006205 0.000000 -0.005123 0.000000
# 3 -0.006132 -0.006205 0.016337 0.000000 0.008510 0.000000
# 4 0.000000 0.000000 0.000000 0.038768 0.000000 0.000491
# 5 0.002749 -0.005123 0.008510 0.000000 0.046680 0.000000
# 6 0.000000 0.000000 0.000000 0.000491 0.000000 0.042838
#
#
# Mechanical properties :
#
#
# Convention : Reuss Voigt Hill
#
# Bulk Modulus (GPa) = 61.65683 66.78629 64.22156
# Shear Modulus (GPa) = 24.21777 26.26770 25.24274
#
# Velocity S-wave (km/s) = 3.49901 3.64410 3.57229
# Velocity P-wave (km/s) = 6.89161 7.17420 7.03432
#
# Compressibility (1/GPa) = 0.01621880
#
# Stress axis : x y z
#
# Youngs Moduli (GPa) = 64.36038 79.24862 61.20975
#
# Poissons Ratio (x) = 0.14262 0.37535
# Poissons Ratio (y) = 0.11583 0.37983
# Poissons Ratio (z) = 0.39467 0.49177
#
# Static dielectric constant tensor:
#      x y z
#    x 3.500850 0.000000 0.034910 
#    y 0.000000 3.652370 0.000000 
#    z 0.034910 0.000000 3.647640 
# 
# 
# High freq. dielectric constant tensor:
#      x y z
#    x 1.755830 0.000000 0.005170 
#    y 0.000000 1.778190 0.000000 
#    z 0.005170 0.000000 1.774450 
# 
# From -- ./inp_files/290144.got.cif
#   From: 2010.06.25/outbox.cif.g09.slc.cpg/sg12_146_cif.got.tgz:290144.got - 2010.06.28 00:19:55.
