data_PCOD8092016
_publ_section_title
;
Structure prediction by ZEFSAII (Michael W. Deem and Ramdas Pophale) SiO2 
 PCOD8092016
Probable space group: C 2/M
;
_chemical_formula_sum "Si O2"
_cell_formula_units_Z 56
_cell_length_a 24.226570
_cell_length_b 8.746748
_cell_length_c 14.010081
_cell_angle_alpha 90.000000
_cell_angle_beta 82.861740
_cell_angle_gamma 90.000000
_cell_volume 2945.777498
_symmetry_space_group_name_H-M "C 2/M"
_symmetry_group_IT_number 12
_symmetry_cell_setting 'monoclinic'
loop_
_space_group_symop_operation_xyz
x,y,z
-x,y,-z
-x,-y,-z
x,-y,z
1/2+x,1/2+y,z
1/2-x,1/2+y,-z
1/2-x,1/2-y,-z
1/2+x,1/2-y,z
loop_
_atom_site_type_symbol
_atom_site_label
_atom_site_fract_x
_atom_site_fract_y
_atom_site_fract_z
Si Si1 0.166071 0.678899 0.343747
Si Si2 0.057481 0.676789 0.039157
Si Si3 0.455259 0.323361 0.299168
Si Si4 0.076806 0.177467 0.234741
Si Si5 0.783813 0.318998 0.306490
Si Si6 0.644087 0.319964 0.549272
Si Si7 0.115409 0.676480 0.839313
O O1 0.165687 0.500000 0.365941
O O2 0.125014 0.716438 0.265750
O O3 0.226935 0.731578 0.298963
O O4 0.145321 0.771599 0.439786
O O5 0.056664 0.500000 0.072268
O O6 0.068392 0.786279 0.125457
O O7 0.107885 0.707940 0.953352
O O8 0.000000 0.719903 0.000000
O O9 0.447420 0.500000 0.280616
O O10 0.519834 0.284658 0.304841
O O11 0.416713 0.273617 0.396623
O O12 0.436882 0.244146 0.205585
O O13 0.093045 0.000000 0.242412
O O14 0.773244 0.500000 0.308154
O O15 0.808159 0.270389 0.403944
O O16 0.825753 0.261553 0.213807
O O17 0.655623 0.500000 0.555576
O O18 0.113307 0.500000 0.815743
#
# Coordination Sequence:
#
# PCOD8092016 Si02
#       7
#     8   8   8   8   8   8   8
#     4  12  25  40  56  78 110 150 190 232 281 331
#     4  10  19  34  58  87 117 147 180 222 274 330
#     4   9  19  34  55  83 114 145 181 226 275 326
#     4  11  23  38  56  82 115 150 187 228 275 330
#     4  10  20  37  60  85 112 145 188 232 272 322
#     4  10  20  37  60  85 112 145 185 229 276 328
#     4   9  18  33  57  86 114 144 181 226 273 323
#
# _framework density 19.010262000000001
#
# number of rings (size 3 to 8) (size 9 to 14) (size 15 to 20)
#    0.000    1.857    1.429    3.000    0.000    3.143 
#    0.000    3.571    0.000    0.000    0.000    0.000 
#    0.000    0.000    0.000    0.000    0.000    0.000 
#
# Total GULP energy -347229.099886 kJ/mol
# GULP energy per Si atom -12401.039282 kJ/mol
# Density = 1.896699 g / cm^3
# Si number density = 19.010262 Si / 1000 Ang^3
#
#
#
# Elastic Constant Matrix: (Units=GPa)
#
#
# Indices 1 2 3 4 5 6 
#
# 1 105.3730 33.7280 51.0175 0.0000 0.9824 0.0000
# 2 33.7280 50.3296 13.7746 0.0000 -3.8619 0.0000
# 3 51.0175 13.7746 69.7322 0.0000 -8.5076 0.0000
# 4 0.0000 0.0000 0.0000 29.8500 0.0000 2.6024
# 5 0.9824 -3.8619 -8.5076 0.0000 21.7662 0.0000
# 6 0.0000 0.0000 0.0000 2.6024 0.0000 28.0564
#
#
#
# Elastic Compliance Matrix: (Units=1/GPa)
#
#
# Indices 1 2 3 4 5 6 
#
# 1 0.018880 -0.009726 -0.012817 0.000000 -0.007588 0.000000
# 2 -0.009726 0.026117 0.002705 0.000000 0.006130 0.000000
# 3 -0.012817 0.002705 0.024480 0.000000 0.010627 0.000000
# 4 0.000000 0.000000 0.000000 0.033774 0.000000 -0.003133
# 5 -0.007588 0.006130 0.010627 0.000000 0.051527 0.000000
# 6 0.000000 0.000000 0.000000 -0.003133 0.000000 0.035933
#
#
# Mechanical properties :
#
#
# Convention : Reuss Voigt Hill
#
# Bulk Modulus (GPa) = 33.55758 46.94166 40.24962
# Shear Modulus (GPa) = 20.80549 24.39549 22.60049
#
# Velocity S-wave (km/s) = 3.31181 3.58618 3.45172
# Velocity P-wave (km/s) = 5.68461 6.47255 6.09134
#
# Compressibility (1/GPa) = 0.02979953
#
# Stress axis : x y z
#
# Youngs Moduli (GPa) = 52.96708 38.28903 40.84949
#
# Poissons Ratio (x) = 0.37241 0.52357
# Poissons Ratio (y) = 0.51518 -0.11049
# Poissons Ratio (z) = 0.67889 -0.10357
#
# Static dielectric constant tensor:
#      x y z
#    x 3.679220 0.000000 -0.355050 
#    y 0.000000 3.456580 0.000000 
#    z -0.355050 0.000000 3.491960 
# 
# 
# High freq. dielectric constant tensor:
#      x y z
#    x 1.738420 0.000000 -0.019980 
#    y 0.000000 1.742300 0.000000 
#    z -0.019980 0.000000 1.731750 
# 
# From -- ./inp_files/231005.got.cif
#   From: 2010.06.25/outbox.cif.g09.slc.cpg/sg12_116_cif.got.tgz:231005.got - 2010.06.28 00:19:55.
