data_PCOD8092989
_publ_section_title
;
Structure prediction by ZEFSAII (Michael W. Deem and Ramdas Pophale) SiO2 
 PCOD8092989
Probable space group: C 2/M
;
_chemical_formula_sum "Si O2"
_cell_formula_units_Z 48
_cell_length_a 20.483695
_cell_length_b 17.487147
_cell_length_c 14.635792
_cell_angle_alpha 90.000000
_cell_angle_beta 29.257705
_cell_angle_gamma 90.000000
_cell_volume 2562.241744
_symmetry_space_group_name_H-M "C 2/M"
_symmetry_group_IT_number 12
_symmetry_cell_setting 'monoclinic'
loop_
_space_group_symop_operation_xyz
x,y,z
-x,y,-z
-x,-y,-z
x,-y,z
1/2+x,1/2+y,z
1/2-x,1/2+y,-z
1/2-x,1/2-y,-z
1/2+x,1/2-y,z
loop_
_atom_site_type_symbol
_atom_site_label
_atom_site_fract_x
_atom_site_fract_y
_atom_site_fract_z
Si Si1 0.610452 0.729257 0.714261
Si Si2 0.873854 0.788941 0.710802
Si Si3 0.929193 0.911855 0.931940
Si Si4 0.997713 0.323138 0.305002
Si Si5 0.232399 0.185399 0.738996
Si Si6 0.244137 0.585308 0.983354
O O1 0.750000 0.750000 0.500000
O O2 0.557755 0.642794 0.757719
O O3 0.512999 0.791705 0.786617
O O4 0.631063 0.734755 0.798613
O O5 0.923505 0.742152 0.737059
O O6 0.777029 0.737701 0.767800
O O7 0.791932 0.861669 0.842929
O O8 0.000000 0.818895 0.500000
O O9 0.830287 0.902325 0.968263
O O10 0.976258 0.000000 0.885778
O O11 0.848733 0.886618 0.121499
O O12 0.857669 0.343636 0.525217
O O13 0.088282 0.398592 0.195270
O O14 0.256641 0.500000 0.931177
#
# Coordination Sequence:
#
# PCOD8092989 Si02
#       6
#     8   8   8   8   8   8
#     4  10  21  37  58  82 110 149 191 229 275 330
#     4  10  19  35  59  80 105 143 197 239 269 319
#     4  11  22  36  56  85 119 149 182 229 287 344
#     4  10  19  37  59  82 113 148 191 230 274 332
#     4  10  21  34  58  89 110 144 187 233 278 330
#     4  11  22  35  56  84 116 151 184 232 290 332
#
# _framework density 18.733595000000001
#
# number of rings (size 3 to 8) (size 9 to 14) (size 15 to 20)
#    0.000    1.667    3.333    2.000    0.000    2.333 
#    0.000    4.167    0.000    2.000    0.000    0.000 
#    0.000    0.000    0.000    0.000    0.000    0.000 
#
# Total GULP energy -297425.676922 kJ/mol
# GULP energy per Si atom -12392.736538 kJ/mol
# Density = 1.869096 g / cm^3
# Si number density = 18.733595 Si / 1000 Ang^3
#
#
#
# Elastic Constant Matrix: (Units=GPa)
#
#
# Indices 1 2 3 4 5 6 
#
# 1 85.8920 15.6027 26.9242 0.0001 -14.3734 -0.0001
# 2 15.6027 80.9186 56.9224 -0.0001 -11.9947 0.0000
# 3 26.9242 56.9224 91.8221 0.0001 -6.9567 -0.0002
# 4 0.0001 -0.0001 0.0001 18.0902 -0.0002 -0.8534
# 5 -14.3734 -11.9947 -6.9567 -0.0002 20.1398 0.0002
# 6 -0.0001 0.0000 -0.0002 -0.8534 0.0002 25.6555
#
#
#
# Elastic Compliance Matrix: (Units=1/GPa)
#
#
# Indices 1 2 3 4 5 6 
#
# 1 0.014405 0.002000 -0.004718 0.000000 0.009842 0.000000
# 2 0.002000 0.023740 -0.014504 0.000000 0.010557 0.000000
# 3 -0.004718 -0.014504 0.020903 0.000000 -0.004785 0.000000
# 4 0.000000 0.000000 0.000000 0.055365 0.000001 0.001842
# 5 0.009842 0.010557 -0.004785 0.000001 0.061311 0.000000
# 6 0.000000 0.000000 0.000000 0.001842 0.000000 0.039039
#
#
# Mechanical properties :
#
#
# Convention : Reuss Voigt Hill
#
# Bulk Modulus (GPa) = 40.64252 50.83680 45.73966
# Shear Modulus (GPa) = 19.42440 23.38932 21.40686
#
# Velocity S-wave (km/s) = 3.22355 3.53728 3.38405
# Velocity P-wave (km/s) = 5.96633 6.62410 6.30380
#
# Compressibility (1/GPa) = 0.02460477
#
# Stress axis : x y z
#
# Youngs Moduli (GPa) = 69.41925 42.12353 47.84083
#
# Poissons Ratio (x) = -0.08427 0.22573
# Poissons Ratio (y) = -0.13887 0.69386
# Poissons Ratio (z) = 0.32755 0.61094
#
# Static dielectric constant tensor:
#      x y z
#    x 4.034570 0.000000 -0.067430 
#    y 0.000000 3.313110 0.000000 
#    z -0.067430 0.000000 3.718500 
# 
# 
# High freq. dielectric constant tensor:
#      x y z
#    x 1.746760 0.000000 -0.008670 
#    y 0.000000 1.697270 0.000000 
#    z -0.008670 0.000000 1.733050 
# 
# From -- ./inp_files/234233.got.cif
#   From: 2010.06.25/outbox.cif.g09.slc.cpg/sg12_118_cif.got.tgz:234233.got - 2010.06.28 00:19:55.
