data_PCOD8092254
_publ_section_title
;
Structure prediction by ZEFSAII (Michael W. Deem and Ramdas Pophale) SiO2 
 PCOD8092254
Probable space group: C 2/M
;
_chemical_formula_sum "Si O2"
_cell_formula_units_Z 40
_cell_length_a 9.277992
_cell_length_b 15.503210
_cell_length_c 29.075185
_cell_angle_alpha 90.000000
_cell_angle_beta 151.659051
_cell_angle_gamma 90.000000
_cell_volume 1985.332374
_symmetry_space_group_name_H-M "C 2/M"
_symmetry_group_IT_number 12
_symmetry_cell_setting 'monoclinic'
loop_
_space_group_symop_operation_xyz
x,y,z
-x,y,-z
-x,-y,-z
x,-y,z
1/2+x,1/2+y,z
1/2-x,1/2+y,-z
1/2-x,1/2-y,-z
1/2+x,1/2-y,z
loop_
_atom_site_type_symbol
_atom_site_label
_atom_site_fract_x
_atom_site_fract_y
_atom_site_fract_z
Si Si1 0.175324 0.339958 0.092311
Si Si2 0.590902 0.596418 0.700266
Si Si3 0.670866 0.251667 0.425841
Si Si4 0.746579 0.596755 0.301466
Si Si5 0.833316 0.340229 0.091680
O O1 0.460472 0.398061 0.186797
O O2 0.306883 0.249852 0.111023
O O3 0.946729 0.326396 0.071094
O O4 0.000000 0.384817 0.000000
O O5 0.533549 0.500000 0.665005
O O6 0.536208 0.665516 0.644749
O O7 0.361183 0.618206 0.677188
O O8 0.934299 0.600087 0.815248
O O9 0.750000 0.250000 0.500000
O O10 0.505911 0.165200 0.361094
O O11 0.000000 0.262230 0.500000
O O12 0.879966 0.500000 0.335455
O O13 0.500000 0.384887 0.000000
#
# Coordination Sequence:
#
# PCOD8092254 Si02
#       5
#     8   8   8   8   8
#     4  10  19  34  60  88 122 162 198 238 297 357
#     4  10  22  41  65  91 122 163 203 243 303 371
#     4  12  24  42  68  89 119 158 203 260 309 354
#     4  10  22  41  64  91 125 160 201 248 304 365
#     4  10  19  34  60  89 122 159 199 243 292 356
#
# _framework density 20.147760000000002
#
# number of rings (size 3 to 8) (size 9 to 14) (size 15 to 20)
#    0.000    1.600    4.000    2.400    0.000    2.400 
#    3.600    0.000    0.000    0.000    0.000    0.000 
#    0.000    0.000    0.000    0.000    0.000    0.000 
#
# Total GULP energy -247868.409887 kJ/mol
# GULP energy per Si atom -12393.420494 kJ/mol
# Density = 2.010190 g / cm^3
# Si number density = 20.147760 Si / 1000 Ang^3
#
#
#
# Elastic Constant Matrix: (Units=GPa)
#
#
# Indices 1 2 3 4 5 6 
#
# 1 87.7362 17.5528 32.1171 -0.0005 -15.7661 -0.0004
# 2 17.5528 113.2220 52.0703 0.0000 -13.4105 -0.0006
# 3 32.1171 52.0703 118.4203 -0.0027 -12.2281 -0.0022
# 4 -0.0005 0.0000 -0.0027 15.3059 -0.0010 0.7843
# 5 -15.7661 -13.4105 -12.2281 -0.0010 35.0302 -0.0005
# 6 -0.0004 -0.0006 -0.0022 0.7843 -0.0005 23.4912
#
#
#
# Elastic Compliance Matrix: (Units=1/GPa)
#
#
# Indices 1 2 3 4 5 6 
#
# 1 0.013435 -0.000071 -0.003103 0.000000 0.004936 0.000000
# 2 -0.000071 0.011311 -0.004679 -0.000001 0.002665 0.000000
# 3 -0.003103 -0.004679 0.011426 0.000002 0.000801 0.000001
# 4 0.000000 -0.000001 0.000002 0.065446 0.000002 -0.002185
# 5 0.004936 0.002665 0.000801 0.000002 0.032068 0.000001
# 6 0.000000 0.000000 0.000001 -0.002185 0.000001 0.042642
#
#
# Mechanical properties :
#
#
# Convention : Reuss Voigt Hill
#
# Bulk Modulus (GPa) = 48.86158 58.09543 53.47850
# Shear Modulus (GPa) = 25.14383 29.27467 27.20925
#
# Velocity S-wave (km/s) = 3.53650 3.81596 3.67888
# Velocity P-wave (km/s) = 6.40156 6.95073 6.68179
#
# Compressibility (1/GPa) = 0.02046598
#
# Stress axis : x y z
#
# Youngs Moduli (GPa) = 74.43315 88.41207 87.51947
#
# Poissons Ratio (x) = 0.00630 0.27154
# Poissons Ratio (y) = 0.00530 0.40950
# Poissons Ratio (z) = 0.23094 0.41367
#
# Static dielectric constant tensor:
#      x y z
#    x 3.561760 0.000000 0.017610 
#    y 0.000000 3.426790 0.000000 
#    z 0.017610 0.000000 4.109210 
# 
# 
# High freq. dielectric constant tensor:
#      x y z
#    x 1.776010 0.000000 -0.003240 
#    y 0.000000 1.775650 0.000000 
#    z -0.003240 0.000000 1.803610 
# 
# From -- ./inp_files/194432.got.cif
#   From: 2010.06.25/outbox.cif.g09.slc.cpg/sg12_98_cif.got.tgz:194432.got - 2010.06.28 00:19:55.
