data_PCOD8092424
_publ_section_title
;
Structure prediction by ZEFSAII (Michael W. Deem and Ramdas Pophale) SiO2 
 PCOD8092424
Probable space group: C 2/M
;
_chemical_formula_sum "Si O2"
_cell_formula_units_Z 52
_cell_length_a 14.300021
_cell_length_b 18.000670
_cell_length_c 11.443680
_cell_angle_alpha 90.000000
_cell_angle_beta 73.198785
_cell_angle_gamma 90.000000
_cell_volume 2819.974454
_symmetry_space_group_name_H-M "C 2/M"
_symmetry_group_IT_number 12
_symmetry_cell_setting 'monoclinic'
loop_
_space_group_symop_operation_xyz
x,y,z
-x,y,-z
-x,-y,-z
x,-y,z
1/2+x,1/2+y,z
1/2-x,1/2+y,-z
1/2-x,1/2-y,-z
1/2+x,1/2-y,z
loop_
_atom_site_type_symbol
_atom_site_label
_atom_site_fract_x
_atom_site_fract_y
_atom_site_fract_z
Si Si1 0.494924 0.500000 0.366750
Si Si2 0.234542 0.579013 0.239217
Si Si3 0.798195 0.000000 0.819301
Si Si4 0.341381 0.384057 0.417471
Si Si5 0.898842 0.280781 0.392745
Si Si6 0.743013 0.637093 0.309730
Si Si7 0.880483 0.000000 0.046775
Si Si8 0.376315 0.217603 0.672451
O O1 0.500000 0.500000 0.500000
O O2 0.598297 0.500000 0.275167
O O3 0.440599 0.425273 0.345446
O O4 0.177590 0.500000 0.237828
O O5 0.255486 0.583224 0.369793
O O6 0.338521 0.573650 0.130019
O O7 0.169966 0.651079 0.231970
O O8 0.741634 0.074732 0.796499
O O9 0.820543 0.000000 0.947672
O O10 0.348148 0.297485 0.385659
O O11 0.319654 0.398347 0.561823
O O12 0.848741 0.339051 0.322394
O O13 0.876507 0.302815 0.534738
O O14 0.012994 0.274052 0.324027
O O15 0.683154 0.707151 0.279469
O O16 0.000000 0.000000 0.000000
#
# Coordination Sequence:
#
# PCOD8092424 Si02
#       8
#     4   8   4   8   8   8   4   8
#     4  12  20  28  52  88 114 139 185 229 295 357
#     4  10  20  36  62  74 112 146 197 233 274 335
#     4  12  24  37  54  86 114 147 188 242 301 333
#     4  11  17  32  53  87 116 152 178 232 289 342
#     4  10  20  31  54  85 129 151 185 223 294 343
#     4  11  20  34  56  84 130 145 182 235 292 345
#     4  10  24  43  60  83 106 150 195 249 291 328
#     4  10  19  35  54  87 117 162 183 226 280 350
#
# _framework density 18.439882999999998
#
# number of rings (size 3 to 8) (size 9 to 14) (size 15 to 20)
#    0.462    0.923    5.385    2.769    2.154    0.000 
#    1.385    1.538    0.000    1.846    0.000    0.000 
#    0.000    0.000    0.000    0.000    0.000    0.000 
#
# Total GULP energy -322103.743087 kJ/mol
# GULP energy per Si atom -12388.605503 kJ/mol
# Density = 1.839791 g / cm^3
# Si number density = 18.439883 Si / 1000 Ang^3
#
#
#
# Elastic Constant Matrix: (Units=GPa)
#
#
# Indices 1 2 3 4 5 6 
#
# 1 81.9970 36.7508 16.5828 0.0000 7.1391 0.0000
# 2 36.7508 106.9805 34.6332 0.0000 4.1995 0.0000
# 3 16.5828 34.6332 56.0996 0.0000 7.6412 0.0000
# 4 0.0000 0.0000 0.0000 12.3471 0.0000 5.4999
# 5 7.1391 4.1995 7.6412 0.0000 26.5888 0.0000
# 6 0.0000 0.0000 0.0000 5.4999 0.0000 17.6082
#
#
#
# Elastic Compliance Matrix: (Units=1/GPa)
#
#
# Indices 1 2 3 4 5 6 
#
# 1 0.014730 -0.004580 -0.001131 0.000000 -0.002907 0.000000
# 2 -0.004580 0.013108 -0.006894 0.000000 0.001141 0.000000
# 3 -0.001131 -0.006894 0.023131 0.000000 -0.005255 0.000000
# 4 0.000000 0.000000 0.000000 0.094080 0.000000 -0.029386
# 5 -0.002907 0.001141 -0.005255 0.000000 0.039720 0.000000
# 6 0.000000 0.000000 0.000000 -0.029386 0.000000 0.065970
#
#
# Mechanical properties :
#
#
# Convention : Reuss Voigt Hill
#
# Bulk Modulus (GPa) = 38.81936 46.77895 42.79916
# Shear Modulus (GPa) = 17.57247 21.78285 19.67766
#
# Velocity S-wave (km/s) = 3.09035 3.44072 3.27023
# Velocity P-wave (km/s) = 5.81647 6.41936 6.12533
#
# Compressibility (1/GPa) = 0.02576034
#
# Stress axis : x y z
#
# Youngs Moduli (GPa) = 67.88835 76.29045 43.23145
#
# Poissons Ratio (x) = 0.34941 0.04888
# Poissons Ratio (y) = 0.31093 0.29802
# Poissons Ratio (z) = 0.07676 0.52592
#
# Static dielectric constant tensor:
#      x y z
#    x 3.425390 0.000000 0.146720 
#    y 0.000000 4.127980 0.000000 
#    z 0.146720 0.000000 3.012110 
# 
# 
# High freq. dielectric constant tensor:
#      x y z
#    x 1.708690 0.000000 0.014480 
#    y 0.000000 1.720450 0.000000 
#    z 0.014480 0.000000 1.671160 
# 
# From -- ./inp_files/144906.got.cif
#   From: 2010.06.25/outbox.cif.g09.slc.cpg/sg12_73_cif.got.tgz:144906.got - 2010.06.28 00:19:55.
