data_PCOD8092555
_publ_section_title
;
Structure prediction by ZEFSAII (Michael W. Deem and Ramdas Pophale) SiO2 
 PCOD8092555
Probable space group: C 2/M
;
_chemical_formula_sum "Si O2"
_cell_formula_units_Z 64
_cell_length_a 14.172921
_cell_length_b 8.806562
_cell_length_c 28.154817
_cell_angle_alpha 90.000000
_cell_angle_beta 88.505336
_cell_angle_gamma 90.000000
_cell_volume 3512.939594
_symmetry_space_group_name_H-M "C 2/M"
_symmetry_group_IT_number 12
_symmetry_cell_setting 'monoclinic'
loop_
_space_group_symop_operation_xyz
x,y,z
-x,y,-z
-x,-y,-z
x,-y,z
1/2+x,1/2+y,z
1/2-x,1/2+y,-z
1/2-x,1/2-y,-z
1/2+x,1/2-y,z
loop_
_atom_site_type_symbol
_atom_site_label
_atom_site_fract_x
_atom_site_fract_y
_atom_site_fract_z
Si Si1 0.098285 0.676586 0.382009
Si Si2 0.883413 0.818887 0.126231
Si Si3 0.250607 0.820218 0.051608
Si Si4 0.385400 0.821976 0.368367
Si Si5 0.755727 0.179673 0.800893
Si Si6 0.236043 0.823171 0.449543
Si Si7 0.748217 0.823307 0.300134
Si Si8 0.094461 0.821674 0.126152
O O1 0.100324 0.500000 0.394561
O O2 0.140428 0.763136 0.426679
O O3 0.158692 0.712784 0.334399
O O4 0.992086 0.733592 0.374845
O O5 0.836648 0.749291 0.080029
O O6 0.834364 0.762303 0.175081
O O7 0.989883 0.752525 0.126130
O O8 0.879041 0.000000 0.123476
O O9 0.152357 0.774838 0.078302
O O10 0.263719 0.000000 0.048860
O O11 0.250000 0.750000 0.000000
O O12 0.326307 0.781715 0.416181
O O13 0.344131 0.729727 0.324416
O O14 0.380135 0.000000 0.356462
O O15 0.767396 0.226529 0.746627
O O16 0.849091 0.234576 0.827945
O O17 0.741029 0.000000 0.805791
O O18 0.250000 0.750000 0.500000
O O19 0.224984 0.000000 0.456958
O O20 0.756201 0.000000 0.287451
O O21 0.084300 0.000000 0.128927
#
# Coordination Sequence:
#
# PCOD8092555 Si02
#       8
#     8   8   8   8   8   8   8   8
#     4   9  19  36  55  75 102 133 171 214 255 299
#     4  10  19  35  56  78 102 133 173 216 256 299
#     4  10  20  36  54  77 106 138 172 209 255 305
#     4   9  19  36  55  75 101 136 171 208 255 306
#     4  10  20  36  54  75 105 139 170 206 252 307
#     4  10  20  34  53  76 104 136 171 209 255 305
#     4  10  20  34  53  78 104 132 168 213 255 298
#     4   8  18  35  54  74 102 137 171 207 254 305
#
# _framework density 18.218361999999999
#
# number of rings (size 3 to 8) (size 9 to 14) (size 15 to 20)
#    0.000    2.500    0.000    2.625    0.000    3.500 
#    0.000   15.000    0.000    0.000    0.000    0.000 
#    0.000    0.000    0.000    0.000    0.000    0.000 
#
# Total GULP energy -396842.776918 kJ/mol
# GULP energy per Si atom -12401.336779 kJ/mol
# Density = 1.817690 g / cm^3
# Si number density = 18.218362 Si / 1000 Ang^3
#
#
#
# Elastic Constant Matrix: (Units=GPa)
#
#
# Indices 1 2 3 4 5 6 
#
# 1 157.4888 42.9283 61.4525 0.0000 14.5285 0.0000
# 2 42.9283 70.0230 50.3289 0.0000 5.4971 0.0000
# 3 61.4525 50.3289 135.0902 0.0000 4.7589 0.0000
# 4 0.0000 0.0000 0.0000 37.4055 0.0000 2.1049
# 5 14.5285 5.4971 4.7589 0.0000 14.3165 0.0000
# 6 0.0000 0.0000 0.0000 2.1049 0.0000 26.3721
#
#
#
# Elastic Compliance Matrix: (Units=1/GPa)
#
#
# Indices 1 2 3 4 5 6 
#
# 1 0.008839 -0.002949 -0.002677 0.000000 -0.006948 0.000000
# 2 -0.002949 0.020868 -0.006330 0.000000 -0.002916 0.000000
# 3 -0.002677 -0.006330 0.010925 0.000000 0.001516 0.000000
# 4 0.000000 0.000000 0.000000 0.026855 0.000000 -0.002143
# 5 -0.006948 -0.002916 0.001516 0.000000 0.077516 0.000000
# 6 0.000000 0.000000 0.000000 -0.002143 0.000000 0.038090
#
#
# Mechanical properties :
#
#
# Convention : Reuss Voigt Hill
#
# Bulk Modulus (GPa) = 59.81297 74.66903 67.24100
# Shear Modulus (GPa) = 23.52067 29.47832 26.49949
#
# Velocity S-wave (km/s) = 3.59701 4.02687 3.81799
# Velocity P-wave (km/s) = 7.08193 7.91805 7.51163
#
# Compressibility (1/GPa) = 0.01671878
#
# Stress axis : x y z
#
# Youngs Moduli (GPa) = 113.13216 47.92106 91.52993
#
# Poissons Ratio (x) = 0.14132 0.24507
# Poissons Ratio (y) = 0.33364 0.57940
# Poissons Ratio (z) = 0.30291 0.30335
#
# Static dielectric constant tensor:
#      x y z
#    x 3.611110 0.000000 0.058350 
#    y 0.000000 3.320480 0.000000 
#    z 0.058350 0.000000 3.345650 
# 
# 
# High freq. dielectric constant tensor:
#      x y z
#    x 1.709580 0.000000 0.003470 
#    y 0.000000 1.705360 0.000000 
#    z 0.003470 0.000000 1.709640 
# 
# From -- ./inp_files/359923.got.cif
#   From: 2010.06.25/outbox.cif.g09.slc.cpg/sg12_180_cif.got.tgz:359923.got - 2010.06.28 00:19:55.
