data_PCOD8092628
_publ_section_title
;
Structure prediction by ZEFSAII (Michael W. Deem and Ramdas Pophale) SiO2 
 PCOD8092628
Probable space group: C 2/M
;
_chemical_formula_sum "Si O2"
_cell_formula_units_Z 56
_cell_length_a 17.682183
_cell_length_b 19.720246
_cell_length_c 15.116091
_cell_angle_alpha 90.000000
_cell_angle_beta 151.006458
_cell_angle_gamma 90.000000
_cell_volume 2554.880636
_symmetry_space_group_name_H-M "C 2/M"
_symmetry_group_IT_number 12
_symmetry_cell_setting 'monoclinic'
loop_
_space_group_symop_operation_xyz
x,y,z
-x,y,-z
-x,-y,-z
x,-y,z
1/2+x,1/2+y,z
1/2-x,1/2+y,-z
1/2-x,1/2-y,-z
1/2+x,1/2-y,z
loop_
_atom_site_type_symbol
_atom_site_label
_atom_site_fract_x
_atom_site_fract_y
_atom_site_fract_z
Si Si1 0.575447 0.253846 0.762770
Si Si2 0.192842 0.787961 0.618669
Si Si3 0.137387 0.576891 0.210000
Si Si4 0.827240 0.800595 0.911196
Si Si5 0.126459 0.806855 0.305289
Si Si6 0.390431 0.925438 0.310129
Si Si7 0.419406 0.882699 0.651469
O O1 0.491234 0.270593 0.580573
O O2 0.759867 0.245768 0.927065
O O3 0.509003 0.313051 0.757742
O O4 0.515460 0.186319 0.748422
O O5 0.226481 0.867608 0.669398
O O6 0.274270 0.738582 0.770491
O O7 0.272425 0.764142 0.604126
O O8 0.201858 0.500000 0.262831
O O9 0.074317 0.584667 0.244939
O O10 0.000000 0.591738 0.000000
O O11 0.752152 0.874261 0.843460
O O12 0.014175 0.810042 0.103197
O O13 0.241335 0.870658 0.434245
O O14 0.500000 0.897500 0.500000
O O15 0.493705 0.932584 0.327057
O O16 0.323842 0.000000 0.264367
#
# Coordination Sequence:
#
# PCOD8092628 Si02
#       7
#     8   8   8   8   8   8   8
#     4  10  19  35  56  85 114 150 191 250 296 354
#     4  11  20  37  59  86 119 153 203 254 296 351
#     4  11  22  36  57  86 117 157 209 253 293 346
#     4  11  22  33  58  89 118 152 195 240 311 355
#     4  11  19  34  57  89 118 145 193 256 299 352
#     4  10  21  39  60  85 118 156 197 242 302 377
#     4  10  19  37  62  85 117 151 196 243 303 350
#
# _framework density 21.918831999999998
#
# number of rings (size 3 to 8) (size 9 to 14) (size 15 to 20)
#    0.000    1.429    2.857    6.000    0.000    0.000 
#    0.000    1.429    0.000    5.143    0.000    0.000 
#    0.000    0.000    0.000    0.000    0.000    0.000 
#
# Total GULP energy -346897.075022 kJ/mol
# GULP energy per Si atom -12389.181251 kJ/mol
# Density = 2.186894 g / cm^3
# Si number density = 21.918832 Si / 1000 Ang^3
#
#
#
# Elastic Constant Matrix: (Units=GPa)
#
#
# Indices 1 2 3 4 5 6 
#
# 1 41.5552 9.8802 11.7345 0.0000 4.2603 0.0000
# 2 9.8802 108.3935 24.2353 0.0000 8.3476 0.0000
# 3 11.7345 24.2353 79.4710 0.0000 13.0017 0.0000
# 4 0.0000 0.0000 0.0000 13.6872 0.0000 -7.9522
# 5 4.2603 8.3476 13.0017 0.0000 34.8968 0.0000
# 6 0.0000 0.0000 0.0000 -7.9522 0.0000 19.8948
#
#
#
# Elastic Compliance Matrix: (Units=1/GPa)
#
#
# Indices 1 2 3 4 5 6 
#
# 1 0.025446 -0.001518 -0.003030 0.000000 -0.001615 0.000000
# 2 -0.001518 0.010049 -0.002638 0.000000 -0.001236 0.000000
# 3 -0.003030 -0.002638 0.014559 0.000000 -0.004423 0.000000
# 4 0.000000 0.000000 0.000000 0.095161 0.000000 0.038037
# 5 -0.001615 -0.001236 -0.004423 0.000000 0.030797 0.000000
# 6 0.000000 0.000000 0.000000 0.038037 0.000000 0.065468
#
#
# Mechanical properties :
#
#
# Convention : Reuss Voigt Hill
#
# Bulk Modulus (GPa) = 28.02549 35.67995 31.85272
# Shear Modulus (GPa) = 18.67439 25.93374 22.30406
#
# Velocity S-wave (km/s) = 2.92203 3.44346 3.19341
# Velocity P-wave (km/s) = 4.91916 5.66775 5.30667
#
# Compressibility (1/GPa) = 0.03568181
#
# Stress axis : x y z
#
# Youngs Moduli (GPa) = 39.29816 99.51229 68.68653
#
# Poissons Ratio (x) = 0.15102 0.20815
# Poissons Ratio (y) = 0.05964 0.18122
# Poissons Ratio (z) = 0.11909 0.26254
#
# Static dielectric constant tensor:
#      x y z
#    x 4.393910 0.000000 -0.205480 
#    y 0.000000 3.622150 0.000000 
#    z -0.205480 0.000000 4.227970 
# 
# 
# High freq. dielectric constant tensor:
#      x y z
#    x 1.879180 0.000000 -0.020590 
#    y 0.000000 1.823470 0.000000 
#    z -0.020590 0.000000 1.876520 
# 
# From -- ./inp_files/77616.got.cif
#   From: 2010.06.25/outbox.cif.g09.slc.cpg/sg12_39_cif.got.tgz:77616.got - 2010.06.28 00:19:55.
