data_PCOD8092619
_publ_section_title
;
Structure prediction by ZEFSAII (Michael W. Deem and Ramdas Pophale) SiO2 
 PCOD8092619
Probable space group: C 2/M
;
_chemical_formula_sum "Si O2"
_cell_formula_units_Z 40
_cell_length_a 12.815987
_cell_length_b 13.694403
_cell_length_c 19.349516
_cell_angle_alpha 90.000000
_cell_angle_beta 143.506179
_cell_angle_gamma 90.000000
_cell_volume 2019.712548
_symmetry_space_group_name_H-M "C 2/M"
_symmetry_group_IT_number 12
_symmetry_cell_setting 'monoclinic'
loop_
_space_group_symop_operation_xyz
x,y,z
-x,y,-z
-x,-y,-z
x,-y,z
1/2+x,1/2+y,z
1/2-x,1/2+y,-z
1/2-x,1/2-y,-z
1/2+x,1/2-y,z
loop_
_atom_site_type_symbol
_atom_site_label
_atom_site_fract_x
_atom_site_fract_y
_atom_site_fract_z
Si Si1 0.666194 0.277733 0.669493
Si Si2 0.065654 0.392616 0.715244
Si Si3 0.486932 0.198254 0.071652
Si Si4 0.276971 0.613505 0.964334
Si Si5 0.705307 0.317395 0.539245
O O1 0.610699 0.176611 0.675463
O O2 0.718322 0.256450 0.617929
O O3 0.497487 0.352400 0.579897
O O4 0.827361 0.326800 0.794774
O O5 0.130000 0.500000 0.728793
O O6 0.165644 0.357027 0.837401
O O7 0.856254 0.399668 0.620478
O O8 0.337796 0.133771 0.028670
O O9 0.500000 0.163932 0.000000
O O10 0.446011 0.315004 0.055877
O O11 0.337059 0.500000 0.995393
O O12 0.750000 0.250000 0.500000
#
# Coordination Sequence:
#
# PCOD8092619 Si02
#       5
#     8   8   8   8   8
#     4  10  19  35  56  83 106 148 188 224 269 338
#     4  10  19  35  57  84 114 142 181 236 282 325
#     4  11  21  36  60  82 113 152 189 225 286 334
#     4  10  22  36  54  85 118 147 186 234 280 335
#     4   9  19  35  56  77 110 147 180 222 273 330
#
# _framework density 19.804798000000002
#
# number of rings (size 3 to 8) (size 9 to 14) (size 15 to 20)
#    0.000    2.000    4.000    0.000    0.000    1.600 
#    0.000   11.000    0.000    7.200    0.000    0.000 
#    0.000    0.000    0.000    0.000    0.000    0.000 
#
# Total GULP energy -247818.082308 kJ/mol
# GULP energy per Si atom -12390.904115 kJ/mol
# Density = 1.975972 g / cm^3
# Si number density = 19.804798 Si / 1000 Ang^3
#
#
#
# Elastic Constant Matrix: (Units=GPa)
#
#
# Indices 1 2 3 4 5 6 
#
# 1 99.4261 -2.2036 27.7674 0.0000 -24.9132 0.0000
# 2 -2.2036 41.0458 -4.9686 0.0000 -7.4912 0.0000
# 3 27.7674 -4.9686 108.7020 0.0001 -2.4939 0.0000
# 4 0.0000 0.0000 0.0001 17.0396 0.0000 -1.0131
# 5 -24.9132 -7.4912 -2.4939 0.0000 38.5242 0.0000
# 6 0.0000 0.0000 0.0000 -1.0131 0.0000 18.7478
#
#
#
# Elastic Compliance Matrix: (Units=1/GPa)
#
#
# Indices 1 2 3 4 5 6 
#
# 1 0.013127 0.001915 -0.003067 0.000000 0.008663 0.000000
# 2 0.001915 0.025715 0.000831 0.000000 0.006292 0.000000
# 3 -0.003067 0.000831 0.009994 0.000000 -0.001175 0.000000
# 4 0.000000 0.000000 0.000000 0.058876 0.000000 0.003182
# 5 0.008663 0.006292 -0.001175 0.000000 0.032708 0.000000
# 6 0.000000 0.000000 0.000000 0.003182 0.000000 0.053512
#
#
# Mechanical properties :
#
#
# Convention : Reuss Voigt Hill
#
# Bulk Modulus (GPa) = 20.75013 32.26270 26.50641
# Shear Modulus (GPa) = 23.73730 30.10090 26.91910
#
# Velocity S-wave (km/s) = 3.46578 3.90279 3.69076
# Velocity P-wave (km/s) = 5.14933 6.05267 5.61918
#
# Compressibility (1/GPa) = 0.04819246
#
# Stress axis : x y z
#
# Youngs Moduli (GPa) = 76.17633 38.88823 100.06061
#
# Poissons Ratio (x) = -0.07445 0.30689
# Poissons Ratio (y) = -0.14585 -0.08312
# Poissons Ratio (z) = 0.23364 -0.03230
#
# Static dielectric constant tensor:
#      x y z
#    x 4.011310 0.000000 0.250670 
#    y 0.000000 3.147890 0.000000 
#    z 0.250670 0.000000 4.058830 
# 
# 
# High freq. dielectric constant tensor:
#      x y z
#    x 1.793550 0.000000 0.002550 
#    y 0.000000 1.720730 0.000000 
#    z 0.002550 0.000000 1.787330 
# 
# From -- ./inp_files/129102.got.cif
#   From: 2010.06.25/outbox.cif.g09.slc.cpg/sg12_65_cif.got.tgz:129102.got - 2010.06.28 00:19:55.
