data_PCOD8092778
_publ_section_title
;
Structure prediction by ZEFSAII (Michael W. Deem and Ramdas Pophale) SiO2 
 PCOD8092778
Probable space group: C 2/M
;
_chemical_formula_sum "Si O2"
_cell_formula_units_Z 48
_cell_length_a 9.905034
_cell_length_b 20.554037
_cell_length_c 21.526135
_cell_angle_alpha 90.000000
_cell_angle_beta 142.375342
_cell_angle_gamma 90.000000
_cell_volume 2675.438238
_symmetry_space_group_name_H-M "C 2/M"
_symmetry_group_IT_number 12
_symmetry_cell_setting 'monoclinic'
loop_
_space_group_symop_operation_xyz
x,y,z
-x,y,-z
-x,-y,-z
x,-y,z
1/2+x,1/2+y,z
1/2-x,1/2+y,-z
1/2-x,1/2-y,-z
1/2+x,1/2-y,z
loop_
_atom_site_type_symbol
_atom_site_label
_atom_site_fract_x
_atom_site_fract_y
_atom_site_fract_z
Si Si1 0.904803 0.634693 0.704178
Si Si2 0.245596 0.755633 0.425657
Si Si3 0.244149 0.574131 0.909446
Si Si4 0.562798 0.925538 0.090532
Si Si5 0.185343 0.500000 0.369303
Si Si6 0.563461 0.626164 0.688113
Si Si7 0.046620 0.000000 0.407071
O O1 0.889229 0.695140 0.652306
O O2 0.935282 0.569472 0.673263
O O3 0.687116 0.640397 0.668004
O O4 0.123803 0.631083 0.826369
O O5 0.500000 0.760878 0.500000
O O6 0.250000 0.750000 0.500000
O O7 0.105195 0.817937 0.353054
O O8 0.197963 0.500000 0.867354
O O9 0.157894 0.578940 0.948411
O O10 0.500000 0.590782 0.000000
O O11 0.762271 0.883975 0.192696
O O12 0.644964 0.000000 0.115078
O O13 0.500000 0.897311 0.000000
O O14 0.293830 0.500000 0.339331
O O15 0.326392 0.500000 0.482505
O O16 0.411844 0.562518 0.621035
#
# Coordination Sequence:
#
# PCOD8092778 Si02
#       7
#     8   8   8   8   4   8   4
#     4  10  19  35  57  84 110 150 191 229 281 333
#     4  12  24  40  57  81 116 156 189 231 282 338
#     4   9  17  33  57  87 116 138 178 240 289 324
#     4   9  17  33  59  85 111 146 183 226 284 342
#     4   9  16  26  53  86 104 132 193 241 264 317
#     4  10  19  36  58  81 111 150 193 227 277 340
#     4   9  16  28  54  80 106 140 185 238 269 320
#
# _framework density 17.940985999999999
#
# number of rings (size 3 to 8) (size 9 to 14) (size 15 to 20)
#    0.000    2.167    3.333    1.000    2.333    0.000 
#    3.000    1.250    0.000    4.000    0.000    0.000 
#    0.000    0.000    0.000    0.000    0.000    0.000 
#
# Total GULP energy -297356.654844 kJ/mol
# GULP energy per Si atom -12389.860618 kJ/mol
# Density = 1.790015 g / cm^3
# Si number density = 17.940986 Si / 1000 Ang^3
#
#
#
# Elastic Constant Matrix: (Units=GPa)
#
#
# Indices 1 2 3 4 5 6 
#
# 1 75.2182 44.6048 56.7225 0.0000 1.5440 -0.0009
# 2 44.6048 129.1716 67.3845 0.0002 -3.5773 -0.0001
# 3 56.7225 67.3845 107.2679 0.0006 -6.9173 -0.0010
# 4 0.0000 0.0002 0.0006 34.5212 0.0000 -1.0393
# 5 1.5440 -3.5773 -6.9173 0.0000 32.4199 -0.0007
# 6 -0.0009 -0.0001 -0.0010 -1.0393 -0.0007 21.3565
#
#
#
# Elastic Compliance Matrix: (Units=1/GPa)
#
#
# Indices 1 2 3 4 5 6 
#
# 1 0.023001 -0.002344 -0.010928 0.000000 -0.003686 0.000000
# 2 -0.002344 0.011757 -0.006140 0.000000 0.000099 0.000000
# 3 -0.010928 -0.006140 0.019212 0.000000 0.003942 0.000001
# 4 0.000000 0.000000 0.000000 0.029010 0.000000 0.001412
# 5 -0.003686 0.000099 0.003942 0.000000 0.031873 0.000001
# 6 0.000000 0.000000 0.000001 0.001412 0.000001 0.046893
#
#
# Mechanical properties :
#
#
# Convention : Reuss Voigt Hill
#
# Bulk Modulus (GPa) = 66.02040 72.12013 69.07026
# Shear Modulus (GPa) = 24.31692 27.18923 25.75308
#
# Velocity S-wave (km/s) = 3.68555 3.89714 3.79282
# Velocity P-wave (km/s) = 7.41549 7.78049 7.60019
#
# Compressibility (1/GPa) = 0.01514683
#
# Stress axis : x y z
#
# Youngs Moduli (GPa) = 43.47587 85.05912 52.05025
#
# Poissons Ratio (x) = 0.19937 0.56882
# Poissons Ratio (y) = 0.10190 0.31956
# Poissons Ratio (z) = 0.47511 0.52222
#
# Static dielectric constant tensor:
#      x y z
#    x 3.026180 0.000000 -0.087880 
#    y 0.000000 3.432030 0.000000 
#    z -0.087880 0.000000 3.329530 
# 
# 
# High freq. dielectric constant tensor:
#      x y z
#    x 1.662310 0.000000 -0.010500 
#    y 0.000000 1.685120 0.000000 
#    z -0.010500 0.000000 1.703750 
# 
# From -- ./inp_files/197223.got.cif
#   From: 2010.06.25/outbox.cif.g09.slc.cpg/sg12_99_cif.got.tgz:197223.got - 2010.06.28 00:19:55.
