data_PCOD8092951
_publ_section_title
;
Structure prediction by ZEFSAII (Michael W. Deem and Ramdas Pophale) SiO2 
 PCOD8092951
Probable space group: C 2/M
;
_chemical_formula_sum "Si O2"
_cell_formula_units_Z 48
_cell_length_a 22.990521
_cell_length_b 20.070468
_cell_length_c 14.311316
_cell_angle_alpha 90.000000
_cell_angle_beta 157.619094
_cell_angle_gamma 90.000000
_cell_volume 2514.431248
_symmetry_space_group_name_H-M "C 2/M"
_symmetry_group_IT_number 12
_symmetry_cell_setting 'monoclinic'
loop_
_space_group_symop_operation_xyz
x,y,z
-x,y,-z
-x,-y,-z
x,-y,z
1/2+x,1/2+y,z
1/2-x,1/2+y,-z
1/2-x,1/2-y,-z
1/2+x,1/2-y,z
loop_
_atom_site_type_symbol
_atom_site_label
_atom_site_fract_x
_atom_site_fract_y
_atom_site_fract_z
Si Si1 0.218374 0.680068 0.211017
Si Si2 0.868501 0.316389 0.383072
Si Si3 0.044582 0.929976 0.463252
Si Si4 0.619107 0.577372 0.958557
Si Si5 0.157091 0.832758 0.407165
Si Si6 0.922587 0.688361 0.674763
O O1 0.259623 0.752078 0.228795
O O2 0.345651 0.631093 0.364412
O O3 0.219830 0.674655 0.325491
O O4 0.058621 0.653070 0.933460
O O5 0.946716 0.325181 0.600816
O O6 0.000000 0.307721 0.500000
O O7 0.766521 0.381311 0.209895
O O8 0.000000 0.946583 0.500000
O O9 0.898980 0.913502 0.180362
O O10 0.117302 0.000000 0.531372
O O11 0.641169 0.500000 0.021234
O O12 0.458574 0.605027 0.762853
O O13 0.058438 0.765528 0.266583
O O14 0.256377 0.839006 0.459892
#
# Coordination Sequence:
#
# PCOD8092951 Si02
#       6
#     8   8   8   8   8   8
#     4  10  19  35  58  86 112 145 181 245 282 326
#     4  11  24  36  53  86 118 151 193 228 282 341
#     4   9  19  35  57  82 108 151 192 223 275 335
#     4  10  21  40  59  79 116 154 190 235 279 336
#     4   9  19  37  58  85 109 143 195 230 282 335
#     4  10  20  35  59  84 114 147 181 237 283 334
#
# _framework density 19.089804999999998
#
# number of rings (size 3 to 8) (size 9 to 14) (size 15 to 20)
#    0.000    2.167    1.667    1.000    2.333    1.667 
#    0.000    3.333    0.000    4.000    0.000    0.000 
#    0.000    0.000    0.000    0.000    0.000    0.000 
#
# Total GULP energy -297325.415702 kJ/mol
# GULP energy per Si atom -12388.558988 kJ/mol
# Density = 1.904636 g / cm^3
# Si number density = 19.089805 Si / 1000 Ang^3
#
#
#
# Elastic Constant Matrix: (Units=GPa)
#
#
# Indices 1 2 3 4 5 6 
#
# 1 103.7730 13.1057 21.2475 0.0000 2.1107 0.0000
# 2 13.1057 99.9627 26.4600 0.0000 2.7402 0.0000
# 3 21.2475 26.4600 84.1436 0.0000 -7.5274 0.0000
# 4 0.0000 0.0000 0.0000 29.6689 0.0000 -1.5162
# 5 2.1107 2.7402 -7.5274 0.0000 12.3592 0.0000
# 6 0.0000 0.0000 0.0000 -1.5162 0.0000 21.9201
#
#
#
# Elastic Compliance Matrix: (Units=1/GPa)
#
#
# Indices 1 2 3 4 5 6 
#
# 1 0.010332 -0.000540 -0.002735 0.000000 -0.003311 0.000000
# 2 -0.000540 0.011213 -0.003811 0.000000 -0.004715 0.000000
# 3 -0.002735 -0.003811 0.014692 0.000000 0.010260 0.000000
# 4 0.000000 0.000000 0.000000 0.033825 0.000000 0.002340
# 5 -0.003311 -0.004715 0.010260 0.000000 0.088771 0.000000
# 6 0.000000 0.000000 0.000000 0.002340 0.000000 0.045782
#
#
# Mechanical properties :
#
#
# Convention : Reuss Voigt Hill
#
# Bulk Modulus (GPa) = 45.32493 45.50065 45.41279
# Shear Modulus (GPa) = 22.10998 27.92737 25.01867
#
# Velocity S-wave (km/s) = 3.40694 3.82900 3.62412
# Velocity P-wave (km/s) = 6.26665 6.59053 6.43063
#
# Compressibility (1/GPa) = 0.02206291
#
# Stress axis : x y z
#
# Youngs Moduli (GPa) = 96.78661 89.18510 68.06613
#
# Poissons Ratio (x) = 0.04814 0.18619
# Poissons Ratio (y) = 0.05224 0.25943
# Poissons Ratio (z) = 0.26475 0.33993
#
# Static dielectric constant tensor:
#      x y z
#    x 2.798940 0.000000 0.276610 
#    y 0.000000 3.627920 0.000000 
#    z 0.276610 0.000000 3.019010 
# 
# 
# High freq. dielectric constant tensor:
#      x y z
#    x 1.738100 0.000000 -0.014310 
#    y 0.000000 1.736110 0.000000 
#    z -0.014310 0.000000 1.736560 
# 
# From -- ./inp_files/132614.got.cif
#   From: 2010.06.25/outbox.cif.g09.slc.cpg/sg12_67_cif.got.tgz:132614.got - 2010.06.28 00:19:55.
