data_PCOD8092782
_publ_section_title
;
Structure prediction by ZEFSAII (Michael W. Deem and Ramdas Pophale) SiO2 
 PCOD8092782
Probable space group: C 2/M
;
_chemical_formula_sum "Si O2"
_cell_formula_units_Z 56
_cell_length_a 15.298173
_cell_length_b 8.857639
_cell_length_c 24.540598
_cell_angle_alpha 90.000000
_cell_angle_beta 61.200795
_cell_angle_gamma 90.000000
_cell_volume 2914.084363
_symmetry_space_group_name_H-M "C 2/M"
_symmetry_group_IT_number 12
_symmetry_cell_setting 'monoclinic'
loop_
_space_group_symop_operation_xyz
x,y,z
-x,y,-z
-x,-y,-z
x,-y,z
1/2+x,1/2+y,z
1/2-x,1/2+y,-z
1/2-x,1/2-y,-z
1/2+x,1/2-y,z
loop_
_atom_site_type_symbol
_atom_site_label
_atom_site_fract_x
_atom_site_fract_y
_atom_site_fract_z
Si Si1 0.413281 0.322260 0.068206
Si Si2 0.407826 0.679554 0.291016
Si Si3 0.517240 0.324337 0.365954
Si Si4 0.315263 0.821714 0.623165
Si Si5 0.768303 0.179095 0.936005
Si Si6 0.991532 0.820848 0.848234
Si Si7 0.657643 0.675725 0.498052
O O1 0.391369 0.500000 0.073793
O O2 0.312287 0.235798 0.083369
O O3 0.448584 0.263699 0.116698
O O4 0.500000 0.279954 0.000000
O O5 0.406829 0.500000 0.289717
O O6 0.472218 0.736070 0.322864
O O7 0.295553 0.739716 0.331597
O O8 0.455350 0.746361 0.221432
O O9 0.545148 0.500000 0.353777
O O10 0.616478 0.227858 0.346741
O O11 0.440342 0.293612 0.437523
O O12 0.359402 0.746715 0.555775
O O13 0.315911 0.000000 0.615339
O O14 0.877068 0.233590 0.883339
O O15 0.762669 0.000000 0.943139
O O16 0.750000 0.250000 0.000000
O O17 0.994420 0.000000 0.846772
O O18 0.679607 0.500000 0.485230
O O19 0.750000 0.750000 0.500000
#
# Coordination Sequence:
#
# PCOD8092782 Si02
#       7
#     8   8   8   8   8   8   8
#     4  10  19  35  57  84 113 146 184 225 279 336
#     4   9  19  38  58  78 111 154 192 226 275 338
#     4  10  21  38  58  82 113 150 188 230 281 334
#     4  11  22  37  58  86 114 147 190 235 280 330
#     4  11  21  35  57  86 113 145 185 229 281 332
#     4   9  19  36  58  80 111 153 189 224 277 341
#     4  11  21  36  59  86 114 148 188 233 286 334
#
# _framework density 19.217013999999999
#
# number of rings (size 3 to 8) (size 9 to 14) (size 15 to 20)
#    0.000    1.857    2.857    1.714    0.000    4.286 
#    0.000    0.000    0.000    6.000    0.000    0.000 
#    0.000    0.000    0.000    0.000    0.000    0.000 
#
# Total GULP energy -347273.988721 kJ/mol
# GULP energy per Si atom -12402.642454 kJ/mol
# Density = 1.917328 g / cm^3
# Si number density = 19.217014 Si / 1000 Ang^3
#
#
#
# Elastic Constant Matrix: (Units=GPa)
#
#
# Indices 1 2 3 4 5 6 
#
# 1 177.7362 39.9908 78.3303 0.0000 14.3481 0.0000
# 2 39.9908 46.2747 36.5465 0.0000 2.0685 0.0001
# 3 78.3303 36.5465 152.9177 0.0000 15.7933 0.0000
# 4 0.0000 0.0000 0.0000 16.7867 0.0000 1.5461
# 5 14.3481 2.0685 15.7933 0.0000 21.1327 0.0000
# 6 0.0000 0.0001 0.0000 1.5461 0.0000 38.1030
#
#
#
# Elastic Compliance Matrix: (Units=1/GPa)
#
#
# Indices 1 2 3 4 5 6 
#
# 1 0.008138 -0.004749 -0.002721 0.000000 -0.003027 0.000000
# 2 -0.004749 0.029515 -0.005046 0.000000 0.004106 0.000000
# 3 -0.002721 -0.005046 0.009642 0.000000 -0.004864 0.000000
# 4 0.000000 0.000000 0.000000 0.059794 0.000000 -0.002426
# 5 -0.003027 0.004106 -0.004864 0.000000 0.052608 0.000000
# 6 0.000000 0.000000 0.000000 -0.002426 0.000000 0.026343
#
#
# Mechanical properties :
#
#
# Convention : Reuss Voigt Hill
#
# Bulk Modulus (GPa) = 44.91514 76.29597 60.60555
# Shear Modulus (GPa) = 22.88394 30.00855 26.44624
#
# Velocity S-wave (km/s) = 3.45456 3.95595 3.71373
# Velocity P-wave (km/s) = 6.27179 7.78810 7.07071
#
# Compressibility (1/GPa) = 0.02226421
#
# Stress axis : x y z
#
# Youngs Moduli (GPa) = 122.87335 33.88069 103.71717
#
# Poissons Ratio (x) = 0.16089 0.28224
# Poissons Ratio (y) = 0.58350 0.52331
# Poissons Ratio (z) = 0.33437 0.17095
#
# Static dielectric constant tensor:
#      x y z
#    x 3.725010 0.000000 0.020590 
#    y 0.000000 3.356410 0.000000 
#    z 0.020590 0.000000 3.666480 
# 
# 
# High freq. dielectric constant tensor:
#      x y z
#    x 1.766380 0.000000 0.002890 
#    y 0.000000 1.720450 0.000000 
#    z 0.002890 0.000000 1.747760 
# 
# From -- ./inp_files/338522.got.cif
#   From: 2010.06.25/outbox.cif.g09.slc.cpg/sg12_170_cif.got.tgz:338522.got - 2010.06.28 00:19:55.
