data_PCOD8092808
_publ_section_title
;
Structure prediction by ZEFSAII (Michael W. Deem and Ramdas Pophale) SiO2 
 PCOD8092808
Probable space group: C 2/M
;
_chemical_formula_sum "Si O2"
_cell_formula_units_Z 48
_cell_length_a 11.827350
_cell_length_b 15.314056
_cell_length_c 20.769108
_cell_angle_alpha 90.000000
_cell_angle_beta 139.813113
_cell_angle_gamma 90.000000
_cell_volume 2427.424087
_symmetry_space_group_name_H-M "C 2/M"
_symmetry_group_IT_number 12
_symmetry_cell_setting 'monoclinic'
loop_
_space_group_symop_operation_xyz
x,y,z
-x,y,-z
-x,-y,-z
x,-y,z
1/2+x,1/2+y,z
1/2-x,1/2+y,-z
1/2-x,1/2-y,-z
1/2+x,1/2-y,z
loop_
_atom_site_type_symbol
_atom_site_label
_atom_site_fract_x
_atom_site_fract_y
_atom_site_fract_z
Si Si1 0.515632 0.675023 0.870739
Si Si2 0.168059 0.637352 0.914092
Si Si3 0.553760 0.000000 0.628318
Si Si4 0.525038 0.344159 0.731311
Si Si5 0.899905 0.595073 0.897016
Si Si6 0.636476 0.841185 0.756754
Si Si7 0.285208 0.500000 0.603106
O O1 0.620068 0.762215 0.900881
O O2 0.492630 0.629429 0.791609
O O3 0.328159 0.693525 0.820353
O O4 0.637366 0.618626 0.972356
O O5 0.157810 0.611209 0.834883
O O6 0.026348 0.581789 0.891351
O O7 0.568471 0.912381 0.676838
O O8 0.702100 0.000000 0.638120
O O9 0.362372 0.000000 0.514949
O O10 0.727133 0.355441 0.800102
O O11 0.498014 0.241062 0.701076
O O12 0.399093 0.411838 0.639134
O O13 0.842493 0.500000 0.897800
O O14 0.000000 0.644641 0.000000
#
# Coordination Sequence:
#
# PCOD8092808 Si02
#       7
#     8   8   4   8   8   8   4
#     4  10  19  35  57  90 125 167 204 237 294 369
#     4  10  21  33  57  87 133 169 197 239 299 366
#     4  11  26  46  67  90 122 154 218 271 327 371
#     4  11  21  38  66  92 125 161 208 255 305 369
#     4  11  21  33  54  88 127 166 205 243 289 366
#     4  11  23  39  62  91 128 165 203 259 308 372
#     4  11  24  46  71  91 112 161 212 279 320 373
#
# _framework density 19.774048000000001
#
# number of rings (size 3 to 8) (size 9 to 14) (size 15 to 20)
#    0.000    1.333    5.833    0.500    1.167    0.667 
#    1.500    0.833    0.000    2.000    0.000    0.000 
#    0.000    0.000    0.000    0.000    0.000    0.000 
#
# Total GULP energy -297428.386608 kJ/mol
# GULP energy per Si atom -12392.849442 kJ/mol
# Density = 1.972904 g / cm^3
# Si number density = 19.774048 Si / 1000 Ang^3
#
#
#
# Elastic Constant Matrix: (Units=GPa)
#
#
# Indices 1 2 3 4 5 6 
#
# 1 106.0132 20.9326 48.7774 0.0000 -3.7257 0.0000
# 2 20.9326 78.8797 49.1373 0.0001 1.0842 0.0000
# 3 48.7774 49.1373 117.6253 0.0003 1.6054 0.0002
# 4 0.0000 0.0001 0.0003 53.2303 0.0001 11.8478
# 5 -3.7257 1.0842 1.6054 0.0001 28.8165 0.0000
# 6 0.0000 0.0000 0.0002 11.8478 0.0000 33.9019
#
#
#
# Elastic Compliance Matrix: (Units=1/GPa)
#
#
# Indices 1 2 3 4 5 6 
#
# 1 0.011750 -0.000125 -0.004845 0.000000 0.001794 0.000000
# 2 -0.000125 0.017140 -0.007105 0.000000 -0.000265 0.000000
# 3 -0.004845 -0.007105 0.013494 0.000000 -0.001111 0.000000
# 4 0.000000 0.000000 0.000000 0.020371 0.000000 -0.007119
# 5 0.001794 -0.000265 -0.001111 0.000000 0.035006 0.000000
# 6 0.000000 0.000000 0.000000 -0.007119 0.000000 0.031985
#
#
# Mechanical properties :
#
#
# Convention : Reuss Voigt Hill
#
# Bulk Modulus (GPa) = 54.83993 60.02362 57.43177
# Shear Modulus (GPa) = 31.25546 35.43448 33.34497
#
# Velocity S-wave (km/s) = 3.98003 4.23776 4.11091
# Velocity P-wave (km/s) = 6.99388 7.37329 7.18609
#
# Compressibility (1/GPa) = 0.01823489
#
# Stress axis : x y z
#
# Youngs Moduli (GPa) = 85.10965 58.34245 74.10814
#
# Poissons Ratio (x) = 0.00727 0.35904
# Poissons Ratio (y) = 0.01061 0.52653
# Poissons Ratio (z) = 0.41233 0.41452
#
# Static dielectric constant tensor:
#      x y z
#    x 3.618010 0.000000 -0.084620 
#    y 0.000000 3.568690 0.000000 
#    z -0.084620 0.000000 3.458380 
# 
# 
# High freq. dielectric constant tensor:
#      x y z
#    x 1.773390 0.000000 0.001600 
#    y 0.000000 1.771150 0.000000 
#    z 0.001600 0.000000 1.742910 
# 
# From -- ./inp_files/131109.got.cif
#   From: 2010.06.25/outbox.cif.g09.slc.cpg/sg12_66_cif.got.tgz:131109.got - 2010.06.28 00:19:55.
