data_PCOD8092398
_publ_section_title
;
Structure prediction by ZEFSAII (Michael W. Deem and Ramdas Pophale) SiO2 
 PCOD8092398
Probable space group: C 2/M
;
_chemical_formula_sum "Si O2"
_cell_formula_units_Z 56
_cell_length_a 10.091976
_cell_length_b 25.224316
_cell_length_c 15.389657
_cell_angle_alpha 90.000000
_cell_angle_beta 60.122318
_cell_angle_gamma 90.000000
_cell_volume 3396.949996
_symmetry_space_group_name_H-M "C 2/M"
_symmetry_group_IT_number 12
_symmetry_cell_setting 'monoclinic'
loop_
_space_group_symop_operation_xyz
x,y,z
-x,y,-z
-x,-y,-z
x,-y,z
1/2+x,1/2+y,z
1/2-x,1/2+y,-z
1/2-x,1/2-y,-z
1/2+x,1/2-y,z
loop_
_atom_site_type_symbol
_atom_site_label
_atom_site_fract_x
_atom_site_fract_y
_atom_site_fract_z
Si Si1 0.182726 0.599847 0.799955
Si Si2 0.818604 0.000000 0.059118
Si Si3 0.176057 0.500000 0.919886
Si Si4 0.967331 0.438347 0.414233
Si Si5 0.327584 0.807497 0.073179
Si Si6 0.665710 0.438570 0.415483
Si Si7 0.633670 0.903429 0.192447
Si Si8 0.326950 0.686630 0.059447
O O1 0.220576 0.552264 0.852414
O O2 0.227418 0.655771 0.829487
O O3 0.291251 0.596454 0.681276
O O4 0.006063 0.595181 0.829609
O O5 0.752410 0.050790 0.130140
O O6 0.000000 0.000000 0.000000
O O7 0.774703 0.000000 0.973575
O O8 0.000000 0.500000 0.000000
O O9 0.010398 0.500000 0.393862
O O10 0.073790 0.408133 0.310410
O O11 0.000000 0.416093 0.500000
O O12 0.788523 0.429165 0.451980
O O13 0.317032 0.745795 0.102057
O O14 0.500000 0.825103 0.000000
O O15 0.228468 0.818195 0.020881
O O16 0.500000 0.419422 0.500000
O O17 0.664862 0.500000 0.387774
O O18 0.722797 0.848070 0.157012
O O19 0.500000 0.665953 0.000000
#
# Coordination Sequence:
#
# PCOD8092398 Si02
#       8
#     8   4   4   8   8   8   8   8
#     4  11  19  33  57  79  99 140 180 210 254 314
#     4  12  24  34  45  78 118 138 163 210 266 306
#     4  12  20  32  53  76 106 138 173 204 250 320
#     4   9  18  34  54  73  99 138 174 204 252 318
#     4  10  19  35  54  75 102 140 181 211 250 311
#     4   9  18  34  52  76 105 127 167 220 259 300
#     4  11  19  35  55  75 105 142 175 211 256 314
#     4  10  21  34  51  76 107 139 175 217 255 296
#
# _framework density 16.485378000000001
#
# number of rings (size 3 to 8) (size 9 to 14) (size 15 to 20)
#    0.000    1.714    4.286    1.714    0.000    0.000 
#    5.143    0.000    0.000    0.857    0.000    4.000 
#    0.000    0.000    0.000    0.000    0.000    0.000 
#
# Total GULP energy -347245.105216 kJ/mol
# GULP energy per Si atom -12401.610901 kJ/mol
# Density = 1.644786 g / cm^3
# Si number density = 16.485378 Si / 1000 Ang^3
#
#
#
# Elastic Constant Matrix: (Units=GPa)
#
#
# Indices 1 2 3 4 5 6 
#
# 1 109.0792 31.1761 64.1936 0.0000 -5.3001 0.0000
# 2 31.1761 80.7557 56.0563 0.0000 -1.1043 0.0000
# 3 64.1936 56.0563 108.0868 0.0000 -1.4624 0.0000
# 4 0.0000 0.0000 0.0000 17.6459 0.0000 4.7455
# 5 -5.3001 -1.1043 -1.4624 0.0000 31.7303 0.0000
# 6 0.0000 0.0000 0.0000 4.7455 0.0000 29.9181
#
#
#
# Elastic Compliance Matrix: (Units=1/GPa)
#
#
# Indices 1 2 3 4 5 6 
#
# 1 0.014236 0.000596 -0.008737 0.000000 0.001996 0.000000
# 2 0.000596 0.019375 -0.010398 0.000000 0.000295 0.000000
# 3 -0.008737 -0.010398 0.019821 0.000000 -0.000908 0.000000
# 4 0.000000 0.000000 0.000000 0.059196 0.000000 -0.009389
# 5 0.001996 0.000295 -0.000908 0.000000 0.031817 0.000000
# 6 0.000000 0.000000 0.000000 -0.009389 0.000000 0.034914
#
#
# Mechanical properties :
#
#
# Convention : Reuss Voigt Hill
#
# Bulk Modulus (GPa) = 61.14771 66.75262 63.95017
# Shear Modulus (GPa) = 22.53378 25.62524 24.07951
#
# Velocity S-wave (km/s) = 3.70117 3.94689 3.82600
# Velocity P-wave (km/s) = 7.44563 7.83266 7.64160
#
# Compressibility (1/GPa) = 0.01635384
#
# Stress axis : x y z
#
# Youngs Moduli (GPa) = 70.24413 51.61316 50.45034
#
# Poissons Ratio (x) = -0.03078 0.44079
# Poissons Ratio (y) = -0.04188 0.52460
# Poissons Ratio (z) = 0.61373 0.53670
#
# Static dielectric constant tensor:
#      x y z
#    x 3.121600 0.000000 -0.028440 
#    y 0.000000 3.079400 0.000000 
#    z -0.028440 0.000000 2.980800 
# 
# 
# High freq. dielectric constant tensor:
#      x y z
#    x 1.642210 0.000000 0.001070 
#    y 0.000000 1.621940 0.000000 
#    z 0.001070 0.000000 1.622900 
# 
# From -- ./inp_files/199729.got.cif
#   From: 2010.06.25/outbox.cif.g09.slc.cpg/sg12_100_cif.got.tgz:199729.got - 2010.06.28 00:19:55.
