data_PCOD8092538
_publ_section_title
;
Structure prediction by ZEFSAII (Michael W. Deem and Ramdas Pophale) SiO2 
 PCOD8092538
Probable space group: C 2/M
;
_chemical_formula_sum "Si O2"
_cell_formula_units_Z 56
_cell_length_a 30.743805
_cell_length_b 9.100172
_cell_length_c 11.842019
_cell_angle_alpha 90.000000
_cell_angle_beta 63.130318
_cell_angle_gamma 90.000000
_cell_volume 2955.396450
_symmetry_space_group_name_H-M "C 2/M"
_symmetry_group_IT_number 12
_symmetry_cell_setting 'monoclinic'
loop_
_space_group_symop_operation_xyz
x,y,z
-x,y,-z
-x,-y,-z
x,-y,z
1/2+x,1/2+y,z
1/2-x,1/2+y,-z
1/2-x,1/2-y,-z
1/2+x,1/2-y,z
loop_
_atom_site_type_symbol
_atom_site_label
_atom_site_fract_x
_atom_site_fract_y
_atom_site_fract_z
Si Si1 0.080601 0.169549 0.711330
Si Si2 0.862063 0.830575 0.572474
Si Si3 0.793795 0.671767 0.806887
Si Si4 0.952476 0.829965 0.625436
Si Si5 0.021126 0.325917 0.186063
Si Si6 0.314755 0.671466 0.006050
Si Si7 0.405592 0.330242 0.048988
O O1 0.122455 0.213219 0.572696
O O2 0.103022 0.195693 0.808327
O O3 0.033856 0.269385 0.745300
O O4 0.064835 0.000000 0.710571
O O5 0.815639 0.734863 0.664779
O O6 0.906408 0.793699 0.603272
O O7 0.846977 0.000000 0.597039
O O8 0.803063 0.500000 0.801509
O O9 0.736655 0.711526 0.875937
O O10 0.821386 0.743982 0.880766
O O11 0.948825 0.732101 0.741583
O O12 0.000000 0.784647 0.500000
O O13 0.954413 0.000000 0.659522
O O14 0.021091 0.500000 0.183911
O O15 0.048080 0.265676 0.042998
O O16 0.318275 0.500000 0.973651
O O17 0.356856 0.721849 0.042309
O O18 0.417357 0.500000 0.009361
#
# Coordination Sequence:
#
# PCOD8092538 Si02
#       7
#     8   8   8   8   8   8   8
#     4  10  21  39  58  76 102 144 192 226 256 312
#     4  10  20  35  56  80 107 140 180 222 265 314
#     4  10  20  34  56  84 113 140 170 215 273 329
#     4  10  19  35  56  76 104 141 182 222 257 307
#     4  12  24  35  52  81 115 143 174 222 279 327
#     4   9  19  37  58  82 108 138 178 222 266 314
#     4  10  21  38  60  78 100 141 191 230 260 309
#
# _framework density 18.94839
#
# number of rings (size 3 to 8) (size 9 to 14) (size 15 to 20)
#    0.000    1.857    1.429    3.000    0.000    8.286 
#    0.000    0.714    0.000    0.000    0.000    0.000 
#    0.000    0.000    0.000    0.000    0.000    0.000 
#
# Total GULP energy -347333.295969 kJ/mol
# GULP energy per Si atom -12404.760570 kJ/mol
# Density = 1.890526 g / cm^3
# Si number density = 18.948390 Si / 1000 Ang^3
#
#
#
# Elastic Constant Matrix: (Units=GPa)
#
#
# Indices 1 2 3 4 5 6 
#
# 1 49.3354 26.8880 35.2907 0.0000 4.1546 0.0000
# 2 26.8880 77.2245 53.8954 0.0000 -0.1916 0.0000
# 3 35.2907 53.8954 146.4227 0.0000 -0.8991 0.0000
# 4 0.0000 0.0000 0.0000 27.7495 0.0000 -7.9773
# 5 4.1546 -0.1916 -0.8991 0.0000 27.7639 0.0000
# 6 0.0000 0.0000 0.0000 -7.9773 0.0000 16.8677
#
#
#
# Elastic Compliance Matrix: (Units=1/GPa)
#
#
# Indices 1 2 3 4 5 6 
#
# 1 0.027184 -0.006573 -0.004159 0.000000 -0.004248 0.000000
# 2 -0.006573 0.019015 -0.005409 0.000000 0.000940 0.000000
# 3 -0.004159 -0.005409 0.009828 0.000000 0.000903 0.000000
# 4 0.000000 0.000000 0.000000 0.041707 0.000000 0.019725
# 5 -0.004248 0.000940 0.000903 0.000000 0.036689 0.000000
# 6 0.000000 0.000000 0.000000 0.019725 0.000000 0.068613
#
#
# Mechanical properties :
#
#
# Convention : Reuss Voigt Hill
#
# Bulk Modulus (GPa) = 42.11215 56.12566 49.11891
# Shear Modulus (GPa) = 20.55626 24.93680 22.74653
#
# Velocity S-wave (km/s) = 3.29729 3.63166 3.46851
# Velocity P-wave (km/s) = 6.06375 6.87531 6.48224
#
# Compressibility (1/GPa) = 0.02374611
#
# Stress axis : x y z
#
# Youngs Moduli (GPa) = 36.78589 52.58914 101.74631
#
# Poissons Ratio (x) = 0.34569 0.42311
# Poissons Ratio (y) = 0.24181 0.55036
# Poissons Ratio (z) = 0.15298 0.28446
#
# Static dielectric constant tensor:
#      x y z
#    x 3.401670 0.000000 -0.007940 
#    y 0.000000 3.346600 0.000000 
#    z -0.007940 0.000000 3.689190 
# 
# 
# High freq. dielectric constant tensor:
#      x y z
#    x 1.723230 0.000000 -0.002850 
#    y 0.000000 1.724440 0.000000 
#    z -0.002850 0.000000 1.748110 
# 
# From -- ./inp_files/186866.got.cif
#   From: 2010.06.25/outbox.cif.g09.slc.cpg/sg12_94_cif.got.tgz:186866.got - 2010.06.28 00:19:55.
