data_PCOD8092297
_publ_section_title
;
Structure prediction by ZEFSAII (Michael W. Deem and Ramdas Pophale) SiO2 
 PCOD8092297
Probable space group: C 2/M
;
_chemical_formula_sum "Si O2"
_cell_formula_units_Z 48
_cell_length_a 22.146642
_cell_length_b 10.757210
_cell_length_c 14.907145
_cell_angle_alpha 90.000000
_cell_angle_beta 41.601117
_cell_angle_gamma 90.000000
_cell_volume 2357.932452
_symmetry_space_group_name_H-M "C 2/M"
_symmetry_group_IT_number 12
_symmetry_cell_setting 'monoclinic'
loop_
_space_group_symop_operation_xyz
x,y,z
-x,y,-z
-x,-y,-z
x,-y,z
1/2+x,1/2+y,z
1/2-x,1/2+y,-z
1/2-x,1/2-y,-z
1/2+x,1/2-y,z
loop_
_atom_site_type_symbol
_atom_site_label
_atom_site_fract_x
_atom_site_fract_y
_atom_site_fract_z
Si Si1 0.165004 0.747616 0.161666
Si Si2 0.569670 0.000000 0.295169
Si Si3 0.232244 0.741149 0.287708
Si Si4 0.693149 0.354357 0.508181
Si Si5 0.489245 0.358446 0.766288
Si Si6 0.084232 0.861048 0.970768
Si Si7 0.873912 0.500000 0.563436
O O1 0.116289 0.617200 0.197486
O O2 0.192072 0.771661 0.234429
O O3 0.086216 0.847679 0.228139
O O4 0.250000 0.750000 0.000000
O O5 0.460680 0.000000 0.399817
O O6 0.589017 0.000000 0.377990
O O7 0.218227 0.852067 0.374335
O O8 0.339445 0.722077 0.159707
O O9 0.186736 0.621271 0.384733
O O10 0.707919 0.500000 0.523742
O O11 0.750000 0.250000 0.500000
O O12 0.588541 0.307576 0.630980
O O13 0.504670 0.500000 0.774820
O O14 0.447439 0.294440 0.901908
O O15 0.124638 0.000000 0.943928
O O16 0.000000 0.870015 0.000000
#
# Coordination Sequence:
#
# PCOD8092297 Si02
#       7
#     8   4   8   8   8   8   4
#     4  11  22  37  61  94 130 171 207 261 323 389
#     4   9  20  34  52  86 126 163 213 247 313 381
#     4  11  21  37  65  92 128 162 216 264 332 383
#     4  11  26  46  68  96 129 173 221 269 325 387
#     4  10  22  40  64  92 128 167 217 265 319 388
#     4  10  19  34  61  91 118 163 223 275 313 371
#     4   9  18  34  59  88 119 159 208 268 310 376
#
# _framework density 20.356816999999999
#
# number of rings (size 3 to 8) (size 9 to 14) (size 15 to 20)
#    0.000    1.667    2.500    2.000    2.333    4.000 
#    1.500    1.667    0.000    1.500    0.000    0.000 
#    0.000    0.000    0.000    0.000    0.000    0.000 
#
# Total GULP energy -297444.151480 kJ/mol
# GULP energy per Si atom -12393.506312 kJ/mol
# Density = 2.031048 g / cm^3
# Si number density = 20.356817 Si / 1000 Ang^3
#
#
#
# Elastic Constant Matrix: (Units=GPa)
#
#
# Indices 1 2 3 4 5 6 
#
# 1 101.6584 28.9464 52.7010 0.0000 -7.2812 0.0000
# 2 28.9464 63.8018 42.8550 0.0000 -1.9080 0.0000
# 3 52.7010 42.8550 171.1565 0.0000 -16.3085 0.0000
# 4 0.0000 0.0000 0.0000 88.3520 0.0000 -13.0863
# 5 -7.2812 -1.9080 -16.3085 0.0000 39.9099 0.0000
# 6 0.0000 0.0000 0.0000 -13.0863 0.0000 34.5774
#
#
#
# Elastic Compliance Matrix: (Units=1/GPa)
#
#
# Indices 1 2 3 4 5 6 
#
# 1 0.012417 -0.003724 -0.002801 0.000000 0.000943 0.000000
# 2 -0.003724 0.020003 -0.003991 0.000000 -0.001354 0.000000
# 3 -0.002801 -0.003991 0.007947 0.000000 0.002546 0.000000
# 4 0.000000 0.000000 0.000000 0.011991 0.000000 0.004538
# 5 0.000943 -0.001354 0.002546 0.000000 0.026204 0.000000
# 6 0.000000 0.000000 0.000000 0.004538 0.000000 0.030638
#
#
# Mechanical properties :
#
#
# Convention : Reuss Voigt Hill
#
# Bulk Modulus (GPa) = 51.71872 65.06907 58.39390
# Shear Modulus (GPa) = 36.58287 46.70880 41.64584
#
# Velocity S-wave (km/s) = 4.24380 4.79529 4.52795
# Velocity P-wave (km/s) = 7.03380 7.91792 7.48892
#
# Compressibility (1/GPa) = 0.01933536
#
# Stress axis : x y z
#
# Youngs Moduli (GPa) = 80.53595 49.99217 125.83515
#
# Poissons Ratio (x) = 0.18616 0.35247
# Poissons Ratio (y) = 0.29990 0.50220
# Poissons Ratio (z) = 0.22559 0.19951
#
# Static dielectric constant tensor:
#      x y z
#    x 3.601290 0.000000 -0.076520 
#    y 0.000000 3.697370 0.000000 
#    z -0.076520 0.000000 3.987260 
# 
# 
# High freq. dielectric constant tensor:
#      x y z
#    x 1.794120 0.000000 -0.008840 
#    y 0.000000 1.767390 0.000000 
#    z -0.008840 0.000000 1.815870 
# 
# From -- ./inp_files/232838.got.cif
#   From: 2010.06.25/outbox.cif.g09.slc.cpg/sg12_117_cif.got.tgz:232838.got - 2010.06.28 00:19:55.
