data_PCOD8092545
_publ_section_title
;
Structure prediction by ZEFSAII (Michael W. Deem and Ramdas Pophale) SiO2 
 PCOD8092545
Probable space group: C 2/M
;
_chemical_formula_sum "Si O2"
_cell_formula_units_Z 56
_cell_length_a 31.692547
_cell_length_b 8.624386
_cell_length_c 23.826172
_cell_angle_alpha 90.000000
_cell_angle_beta 153.439722
_cell_angle_gamma 90.000000
_cell_volume 2911.938723
_symmetry_space_group_name_H-M "C 2/M"
_symmetry_group_IT_number 12
_symmetry_cell_setting 'monoclinic'
loop_
_space_group_symop_operation_xyz
x,y,z
-x,y,-z
-x,-y,-z
x,-y,z
1/2+x,1/2+y,z
1/2-x,1/2+y,-z
1/2-x,1/2-y,-z
1/2+x,1/2-y,z
loop_
_atom_site_type_symbol
_atom_site_label
_atom_site_fract_x
_atom_site_fract_y
_atom_site_fract_z
Si Si1 0.952068 0.816365 0.026761
Si Si2 0.856196 0.816426 0.799438
Si Si3 0.885871 0.816060 0.067208
Si Si4 0.813894 0.182389 0.174142
Si Si5 0.607901 0.181237 0.623683
Si Si6 0.022240 0.183292 0.711440
Si Si7 0.838842 0.817914 0.429776
O O1 0.919520 0.744330 0.047575
O O2 0.058377 0.762137 0.139151
O O3 0.951586 0.000000 0.029068
O O4 0.880558 0.764988 0.892346
O O5 0.763717 0.725714 0.668055
O O6 0.839563 0.000000 0.775891
O O7 0.957413 0.758435 0.201071
O O8 0.884286 0.000000 0.061460
O O9 0.782598 0.758893 0.961457
O O10 0.830756 0.225099 0.258735
O O11 0.899376 0.250695 0.238217
O O12 0.804564 0.000000 0.156398
O O13 0.500000 0.235449 0.500000
O O14 0.647413 0.220454 0.610021
O O15 0.619907 0.000000 0.650023
O O16 0.917961 0.237007 0.568623
O O17 0.029570 0.000000 0.717856
O O18 0.847378 0.000000 0.427390
#
# Coordination Sequence:
#
# PCOD8092545 Si02
#       7
#     8   8   8   8   8   8   8
#     4   8  16  32  56  78 102 132 171 222 272 314
#     4   9  17  33  55  81 105 132 171 220 271 322
#     4  10  19  35  56  77 101 141 189 225 256 309
#     4  11  21  35  53  77 108 143 175 218 272 317
#     4  11  22  35  53  78 104 135 176 219 256 307
#     4   9  20  35  51  72 107 147 181 214 262 318
#     4  11  21  35  53  77 109 145 174 212 269 322
#
# _framework density 19.231175
#
# number of rings (size 3 to 8) (size 9 to 14) (size 15 to 20)
#    0.000    2.143    1.429    3.429    0.000    1.714 
#    0.000    5.000    0.000    0.000    0.000    0.000 
#    0.000    0.000    0.000    0.000    0.000    0.000 
#
# Total GULP energy -347204.576013 kJ/mol
# GULP energy per Si atom -12400.163429 kJ/mol
# Density = 1.918740 g / cm^3
# Si number density = 19.231175 Si / 1000 Ang^3
#
#
#
# Elastic Constant Matrix: (Units=GPa)
#
#
# Indices 1 2 3 4 5 6 
#
# 1 94.1451 15.0073 70.5768 0.0000 3.5823 0.0000
# 2 15.0073 16.9771 18.0513 0.0000 -0.0750 0.0000
# 3 70.5768 18.0513 159.1919 0.0000 7.0750 0.0000
# 4 0.0000 0.0000 0.0000 23.4596 0.0000 7.9666
# 5 3.5823 -0.0750 7.0750 0.0000 34.0816 0.0000
# 6 0.0000 0.0000 0.0000 7.9666 0.0000 17.6552
#
#
#
# Elastic Compliance Matrix: (Units=1/GPa)
#
#
# Indices 1 2 3 4 5 6 
#
# 1 0.016793 -0.007904 -0.006530 0.000000 -0.000427 0.000000
# 2 -0.007904 0.070800 -0.004611 0.000000 0.001944 0.000000
# 3 -0.006530 -0.004611 0.009760 0.000000 -0.001350 0.000000
# 4 0.000000 0.000000 0.000000 0.050340 0.000000 -0.022715
# 5 -0.000427 0.001944 -0.001350 0.000000 0.029671 0.000000
# 6 0.000000 0.000000 0.000000 -0.022715 0.000000 0.066890
#
#
# Mechanical properties :
#
#
# Convention : Reuss Voigt Hill
#
# Bulk Modulus (GPa) = 16.87341 53.06498 34.96920
# Shear Modulus (GPa) = 16.55090 26.15117 21.35103
#
# Velocity S-wave (km/s) = 2.93683 3.69159 3.33563
# Velocity P-wave (km/s) = 4.50477 6.76931 5.74963
#
# Compressibility (1/GPa) = 0.05926485
#
# Stress axis : x y z
#
# Youngs Moduli (GPa) = 59.54737 14.12420 102.46323
#
# Poissons Ratio (x) = 0.11163 0.66909
# Poissons Ratio (y) = 0.47064 0.47242
# Poissons Ratio (z) = 0.38885 0.06512
#
# Static dielectric constant tensor:
#      x y z
#    x 3.770320 0.000000 -0.021330 
#    y 0.000000 3.149980 0.000000 
#    z -0.021330 0.000000 3.809800 
# 
# 
# High freq. dielectric constant tensor:
#      x y z
#    x 1.742380 0.000000 0.005620 
#    y 0.000000 1.717820 0.000000 
#    z 0.005620 0.000000 1.756560 
# 
# From -- ./inp_files/237806.got.cif
#   From: 2010.06.25/outbox.cif.g09.slc.cpg/sg12_119_cif.got.tgz:237806.got - 2010.06.28 00:19:55.
