data_PCOD8092898
_publ_section_title
;
Structure prediction by ZEFSAII (Michael W. Deem and Ramdas Pophale) SiO2 
 PCOD8092898
Probable space group: C 2/M
;
_chemical_formula_sum "Si O2"
_cell_formula_units_Z 48
_cell_length_a 12.983262
_cell_length_b 13.509229
_cell_length_c 21.431714
_cell_angle_alpha 90.000000
_cell_angle_beta 38.454377
_cell_angle_gamma 90.000000
_cell_volume 2337.683711
_symmetry_space_group_name_H-M "C 2/M"
_symmetry_group_IT_number 12
_symmetry_cell_setting 'monoclinic'
loop_
_space_group_symop_operation_xyz
x,y,z
-x,y,-z
-x,-y,-z
x,-y,z
1/2+x,1/2+y,z
1/2-x,1/2+y,-z
1/2-x,1/2-y,-z
1/2+x,1/2-y,z
loop_
_atom_site_type_symbol
_atom_site_label
_atom_site_fract_x
_atom_site_fract_y
_atom_site_fract_z
Si Si1 0.172752 0.385704 0.090557
Si Si2 0.978924 0.787647 0.905687
Si Si3 0.038285 0.116728 0.746604
Si Si4 0.164303 0.772018 0.258492
Si Si5 0.682250 0.727150 0.389861
Si Si6 0.545859 0.111287 0.683301
O O1 0.171181 0.500000 0.071820
O O2 0.090755 0.322762 0.073701
O O3 0.067733 0.367538 0.202508
O O4 0.361412 0.346062 0.010323
O O5 0.972459 0.852404 0.845433
O O6 0.161807 0.774840 0.847620
O O7 0.212027 0.172416 0.652131
O O8 0.903208 0.146774 0.757993
O O9 0.069014 0.000000 0.728331
O O10 0.186861 0.815781 0.317117
O O11 0.032126 0.682685 0.331656
O O12 0.500000 0.748948 0.500000
O O13 0.764859 0.640244 0.392087
O O14 0.537787 0.000000 0.662750
#
# Coordination Sequence:
#
# PCOD8092898 Si02
#       6
#     8   8   8   8   8   8
#     4  10  19  35  58  83 116 154 192 230 272 330
#     4  10  20  37  57  82 122 154 186 228 282 326
#     4  10  21  38  58  86 116 148 189 233 279 335
#     4  10  20  38  57  84 110 151 183 234 280 336
#     4  10  22  41  60  82 113 148 185 234 291 341
#     4  10  21  38  57  85 115 146 190 236 277 330
#
# _framework density 20.533145000000001
#
# number of rings (size 3 to 8) (size 9 to 14) (size 15 to 20)
#    0.000    2.000    5.000    0.500    0.000    8.667 
#    0.000    3.333    0.000    3.000    0.000    0.000 
#    0.000    0.000    0.000    0.000    0.000    0.000 
#
# Total GULP energy -297530.341915 kJ/mol
# GULP energy per Si atom -12397.097580 kJ/mol
# Density = 2.048641 g / cm^3
# Si number density = 20.533145 Si / 1000 Ang^3
#
#
#
# Elastic Constant Matrix: (Units=GPa)
#
#
# Indices 1 2 3 4 5 6 
#
# 1 75.1111 -1.7288 27.3278 0.0001 -23.1765 0.0000
# 2 -1.7288 76.8425 13.8149 0.0000 -5.9962 -0.0001
# 3 27.3278 13.8149 79.8704 -0.0004 -28.9540 0.0000
# 4 0.0001 0.0000 -0.0004 20.0744 -0.0001 -0.6586
# 5 -23.1765 -5.9962 -28.9540 -0.0001 27.7461 0.0001
# 6 0.0000 -0.0001 0.0000 -0.6586 0.0001 15.3970
#
#
#
# Elastic Compliance Matrix: (Units=1/GPa)
#
#
# Indices 1 2 3 4 5 6 
#
# 1 0.018231 0.001768 -0.001423 0.000000 0.014125 0.000000
# 2 0.001768 0.013613 -0.002184 0.000000 0.002140 0.000000
# 3 -0.001423 -0.002184 0.020561 0.000000 0.019796 0.000000
# 4 0.000000 0.000000 0.000000 0.049885 0.000001 0.002134
# 5 0.014125 0.002140 0.019796 0.000001 0.068960 0.000000
# 6 0.000000 0.000000 0.000000 0.002134 0.000000 0.065039
#
#
# Mechanical properties :
#
#
# Convention : Reuss Voigt Hill
#
# Bulk Modulus (GPa) = 20.52225 34.51687 27.51956
# Shear Modulus (GPa) = 19.51543 25.47086 22.49315
#
# Velocity S-wave (km/s) = 3.08626 3.52586 3.31336
# Velocity P-wave (km/s) = 4.76617 5.78121 5.29805
#
# Compressibility (1/GPa) = 0.04872761
#
# Stress axis : x y z
#
# Youngs Moduli (GPa) = 54.85301 73.45914 48.63590
#
# Poissons Ratio (x) = -0.12989 0.06920
# Poissons Ratio (y) = -0.09699 0.10621
# Poissons Ratio (z) = 0.07805 0.16042
#
# Static dielectric constant tensor:
#      x y z
#    x 3.714560 0.000000 -0.230640 
#    y 0.000000 3.657330 0.000000 
#    z -0.230640 0.000000 3.643540 
# 
# 
# High freq. dielectric constant tensor:
#      x y z
#    x 1.801200 0.000000 -0.018670 
#    y 0.000000 1.794160 0.000000 
#    z -0.018670 0.000000 1.794500 
# 
# From -- ./inp_files/204564.got.cif
#   From: 2010.06.25/outbox.cif.g09.slc.cpg/sg12_103_cif.got.tgz:204564.got - 2010.06.28 00:19:55.
