data_PCOD8092473
_publ_section_title
;
Structure prediction by ZEFSAII (Michael W. Deem and Ramdas Pophale) SiO2 
 PCOD8092473
Probable space group: C 2/M
;
_chemical_formula_sum "Si O2"
_cell_formula_units_Z 56
_cell_length_a 20.928559
_cell_length_b 8.942156
_cell_length_c 16.544324
_cell_angle_alpha 90.000000
_cell_angle_beta 59.679622
_cell_angle_gamma 90.000000
_cell_volume 2672.699326
_symmetry_space_group_name_H-M "C 2/M"
_symmetry_group_IT_number 12
_symmetry_cell_setting 'monoclinic'
loop_
_space_group_symop_operation_xyz
x,y,z
-x,y,-z
-x,-y,-z
x,-y,z
1/2+x,1/2+y,z
1/2-x,1/2+y,-z
1/2-x,1/2-y,-z
1/2+x,1/2-y,z
loop_
_atom_site_type_symbol
_atom_site_label
_atom_site_fract_x
_atom_site_fract_y
_atom_site_fract_z
Si Si1 0.131396 0.675816 0.759857
Si Si2 0.523730 0.839328 0.074151
Si Si3 0.328513 0.676889 0.430990
Si Si4 0.022398 0.821715 0.574876
Si Si5 0.156264 0.173059 0.032608
Si Si6 0.611292 0.328053 0.233990
Si Si7 0.771055 0.670888 0.154714
O O1 0.149047 0.500000 0.734122
O O2 0.045131 0.707516 0.826452
O O3 0.153396 0.776045 0.670823
O O4 0.176727 0.737398 0.808854
O O5 0.581826 0.704519 0.030090
O O6 0.556061 0.000000 0.085467
O O7 0.500000 0.871889 0.000000
O O8 0.320138 0.500000 0.442588
O O9 0.250000 0.750000 0.500000
O O10 0.395386 0.730498 0.448837
O O11 0.000000 0.761288 0.500000
O O12 0.959606 0.754744 0.676220
O O13 0.018146 0.000000 0.577585
O O14 0.133523 0.245758 0.133848
O O15 0.176817 0.000000 0.026640
O O16 0.221618 0.253138 0.939597
O O17 0.591530 0.500000 0.230007
O O18 0.686155 0.312864 0.239964
O O19 0.793089 0.500000 0.125797
#
# Coordination Sequence:
#
# PCOD8092473 Si02
#       7
#     8   8   8   8   8   8   8
#     4  10  21  37  60  87 117 155 202 246 296 353
#     4  10  19  35  55  78 110 153 199 237 282 352
#     4  11  24  41  65  95 126 155 194 247 303 361
#     4   9  19  37  63  91 115 149 200 249 293 350
#     4  11  21  33  52  83 120 152 193 247 301 347
#     4   9  19  34  55  83 115 150 194 246 297 349
#     4  10  20  36  58  82 114 159 202 240 285 354
#
# _framework density 20.952601999999999
#
# number of rings (size 3 to 8) (size 9 to 14) (size 15 to 20)
#    0.000    2.000    1.429    2.143    2.000    2.571 
#    0.000    0.714    0.000    3.429    0.000    0.000 
#    0.000    0.000    0.000    0.000    0.000    0.000 
#
# Total GULP energy -346875.214436 kJ/mol
# GULP energy per Si atom -12388.400516 kJ/mol
# Density = 2.090491 g / cm^3
# Si number density = 20.952602 Si / 1000 Ang^3
#
#
#
# Elastic Constant Matrix: (Units=GPa)
#
#
# Indices 1 2 3 4 5 6 
#
# 1 93.6464 13.5512 63.0151 0.0000 -12.9156 -0.0001
# 2 13.5512 36.3117 30.6174 0.0000 -4.8479 -0.0003
# 3 63.0151 30.6174 146.9851 0.0000 -12.1554 0.0000
# 4 0.0000 0.0000 0.0000 32.0352 0.0000 -9.7392
# 5 -12.9156 -4.8479 -12.1554 0.0000 41.8600 0.0000
# 6 -0.0001 -0.0003 0.0000 -9.7392 0.0000 27.7914
#
#
#
# Elastic Compliance Matrix: (Units=1/GPa)
#
#
# Indices 1 2 3 4 5 6 
#
# 1 0.015343 0.000006 -0.006340 0.000000 0.002894 0.000000
# 2 0.000006 0.033554 -0.006835 0.000000 0.001903 0.000000
# 3 -0.006340 -0.006835 0.010981 0.000000 0.000441 0.000000
# 4 0.000000 0.000000 0.000000 0.034938 0.000000 0.012244
# 5 0.002894 0.001903 0.000441 0.000000 0.025131 0.000000
# 6 0.000000 0.000000 0.000000 0.012244 0.000000 0.040273
#
#
# Mechanical properties :
#
#
# Convention : Reuss Voigt Hill
#
# Bulk Modulus (GPa) = 29.81360 54.59007 42.20184
# Shear Modulus (GPa) = 25.28620 31.65463 28.47041
#
# Velocity S-wave (km/s) = 3.47771 3.89108 3.69019
# Velocity P-wave (km/s) = 5.51234 6.80426 6.19209
#
# Compressibility (1/GPa) = 0.03354173
#
# Stress axis : x y z
#
# Youngs Moduli (GPa) = 65.17783 29.80277 91.06247
#
# Poissons Ratio (x) = -0.00018 0.57730
# Poissons Ratio (y) = -0.00039 0.62237
# Poissons Ratio (z) = 0.41320 0.20369
#
# Static dielectric constant tensor:
#      x y z
#    x 5.149570 0.000000 -0.967360 
#    y 0.000000 3.428220 0.000000 
#    z -0.967360 0.000000 4.755680 
# 
# 
# High freq. dielectric constant tensor:
#      x y z
#    x 1.836240 0.000000 -0.009330 
#    y 0.000000 1.774080 0.000000 
#    z -0.009330 0.000000 1.827720 
# 
# From -- ./inp_files/280962.got.cif
#   From: 2010.06.25/outbox.cif.g09.slc.cpg/sg12_141_cif.got.tgz:280962.got - 2010.06.28 00:19:55.
