data_PCOD8092966
_publ_section_title
;
Structure prediction by ZEFSAII (Michael W. Deem and Ramdas Pophale) SiO2 
 PCOD8092966
Probable space group: C 2/M
;
_chemical_formula_sum "Si O2"
_cell_formula_units_Z 64
_cell_length_a 17.056900
_cell_length_b 17.483012
_cell_length_c 11.037858
_cell_angle_alpha 90.000000
_cell_angle_beta 101.741860
_cell_angle_gamma 90.000000
_cell_volume 3222.677553
_symmetry_space_group_name_H-M "C 2/M"
_symmetry_group_IT_number 12
_symmetry_cell_setting 'monoclinic'
loop_
_space_group_symop_operation_xyz
x,y,z
-x,y,-z
-x,-y,-z
x,-y,z
1/2+x,1/2+y,z
1/2-x,1/2+y,-z
1/2-x,1/2-y,-z
1/2+x,1/2-y,z
loop_
_atom_site_type_symbol
_atom_site_label
_atom_site_fract_x
_atom_site_fract_y
_atom_site_fract_z
Si Si1 0.346906 0.843323 0.419590
Si Si2 0.793736 0.706175 0.831937
Si Si3 0.830484 0.145842 0.718973
Si Si4 0.140013 0.763010 0.907915
Si Si5 0.406151 0.585429 0.974279
Si Si6 0.868935 0.411542 0.690515
Si Si7 0.479540 0.171912 0.278641
Si Si8 0.924771 0.205016 0.542948
O O1 0.262416 0.867867 0.335911
O O2 0.353147 0.888795 0.546835
O O3 0.414083 0.869849 0.343633
O O4 0.357775 0.750217 0.440410
O O5 0.843737 0.768505 0.772451
O O6 0.700251 0.730581 0.812138
O O7 0.806427 0.627233 0.764953
O O8 0.826172 0.705000 0.979982
O O9 0.866361 0.087226 0.827956
O O10 0.881621 0.140860 0.610770
O O11 0.058289 0.724494 0.838290
O O12 0.131364 0.849850 0.952340
O O13 0.389642 0.500000 0.021339
O O14 0.500000 0.601750 0.000000
O O15 0.853254 0.500000 0.702030
O O16 0.960721 0.391668 0.758360
O O17 0.535812 0.225500 0.374160
O O18 0.000000 0.163350 0.500000
#
# Coordination Sequence:
#
# PCOD8092966 Si02
#       8
#     8   8   8   8   8   8   8   8
#     4  10  20  33  58  86 117 154 204 243 280 337
#     4  10  21  37  59  88 112 149 203 248 290 338
#     4  11  18  35  61  85 113 150 197 253 283 345
#     4  10  21  37  63  86 110 147 200 258 290 339
#     4  10  23  39  58  85 114 148 188 242 312 363
#     4  11  24  39  56  86 131 168 191 234 303 365
#     4  10  19  35  58  87 117 155 205 242 285 346
#     4   9  18  29  51  87 116 146 190 248 291 328
#
# _framework density 19.859262999999999
#
# number of rings (size 3 to 8) (size 9 to 14) (size 15 to 20)
#    0.000    1.875    3.750    2.250    1.750    2.000 
#    0.000    1.250    0.000    0.375    0.000    0.000 
#    0.000    1.250    0.000    0.000    0.000    0.000 
#
# Total GULP energy -396598.332863 kJ/mol
# GULP energy per Si atom -12393.697902 kJ/mol
# Density = 1.981406 g / cm^3
# Si number density = 19.859263 Si / 1000 Ang^3
#
#
#
# Elastic Constant Matrix: (Units=GPa)
#
#
# Indices 1 2 3 4 5 6 
#
# 1 99.7090 12.6673 31.2912 0.0000 6.9805 0.0000
# 2 12.6673 72.7583 28.0569 0.0000 -1.9463 0.0000
# 3 31.2912 28.0569 67.8249 0.0000 10.3184 0.0000
# 4 0.0000 0.0000 0.0000 19.0231 0.0000 -0.5152
# 5 6.9805 -1.9463 10.3184 0.0000 38.8778 0.0000
# 6 0.0000 0.0000 0.0000 -0.5152 0.0000 13.5501
#
#
#
# Elastic Compliance Matrix: (Units=1/GPa)
#
#
# Indices 1 2 3 4 5 6 
#
# 1 0.011745 -0.000018 -0.005304 0.000000 -0.000702 0.000000
# 2 -0.000018 0.016634 -0.007294 0.000000 0.002772 0.000000
# 3 -0.005304 -0.007294 0.020966 0.000000 -0.004977 0.000000
# 4 0.000000 0.000000 0.000000 0.052622 0.000000 0.002001
# 5 -0.000702 0.002772 -0.004977 0.000000 0.027307 0.000000
# 6 0.000000 0.000000 0.000000 0.002001 0.000000 0.073876
#
#
# Mechanical properties :
#
#
# Convention : Reuss Voigt Hill
#
# Bulk Modulus (GPa) = 41.47427 42.70257 42.08842
# Shear Modulus (GPa) = 21.14864 25.50865 23.32865
#
# Velocity S-wave (km/s) = 3.26686 3.58784 3.43111
# Velocity P-wave (km/s) = 5.92952 6.22196 6.07750
#
# Compressibility (1/GPa) = 0.02411134
#
# Stress axis : x y z
#
# Youngs Moduli (GPa) = 85.14050 60.11673 47.69699
#
# Poissons Ratio (x) = 0.00109 0.25300
# Poissons Ratio (y) = 0.00155 0.34792
# Poissons Ratio (z) = 0.45162 0.43851
#
# Static dielectric constant tensor:
#      x y z
#    x 3.962110 0.000000 -0.079540 
#    y 0.000000 3.186420 0.000000 
#    z -0.079540 0.000000 3.817860 
# 
# 
# High freq. dielectric constant tensor:
#      x y z
#    x 1.788800 0.000000 0.002450 
#    y 0.000000 1.725070 0.000000 
#    z 0.002450 0.000000 1.776950 
# 
# From -- ./inp_files/157890.got.cif
#   From: 2010.06.25/outbox.cif.g09.slc.cpg/sg12_79_cif.got.tgz:157890.got - 2010.06.28 00:19:55.
