data_PCOD8092941
_publ_section_title
;
Structure prediction by ZEFSAII (Michael W. Deem and Ramdas Pophale) SiO2 
 PCOD8092941
Probable space group: C 2/M
;
_chemical_formula_sum "Si O2"
_cell_formula_units_Z 60
_cell_length_a 29.007959
_cell_length_b 17.330921
_cell_length_c 17.716739
_cell_angle_alpha 90.000000
_cell_angle_beta 20.856304
_cell_angle_gamma 90.000000
_cell_volume 3171.053931
_symmetry_space_group_name_H-M "C 2/M"
_symmetry_group_IT_number 12
_symmetry_cell_setting 'monoclinic'
loop_
_space_group_symop_operation_xyz
x,y,z
-x,y,-z
-x,-y,-z
x,-y,z
1/2+x,1/2+y,z
1/2-x,1/2+y,-z
1/2-x,1/2-y,-z
1/2+x,1/2-y,z
loop_
_atom_site_type_symbol
_atom_site_label
_atom_site_fract_x
_atom_site_fract_y
_atom_site_fract_z
Si Si1 0.308982 0.195312 0.708144
Si Si2 0.000000 0.196768 0.500000
Si Si3 0.769861 0.088870 0.895301
Si Si4 0.071677 0.584027 0.070781
Si Si5 0.333194 0.288174 0.308505
Si Si6 0.856517 0.587069 0.755034
Si Si7 0.812469 0.587589 0.557868
Si Si8 0.595269 0.229799 0.949604
O O1 0.432311 0.249587 0.539551
O O2 0.266422 0.144579 0.845448
O O3 0.332389 0.137519 0.602631
O O4 0.184316 0.247168 0.883255
O O5 0.104540 0.144158 0.295401
O O6 0.816228 0.000000 0.830939
O O7 0.698730 0.103749 0.925049
O O8 0.667548 0.107052 0.120031
O O9 0.087490 0.500000 0.008568
O O10 0.045452 0.644021 0.043466
O O11 0.953029 0.583416 0.308549
O O12 0.250000 0.250000 0.500000
O O13 0.284983 0.371824 0.353240
O O14 0.479680 0.292316 0.116289
O O15 0.325255 0.228639 0.250140
O O16 0.814321 0.500000 0.803472
O O17 0.000000 0.601321 0.500000
O O18 0.762800 0.500000 0.651168
#
# Coordination Sequence:
#
# PCOD8092941 Si02
#       8
#     8   4   8   8   8   8   8   8
#     4  11  22  36  54  86 118 152 198 243 288 339
#     4  12  23  36  55  84 122 164 202 238 289 352
#     4  10  22  38  57  81 119 167 205 244 288 344
#     4  10  19  35  58  85 116 151 194 242 289 346
#     4  10  20  39  63  82 113 146 182 236 296 350
#     4  10  20  37  57  80 113 152 199 249 292 336
#     4  10  21  38  62  88 114 151 192 240 298 354
#     4  10  21  38  57  87 112 147 192 238 291 347
#
# _framework density 18.921154999999999
#
# number of rings (size 3 to 8) (size 9 to 14) (size 15 to 20)
#    0.000    1.733    3.333    1.400    0.000    3.733 
#    0.000    8.000    0.000    0.000    0.000    0.000 
#    0.000    0.000    0.000    0.000    0.000    0.000 
#
# Total GULP energy -371711.182040 kJ/mol
# GULP energy per Si atom -12390.372735 kJ/mol
# Density = 1.887809 g / cm^3
# Si number density = 18.921155 Si / 1000 Ang^3
#
#
#
# Elastic Constant Matrix: (Units=GPa)
#
#
# Indices 1 2 3 4 5 6 
#
# 1 87.0266 59.7659 33.1686 0.0002 -14.0225 -0.0001
# 2 59.7659 132.5003 47.4325 0.0003 -4.0189 -0.0003
# 3 33.1686 47.4325 76.0449 0.0008 -0.0194 -0.0009
# 4 0.0002 0.0003 0.0008 27.2749 -0.0007 3.3450
# 5 -14.0225 -4.0189 -0.0194 -0.0007 36.8972 0.0005
# 6 -0.0001 -0.0003 -0.0009 3.3450 0.0005 33.1342
#
#
#
# Elastic Compliance Matrix: (Units=1/GPa)
#
#
# Indices 1 2 3 4 5 6 
#
# 1 0.018701 -0.006853 -0.003880 0.000000 0.006359 0.000000
# 2 -0.006853 0.012270 -0.004664 0.000000 -0.001271 0.000000
# 3 -0.003880 -0.004664 0.017751 -0.000001 -0.001973 0.000000
# 4 0.000000 0.000000 -0.000001 0.037123 0.000001 -0.003748
# 5 0.006359 -0.001271 -0.001973 0.000001 0.029379 -0.000001
# 6 0.000000 0.000000 0.000000 -0.003748 -0.000001 0.030559
#
#
# Mechanical properties :
#
#
# Convention : Reuss Voigt Hill
#
# Bulk Modulus (GPa) = 55.78499 64.03398 59.90948
# Shear Modulus (GPa) = 27.38913 29.80823 28.59868
#
# Velocity S-wave (km/s) = 3.80878 3.97343 3.89198
# Velocity P-wave (km/s) = 6.99209 7.41396 7.20611
#
# Compressibility (1/GPa) = 0.01792597
#
# Stress axis : x y z
#
# Youngs Moduli (GPa) = 53.47390 81.50271 56.33348
#
# Poissons Ratio (x) = 0.55855 0.21860
# Poissons Ratio (y) = 0.36647 0.26275
# Poissons Ratio (z) = 0.20750 0.38014
#
# Static dielectric constant tensor:
#      x y z
#    x 3.548760 0.000000 -0.044780 
#    y 0.000000 3.824800 0.000000 
#    z -0.044780 0.000000 3.466370 
# 
# 
# High freq. dielectric constant tensor:
#      x y z
#    x 1.733570 0.000000 -0.000140 
#    y 0.000000 1.744000 0.000000 
#    z -0.000140 0.000000 1.722070 
# 
# From -- ./inp_files/296989.got.cif
#   From: 2010.06.25/outbox.cif.g09.slc.cpg/sg12_149_cif.got.tgz:296989.got - 2010.06.28 00:19:55.
