data_PCOD8092200
_publ_section_title
;
Structure prediction by ZEFSAII (Michael W. Deem and Ramdas Pophale) SiO2 
 PCOD8092200
Probable space group: C 2/M
;
_chemical_formula_sum "Si O2"
_cell_formula_units_Z 64
_cell_length_a 28.236557
_cell_length_b 17.989599
_cell_length_c 11.311306
_cell_angle_alpha 90.000000
_cell_angle_beta 146.936713
_cell_angle_gamma 90.000000
_cell_volume 3134.675078
_symmetry_space_group_name_H-M "C 2/M"
_symmetry_group_IT_number 12
_symmetry_cell_setting 'monoclinic'
loop_
_space_group_symop_operation_xyz
x,y,z
-x,y,-z
-x,-y,-z
x,-y,z
1/2+x,1/2+y,z
1/2-x,1/2+y,-z
1/2-x,1/2-y,-z
1/2+x,1/2-y,z
loop_
_atom_site_type_symbol
_atom_site_label
_atom_site_fract_x
_atom_site_fract_y
_atom_site_fract_z
Si Si1 0.317214 0.415370 0.762247
Si Si2 0.214583 0.414413 0.318528
Si Si3 0.762730 0.585260 0.168976
Si Si4 0.368733 0.419108 0.485880
Si Si5 0.984700 0.173934 0.100565
Si Si6 0.968657 0.348204 0.066240
Si Si7 0.546969 0.088591 0.475661
Si Si8 0.905163 0.082293 0.297607
O O1 0.352056 0.500000 0.829802
O O2 0.277109 0.389599 0.555406
O O3 0.238957 0.407897 0.692685
O O4 0.396071 0.361634 0.963145
O O5 0.183830 0.500000 0.267025
O O6 0.270907 0.399455 0.319673
O O7 0.133515 0.360652 0.144021
O O8 0.758496 0.500000 0.117518
O O9 0.853360 0.619313 0.310677
O O10 0.672033 0.624325 0.935848
O O11 0.394982 0.500000 0.596516
O O12 0.436009 0.355324 0.657034
O O13 0.363074 0.425767 0.335806
O O14 0.986287 0.261718 0.115868
O O15 0.000000 0.146650 0.000000
O O16 0.007754 0.386455 0.266438
O O17 0.000000 0.376796 0.000000
O O18 0.500000 0.116715 0.500000
O O19 0.544829 0.000000 0.468330
O O20 0.000000 0.123841 0.500000
O O21 0.922345 0.000000 0.276494
#
# Coordination Sequence:
#
# PCOD8092200 Si02
#       8
#     8   8   8   8   8   8   8   8
#     4  10  19  34  59  90 121 153 198 254 307 360
#     4  10  21  36  60  89 114 148 198 259 308 354
#     4   9  18  33  56  88 118 148 190 241 305 363
#     4  10  20  35  59  88 117 149 199 258 305 356
#     4  11  22  38  56  85 122 164 201 243 304 373
#     4  11  25  42  59  87 125 167 205 248 307 373
#     4  10  22  41  67  91 118 158 208 262 303 352
#     4   9  17  30  52  84 118 147 181 235 301 363
#
# _framework density 20.416789000000001
#
# number of rings (size 3 to 8) (size 9 to 14) (size 15 to 20)
#    0.000    2.000    1.250    2.250    1.750    5.000 
#    2.250    1.875    0.000    1.500    0.000    0.000 
#    0.000    0.000    0.000    0.000    0.000    0.000 
#
# Total GULP energy -396463.813983 kJ/mol
# GULP energy per Si atom -12389.494187 kJ/mol
# Density = 2.037032 g / cm^3
# Si number density = 20.416789 Si / 1000 Ang^3
#
#
#
# Elastic Constant Matrix: (Units=GPa)
#
#
# Indices 1 2 3 4 5 6 
#
# 1 143.8973 18.9030 53.8938 0.0000 11.4526 0.0000
# 2 18.9030 43.1589 19.8461 0.0000 3.7426 0.0000
# 3 53.8938 19.8461 86.5899 0.0000 13.8112 0.0000
# 4 0.0000 0.0000 0.0000 11.3066 0.0000 1.3050
# 5 11.4526 3.7426 13.8112 0.0000 38.5696 0.0000
# 6 0.0000 0.0000 0.0000 1.3050 0.0000 16.6968
#
#
#
# Elastic Compliance Matrix: (Units=1/GPa)
#
#
# Indices 1 2 3 4 5 6 
#
# 1 0.009172 -0.001546 -0.005243 0.000000 -0.000696 0.000000
# 2 -0.001546 0.026166 -0.004988 0.000000 -0.000294 0.000000
# 3 -0.005243 -0.004988 0.016577 0.000000 -0.003895 0.000000
# 4 0.000000 0.000000 0.000000 0.089249 0.000000 -0.006975
# 5 -0.000696 -0.000294 -0.003895 0.000000 0.027557 0.000000
# 6 0.000000 0.000000 0.000000 -0.006975 0.000000 0.060437
#
#
# Mechanical properties :
#
#
# Convention : Reuss Voigt Hill
#
# Bulk Modulus (GPa) = 35.26061 50.99244 43.12652
# Shear Modulus (GPa) = 19.07191 25.38147 22.22669
#
# Velocity S-wave (km/s) = 3.05967 3.52968 3.30305
# Velocity P-wave (km/s) = 5.45802 6.45302 5.97626
#
# Compressibility (1/GPa) = 0.02836025
#
# Stress axis : x y z
#
# Youngs Moduli (GPa) = 109.03299 38.21684 60.32599
#
# Poissons Ratio (x) = 0.05907 0.31630
# Poissons Ratio (y) = 0.16853 0.30093
# Poissons Ratio (z) = 0.57167 0.19064
#
# Static dielectric constant tensor:
#      x y z
#    x 4.062110 0.000000 0.017890 
#    y 0.000000 3.290230 0.000000 
#    z 0.017890 0.000000 3.832730 
# 
# 
# High freq. dielectric constant tensor:
#      x y z
#    x 1.818640 0.000000 0.002730 
#    y 0.000000 1.745600 0.000000 
#    z 0.002730 0.000000 1.802650 
# 
# From -- ./inp_files/190108.got.cif
#   From: 2010.06.25/outbox.cif.g09.slc.cpg/sg12_96_cif.got.tgz:190108.got - 2010.06.28 00:19:55.
