data_PCOD8092998
_publ_section_title
;
Structure prediction by ZEFSAII (Michael W. Deem and Ramdas Pophale) SiO2 
 PCOD8092998
Probable space group: C 2/M
;
_chemical_formula_sum "Si O2"
_cell_formula_units_Z 64
_cell_length_a 24.299726
_cell_length_b 8.813583
_cell_length_c 15.463755
_cell_angle_alpha 90.000000
_cell_angle_beta 90.654802
_cell_angle_gamma 90.000000
_cell_volume 3311.619823
_symmetry_space_group_name_H-M "C 2/M"
_symmetry_group_IT_number 12
_symmetry_cell_setting 'monoclinic'
loop_
_space_group_symop_operation_xyz
x,y,z
-x,y,-z
-x,-y,-z
x,-y,z
1/2+x,1/2+y,z
1/2-x,1/2+y,-z
1/2-x,1/2-y,-z
1/2+x,1/2-y,z
loop_
_atom_site_type_symbol
_atom_site_label
_atom_site_fract_x
_atom_site_fract_y
_atom_site_fract_z
Si Si1 0.884021 0.319322 0.655014
Si Si2 0.111876 0.177782 0.646571
Si Si3 0.063346 0.320028 0.991976
Si Si4 0.497535 0.165935 0.399651
Si Si5 0.189445 0.818810 0.493283
Si Si6 0.369083 0.680252 0.161140
Si Si7 0.747538 0.321387 0.907843
Si Si8 0.863593 0.320451 0.847052
O O1 0.875676 0.500000 0.646031
O O2 0.944456 0.265637 0.628671
O O3 0.838647 0.237591 0.595465
O O4 0.880191 0.260485 0.753268
O O5 0.154083 0.242685 0.575118
O O6 0.122269 0.244736 0.742151
O O7 0.049422 0.215376 0.623113
O O8 0.119973 0.000000 0.648797
O O9 0.068462 0.500000 0.985921
O O10 0.087358 0.251811 0.904103
O O11 0.097134 0.255891 0.075751
O O12 0.000000 0.268819 0.000000
O O13 0.500000 0.140448 0.500000
O O14 0.486696 0.000000 0.355716
O O15 0.250000 0.750000 0.500000
O O16 0.192847 0.000000 0.492773
O O17 0.375797 0.500000 0.156417
O O18 0.307536 0.735016 0.139231
O O19 0.747979 0.500000 0.917758
O O20 0.800969 0.264892 0.857187
O O21 0.750000 0.250000 0.000000
O O22 0.868289 0.500000 0.849865
#
# Coordination Sequence:
#
# PCOD8092998 Si02
#       8
#     8   8   8   8   8   8   8   8
#     4  10  21  38  61  86 117 154 191 233 285 342
#     4  10  23  40  59  83 114 155 195 232 287 352
#     4  10  21  37  58  84 115 151 193 235 281 341
#     4  10  20  36  60  89 116 145 189 242 288 331
#     4  11  24  41  61  85 117 154 194 238 288 344
#     4  10  22  38  57  84 114 150 191 234 287 339
#     4  10  19  35  59  81 107 143 190 235 280 335
#     4   9  19  35  57  83 111 150 189 228 282 339
#
# _framework density 19.325890000000001
#
# number of rings (size 3 to 8) (size 9 to 14) (size 15 to 20)
#    0.000    2.000    2.500    0.375    3.500    2.000 
#    0.000    1.250    0.000    0.000    0.000    0.000 
#    0.000    0.000    0.000    0.000    0.000    0.000 
#
# Total GULP energy -396729.872268 kJ/mol
# GULP energy per Si atom -12397.808508 kJ/mol
# Density = 1.928190 g / cm^3
# Si number density = 19.325890 Si / 1000 Ang^3
#
#
#
# Elastic Constant Matrix: (Units=GPa)
#
#
# Indices 1 2 3 4 5 6 
#
# 1 162.6705 25.3246 68.7411 0.0000 -4.1295 0.0000
# 2 25.3246 23.3335 22.3016 0.0000 0.7563 0.0000
# 3 68.7411 22.3016 150.7863 0.0000 -1.1468 0.0000
# 4 0.0000 0.0000 0.0000 30.3853 0.0000 4.6713
# 5 -4.1295 0.7563 -1.1468 0.0000 35.0924 0.0000
# 6 0.0000 0.0000 0.0000 4.6713 0.0000 25.6875
#
#
#
# Elastic Compliance Matrix: (Units=1/GPa)
#
#
# Indices 1 2 3 4 5 6 
#
# 1 0.008380 -0.006387 -0.002868 0.000000 0.001030 0.000000
# 2 -0.006387 0.054842 -0.005215 0.000000 -0.002104 0.000000
# 3 -0.002868 -0.005215 0.008711 0.000000 0.000060 0.000000
# 4 0.000000 0.000000 0.000000 0.033857 0.000000 -0.006157
# 5 0.001030 -0.002104 0.000060 0.000000 0.028665 0.000000
# 6 0.000000 0.000000 0.000000 -0.006157 0.000000 0.040049
#
#
# Mechanical properties :
#
#
# Convention : Reuss Voigt Hill
#
# Bulk Modulus (GPa) = 23.26005 63.28054 43.27029
# Shear Modulus (GPa) = 22.95943 32.92790 27.94366
#
# Velocity S-wave (km/s) = 3.45050 4.13222 3.80665
# Velocity P-wave (km/s) = 5.28549 7.45533 6.46213
#
# Compressibility (1/GPa) = 0.04299216
#
# Stress axis : x y z
#
# Youngs Moduli (GPa) = 119.33551 18.23414 114.79678
#
# Poissons Ratio (x) = 0.11647 0.32920
# Poissons Ratio (y) = 0.76224 0.59871
# Poissons Ratio (z) = 0.34221 0.09510
#
# Static dielectric constant tensor:
#      x y z
#    x 3.696390 0.000000 -0.044180 
#    y 0.000000 3.186220 0.000000 
#    z -0.044180 0.000000 3.796350 
# 
# 
# High freq. dielectric constant tensor:
#      x y z
#    x 1.767580 0.000000 -0.003010 
#    y 0.000000 1.724400 0.000000 
#    z -0.003010 0.000000 1.764840 
# 
# From -- ./inp_files/238606.got.cif
#   From: 2010.06.25/outbox.cif.g09.slc.cpg/sg12_120_cif.got.tgz:238606.got - 2010.06.28 00:19:55.
