data_PCOD8092311
_publ_section_title
;
Structure prediction by ZEFSAII (Michael W. Deem and Ramdas Pophale) SiO2 
 PCOD8092311
Probable space group: C 2/M
;
_chemical_formula_sum "Si O2"
_cell_formula_units_Z 36
_cell_length_a 18.357290
_cell_length_b 21.451873
_cell_length_c 9.342234
_cell_angle_alpha 90.000000
_cell_angle_beta 33.371956
_cell_angle_gamma 90.000000
_cell_volume 2023.690556
_symmetry_space_group_name_H-M "C 2/M"
_symmetry_group_IT_number 12
_symmetry_cell_setting 'monoclinic'
loop_
_space_group_symop_operation_xyz
x,y,z
-x,y,-z
-x,-y,-z
x,-y,z
1/2+x,1/2+y,z
1/2-x,1/2+y,-z
1/2-x,1/2-y,-z
1/2+x,1/2-y,z
loop_
_atom_site_type_symbol
_atom_site_label
_atom_site_fract_x
_atom_site_fract_y
_atom_site_fract_z
Si Si1 0.352019 0.232977 0.956073
Si Si2 0.752900 0.072118 0.077336
Si Si3 0.629588 0.646480 0.370063
Si Si4 0.500000 0.155285 0.500000
Si Si5 0.957669 0.860501 0.907222
O O1 0.255181 0.189263 0.208644
O O2 0.402309 0.291220 0.964708
O O3 0.250000 0.250000 0.000000
O O4 0.477125 0.197071 0.680443
O O5 0.624268 0.111761 0.322584
O O6 0.848491 0.087103 0.053819
O O7 0.716431 0.000000 0.131947
O O8 0.821183 0.091258 0.814925
O O9 0.500000 0.678652 0.500000
O O10 0.581848 0.622298 0.602187
O O11 0.000000 0.864939 0.000000
#
# Coordination Sequence:
#
# PCOD8092311 Si02
#       5
#     8   8   8   4   8
#     4  11  17  32  56  80 112 143 179 222 274 328
#     4  10  21  37  58  81 106 145 191 231 267 320
#     4   9  18  33  54  77 103 142 185 224 266 320
#     4  10  19  34  62  84 105 138 188 236 268 316
#     4  11  23  34  52  86 116 145 179 224 285 332
#
# _framework density 17.789280999999999
#
# number of rings (size 3 to 8) (size 9 to 14) (size 15 to 20)
#    0.000    1.778    6.667    1.667    0.000    5.333 
#    0.000    0.000    0.000    0.000    0.000    4.667 
#    0.000    0.000    0.000    0.000    0.000    0.000 
#
# Total GULP energy -223000.607450 kJ/mol
# GULP energy per Si atom -12388.922636 kJ/mol
# Density = 1.774879 g / cm^3
# Si number density = 17.789281 Si / 1000 Ang^3
#
#
#
# Elastic Constant Matrix: (Units=GPa)
#
#
# Indices 1 2 3 4 5 6 
#
# 1 76.7787 11.6803 43.3880 -0.0011 21.8024 0.0011
# 2 11.6803 72.3801 18.4921 -0.0009 0.0004 0.0009
# 3 43.3880 18.4921 113.3850 -0.0023 -2.2474 0.0017
# 4 -0.0011 -0.0009 -0.0023 13.5173 0.0014 -0.5604
# 5 21.8024 0.0004 -2.2474 0.0014 25.3750 -0.0011
# 6 0.0011 0.0009 0.0017 -0.5604 -0.0011 15.1549
#
#
#
# Elastic Compliance Matrix: (Units=1/GPa)
#
#
# Indices 1 2 3 4 5 6 
#
# 1 0.025229 -0.001555 -0.009847 0.000003 -0.022549 -0.000002
# 2 -0.001555 0.014514 -0.001748 0.000000 0.001181 0.000000
# 3 -0.009847 -0.001748 0.013064 0.000000 0.009618 0.000000
# 4 0.000003 0.000000 0.000000 0.074093 -0.000006 0.002740
# 5 -0.022549 0.001181 0.009618 -0.000006 0.059635 0.000005
# 6 -0.000002 0.000000 0.000000 0.002740 0.000005 0.066087
#
#
# Mechanical properties :
#
#
# Convention : Reuss Voigt Hill
#
# Bulk Modulus (GPa) = 37.73052 45.51828 41.62440
# Shear Modulus (GPa) = 17.37570 23.40831 20.39200
#
# Velocity S-wave (km/s) = 3.12869 3.63142 3.38939
# Velocity P-wave (km/s) = 5.85725 6.57465 6.22629
#
# Compressibility (1/GPa) = 0.02650374
#
# Stress axis : x y z
#
# Youngs Moduli (GPa) = 39.63688 68.90070 76.54890
#
# Poissons Ratio (x) = 0.10716 0.75381
# Poissons Ratio (y) = 0.06165 0.13384
# Poissons Ratio (z) = 0.39032 0.12047
#
# Static dielectric constant tensor:
#      x y z
#    x 2.889930 -0.000010 -0.384330 
#    y -0.000010 0.083960 0.000030 
#    z -0.384330 0.000030 4.774270 
# 
# 
# High freq. dielectric constant tensor:
#      x y z
#    x 1.645990 0.000000 -0.020170 
#    y 0.000000 1.678260 0.000000 
#    z -0.020170 0.000000 1.710260 
# 
# From -- ./inp_files/89383.got.cif
#   From: 2010.06.25/outbox.cif.g09.slc.cpg/sg12_45_cif.got.tgz:89383.got - 2010.06.28 00:19:55.
