data_PCOD8092719
_publ_section_title
;
Structure prediction by ZEFSAII (Michael W. Deem and Ramdas Pophale) SiO2 
 PCOD8092719
Probable space group: C 2/M
;
_chemical_formula_sum "Si O2"
_cell_formula_units_Z 52
_cell_length_a 19.211010
_cell_length_b 16.704288
_cell_length_c 16.056203
_cell_angle_alpha 90.000000
_cell_angle_beta 144.179383
_cell_angle_gamma 90.000000
_cell_volume 3015.518925
_symmetry_space_group_name_H-M "C 2/M"
_symmetry_group_IT_number 12
_symmetry_cell_setting 'monoclinic'
loop_
_space_group_symop_operation_xyz
x,y,z
-x,y,-z
-x,-y,-z
x,-y,z
1/2+x,1/2+y,z
1/2-x,1/2+y,-z
1/2-x,1/2-y,-z
1/2+x,1/2-y,z
loop_
_atom_site_type_symbol
_atom_site_label
_atom_site_fract_x
_atom_site_fract_y
_atom_site_fract_z
Si Si1 0.000000 0.781574 0.500000
Si Si2 0.905937 0.905949 0.840471
Si Si3 0.956853 0.909192 0.707090
Si Si4 0.874981 0.088649 0.269979
Si Si5 0.213664 0.349336 0.417658
Si Si6 0.657105 0.000000 0.081952
Si Si7 0.702438 0.797618 0.587785
Si Si8 0.398800 0.000000 0.779075
O O1 0.088185 0.839329 0.635378
O O2 0.083660 0.726793 0.522948
O O3 0.971399 0.885887 0.817168
O O4 0.779237 0.859446 0.719019
O O5 0.878404 0.000000 0.826248
O O6 0.000000 0.874804 0.000000
O O7 0.855622 0.859762 0.561880
O O8 0.081064 0.892866 0.781136
O O9 0.913506 0.000000 0.658998
O O10 0.926513 0.000000 0.348134
O O11 0.731577 0.080516 0.130586
O O12 0.205692 0.274011 0.347228
O O13 0.160003 0.336423 0.458373
O O14 0.146727 0.422485 0.311862
O O15 0.640447 0.000000 0.164194
O O16 0.540726 0.000000 0.913350
#
# Coordination Sequence:
#
# PCOD8092719 Si02
#       8
#     4   8   8   8   8   4   8   4
#     4  12  19  34  55  78 122 140 170 238 281 299
#     4   9  19  38  59  78 105 143 186 231 274 320
#     4   9  15  29  58  85 100 134 182 228 261 314
#     4   9  19  31  53  82 110 141 177 215 266 335
#     4  10  19  35  57  81 108 143 184 221 271 324
#     4   9  22  32  49  88 112 142 186 202 269 346
#     4  10  22  34  55  87 106 137 189 232 270 321
#     4  11  20  37  56  74 117 158 171 217 268 334
#
# _framework density 17.244129999999998
#
# number of rings (size 3 to 8) (size 9 to 14) (size 15 to 20)
#    0.462    1.846    2.308    1.154    1.077    0.000 
#    5.538    1.923    0.000    1.846    0.000    0.000 
#    0.000    0.000    0.000    0.000    0.000    0.000 
#
# Total GULP energy -322140.953444 kJ/mol
# GULP energy per Si atom -12390.036671 kJ/mol
# Density = 1.720488 g / cm^3
# Si number density = 17.244130 Si / 1000 Ang^3
#
#
#
# Elastic Constant Matrix: (Units=GPa)
#
#
# Indices 1 2 3 4 5 6 
#
# 1 110.7675 33.0015 54.0534 0.0000 10.5088 0.0000
# 2 33.0015 76.9949 51.5965 0.0000 2.1688 0.0000
# 3 54.0534 51.5965 108.8431 0.0000 4.0794 0.0000
# 4 0.0000 0.0000 0.0000 5.0902 0.0000 3.1928
# 5 10.5088 2.1688 4.0794 0.0000 20.5103 0.0000
# 6 0.0000 0.0000 0.0000 3.1928 0.0000 35.4251
#
#
#
# Elastic Compliance Matrix: (Units=1/GPa)
#
#
# Indices 1 2 3 4 5 6 
#
# 1 0.012598 -0.001746 -0.005233 0.000000 -0.005229 0.000000
# 2 -0.001746 0.019278 -0.008290 0.000000 0.000505 0.000000
# 3 -0.005233 -0.008290 0.015700 0.000000 0.000435 0.000000
# 4 0.000000 0.000000 0.000000 0.208228 0.000000 -0.018767
# 5 -0.005229 0.000505 0.000435 0.000000 0.051295 0.000000
# 6 0.000000 0.000000 0.000000 -0.018767 0.000000 0.029920
#
#
# Mechanical properties :
#
#
# Convention : Reuss Voigt Hill
#
# Bulk Modulus (GPa) = 58.69408 63.76759 61.23084
# Shear Modulus (GPa) = 13.39638 22.73539 18.06589
#
# Velocity S-wave (km/s) = 2.79026 3.63498 3.24026
# Velocity P-wave (km/s) = 6.67021 7.39439 7.04162
#
# Compressibility (1/GPa) = 0.01703749
#
# Stress axis : x y z
#
# Youngs Moduli (GPa) = 79.37999 51.87384 63.69477
#
# Poissons Ratio (x) = 0.09056 0.33329
# Poissons Ratio (y) = 0.13858 0.52805
# Poissons Ratio (z) = 0.41537 0.43005
#
# Static dielectric constant tensor:
#      x y z
#    x 3.291640 0.000000 -0.109510 
#    y 0.000000 3.256890 0.000000 
#    z -0.109510 0.000000 3.041230 
# 
# 
# High freq. dielectric constant tensor:
#      x y z
#    x 1.666770 0.000000 -0.012340 
#    y 0.000000 1.662090 0.000000 
#    z -0.012340 0.000000 1.641930 
# 
# From -- ./inp_files/234152.got.cif
#   From: 2010.06.25/outbox.cif.g09.slc.cpg/sg12_118_cif.got.tgz:234152.got - 2010.06.28 00:19:55.
