data_PCOD8092789
_publ_section_title
;
Structure prediction by ZEFSAII (Michael W. Deem and Ramdas Pophale) SiO2 
 PCOD8092789
Probable space group: C 2/M
;
_chemical_formula_sum "Si O2"
_cell_formula_units_Z 64
_cell_length_a 26.996929
_cell_length_b 14.722699
_cell_length_c 9.166746
_cell_angle_alpha 90.000000
_cell_angle_beta 66.615656
_cell_angle_gamma 90.000000
_cell_volume 3344.220551
_symmetry_space_group_name_H-M "C 2/M"
_symmetry_group_IT_number 12
_symmetry_cell_setting 'monoclinic'
loop_
_space_group_symop_operation_xyz
x,y,z
-x,y,-z
-x,-y,-z
x,-y,z
1/2+x,1/2+y,z
1/2-x,1/2+y,-z
1/2-x,1/2-y,-z
1/2+x,1/2-y,z
loop_
_atom_site_type_symbol
_atom_site_label
_atom_site_fract_x
_atom_site_fract_y
_atom_site_fract_z
Si Si1 0.243823 0.652031 0.935388
Si Si2 0.511275 0.227562 0.658790
Si Si3 0.160041 0.392004 0.787601
Si Si4 0.138201 0.275614 0.535100
Si Si5 0.848809 0.896501 0.649240
Si Si6 0.660734 0.099872 0.248337
Si Si7 0.958922 0.902796 0.676473
Si Si8 0.426760 0.896180 0.880386
O O1 0.206562 0.647566 0.835910
O O2 0.301437 0.612823 0.822500
O O3 0.250000 0.750000 0.000000
O O4 0.216490 0.591015 0.093020
O O5 0.500000 0.211522 0.500000
O O6 0.574003 0.219370 0.616516
O O7 0.485267 0.323529 0.743776
O O8 0.483214 0.154677 0.796338
O O9 0.169991 0.500000 0.739302
O O10 0.162554 0.323982 0.648101
O O11 0.101256 0.380620 0.930327
O O12 0.156727 0.170794 0.485069
O O13 0.165445 0.329539 0.371632
O O14 0.902586 0.869166 0.674280
O O15 0.851491 0.000000 0.587146
O O16 0.614206 0.137187 0.196484
O O17 0.646467 0.000000 0.326648
O O18 0.000000 0.920655 0.500000
O O19 0.951617 0.000000 0.769551
O O20 0.441154 0.000000 0.840552
#
# Coordination Sequence:
#
# PCOD8092789 Si02
#       8
#     8   8   8   8   8   8   8   8
#     4  11  22  40  65  87 114 155 202 248 303 365
#     4  11  19  32  56  88 123 150 210 255 287 343
#     4  10  24  43  60  86 129 164 194 245 312 367
#     4  12  22  36  59  91 118 164 203 245 303 361
#     4  11  21  36  61  91 121 154 202 254 304 360
#     4  10  19  35  57  84 118 153 195 244 297 350
#     4   9  17  31  54  86 117 148 189 246 302 343
#     4   9  19  35  56  80 115 160 197 241 294 351
#
# _framework density 19.137495000000001
#
# number of rings (size 3 to 8) (size 9 to 14) (size 15 to 20)
#    0.000    1.625    5.000    2.250    1.750    2.250 
#    0.000    1.250    0.000    2.250    0.000    1.750 
#    0.000    0.000    0.000    0.000    0.000    0.000 
#
# Total GULP energy -396515.370494 kJ/mol
# GULP energy per Si atom -12391.105328 kJ/mol
# Density = 1.909394 g / cm^3
# Si number density = 19.137495 Si / 1000 Ang^3
#
#
#
# Elastic Constant Matrix: (Units=GPa)
#
#
# Indices 1 2 3 4 5 6 
#
# 1 87.8064 38.3926 43.7323 0.0000 -13.8451 0.0000
# 2 38.3926 104.3247 51.5641 0.0000 4.8191 0.0000
# 3 43.7323 51.5641 87.0236 0.0000 -5.9479 0.0000
# 4 0.0000 0.0000 0.0000 28.7985 0.0000 -2.8405
# 5 -13.8451 4.8191 -5.9479 0.0000 31.7247 0.0000
# 6 0.0000 0.0000 0.0000 -2.8405 0.0000 26.1819
#
#
#
# Elastic Compliance Matrix: (Units=1/GPa)
#
#
# Indices 1 2 3 4 5 6 
#
# 1 0.017017 -0.003656 -0.005916 0.000000 0.006873 0.000000
# 2 -0.003656 0.014762 -0.007265 0.000000 -0.005200 0.000000
# 3 -0.005916 -0.007265 0.018910 0.000000 0.002067 0.000000
# 4 0.000000 0.000000 0.000000 0.035100 0.000000 0.003808
# 5 0.006873 -0.005200 0.002067 0.000000 0.035698 0.000000
# 6 0.000000 0.000000 0.000000 0.003808 0.000000 0.038607
#
#
# Mechanical properties :
#
#
# Convention : Reuss Voigt Hill
#
# Bulk Modulus (GPa) = 58.76929 60.72587 59.74758
# Shear Modulus (GPa) = 25.07021 27.03874 26.05447
#
# Velocity S-wave (km/s) = 3.62333 3.76289 3.69377
# Velocity P-wave (km/s) = 6.94840 7.11894 7.03419
#
# Compressibility (1/GPa) = 0.01701569
#
# Stress axis : x y z
#
# Youngs Moduli (GPa) = 58.76363 67.74154 52.88212
#
# Poissons Ratio (x) = 0.24767 0.31283
# Poissons Ratio (y) = 0.21485 0.38419
# Poissons Ratio (z) = 0.34763 0.49214
#
# Static dielectric constant tensor:
#      x y z
#    x 3.513480 0.000000 -0.303900 
#    y 0.000000 3.950020 0.000000 
#    z -0.303900 0.000000 3.418320 
# 
# 
# High freq. dielectric constant tensor:
#      x y z
#    x 1.732130 0.000000 -0.031480 
#    y 0.000000 1.761440 0.000000 
#    z -0.031480 0.000000 1.720180 
# 
# From -- ./inp_files/104536.got.cif
#   From: 2010.06.25/outbox.cif.g09.slc.cpg/sg12_53_cif.got.tgz:104536.got - 2010.06.28 00:19:55.
