data_PCOD8092119
_publ_section_title
;
Structure prediction by ZEFSAII (Michael W. Deem and Ramdas Pophale) SiO2 
 PCOD8092119
Probable space group: C 2/M
;
_chemical_formula_sum "Si O2"
_cell_formula_units_Z 56
_cell_length_a 20.470471
_cell_length_b 8.790645
_cell_length_c 32.409612
_cell_angle_alpha 90.000000
_cell_angle_beta 150.817657
_cell_angle_gamma 90.000000
_cell_volume 2843.660569
_symmetry_space_group_name_H-M "C 2/M"
_symmetry_group_IT_number 12
_symmetry_cell_setting 'monoclinic'
loop_
_space_group_symop_operation_xyz
x,y,z
-x,y,-z
-x,-y,-z
x,-y,z
1/2+x,1/2+y,z
1/2-x,1/2+y,-z
1/2-x,1/2-y,-z
1/2+x,1/2-y,z
loop_
_atom_site_type_symbol
_atom_site_label
_atom_site_fract_x
_atom_site_fract_y
_atom_site_fract_z
Si Si1 0.663460 0.824037 0.346294
Si Si2 0.889385 0.178308 0.320235
Si Si3 0.114113 0.819899 0.033545
Si Si4 0.667755 0.821385 0.492025
Si Si5 0.385789 0.679827 0.058729
Si Si6 0.123270 0.322469 0.774532
Si Si7 0.860469 0.322793 0.761382
O O1 0.768319 0.722533 0.429072
O O2 0.514376 0.783934 0.278673
O O3 0.679955 0.782563 0.307574
O O4 0.696373 0.000000 0.372892
O O5 0.862104 0.224167 0.258369
O O6 0.761324 0.225932 0.276510
O O7 0.015725 0.266264 0.408143
O O8 0.918210 0.000000 0.338991
O O9 0.259803 0.770786 0.130071
O O10 0.101354 0.000000 0.026396
O O11 0.091110 0.757342 0.974851
O O12 0.000000 0.748203 0.000000
O O13 0.750000 0.750000 0.500000
O O14 0.671082 0.000000 0.487551
O O15 0.371271 0.500000 0.051191
O O16 0.508834 0.728085 0.155017
O O17 0.250000 0.750000 0.000000
O O18 0.133904 0.500000 0.768686
O O19 0.895737 0.500000 0.785172
#
# Coordination Sequence:
#
# PCOD8092119 Si02
#       7
#     8   8   8   8   8   8   8
#     4  10  21  39  62  86 117 158 203 245 292 354
#     4  11  23  39  61  89 124 160 196 245 304 359
#     4   9  18  33  55  84 115 151 198 246 293 348
#     4  12  24  40  63  91 121 154 198 246 299 358
#     4  11  22  38  62  88 119 160 203 251 303 359
#     4  10  19  34  59  85 112 153 203 250 295 351
#     4  10  23  42  62  88 123 162 201 244 299 362
#
# _framework density 19.692927000000001
#
# number of rings (size 3 to 8) (size 9 to 14) (size 15 to 20)
#    0.000    1.571    1.429    3.857    0.000    5.714 
#    0.000    5.714    0.000    3.857    0.000    0.000 
#    0.000    0.000    0.000    0.000    0.000    0.000 
#
# Total GULP energy -347343.153590 kJ/mol
# GULP energy per Si atom -12405.112628 kJ/mol
# Density = 1.964810 g / cm^3
# Si number density = 19.692927 Si / 1000 Ang^3
#
#
#
# Elastic Constant Matrix: (Units=GPa)
#
#
# Indices 1 2 3 4 5 6 
#
# 1 107.6407 37.1177 24.7753 -0.0001 7.8134 0.0002
# 2 37.1177 80.1322 40.6951 -0.0002 5.8508 0.0005
# 3 24.7753 40.6951 108.7949 0.0001 5.6150 0.0000
# 4 -0.0001 -0.0002 0.0001 32.6466 0.0001 -3.9079
# 5 7.8134 5.8508 5.6150 0.0001 27.1903 -0.0003
# 6 0.0002 0.0005 0.0000 -3.9079 -0.0003 27.7796
#
#
#
# Elastic Compliance Matrix: (Units=1/GPa)
#
#
# Indices 1 2 3 4 5 6 
#
# 1 0.011218 -0.004694 -0.000692 0.000000 -0.002071 0.000000
# 2 -0.004694 0.017495 -0.005408 0.000000 -0.001299 0.000000
# 3 -0.000692 -0.005408 0.011424 0.000000 -0.000996 0.000000
# 4 0.000000 0.000000 0.000000 0.031156 0.000000 0.004383
# 5 -0.002071 -0.001299 -0.000996 0.000000 0.037858 0.000000
# 6 0.000000 0.000000 0.000000 0.004383 0.000000 0.036614
#
#
# Mechanical properties :
#
#
# Convention : Reuss Voigt Hill
#
# Bulk Modulus (GPa) = 53.91153 55.74933 54.83043
# Shear Modulus (GPa) = 28.81255 30.45529 29.63392
#
# Velocity S-wave (km/s) = 3.82919 3.93683 3.88338
# Velocity P-wave (km/s) = 6.85462 7.00255 6.92898
#
# Compressibility (1/GPa) = 0.01854891
#
# Stress axis : x y z
#
# Youngs Moduli (GPa) = 89.13999 57.15967 87.53833
#
# Poissons Ratio (x) = 0.26829 0.06059
# Poissons Ratio (y) = 0.41840 0.47342
# Poissons Ratio (z) = 0.06170 0.30912
#
# Static dielectric constant tensor:
#      x y z
#    x 3.768930 0.000010 -0.169040 
#    y 0.000010 2.840680 0.000040 
#    z -0.169040 0.000040 3.384010 
# 
# 
# High freq. dielectric constant tensor:
#      x y z
#    x 1.779390 0.000000 -0.000750 
#    y 0.000000 1.751820 0.000000 
#    z -0.000750 0.000000 1.783130 
# 
# From -- ./inp_files/380744.got.cif
#   From: 2010.06.25/outbox.cif.g09.slc.cpg/sg12_191_cif.got.tgz:380744.got - 2010.06.28 00:19:55.
