data_PCOD8092907
_publ_section_title
;
Structure prediction by ZEFSAII (Michael W. Deem and Ramdas Pophale) SiO2 
 PCOD8092907
Probable space group: C 2/M
;
_chemical_formula_sum "Si O2"
_cell_formula_units_Z 48
_cell_length_a 28.146253
_cell_length_b 16.890337
_cell_length_c 14.220519
_cell_angle_alpha 90.000000
_cell_angle_beta 18.265568
_cell_angle_gamma 90.000000
_cell_volume 2118.866552
_symmetry_space_group_name_H-M "C 2/M"
_symmetry_group_IT_number 12
_symmetry_cell_setting 'monoclinic'
loop_
_space_group_symop_operation_xyz
x,y,z
-x,y,-z
-x,-y,-z
x,-y,z
1/2+x,1/2+y,z
1/2-x,1/2+y,-z
1/2-x,1/2-y,-z
1/2+x,1/2-y,z
loop_
_atom_site_type_symbol
_atom_site_label
_atom_site_fract_x
_atom_site_fract_y
_atom_site_fract_z
Si Si1 0.119172 0.410280 0.909522
Si Si2 0.719076 0.087826 0.530257
Si Si3 0.274912 0.407750 0.908426
Si Si4 0.529082 0.344533 0.300440
Si Si5 0.704315 0.593636 0.808114
Si Si6 0.018933 0.338573 0.280536
O O1 0.171260 0.500000 0.839970
O O2 0.221543 0.373036 0.630626
O O3 0.123281 0.351775 0.991044
O O4 0.949923 0.416213 0.190674
O O5 0.814698 0.127695 0.264243
O O6 0.782247 0.000000 0.428989
O O7 0.288580 0.500000 0.905718
O O8 0.380991 0.385784 0.620669
O O9 0.327185 0.359335 0.901896
O O10 0.102486 0.384242 0.208746
O O11 0.503926 0.252149 0.335528
O O12 0.557936 0.382288 0.143426
O O13 0.723722 0.500000 0.765630
O O14 0.852067 0.627315 0.582224
#
# Coordination Sequence:
#
# PCOD8092907 Si02
#       6
#     8   8   8   8   8   8
#     4   8  13  26  48  78 108 137 170 210 257 312
#     4   7  12  24  48  77 106 135 170 211 255 304
#     4  11  23  41  58  74 102 148 186 212 260 333
#     4  11  23  38  53  76 111 144 172 216 278 328
#     4  10  19  35  58  84 106 136 182 226 256 301
#     4  11  21  34  56  85 108 132 176 231 268 300
#
# _framework density 22.653621999999999
#
# number of rings (size 3 to 8) (size 9 to 14) (size 15 to 20)
#    0.000    2.333    0.000    7.000    0.000    2.000 
#    0.000    2.500    0.000    3.000    0.000    4.667 
#    0.000    0.000    0.000    0.000    0.000    0.000 
#
# Total GULP energy -297340.929934 kJ/mol
# GULP energy per Si atom -12389.205414 kJ/mol
# Density = 2.260206 g / cm^3
# Si number density = 22.653622 Si / 1000 Ang^3
#
#
#
# Elastic Constant Matrix: (Units=GPa)
#
#
# Indices 1 2 3 4 5 6 
#
# 1 23.4512 1.2012 3.6100 -0.0029 13.7840 0.0120
# 2 1.2012 89.6962 4.2253 -0.0024 0.2391 0.0097
# 3 3.6100 4.2253 31.2515 -0.0017 30.0227 0.0069
# 4 -0.0029 -0.0024 -0.0017 -1.3962 0.0009 -2.4286
# 5 13.7840 0.2391 30.0227 0.0009 41.1086 -0.0036
# 6 0.0120 0.0097 0.0069 -2.4286 -0.0036 2.6208
#
#
#
# Elastic Compliance Matrix: (Units=1/GPa)
#
#
# Indices 1 2 3 4 5 6 
#
# 1 0.070506 -0.003148 0.050186 0.000259 -0.060275 -0.000289
# 2 -0.003148 0.011513 -0.007180 0.000000 0.006232 0.000000
# 3 0.050186 -0.007180 0.145105 0.000371 -0.122760 -0.000415
# 4 0.000259 0.000000 0.000371 -0.274218 -0.000374 -0.254109
# 5 -0.060275 0.006232 -0.122760 -0.000374 0.134155 0.000418
# 6 -0.000289 0.000000 -0.000415 -0.254109 0.000418 0.146093
#
#
# Mechanical properties :
#
#
# Convention : Reuss Voigt Hill
#
# Bulk Modulus (GPa) = 3.25904 18.05244 10.65574
# Shear Modulus (GPa) = 19.55292 17.49080 18.52186
#
# Velocity S-wave (km/s) = 2.94109 2.78168 2.86249
# Velocity P-wave (km/s) = 3.60209 4.27822 3.95463
#
# Compressibility (1/GPa) = 0.30683891
#
# Stress axis : x y z
#
# Youngs Moduli (GPa) = 14.18328 86.86197 6.89158
#
# Poissons Ratio (x) = 0.27340 -0.34586
# Poissons Ratio (y) = 0.04464 0.04948
# Poissons Ratio (z) = -0.71180 0.62369
#
# Static dielectric constant tensor:
#      x y z
#    x 4.637350 0.000000 0.641770 
#    y 0.000000 3.724210 0.000000 
#    z 0.641770 0.000000 4.097600 
# 
# 
# High freq. dielectric constant tensor:
#      x y z
#    x 1.904110 0.000000 0.028360 
#    y 0.000000 1.860550 0.000000 
#    z 0.028360 0.000000 1.880480 
# 
# From -- ./inp_files/251435.got.cif
#   From: 2010.06.25/outbox.cif.g09.slc.cpg/sg12_126_cif.got.tgz:251435.got - 2010.06.28 00:19:55.
