data_PCOD8092767
_publ_section_title
;
Structure prediction by ZEFSAII (Michael W. Deem and Ramdas Pophale) SiO2 
 PCOD8092767
Probable space group: C 2/M
;
_chemical_formula_sum "Si O2"
_cell_formula_units_Z 64
_cell_length_a 15.827488
_cell_length_b 16.987950
_cell_length_c 17.620960
_cell_angle_alpha 90.000000
_cell_angle_beta 42.681852
_cell_angle_gamma 90.000000
_cell_volume 3211.924824
_symmetry_space_group_name_H-M "C 2/M"
_symmetry_group_IT_number 12
_symmetry_cell_setting 'monoclinic'
loop_
_space_group_symop_operation_xyz
x,y,z
-x,y,-z
-x,-y,-z
x,-y,z
1/2+x,1/2+y,z
1/2-x,1/2+y,-z
1/2-x,1/2-y,-z
1/2+x,1/2-y,z
loop_
_atom_site_type_symbol
_atom_site_label
_atom_site_fract_x
_atom_site_fract_y
_atom_site_fract_z
Si Si1 0.402790 0.593580 0.244447
Si Si2 0.862666 0.093444 0.569590
Si Si3 0.326192 0.593482 0.989402
Si Si4 0.016677 0.591851 0.573671
Si Si5 0.766110 0.158770 0.475936
Si Si6 0.253349 0.592137 0.199067
Si Si7 0.846682 0.593577 0.179522
Si Si8 0.876780 0.593739 0.990949
O O1 0.386442 0.500000 0.268299
O O2 0.363329 0.640320 0.345129
O O3 0.318787 0.626400 0.230801
O O4 0.543694 0.617766 0.133261
O O5 0.821377 0.118356 0.513680
O O6 0.763324 0.128863 0.695666
O O7 0.000000 0.126660 0.500000
O O8 0.863988 0.000000 0.572742
O O9 0.313664 0.500000 0.001819
O O10 0.312758 0.628768 0.083281
O O11 0.215581 0.629268 0.011032
O O12 0.043607 0.500000 0.547433
O O13 0.893388 0.610181 0.703444
O O14 0.000000 0.627884 0.500000
O O15 0.130503 0.627201 0.544500
O O16 0.750000 0.250000 0.500000
O O17 0.280652 0.500000 0.182087
O O18 0.840488 0.500000 0.185772
O O19 0.982252 0.621799 0.120382
O O20 0.831007 0.623980 0.103635
O O21 0.871902 0.500000 0.994164
#
# Coordination Sequence:
#
# PCOD8092767 Si02
#       8
#     8   8   8   8   8   8   8   8
#     4  10  19  35  57  83 118 151 188 237 293 348
#     4  10  22  38  59  85 112 145 193 247 294 339
#     4   9  17  26  49  86 119 144 175 229 294 356
#     4  10  19  36  63  90 114 146 193 246 298 348
#     4  12  26  40  56  82 116 160 201 238 289 354
#     4   9  17  30  53  89 119 142 179 234 299 352
#     4   8  15  28  46  72 107 140 176 224 276 326
#     4   8  14  25  43  73 110 144 171 212 276 333
#
# _framework density 19.925746
#
# number of rings (size 3 to 8) (size 9 to 14) (size 15 to 20)
#    0.000    2.500    1.250    2.250    3.500    2.000 
#    0.000    0.000    0.000    0.750    6.500    0.000 
#    0.000    0.000    0.000    0.000    0.000    0.000 
#
# Total GULP energy -396692.342118 kJ/mol
# GULP energy per Si atom -12396.635691 kJ/mol
# Density = 1.988039 g / cm^3
# Si number density = 19.925746 Si / 1000 Ang^3
#
#
#
# Elastic Constant Matrix: (Units=GPa)
#
#
# Indices 1 2 3 4 5 6 
#
# 1 170.2758 21.6115 91.2098 0.0000 -2.8864 0.0000
# 2 21.6115 22.8389 32.5201 0.0000 -2.1291 0.0000
# 3 91.2098 32.5201 178.2541 0.0001 9.8955 0.0000
# 4 0.0000 0.0000 0.0001 4.5392 0.0000 2.7221
# 5 -2.8864 -2.1291 9.8955 0.0000 35.5845 0.0000
# 6 0.0000 0.0000 0.0000 2.7221 0.0000 -2.8025
#
#
#
# Elastic Compliance Matrix: (Units=1/GPa)
#
#
# Indices 1 2 3 4 5 6 
#
# 1 0.008279 -0.002051 -0.003953 0.000000 0.001648 0.000000
# 2 -0.002051 0.061246 -0.010480 0.000000 0.006412 0.000000
# 3 -0.003953 -0.010480 0.009748 0.000000 -0.003658 0.000000
# 4 0.000000 0.000000 0.000000 0.139213 0.000000 0.135219
# 5 0.001648 0.006412 -0.003658 0.000000 0.029637 0.000000
# 6 0.000000 0.000000 0.000000 0.135219 0.000000 -0.225482
#
#
# Mechanical properties :
#
#
# Convention : Reuss Voigt Hill
#
# Bulk Modulus (GPa) = 21.59658 73.56131 47.57894
# Shear Modulus (GPa) = 70.37967 22.53274 46.45620
#
# Velocity S-wave (km/s) = 5.94959 3.36644 4.83376
# Velocity P-wave (km/s) = 7.61964 7.21861 7.42184
#
# Compressibility (1/GPa) = 0.04630363
#
# Stress axis : x y z
#
# Youngs Moduli (GPa) = 120.79087 16.32767 102.58603
#
# Poissons Ratio (x) = 0.03349 0.40557
# Poissons Ratio (y) = 0.24774 1.07510
# Poissons Ratio (z) = 0.47754 0.17111
#
# Static dielectric constant tensor:
#      x y z
#    x 3.661010 0.000000 -0.088950 
#    y 0.000000 2.997850 0.000000 
#    z -0.088950 0.000000 3.902470 
# 
# 
# High freq. dielectric constant tensor:
#      x y z
#    x 1.792550 0.000000 -0.001220 
#    y 0.000000 1.705750 0.000000 
#    z -0.001220 0.000000 1.794550 
# 
# From -- ./inp_files/271695.got.cif
#   From: 2010.06.25/outbox.cif.g09.slc.cpg/sg12_136_cif.got.tgz:271695.got - 2010.06.28 00:19:55.
