data_PCOD8092643
_publ_section_title
;
Structure prediction by ZEFSAII (Michael W. Deem and Ramdas Pophale) SiO2 
 PCOD8092643
Probable space group: C 2/M
;
_chemical_formula_sum "Si O2"
_cell_formula_units_Z 64
_cell_length_a 22.575613
_cell_length_b 20.932196
_cell_length_c 9.560765
_cell_angle_alpha 90.000000
_cell_angle_beta 49.700466
_cell_angle_gamma 90.000000
_cell_volume 3445.765320
_symmetry_space_group_name_H-M "C 2/M"
_symmetry_group_IT_number 12
_symmetry_cell_setting 'monoclinic'
loop_
_space_group_symop_operation_xyz
x,y,z
-x,y,-z
-x,-y,-z
x,-y,z
1/2+x,1/2+y,z
1/2-x,1/2+y,-z
1/2-x,1/2-y,-z
1/2+x,1/2-y,z
loop_
_atom_site_type_symbol
_atom_site_label
_atom_site_fract_x
_atom_site_fract_y
_atom_site_fract_z
Si Si1 0.082999 0.428838 0.804615
Si Si2 0.347879 0.802278 0.372095
Si Si3 0.255928 0.070410 0.329914
Si Si4 0.851241 0.075143 0.260008
Si Si5 0.943174 0.174343 0.286420
Si Si6 0.653197 0.654363 0.303603
Si Si7 0.236592 0.251170 0.754467
Si Si8 0.879792 0.155871 0.958263
O O1 0.084931 0.500000 0.727145
O O2 0.101198 0.366960 0.679111
O O3 0.150402 0.427861 0.819348
O O4 0.000000 0.417736 0.000000
O O5 0.402029 0.739109 0.294656
O O6 0.280787 0.800321 0.590375
O O7 0.304011 0.804312 0.286713
O O8 0.226434 0.092502 0.531128
O O9 0.217991 0.105827 0.258480
O O10 0.223284 0.000000 0.359890
O O11 0.920962 0.113869 0.225711
O O12 0.869910 0.000000 0.229586
O O13 0.846572 0.099307 0.106897
O O14 0.920622 0.159240 0.481086
O O15 0.034952 0.180405 0.132757
O O16 0.699726 0.721083 0.235933
O O17 0.623997 0.633185 0.196373
O O18 0.172311 0.218280 0.946306
#
# Coordination Sequence:
#
# PCOD8092643 Si02
#       8
#     8   8   8   8   8   8   8   8
#     4  10  20  31  52  87 115 136 175 233 286 329
#     4  10  19  35  57  76 108 140 185 228 276 330
#     4   9  18  36  56  74 106 148 183 221 273 327
#     4  10  21  36  55  79 108 145 191 233 268 316
#     4  10  22  36  54  80 109 146 181 227 279 327
#     4  10  21  37  52  76 112 145 177 220 274 336
#     4  10  20  34  54  78 102 140 186 226 266 322
#     4  12  22  33  54  81 110 140 180 228 277 327
#
# _framework density 18.573523000000002
#
# number of rings (size 3 to 8) (size 9 to 14) (size 15 to 20)
#    0.000    1.875    2.500    1.875    1.750    1.500 
#    0.000    0.000    0.000    3.750    0.000    2.625 
#    0.000   22.000    0.000    0.000    0.000    0.000 
#
# Total GULP energy -396522.500356 kJ/mol
# GULP energy per Si atom -12391.328136 kJ/mol
# Density = 1.853125 g / cm^3
# Si number density = 18.573523 Si / 1000 Ang^3
#
#
#
# Elastic Constant Matrix: (Units=GPa)
#
#
# Indices 1 2 3 4 5 6 
#
# 1 60.6790 15.9724 29.4541 0.0000 -3.3173 0.0000
# 2 15.9724 88.7699 28.9893 0.0000 -0.4338 0.0000
# 3 29.4541 28.9893 76.8277 0.0000 -2.7866 0.0000
# 4 0.0000 0.0000 0.0000 24.1463 0.0000 -2.5386
# 5 -3.3173 -0.4338 -2.7866 0.0000 38.2233 0.0000
# 6 0.0000 0.0000 0.0000 -2.5386 0.0000 16.8505
#
#
#
# Elastic Compliance Matrix: (Units=1/GPa)
#
#
# Indices 1 2 3 4 5 6 
#
# 1 0.020431 -0.001285 -0.007303 0.000000 0.001226 0.000000
# 2 -0.001285 0.012931 -0.004397 0.000000 -0.000285 0.000000
# 3 -0.007303 -0.004397 0.017497 0.000000 0.000592 0.000000
# 4 0.000000 0.000000 0.000000 0.042081 0.000000 0.006340
# 5 0.001226 -0.000285 0.000592 0.000000 0.026308 0.000000
# 6 0.000000 0.000000 0.000000 0.006340 0.000000 0.060300
#
#
# Mechanical properties :
#
#
# Convention : Reuss Voigt Hill
#
# Bulk Modulus (GPa) = 40.18078 41.67870 40.92974
# Shear Modulus (GPa) = 23.38487 25.96809 24.67648
#
# Velocity S-wave (km/s) = 3.55215 3.74321 3.64893
# Velocity P-wave (km/s) = 6.20516 6.41644 6.31168
#
# Compressibility (1/GPa) = 0.02488752
#
# Stress axis : x y z
#
# Youngs Moduli (GPa) = 48.94639 77.33497 57.15412
#
# Poissons Ratio (x) = 0.09938 0.41741
# Poissons Ratio (y) = 0.06290 0.25130
# Poissons Ratio (z) = 0.35747 0.34003
#
# Static dielectric constant tensor:
#      x y z
#    x 3.266130 0.000000 -0.172100 
#    y 0.000000 3.614070 0.000000 
#    z -0.172100 0.000000 3.402040 
# 
# 
# High freq. dielectric constant tensor:
#      x y z
#    x 1.701010 0.000000 -0.024020 
#    y 0.000000 1.732350 0.000000 
#    z -0.024020 0.000000 1.712160 
# 
# From -- ./inp_files/99071.got.cif
#   From: 2010.06.25/outbox.cif.g09.slc.cpg/sg12_50_cif.got.tgz:99071.got - 2010.06.28 00:19:55.
