data_PCOD8092113
_publ_section_title
;
Structure prediction by ZEFSAII (Michael W. Deem and Ramdas Pophale) SiO2 
 PCOD8092113
Probable space group: C 2/M
;
_chemical_formula_sum "Si O2"
_cell_formula_units_Z 48
_cell_length_a 19.618366
_cell_length_b 8.749682
_cell_length_c 20.457592
_cell_angle_alpha 90.000000
_cell_angle_beta 136.646204
_cell_angle_gamma 90.000000
_cell_volume 2410.743599
_symmetry_space_group_name_H-M "C 2/M"
_symmetry_group_IT_number 12
_symmetry_cell_setting 'monoclinic'
loop_
_space_group_symop_operation_xyz
x,y,z
-x,y,-z
-x,-y,-z
x,-y,z
1/2+x,1/2+y,z
1/2-x,1/2+y,-z
1/2-x,1/2-y,-z
1/2+x,1/2-y,z
loop_
_atom_site_type_symbol
_atom_site_label
_atom_site_fract_x
_atom_site_fract_y
_atom_site_fract_z
Si Si1 0.303885 0.327047 0.221717
Si Si2 0.234500 0.680558 0.418380
Si Si3 0.338455 0.318987 0.103851
Si Si4 0.415328 0.173328 0.893024
Si Si5 0.386950 0.317765 0.414090
Si Si6 0.441509 0.677686 0.777967
O O1 0.343538 0.500000 0.250393
O O2 0.338748 0.250473 0.178064
O O3 0.185636 0.320153 0.137383
O O4 0.347278 0.247703 0.317562
O O5 0.241338 0.500000 0.428228
O O6 0.250000 0.750000 0.500000
O O7 0.318409 0.743049 0.426038
O O8 0.124993 0.727699 0.318864
O O9 0.322481 0.500000 0.094401
O O10 0.443863 0.271968 0.147030
O O11 0.250000 0.250000 0.000000
O O12 0.405718 0.286050 0.825673
O O13 0.437645 0.000000 0.884498
O O14 0.500000 0.234607 0.000000
O O15 0.500000 0.261291 0.500000
O O16 0.379088 0.500000 0.407780
O O17 0.427663 0.500000 0.752537
#
# Coordination Sequence:
#
# PCOD8092113 Si02
#       6
#     8   8   8   8   8   8
#     4   9  17  33  55  81 109 144 192 238 279 331
#     4  11  23  40  63  89 117 152 195 242 296 354
#     4  10  22  38  59  85 117 155 198 242 286 340
#     4  10  19  34  59  85 110 148 195 240 286 342
#     4   9  18  33  59  87 109 141 190 240 282 335
#     4  11  23  38  58  87 122 155 190 239 298 354
#
# _framework density 19.910869000000002
#
# number of rings (size 3 to 8) (size 9 to 14) (size 15 to 20)
#    0.000    2.000    1.667    2.000    2.333    3.000 
#    0.000    0.833    0.000    2.000    0.000    0.000 
#    0.000    0.000    0.000    0.000    0.000    0.000 
#
# Total GULP energy -297574.621906 kJ/mol
# GULP energy per Si atom -12398.942579 kJ/mol
# Density = 1.986555 g / cm^3
# Si number density = 19.910869 Si / 1000 Ang^3
#
#
#
# Elastic Constant Matrix: (Units=GPa)
#
#
# Indices 1 2 3 4 5 6 
#
# 1 101.0536 25.0973 40.3913 0.0000 -10.2124 0.0000
# 2 25.0973 37.8247 24.5124 0.0000 -0.0857 0.0000
# 3 40.3913 24.5124 140.9346 0.0000 -5.4299 0.0000
# 4 0.0000 0.0000 0.0000 30.7291 0.0000 -4.8016
# 5 -10.2124 -0.0857 -5.4299 0.0000 41.3778 0.0000
# 6 0.0000 0.0000 0.0000 -4.8016 0.0000 19.5556
#
#
#
# Elastic Compliance Matrix: (Units=1/GPa)
#
#
# Indices 1 2 3 4 5 6 
#
# 1 0.012866 -0.007001 -0.002360 0.000000 0.002851 0.000000
# 2 -0.007001 0.033622 -0.003925 0.000000 -0.002173 0.000000
# 3 -0.002360 -0.003925 0.008475 0.000000 0.000522 0.000000
# 4 0.000000 0.000000 0.000000 0.033841 0.000000 0.008309
# 5 0.002851 -0.002173 0.000522 0.000000 0.024935 0.000000
# 6 0.000000 0.000000 0.000000 0.008309 0.000000 0.053177
#
#
# Mechanical properties :
#
#
# Convention : Reuss Voigt Hill
#
# Bulk Modulus (GPa) = 35.22299 51.09055 43.15677
# Shear Modulus (GPa) = 24.63665 30.98662 27.81164
#
# Velocity S-wave (km/s) = 3.52141 3.94923 3.74144
# Velocity P-wave (km/s) = 5.85342 6.81987 6.35504
#
# Compressibility (1/GPa) = 0.02839055
#
# Stress axis : x y z
#
# Youngs Moduli (GPa) = 77.72529 29.74270 118.00032
#
# Poissons Ratio (x) = 0.20823 0.27846
# Poissons Ratio (y) = 0.54415 0.46315
# Poissons Ratio (z) = 0.18341 0.11674
#
# Static dielectric constant tensor:
#      x y z
#    x 3.852390 0.000000 0.047450 
#    y 0.000000 3.247680 0.000000 
#    z 0.047450 0.000000 4.268450 
# 
# 
# High freq. dielectric constant tensor:
#      x y z
#    x 1.787970 0.000000 -0.001820 
#    y 0.000000 1.731910 0.000000 
#    z -0.001820 0.000000 1.793300 
# 
# From -- ./inp_files/320308.got.cif
#   From: 2010.06.25/outbox.cif.g09.slc.cpg/sg12_161_cif.got.tgz:320308.got - 2010.06.28 00:19:55.
