data_PCOD8092585
_publ_section_title
;
Structure prediction by ZEFSAII (Michael W. Deem and Ramdas Pophale) SiO2 
 PCOD8092585
Probable space group: C 2/M
;
_chemical_formula_sum "Si O2"
_cell_formula_units_Z 48
_cell_length_a 27.117552
_cell_length_b 9.173932
_cell_length_c 10.010664
_cell_angle_alpha 90.000000
_cell_angle_beta 89.877252
_cell_angle_gamma 90.000000
_cell_volume 2490.392998
_symmetry_space_group_name_H-M "C 2/M"
_symmetry_group_IT_number 12
_symmetry_cell_setting 'monoclinic'
loop_
_space_group_symop_operation_xyz
x,y,z
-x,y,-z
-x,-y,-z
x,-y,z
1/2+x,1/2+y,z
1/2-x,1/2+y,-z
1/2-x,1/2-y,-z
1/2+x,1/2-y,z
loop_
_atom_site_type_symbol
_atom_site_label
_atom_site_fract_x
_atom_site_fract_y
_atom_site_fract_z
Si Si1 0.133243 0.666426 0.481971
Si Si2 0.038537 0.828548 0.385688
Si Si3 0.854287 0.673189 0.966537
Si Si4 0.538001 0.172007 0.115283
Si Si5 0.683925 0.169854 0.751525
Si Si6 0.715170 0.168440 0.268816
O O1 0.115295 0.500000 0.459613
O O2 0.092218 0.774926 0.428850
O O3 0.143609 0.698885 0.637077
O O4 0.183596 0.693972 0.401904
O O5 0.020969 0.751134 0.250283
O O6 0.000000 0.784870 0.500000
O O7 0.040539 0.000000 0.361456
O O8 0.856455 0.500000 0.968098
O O9 0.838451 0.734098 0.111233
O O10 0.908323 0.731804 0.927938
O O11 0.814976 0.729672 0.858370
O O12 0.538501 0.000000 0.142453
O O13 0.500000 0.214397 0.000000
O O14 0.734542 0.246258 0.713991
O O15 0.695586 0.000000 0.765500
O O16 0.727911 0.000000 0.247233
#
# Coordination Sequence:
#
# PCOD8092585 Si02
#       6
#     8   8   8   8   8   8
#     4  10  21  38  60  84 113 151 195 242 285 335
#     4  11  25  42  60  86 121 155 189 238 295 351
#     4   9  18  35  55  83 118 144 184 239 283 334
#     4  10  21  39  66  92 114 149 194 241 292 346
#     4  10  21  34  55  86 116 149 191 237 283 339
#     4  10  19  35  56  79 115 154 190 237 285 337
#
# _framework density 19.274068
#
# number of rings (size 3 to 8) (size 9 to 14) (size 15 to 20)
#    0.000    2.000    1.667    1.500    2.333    3.000 
#    0.000    0.833    0.000    0.000    0.000    0.000 
#    0.000    0.000    0.000    0.000    0.000    0.000 
#
# Total GULP energy -297689.449195 kJ/mol
# GULP energy per Si atom -12403.727050 kJ/mol
# Density = 1.923020 g / cm^3
# Si number density = 19.274068 Si / 1000 Ang^3
#
#
#
# Elastic Constant Matrix: (Units=GPa)
#
#
# Indices 1 2 3 4 5 6 
#
# 1 87.7332 39.9892 36.0389 0.0000 2.4881 0.0000
# 2 39.9892 52.8166 43.1672 0.0000 -0.0813 0.0000
# 3 36.0389 43.1672 135.8850 0.0000 -2.1504 0.0000
# 4 0.0000 0.0000 0.0000 21.4318 0.0000 0.4773
# 5 2.4881 -0.0813 -2.1504 0.0000 28.7781 0.0000
# 6 0.0000 0.0000 0.0000 0.4773 0.0000 27.4446
#
#
#
# Elastic Compliance Matrix: (Units=1/GPa)
#
#
# Indices 1 2 3 4 5 6 
#
# 1 0.017511 -0.012757 -0.000617 0.000000 -0.001596 0.000000
# 2 -0.012757 0.034874 -0.007685 0.000000 0.000627 0.000000
# 3 -0.000617 -0.007685 0.009977 0.000000 0.000777 0.000000
# 4 0.000000 0.000000 0.000000 0.046678 0.000000 -0.000812
# 5 -0.001596 0.000627 0.000777 0.000000 0.034947 0.000000
# 6 0.000000 0.000000 0.000000 -0.000812 0.000000 0.036451
#
#
# Mechanical properties :
#
#
# Convention : Reuss Voigt Hill
#
# Bulk Modulus (GPa) = 49.39756 57.20280 53.30018
# Shear Modulus (GPa) = 21.80509 26.01352 23.90930
#
# Velocity S-wave (km/s) = 3.36716 3.67776 3.52588
# Velocity P-wave (km/s) = 6.38762 6.91214 6.65505
#
# Compressibility (1/GPa) = 0.02024391
#
# Stress axis : x y z
#
# Youngs Moduli (GPa) = 57.10539 28.67445 100.23438
#
# Poissons Ratio (x) = 0.36579 0.06186
# Poissons Ratio (y) = 0.72847 0.77035
# Poissons Ratio (z) = 0.03524 0.22038
#
# Static dielectric constant tensor:
#      x y z
#    x 3.473350 0.000000 -0.065960 
#    y 0.000000 3.240350 0.000000 
#    z -0.065960 0.000000 3.835230 
# 
# 
# High freq. dielectric constant tensor:
#      x y z
#    x 1.752910 0.000000 0.000270 
#    y 0.000000 1.721550 0.000000 
#    z 0.000270 0.000000 1.771260 
# 
# From -- ./inp_files/108767.got.cif
#   From: 2010.06.25/outbox.cif.g09.slc.cpg/sg12_55_cif.got.tgz:108767.got - 2010.06.28 00:19:55.
