data_PCOD8092302
_publ_section_title
;
Structure prediction by ZEFSAII (Michael W. Deem and Ramdas Pophale) SiO2 
 PCOD8092302
Probable space group: C 2/M
;
_chemical_formula_sum "Si O2"
_cell_formula_units_Z 64
_cell_length_a 30.418247
_cell_length_b 8.978101
_cell_length_c 19.585326
_cell_angle_alpha 90.000000
_cell_angle_beta 36.967407
_cell_angle_gamma 90.000000
_cell_volume 3216.506676
_symmetry_space_group_name_H-M "C 2/M"
_symmetry_group_IT_number 12
_symmetry_cell_setting 'monoclinic'
loop_
_space_group_symop_operation_xyz
x,y,z
-x,y,-z
-x,-y,-z
x,-y,z
1/2+x,1/2+y,z
1/2-x,1/2+y,-z
1/2-x,1/2-y,-z
1/2+x,1/2-y,z
loop_
_atom_site_type_symbol
_atom_site_label
_atom_site_fract_x
_atom_site_fract_y
_atom_site_fract_z
Si Si1 0.052779 0.175321 0.994111
Si Si2 0.196144 0.172170 0.014724
Si Si3 0.791800 0.826534 0.252762
Si Si4 0.201124 0.668918 0.236083
Si Si5 0.964559 0.670360 0.214787
Si Si6 0.802911 0.323328 0.380393
Si Si7 0.448728 0.171649 0.763259
Si Si8 0.056310 0.824793 0.372095
O O1 0.134281 0.228020 0.875581
O O2 0.048260 0.000000 0.007879
O O3 0.000000 0.234202 0.000000
O O4 0.027749 0.243371 0.096494
O O5 0.118136 0.249834 0.115582
O O6 0.187441 0.000000 0.045982
O O7 0.250000 0.250000 0.000000
O O8 0.227548 0.190554 0.899599
O O9 0.724581 0.798153 0.284711
O O10 0.777999 0.729034 0.336684
O O11 0.797742 0.000000 0.265856
O O12 0.171823 0.500000 0.265048
O O13 0.137995 0.780909 0.292130
O O14 0.968807 0.500000 0.186438
O O15 0.884668 0.734549 0.295912
O O16 0.980330 0.687407 0.276117
O O17 0.797197 0.500000 0.393118
O O18 0.750000 0.250000 0.500000
O O19 0.467790 0.246279 0.667741
O O20 0.427935 0.000000 0.776292
O O21 0.000000 0.772626 0.500000
O O22 0.053540 0.000000 0.363835
#
# Coordination Sequence:
#
# PCOD8092302 Si02
#       8
#     8   8   8   8   8   8   8   8
#     4  10  19  34  61  92 122 157 193 235 292 353
#     4  11  21  36  61  93 125 159 195 241 295 354
#     4  10  21  39  61  90 123 156 196 241 291 353
#     4  10  22  39  62  89 121 159 196 238 295 359
#     4  10  23  40  60  88 122 157 198 245 295 353
#     4  11  24  42  62  86 117 157 203 252 300 351
#     4  11  23  40  62  89 120 159 200 242 299 360
#     4  11  25  43  62  86 116 152 201 256 302 353
#
# _framework density 19.897362000000001
#
# number of rings (size 3 to 8) (size 9 to 14) (size 15 to 20)
#    0.000    1.500    2.500    2.250    0.000    6.250 
#    0.000    3.750    0.000    0.000    0.000    0.000 
#    0.000    0.000    0.000    0.000    0.000    0.000 
#
# Total GULP energy -396940.815819 kJ/mol
# GULP energy per Si atom -12404.400494 kJ/mol
# Density = 1.985208 g / cm^3
# Si number density = 19.897362 Si / 1000 Ang^3
#
#
#
# Elastic Constant Matrix: (Units=GPa)
#
#
# Indices 1 2 3 4 5 6 
#
# 1 97.6585 32.6434 30.1178 -0.0011 26.1781 0.0019
# 2 32.6434 82.9092 43.5231 -0.0112 16.0694 0.0105
# 3 30.1178 43.5231 112.9715 -0.0051 24.7408 0.0013
# 4 -0.0011 -0.0112 -0.0051 32.0323 0.0046 6.1764
# 5 26.1781 16.0694 24.7408 0.0046 23.3434 -0.0024
# 6 0.0019 0.0105 0.0013 6.1764 -0.0024 29.0493
#
#
#
# Elastic Compliance Matrix: (Units=1/GPa)
#
#
# Indices 1 2 3 4 5 6 
#
# 1 0.015336 -0.003343 0.000601 0.000002 -0.015534 -0.000002
# 2 -0.003343 0.016413 -0.004921 0.000007 -0.002334 -0.000007
# 3 0.000601 -0.004921 0.013014 0.000002 -0.011080 0.000000
# 4 0.000002 0.000007 0.000002 0.032553 -0.000016 -0.006921
# 5 -0.015534 -0.002334 -0.011080 -0.000016 0.073609 0.000012
# 6 -0.000002 -0.000007 0.000000 -0.006921 0.000012 0.035896
#
#
# Mechanical properties :
#
#
# Convention : Reuss Voigt Hill
#
# Bulk Modulus (GPa) = 33.96974 56.23421 45.10198
# Shear Modulus (GPa) = 23.58956 29.36866 26.47911
#
# Velocity S-wave (km/s) = 3.44693 3.84605 3.65195
# Velocity P-wave (km/s) = 5.74033 6.93155 6.36387
#
# Compressibility (1/GPa) = 0.02943796
#
# Stress axis : x y z
#
# Youngs Moduli (GPa) = 65.20707 60.92635 76.84195
#
# Poissons Ratio (x) = 0.20367 -0.04622
# Poissons Ratio (y) = 0.21798 0.37813
# Poissons Ratio (z) = -0.03922 0.29981
#
# Static dielectric constant tensor:
#      x y z
#    x 3.663660 -0.000010 0.138850 
#    y -0.000010 3.621790 0.000030 
#    z 0.138850 0.000030 3.621420 
# 
# 
# High freq. dielectric constant tensor:
#      x y z
#    x 1.788170 0.000000 0.006680 
#    y 0.000000 1.775890 0.000000 
#    z 0.006680 0.000000 1.772310 
# 
# From -- ./inp_files/295499.got.cif
#   From: 2010.06.25/outbox.cif.g09.slc.cpg/sg12_148_cif.got.tgz:295499.got - 2010.06.28 00:19:55.
