data_PCOD8092932
_publ_section_title
;
Structure prediction by ZEFSAII (Michael W. Deem and Ramdas Pophale) SiO2 
 PCOD8092932
Probable space group: C 2/M
;
_chemical_formula_sum "Si O2"
_cell_formula_units_Z 40
_cell_length_a 14.813111
_cell_length_b 17.731500
_cell_length_c 23.475391
_cell_angle_alpha 90.000000
_cell_angle_beta 21.193447
_cell_angle_gamma 90.000000
_cell_volume 2229.125077
_symmetry_space_group_name_H-M "C 2/M"
_symmetry_group_IT_number 12
_symmetry_cell_setting 'monoclinic'
loop_
_space_group_symop_operation_xyz
x,y,z
-x,y,-z
-x,-y,-z
x,-y,z
1/2+x,1/2+y,z
1/2-x,1/2+y,-z
1/2-x,1/2-y,-z
1/2+x,1/2-y,z
loop_
_atom_site_type_symbol
_atom_site_label
_atom_site_fract_x
_atom_site_fract_y
_atom_site_fract_z
Si Si1 0.520730 0.758189 0.675971
Si Si2 0.265969 0.085002 0.980040
Si Si3 0.420373 0.282796 0.145654
Si Si4 0.291164 0.851922 0.080722
Si Si5 0.287931 0.177065 0.322815
O O1 0.750000 0.750000 0.500000
O O2 0.293324 0.796453 0.775427
O O3 0.445154 0.674295 0.742385
O O4 0.593566 0.810926 0.685251
O O5 0.221646 0.086173 0.074605
O O6 0.062135 0.138421 0.070376
O O7 0.225744 0.000000 0.981799
O O8 0.552127 0.109974 0.799793
O O9 0.304030 0.251983 0.273563
O O10 0.620690 0.223281 0.004599
O O11 0.500000 0.885443 0.000000
O O12 0.000000 0.152578 0.500000
#
# Coordination Sequence:
#
# PCOD8092932 Si02
#       5
#     8   8   8   8   8
#     4  11  19  31  60  89 107 140 184 247 288 315
#     4  11  22  37  57  81 119 157 184 224 283 346
#     4  10  19  35  58  85 108 143 198 235 278 322
#     4   9  18  34  58  83 106 140 196 244 267 320
#     4  11  20  36  58  85 113 143 193 245 279 322
#
# _framework density 17.944258999999999
#
# number of rings (size 3 to 8) (size 9 to 14) (size 15 to 20)
#    0.000    1.600    6.000    1.200    0.000    0.800 
#    0.000    2.000    0.000    5.400    0.000    0.000 
#    0.000    0.000    0.000    0.000    0.000    0.000 
#
# Total GULP energy -247956.494985 kJ/mol
# GULP energy per Si atom -12397.824749 kJ/mol
# Density = 1.790342 g / cm^3
# Si number density = 17.944259 Si / 1000 Ang^3
#
#
#
# Elastic Constant Matrix: (Units=GPa)
#
#
# Indices 1 2 3 4 5 6 
#
# 1 118.4319 28.0967 28.0947 0.1611 -4.6326 -0.0918
# 2 28.0967 85.0969 28.4474 -0.2819 -8.2867 -0.0509
# 3 28.0947 28.4474 116.2537 -0.5550 3.0198 -0.0738
# 4 0.1611 -0.2819 -0.5550 13.9268 -0.0701 -1.2190
# 5 -4.6326 -8.2867 3.0198 -0.0701 30.1316 0.0492
# 6 -0.0918 -0.0509 -0.0738 -1.2190 0.0492 17.8622
#
#
#
# Elastic Compliance Matrix: (Units=1/GPa)
#
#
# Indices 1 2 3 4 5 6 
#
# 1 0.009472 -0.002463 -0.001712 -0.000221 0.000950 0.000017
# 2 -0.002463 0.013899 -0.002902 0.000215 0.003735 0.000019
# 3 -0.001712 -0.002902 0.009780 0.000345 -0.002041 0.000053
# 4 -0.000221 0.000215 0.000345 0.072257 0.000151 0.004931
# 5 0.000950 0.003735 -0.002041 0.000151 0.034566 -0.000078
# 6 0.000017 0.000019 0.000053 0.004931 -0.000078 0.056321
#
#
# Mechanical properties :
#
#
# Convention : Reuss Voigt Hill
#
# Bulk Modulus (GPa) = 52.63957 54.34000 53.48979
# Shear Modulus (GPa) = 23.06470 28.06038 25.56254
#
# Velocity S-wave (km/s) = 3.58907 3.95872 3.77842
# Velocity P-wave (km/s) = 6.82451 7.15847 6.99349
#
# Compressibility (1/GPa) = 0.01899711
#
# Stress axis : x y z
#
# Youngs Moduli (GPa) = 105.57852 71.94712 102.24565
#
# Poissons Ratio (x) = 0.17722 0.17504
# Poissons Ratio (y) = 0.26006 0.29670
# Poissons Ratio (z) = 0.18074 0.20878
#
# Static dielectric constant tensor:
#      x y z
#    x 3.834520 0.000100 0.164280 
#    y 0.000100 2.853870 0.000460 
#    z 0.164280 0.000460 3.546190 
# 
# 
# High freq. dielectric constant tensor:
#      x y z
#    x 1.720130 0.000000 0.005330 
#    y 0.000000 1.637310 0.000060 
#    z 0.005330 0.000060 1.699020 
# 
# From -- ./inp_files/142498.got.cif
#   From: 2010.06.25/outbox.cif.g09.slc.cpg/sg12_72_cif.got.tgz:142498.got - 2010.06.28 00:19:55.
