data_PCOD8092319
_publ_section_title
;
Structure prediction by ZEFSAII (Michael W. Deem and Ramdas Pophale) SiO2 
 PCOD8092319
Probable space group: C 2/M
;
_chemical_formula_sum "Si O2"
_cell_formula_units_Z 48
_cell_length_a 17.113245
_cell_length_b 17.265484
_cell_length_c 12.707772
_cell_angle_alpha 90.000000
_cell_angle_beta 137.405906
_cell_angle_gamma 90.000000
_cell_volume 2541.212291
_symmetry_space_group_name_H-M "C 2/M"
_symmetry_group_IT_number 12
_symmetry_cell_setting 'monoclinic'
loop_
_space_group_symop_operation_xyz
x,y,z
-x,y,-z
-x,-y,-z
x,-y,z
1/2+x,1/2+y,z
1/2-x,1/2+y,-z
1/2-x,1/2-y,-z
1/2+x,1/2-y,z
loop_
_atom_site_type_symbol
_atom_site_label
_atom_site_fract_x
_atom_site_fract_y
_atom_site_fract_z
Si Si1 0.760987 0.590949 0.436093
Si Si2 0.360176 0.409115 0.260649
Si Si3 0.867886 0.090396 0.896760
Si Si4 0.015424 0.409911 0.637159
Si Si5 0.384089 0.407681 0.515447
Si Si6 0.738326 0.161863 0.955784
O O1 0.737557 0.500000 0.411819
O O2 0.709811 0.622909 0.275886
O O3 0.896572 0.609104 0.579614
O O4 0.694852 0.628775 0.470209
O O5 0.367580 0.500000 0.276395
O O6 0.337303 0.377056 0.356123
O O7 0.483832 0.378773 0.339446
O O8 0.256948 0.385570 0.081691
O O9 0.836011 0.138913 0.968455
O O10 0.843126 0.000000 0.895608
O O11 0.000000 0.104884 0.000000
O O12 0.050842 0.500000 0.683438
O O13 0.000000 0.388421 0.500000
O O14 0.112440 0.356552 0.785224
O O15 0.377724 0.500000 0.514531
O O16 0.750000 0.250000 0.000000
#
# Coordination Sequence:
#
# PCOD8092319 Si02
#       6
#     8   8   8   8   8   8
#     4   9  16  29  54  86 110 134 181 242 292 334
#     4   9  17  33  56  78 107 147 191 234 278 342
#     4  10  19  34  62  91 113 142 193 260 304 333
#     4  10  19  36  60  82 109 148 194 242 292 347
#     4   8  15  30  54  84 109 135 179 236 292 337
#     4  12  24  37  52  82 120 155 188 232 297 364
#
# _framework density 18.888622999999999
#
# number of rings (size 3 to 8) (size 9 to 14) (size 15 to 20)
#    0.000    2.333    1.667    3.500    0.000    2.667 
#    3.000    2.500    0.000    7.000    0.000    0.000 
#    0.000    0.000    0.000    0.000    0.000    0.000 
#
# Total GULP energy -297522.360975 kJ/mol
# GULP energy per Si atom -12396.765041 kJ/mol
# Density = 1.884563 g / cm^3
# Si number density = 18.888623 Si / 1000 Ang^3
#
#
#
# Elastic Constant Matrix: (Units=GPa)
#
#
# Indices 1 2 3 4 5 6 
#
# 1 111.3493 44.1771 48.7317 0.0000 -11.9870 0.0000
# 2 44.1771 45.7905 41.2303 0.0000 -2.5718 0.0000
# 3 48.7317 41.2303 143.8420 0.0000 -6.0042 0.0000
# 4 0.0000 0.0000 0.0000 15.9500 0.0000 -0.0754
# 5 -11.9870 -2.5718 -6.0042 0.0000 30.7228 0.0000
# 6 0.0000 0.0000 0.0000 -0.0754 0.0000 11.6338
#
#
#
# Elastic Compliance Matrix: (Units=1/GPa)
#
#
# Indices 1 2 3 4 5 6 
#
# 1 0.015337 -0.013522 -0.001127 0.000000 0.004632 0.000000
# 2 -0.013522 0.041378 -0.007415 0.000000 -0.003261 0.000000
# 3 -0.001127 -0.007415 0.009493 0.000000 0.000795 0.000000
# 4 0.000000 0.000000 0.000000 0.062698 0.000000 0.000406
# 5 0.004632 -0.003261 0.000795 0.000000 0.034239 0.000000
# 6 0.000000 0.000000 0.000000 0.000406 0.000000 0.085959
#
#
# Mechanical properties :
#
#
# Convention : Reuss Voigt Hill
#
# Bulk Modulus (GPa) = 45.29168 63.25111 54.27140
# Shear Modulus (GPa) = 16.63380 22.78416 19.70898
#
# Velocity S-wave (km/s) = 2.97075 3.47686 3.23372
# Velocity P-wave (km/s) = 5.98310 7.04820 6.53738
#
# Compressibility (1/GPa) = 0.02207911
#
# Stress axis : x y z
#
# Youngs Moduli (GPa) = 65.20001 24.16723 105.34598
#
# Poissons Ratio (x) = 0.32680 0.11870
# Poissons Ratio (y) = 0.88166 0.78119
# Poissons Ratio (z) = 0.07347 0.17921
#
# Static dielectric constant tensor:
#      x y z
#    x 3.713130 0.000000 -0.069300 
#    y 0.000000 3.029810 0.000000 
#    z -0.069300 0.000000 2.680960 
# 
# 
# High freq. dielectric constant tensor:
#      x y z
#    x 1.741040 0.000000 -0.006600 
#    y 0.000000 1.679030 0.000000 
#    z -0.006600 0.000000 1.743060 
# 
# From -- ./inp_files/159329.got.cif
#   From: 2010.06.25/outbox.cif.g09.slc.cpg/sg12_80_cif.got.tgz:159329.got - 2010.06.28 00:19:55.
