data_PCOD8092464
_publ_section_title
;
Structure prediction by ZEFSAII (Michael W. Deem and Ramdas Pophale) SiO2 
 PCOD8092464
Probable space group: C 2/M
;
_chemical_formula_sum "Si O2"
_cell_formula_units_Z 64
_cell_length_a 34.008562
_cell_length_b 8.836392
_cell_length_c 15.077567
_cell_angle_alpha 90.000000
_cell_angle_beta 47.960953
_cell_angle_gamma 90.000000
_cell_volume 3365.125701
_symmetry_space_group_name_H-M "C 2/M"
_symmetry_group_IT_number 12
_symmetry_cell_setting 'monoclinic'
loop_
_space_group_symop_operation_xyz
x,y,z
-x,y,-z
-x,-y,-z
x,-y,z
1/2+x,1/2+y,z
1/2-x,1/2+y,-z
1/2-x,1/2-y,-z
1/2+x,1/2-y,z
loop_
_atom_site_type_symbol
_atom_site_label
_atom_site_fract_x
_atom_site_fract_y
_atom_site_fract_z
Si Si1 0.527209 0.674555 0.541896
Si Si2 0.011034 0.662207 0.248893
Si Si3 0.391556 0.823968 0.010227
Si Si4 0.397156 0.832240 0.341444
Si Si5 0.438463 0.320867 0.104355
Si Si6 0.140048 0.180704 0.433433
Si Si7 0.803467 0.674147 0.812315
Si Si8 0.179819 0.174009 0.032136
O O1 0.500000 0.757503 0.500000
O O2 0.533401 0.500000 0.513732
O O3 0.486507 0.704170 0.683366
O O4 0.585207 0.739580 0.473222
O O5 0.029085 0.500000 0.262758
O O6 0.952111 0.644822 0.305889
O O7 0.049118 0.705854 0.112263
O O8 0.395498 0.741285 0.098412
O O9 0.377392 0.000000 0.044662
O O10 0.350554 0.753490 0.002741
O O11 0.410071 0.728513 0.237863
O O12 0.356208 0.750892 0.472436
O O13 0.374911 0.000000 0.348875
O O14 0.439662 0.500000 0.097362
O O15 0.500000 0.260708 0.000000
O O16 0.184383 0.242247 0.299160
O O17 0.144036 0.000000 0.435824
O O18 0.821299 0.500000 0.779745
O O19 0.832814 0.749197 0.853233
O O20 0.741185 0.690430 0.918284
O O21 0.162012 0.000000 0.065203
#
# Coordination Sequence:
#
# PCOD8092464 Si02
#       8
#     8   8   8   8   8   8   8   8
#     4   9  19  32  45  68 102 141 179 218 263 318
#     4   9  19  32  47  71 103 141 180 220 264 315
#     4  11  22  36  55  82 113 147 186 231 282 333
#     4  10  19  35  55  77 110 148 188 230 271 323
#     4  11  22  35  55  82 113 152 192 232 278 329
#     4  10  20  34  54  80 109 144 186 229 276 331
#     4  10  21  39  61  84 111 146 187 232 285 339
#     4  10  22  39  59  84 113 145 186 235 284 336
#
# _framework density 19.018605000000001
#
# number of rings (size 3 to 8) (size 9 to 14) (size 15 to 20)
#    0.000    2.000    1.250    2.250    1.750    4.250 
#    0.000    0.000    0.000    0.750    0.000    0.000 
#    0.000    0.000    0.000    0.000    0.000    0.000 
#
# Total GULP energy -396467.302767 kJ/mol
# GULP energy per Si atom -12389.603211 kJ/mol
# Density = 1.897532 g / cm^3
# Si number density = 19.018605 Si / 1000 Ang^3
#
#
#
# Elastic Constant Matrix: (Units=GPa)
#
#
# Indices 1 2 3 4 5 6 
#
# 1 68.5340 39.5629 21.9069 0.0000 22.3202 0.0000
# 2 39.5629 99.7565 37.9992 -0.0001 9.8442 -0.0004
# 3 21.9069 37.9992 90.9180 0.0000 25.8414 0.0001
# 4 0.0000 -0.0001 0.0000 34.3880 0.0000 8.6146
# 5 22.3202 9.8442 25.8414 0.0000 23.1297 0.0000
# 6 0.0000 -0.0004 0.0001 8.6146 0.0000 28.7094
#
#
#
# Elastic Compliance Matrix: (Units=1/GPa)
#
#
# Indices 1 2 3 4 5 6 
#
# 1 0.028492 -0.010668 0.006034 0.000000 -0.029696 0.000000
# 2 -0.010668 0.015925 -0.007451 0.000000 0.011841 0.000000
# 3 0.006034 -0.007451 0.019654 0.000000 -0.024609 0.000000
# 4 0.000000 0.000000 0.000000 0.031444 0.000000 -0.009435
# 5 -0.029696 0.011841 -0.024609 0.000000 0.094346 0.000000
# 6 0.000000 0.000000 0.000000 -0.009435 0.000000 0.037663
#
#
# Mechanical properties :
#
#
# Convention : Reuss Voigt Hill
#
# Bulk Modulus (GPa) = 25.06214 50.90516 37.98365
# Shear Modulus (GPa) = 18.86841 27.89471 23.38156
#
# Velocity S-wave (km/s) = 3.15318 3.83391 3.51009
# Velocity P-wave (km/s) = 5.14423 6.81342 6.03679
#
# Compressibility (1/GPa) = 0.03990083
#
# Stress axis : x y z
#
# Youngs Moduli (GPa) = 35.09741 62.79484 50.88065
#
# Poissons Ratio (x) = 0.66988 -0.30700
# Poissons Ratio (y) = 0.37441 0.37911
# Poissons Ratio (z) = -0.21177 0.46788
#
# Static dielectric constant tensor:
#      x y z
#    x 3.461710 0.000000 0.233860 
#    y 0.000000 3.696550 0.000000 
#    z 0.233860 0.000000 3.556820 
# 
# 
# High freq. dielectric constant tensor:
#      x y z
#    x 1.714580 0.000000 0.020630 
#    y 0.000000 1.749470 0.000000 
#    z 0.020630 0.000000 1.735900 
# 
# From -- ./inp_files/249789.got.cif
#   From: 2010.06.25/outbox.cif.g09.slc.cpg/sg12_125_cif.got.tgz:249789.got - 2010.06.28 00:19:55.
