data_PCOD8092792
_publ_section_title
;
Structure prediction by ZEFSAII (Michael W. Deem and Ramdas Pophale) SiO2 
 PCOD8092792
Probable space group: C 2/M
;
_chemical_formula_sum "Si O2"
_cell_formula_units_Z 48
_cell_length_a 14.279868
_cell_length_b 19.667006
_cell_length_c 8.446504
_cell_angle_alpha 90.000000
_cell_angle_beta 81.247834
_cell_angle_gamma 90.000000
_cell_volume 2344.513471
_symmetry_space_group_name_H-M "C 2/M"
_symmetry_group_IT_number 12
_symmetry_cell_setting 'monoclinic'
loop_
_space_group_symop_operation_xyz
x,y,z
-x,y,-z
-x,-y,-z
x,-y,z
1/2+x,1/2+y,z
1/2-x,1/2+y,-z
1/2-x,1/2-y,-z
1/2+x,1/2-y,z
loop_
_atom_site_type_symbol
_atom_site_label
_atom_site_fract_x
_atom_site_fract_y
_atom_site_fract_z
Si Si1 0.743703 0.425559 0.699798
Si Si2 0.200014 0.717490 0.270440
Si Si3 0.909564 0.572818 0.412437
Si Si4 0.963071 0.793332 0.836046
Si Si5 0.622170 0.785345 0.643877
Si Si6 0.473480 0.422906 0.327141
O O1 0.746716 0.500000 0.787795
O O2 0.778027 0.360310 0.795104
O O3 0.811250 0.430325 0.531931
O O4 0.638077 0.409149 0.666610
O O5 0.139580 0.758613 0.156439
O O6 0.296809 0.758577 0.261766
O O7 0.148398 0.715147 0.452719
O O8 0.921610 0.500000 0.319101
O O9 0.903299 0.637070 0.296073
O O10 0.000000 0.584530 0.500000
O O11 0.030791 0.761218 0.686290
O O12 0.963546 0.874452 0.803123
O O13 0.000000 0.776437 0.000000
O O14 0.500000 0.406795 0.500000
O O15 0.500362 0.500000 0.274525
#
# Coordination Sequence:
#
# PCOD8092792 Si02
#       6
#     8   8   8   8   8   8
#     4   9  17  33  58  88 114 142 184 239 298 339
#     4  10  20  35  61  85 110 149 191 246 288 336
#     4   9  17  29  51  84 115 142 178 236 298 341
#     4  12  25  38  55  83 121 159 191 231 288 359
#     4  10  19  35  57  85 109 143 194 244 290 335
#     4  10  21  38  62  88 115 148 195 245 286 337
#
# _framework density 20.473331000000002
#
# number of rings (size 3 to 8) (size 9 to 14) (size 15 to 20)
#    0.000    2.000    1.667    3.500    4.667    1.000 
#    0.000    0.000    0.000    2.000    0.000    0.000 
#    0.000    0.000    0.000    0.000    0.000    0.000 
#
# Total GULP energy -297397.895024 kJ/mol
# GULP energy per Si atom -12391.578959 kJ/mol
# Density = 2.042673 g / cm^3
# Si number density = 20.473331 Si / 1000 Ang^3
#
#
#
# Elastic Constant Matrix: (Units=GPa)
#
#
# Indices 1 2 3 4 5 6 
#
# 1 89.7911 55.5040 10.1165 0.0000 19.5658 0.0000
# 2 55.5040 195.2986 29.2970 0.0000 17.8870 0.0000
# 3 10.1165 29.2970 23.0322 0.0000 16.4276 0.0000
# 4 0.0000 0.0000 0.0000 14.1257 0.0000 7.5867
# 5 19.5658 17.8870 16.4276 0.0000 21.4781 0.0000
# 6 0.0000 0.0000 0.0000 7.5867 0.0000 44.1564
#
#
#
# Elastic Compliance Matrix: (Units=1/GPa)
#
#
# Indices 1 2 3 4 5 6 
#
# 1 0.017860 -0.005280 0.016149 0.000000 -0.024224 0.000000
# 2 -0.005280 0.007926 -0.014270 0.000000 0.009123 0.000000
# 3 0.016149 -0.014270 0.124302 0.000000 -0.097900 0.000000
# 4 0.000000 0.000000 0.000000 0.077990 0.000000 -0.013400
# 5 -0.024224 0.009123 -0.097900 0.000000 0.135907 0.000000
# 6 0.000000 0.000000 0.000000 -0.013400 0.000000 0.024949
#
#
# Mechanical properties :
#
#
# Convention : Reuss Voigt Hill
#
# Bulk Modulus (GPa) = 6.97904 55.32856 31.15380
# Shear Modulus (GPa) = 11.27404 30.16567 20.71986
#
# Velocity S-wave (km/s) = 2.34918 3.84267 3.18471
# Velocity P-wave (km/s) = 3.28245 6.83897 5.36405
#
# Compressibility (1/GPa) = 0.14328617
#
# Stress axis : x y z
#
# Youngs Moduli (GPa) = 55.99242 126.16881 8.04492
#
# Poissons Ratio (x) = 0.66612 -0.12992
# Poissons Ratio (y) = 0.29562 0.11480
# Poissons Ratio (z) = -0.90421 1.80040
#
# Static dielectric constant tensor:
#      x y z
#    x 3.932960 0.000000 0.007420 
#    y 0.000000 4.657230 0.000000 
#    z 0.007420 0.000000 2.963170 
# 
# 
# High freq. dielectric constant tensor:
#      x y z
#    x 1.815700 0.000000 0.002430 
#    y 0.000000 1.835480 0.000000 
#    z 0.002430 0.000000 1.719750 
# 
# From -- ./inp_files/62799.got.cif
#   From: 2010.06.25/outbox.cif.g09.slc.cpg/sg12_32_cif.got.tgz:62799.got - 2010.06.28 00:19:55.
