data_PCOD8092531
_publ_section_title
;
Structure prediction by ZEFSAII (Michael W. Deem and Ramdas Pophale) SiO2 
 PCOD8092531
Probable space group: C 2/M
;
_chemical_formula_sum "Si O2"
_cell_formula_units_Z 48
_cell_length_a 14.242473
_cell_length_b 8.785180
_cell_length_c 30.115270
_cell_angle_alpha 90.000000
_cell_angle_beta 44.830482
_cell_angle_gamma 90.000000
_cell_volume 2656.556758
_symmetry_space_group_name_H-M "C 2/M"
_symmetry_group_IT_number 12
_symmetry_cell_setting 'monoclinic'
loop_
_space_group_symop_operation_xyz
x,y,z
-x,y,-z
-x,-y,-z
x,-y,z
1/2+x,1/2+y,z
1/2-x,1/2+y,-z
1/2-x,1/2-y,-z
1/2+x,1/2-y,z
loop_
_atom_site_type_symbol
_atom_site_label
_atom_site_fract_x
_atom_site_fract_y
_atom_site_fract_z
Si Si1 0.352135 0.178884 0.332869
Si Si2 0.350161 0.820441 0.762922
Si Si3 0.140979 0.818628 0.333392
Si Si4 0.653348 0.820826 0.897890
Si Si5 0.643741 0.180253 0.568509
Si Si6 0.148619 0.677989 0.000107
O O1 0.502336 0.234158 0.271769
O O2 0.247832 0.248126 0.332871
O O3 0.313854 0.227286 0.395794
O O4 0.346005 0.000000 0.330115
O O5 0.309769 0.735344 0.731316
O O6 0.248287 0.777692 0.835350
O O7 0.347719 0.000000 0.754554
O O8 0.000127 0.748251 0.394412
O O9 0.130672 0.000000 0.337877
O O10 0.501860 0.775894 0.936807
O O11 0.678146 0.000000 0.882405
O O12 0.683088 0.771287 0.938478
O O13 0.750000 0.250000 0.500000
O O14 0.637300 0.000000 0.564992
O O15 0.163922 0.500000 0.998427
O O16 0.250000 0.750000 0.000000
#
# Coordination Sequence:
#
# PCOD8092531 Si02
#       6
#     8   8   8   8   8   8
#     4   8  18  35  53  72 101 136 169 204 251 305
#     4  10  20  35  53  77 105 134 169 213 255 301
#     4  10  19  35  56  76 100 136 173 209 254 304
#     4   9  19  36  53  73 103 139 171 207 255 309
#     4  10  20  36  54  77 106 136 171 212 254 302
#     4   9  19  35  54  75 103 135 172 213 256 303
#
# _framework density 18.068501999999999
#
# number of rings (size 3 to 8) (size 9 to 14) (size 15 to 20)
#    0.000    2.667    0.000    3.500    0.000    3.333 
#    0.000   20.000    0.000    0.000    0.000    0.000 
#    0.000    0.000    0.000    0.000    0.000    0.000 
#
# Total GULP energy -297559.612066 kJ/mol
# GULP energy per Si atom -12398.317169 kJ/mol
# Density = 1.802738 g / cm^3
# Si number density = 18.068502 Si / 1000 Ang^3
#
#
#
# Elastic Constant Matrix: (Units=GPa)
#
#
# Indices 1 2 3 4 5 6 
#
# 1 182.7710 45.6953 77.9555 0.0000 -1.4079 0.0003
# 2 45.6953 61.7316 46.4524 0.0002 -2.0077 0.0006
# 3 77.9555 46.4524 153.7639 0.0000 -0.1780 0.0000
# 4 0.0000 0.0002 0.0000 35.1852 0.0000 -0.4280
# 5 -1.4079 -2.0077 -0.1780 0.0000 12.9503 0.0000
# 6 0.0003 0.0006 0.0000 -0.4280 0.0000 29.4349
#
#
#
# Elastic Compliance Matrix: (Units=1/GPa)
#
#
# Indices 1 2 3 4 5 6 
#
# 1 0.007521 -0.003482 -0.002761 0.000000 0.000240 0.000000
# 2 -0.003482 0.022708 -0.005091 0.000000 0.003072 0.000000
# 3 -0.002761 -0.005091 0.009440 0.000000 -0.000960 0.000000
# 4 0.000000 0.000000 0.000000 0.028426 0.000000 0.000413
# 5 0.000240 0.003072 -0.000960 0.000000 0.077707 0.000000
# 6 0.000000 0.000000 0.000000 0.000413 0.000000 0.033979
#
#
# Mechanical properties :
#
#
# Convention : Reuss Voigt Hill
#
# Bulk Modulus (GPa) = 58.82077 82.05255 70.43666
# Shear Modulus (GPa) = 24.02493 30.72496 27.37494
#
# Velocity S-wave (km/s) = 3.65040 4.12815 3.89661
# Velocity P-wave (km/s) = 7.09875 8.26031 7.70146
#
# Compressibility (1/GPa) = 0.01700080
#
# Stress axis : x y z
#
# Youngs Moduli (GPa) = 132.95473 44.03808 105.93042
#
# Poissons Ratio (x) = 0.15335 0.29247
# Poissons Ratio (y) = 0.46296 0.53930
# Poissons Ratio (z) = 0.36708 0.22420
#
# Static dielectric constant tensor:
#      x y z
#    x 3.507100 0.000000 -0.007070 
#    y 0.000000 3.198570 0.000000 
#    z -0.007070 0.000000 3.330920 
# 
# 
# High freq. dielectric constant tensor:
#      x y z
#    x 1.706180 0.000000 -0.000300 
#    y 0.000000 1.691770 0.000000 
#    z -0.000300 0.000000 1.704610 
# 
# From -- ./inp_files/308260.got.cif
#   From: 2010.06.25/outbox.cif.g09.slc.cpg/sg12_155_cif.got.tgz:308260.got - 2010.06.28 00:19:55.
