data_PCOD8092071
_publ_section_title
;
Structure prediction by ZEFSAII (Michael W. Deem and Ramdas Pophale) SiO2 
 PCOD8092071
Probable space group: C 2/M
;
_chemical_formula_sum "Si O2"
_cell_formula_units_Z 64
_cell_length_a 11.656425
_cell_length_b 18.536156
_cell_length_c 16.424406
_cell_angle_alpha 90.000000
_cell_angle_beta 95.724317
_cell_angle_gamma 90.000000
_cell_volume 3531.047985
_symmetry_space_group_name_H-M "C 2/M"
_symmetry_group_IT_number 12
_symmetry_cell_setting 'monoclinic'
loop_
_space_group_symop_operation_xyz
x,y,z
-x,y,-z
-x,-y,-z
x,-y,z
1/2+x,1/2+y,z
1/2-x,1/2+y,-z
1/2-x,1/2-y,-z
1/2+x,1/2-y,z
loop_
_atom_site_type_symbol
_atom_site_label
_atom_site_fract_x
_atom_site_fract_y
_atom_site_fract_z
Si Si1 0.593466 0.583000 0.392058
Si Si2 0.175024 0.332040 0.876494
Si Si3 0.605988 0.324181 0.843231
Si Si4 0.358301 0.318316 0.754581
Si Si5 0.335907 0.583357 0.426337
Si Si6 0.250343 0.416284 0.034791
Si Si7 0.783728 0.661774 0.718044
Si Si8 0.941202 0.582339 0.848085
O O1 0.605505 0.500000 0.367778
O O2 0.640944 0.629272 0.321690
O O3 0.461722 0.601995 0.401052
O O4 0.669669 0.599325 0.477765
O O5 0.150394 0.247864 0.892074
O O6 0.247729 0.340298 0.799289
O O7 0.053886 0.370129 0.856829
O O8 0.246799 0.367722 0.954260
O O9 0.469482 0.324883 0.820447
O O10 0.641218 0.391335 0.902854
O O11 0.664862 0.331031 0.759266
O O12 0.350604 0.237325 0.719520
O O13 0.306557 0.500000 0.406558
O O14 0.243981 0.634611 0.374894
O O15 0.267458 0.500000 0.013305
O O16 0.131231 0.403837 0.074874
O O17 0.864556 0.602172 0.765051
O O18 0.979834 0.500000 0.844182
#
# Coordination Sequence:
#
# PCOD8092071 Si02
#       8
#     8   8   8   8   8   8   8   8
#     4   9  19  34  55  83 112 141 176 223 272 320
#     4  11  22  37  55  80 111 147 181 221 275 334
#     4  10  21  38  54  80 111 142 181 229 274 321
#     4  11  22  36  56  80 113 147 178 219 277 328
#     4   9  17  33  58  84 108 139 180 224 269 314
#     4  10  22  39  59  80 104 141 189 233 269 313
#     4  10  19  34  59  81 109 144 184 226 264 321
#     4  10  20  36  58  83 109 141 185 230 267 313
#
# _framework density 18.124931
#
# number of rings (size 3 to 8) (size 9 to 14) (size 15 to 20)
#    0.000    2.000    2.500    2.250    0.000    4.000 
#    2.250    0.625    0.000    0.750    0.000    2.625 
#    0.000    0.000    0.000    0.000    0.000    0.000 
#
# Total GULP energy -396863.553625 kJ/mol
# GULP energy per Si atom -12401.986051 kJ/mol
# Density = 1.808368 g / cm^3
# Si number density = 18.124931 Si / 1000 Ang^3
#
#
#
# Elastic Constant Matrix: (Units=GPa)
#
#
# Indices 1 2 3 4 5 6 
#
# 1 58.1275 27.4008 24.9108 0.0000 8.2828 0.0000
# 2 27.4008 83.0795 51.3894 0.0000 2.7395 0.0000
# 3 24.9108 51.3894 99.5115 0.0000 8.8427 0.0000
# 4 0.0000 0.0000 0.0000 37.0804 0.0000 6.8725
# 5 8.2828 2.7395 8.8427 0.0000 24.9848 0.0000
# 6 0.0000 0.0000 0.0000 6.8725 0.0000 25.4949
#
#
#
# Elastic Compliance Matrix: (Units=1/GPa)
#
#
# Indices 1 2 3 4 5 6 
#
# 1 0.021560 -0.005732 -0.001918 0.000000 -0.005840 0.000000
# 2 -0.005732 0.019253 -0.008765 0.000000 0.002891 0.000000
# 3 -0.001918 -0.008765 0.015398 0.000000 -0.003853 0.000000
# 4 0.000000 0.000000 0.000000 0.028387 0.000000 -0.007652
# 5 -0.005840 0.002891 -0.003853 0.000000 0.043007 0.000000
# 6 0.000000 0.000000 0.000000 -0.007652 0.000000 0.041286
#
#
# Mechanical properties :
#
#
# Convention : Reuss Voigt Hill
#
# Bulk Modulus (GPa) = 42.76869 49.79116 46.27992
# Shear Modulus (GPa) = 23.86477 26.64649 25.25563
#
# Velocity S-wave (km/s) = 3.63255 3.83842 3.73690
# Velocity P-wave (km/s) = 6.42197 6.86843 6.64895
#
# Compressibility (1/GPa) = 0.02338159
#
# Stress axis : x y z
#
# Youngs Moduli (GPa) = 46.38303 51.93937 64.94376
#
# Poissons Ratio (x) = 0.29769 0.12457
# Poissons Ratio (y) = 0.26585 0.56922
# Poissons Ratio (z) = 0.08897 0.45524
#
# Static dielectric constant tensor:
#      x y z
#    x 3.191260 0.000000 0.094550 
#    y 0.000000 3.427030 0.000000 
#    z 0.094550 0.000000 3.277270 
# 
# 
# High freq. dielectric constant tensor:
#      x y z
#    x 1.690230 0.000000 0.013960 
#    y 0.000000 1.710270 0.000000 
#    z 0.013960 0.000000 1.697590 
# 
# From -- ./inp_files/206656.got.cif
#   From: 2010.06.25/outbox.cif.g09.slc.cpg/sg12_104_cif.got.tgz:206656.got - 2010.06.28 00:19:55.
