data_PCOD8092892
_publ_section_title
;
Structure prediction by ZEFSAII (Michael W. Deem and Ramdas Pophale) SiO2 
 PCOD8092892
Probable space group: C 2/M
;
_chemical_formula_sum "Si O2"
_cell_formula_units_Z 64
_cell_length_a 20.741655
_cell_length_b 8.675431
_cell_length_c 19.307586
_cell_angle_alpha 90.000000
_cell_angle_beta 90.115001
_cell_angle_gamma 90.000000
_cell_volume 3474.254026
_symmetry_space_group_name_H-M "C 2/M"
_symmetry_group_IT_number 12
_symmetry_cell_setting 'monoclinic'
loop_
_space_group_symop_operation_xyz
x,y,z
-x,y,-z
-x,-y,-z
x,-y,z
1/2+x,1/2+y,z
1/2-x,1/2+y,-z
1/2-x,1/2-y,-z
1/2+x,1/2-y,z
loop_
_atom_site_type_symbol
_atom_site_label
_atom_site_fract_x
_atom_site_fract_y
_atom_site_fract_z
Si Si1 0.370566 0.818024 0.673839
Si Si2 0.313531 0.818233 0.967048
Si Si3 0.060141 0.318695 0.547824
Si Si4 0.686505 0.819356 0.467790
Si Si5 0.366523 0.818371 0.826000
Si Si6 0.509102 0.319329 0.681154
Si Si7 0.987384 0.317825 0.174664
Si Si8 0.935740 0.180570 0.040742
O O1 0.320697 0.771129 0.613248
O O2 0.341132 0.770525 0.749139
O O3 0.437196 0.731245 0.660481
O O4 0.386408 0.000000 0.671567
O O5 0.321634 0.753568 0.887875
O O6 0.306469 0.000000 0.967102
O O7 0.250000 0.750000 0.000000
O O8 0.375771 0.772657 0.010590
O O9 0.060957 0.500000 0.563638
O O10 0.124483 0.261064 0.509680
O O11 0.056819 0.225253 0.619197
O O12 0.000000 0.274082 0.500000
O O13 0.750000 0.750000 0.500000
O O14 0.692039 0.000000 0.474113
O O15 0.439383 0.757855 0.836012
O O16 0.368406 0.000000 0.832280
O O17 0.511411 0.500000 0.695692
O O18 0.534748 0.229230 0.748651
O O19 0.980559 0.500000 0.164159
O O20 0.942356 0.228963 0.120521
O O21 0.922067 0.000000 0.034339
O O22 0.000000 0.230309 0.000000
#
# Coordination Sequence:
#
# PCOD8092892 Si02
#       8
#     8   8   8   8   8   8   8   8
#     4   9  17  35  57  79 105 146 189 227 277 341
#     4  11  22  38  57  83 115 154 197 238 287 345
#     4  10  19  36  58  79 107 148 192 227 270 336
#     4  10  21  36  57  81 111 146 187 234 282 336
#     4   8  16  31  56  81 104 138 189 234 275 334
#     4  11  21  32  52  86 118 144 180 238 292 330
#     4  10  19  35  58  83 112 150 191 232 281 345
#     4  11  22  36  57  87 119 147 185 239 289 338
#
# _framework density 18.421220999999999
#
# number of rings (size 3 to 8) (size 9 to 14) (size 15 to 20)
#    0.000    2.000    2.500    3.000    0.000    1.750 
#    0.000    1.875    0.000    4.500    0.000    0.000 
#    0.000    0.000    0.000    0.000    0.000    0.000 
#
# Total GULP energy -396764.579111 kJ/mol
# GULP energy per Si atom -12398.893097 kJ/mol
# Density = 1.837929 g / cm^3
# Si number density = 18.421221 Si / 1000 Ang^3
#
#
#
# Elastic Constant Matrix: (Units=GPa)
#
#
# Indices 1 2 3 4 5 6 
#
# 1 108.6512 24.0341 73.0675 0.0000 -3.6228 0.0000
# 2 24.0341 45.9797 28.9409 0.0000 -4.1878 0.0000
# 3 73.0675 28.9409 167.8496 0.0000 -4.3547 0.0000
# 4 0.0000 0.0000 0.0000 26.9048 0.0000 1.3242
# 5 -3.6228 -4.1878 -4.3547 0.0000 27.7679 0.0000
# 6 0.0000 0.0000 0.0000 1.3242 0.0000 28.2377
#
#
#
# Elastic Compliance Matrix: (Units=1/GPa)
#
#
# Indices 1 2 3 4 5 6 
#
# 1 0.013581 -0.003757 -0.005254 0.000000 0.000381 0.000000
# 2 -0.003757 0.025693 -0.002718 0.000000 0.002958 0.000000
# 3 -0.005254 -0.002718 0.008721 0.000000 0.000272 0.000000
# 4 0.000000 0.000000 0.000000 0.037254 0.000000 -0.001747
# 5 0.000381 0.002958 0.000272 0.000000 0.036551 0.000000
# 6 0.000000 0.000000 0.000000 -0.001747 0.000000 0.035496
#
#
# Mechanical properties :
#
#
# Convention : Reuss Voigt Hill
#
# Bulk Modulus (GPa) = 40.75617 63.84063 52.29840
# Shear Modulus (GPa) = 26.46449 29.67794 28.07121
#
# Velocity S-wave (km/s) = 3.79440 4.01817 3.90789
# Velocity P-wave (km/s) = 6.43189 7.50059 6.98671
#
# Compressibility (1/GPa) = 0.02453616
#
# Stress axis : x y z
#
# Youngs Moduli (GPa) = 73.63177 38.92167 114.66995
#
# Poissons Ratio (x) = 0.14623 0.60252
# Poissons Ratio (y) = 0.27664 0.31164
# Poissons Ratio (z) = 0.38689 0.10578
#
# Static dielectric constant tensor:
#      x y z
#    x 2.999370 0.000000 -0.161960 
#    y 0.000000 3.242440 0.000000 
#    z -0.161960 0.000000 3.857510 
# 
# 
# High freq. dielectric constant tensor:
#      x y z
#    x 1.682220 0.000000 -0.001090 
#    y 0.000000 1.704090 0.000000 
#    z -0.001090 0.000000 1.736520 
# 
# From -- ./inp_files/281246.got.cif
#   From: 2010.06.25/outbox.cif.g09.slc.cpg/sg12_141_cif.got.tgz:281246.got - 2010.06.28 00:19:55.
