data_PCOD8092496
_publ_section_title
;
Structure prediction by ZEFSAII (Michael W. Deem and Ramdas Pophale) SiO2 
 PCOD8092496
Probable space group: C 2/M
;
_chemical_formula_sum "Si O2"
_cell_formula_units_Z 56
_cell_length_a 27.182495
_cell_length_b 22.463759
_cell_length_c 5.216820
_cell_angle_alpha 90.000000
_cell_angle_beta 66.981925
_cell_angle_gamma 90.000000
_cell_volume 2931.875347
_symmetry_space_group_name_H-M "C 2/M"
_symmetry_group_IT_number 12
_symmetry_cell_setting 'monoclinic'
loop_
_space_group_symop_operation_xyz
x,y,z
-x,y,-z
-x,-y,-z
x,-y,z
1/2+x,1/2+y,z
1/2-x,1/2+y,-z
1/2-x,1/2-y,-z
1/2+x,1/2-y,z
loop_
_atom_site_type_symbol
_atom_site_label
_atom_site_fract_x
_atom_site_fract_y
_atom_site_fract_z
Si Si1 0.615344 0.347940 0.698086
Si Si2 0.318819 0.432753 0.713193
Si Si3 0.319368 0.860407 0.638084
Si Si4 0.700981 0.932154 0.811975
Si Si5 0.621846 0.247573 0.305801
Si Si6 0.466426 0.707128 0.820472
Si Si7 0.796933 0.174211 0.118344
O O1 0.627718 0.412592 0.550920
O O2 0.595285 0.297942 0.539930
O O3 0.569631 0.350371 0.012532
O O4 0.673419 0.323917 0.670040
O O5 0.327299 0.500000 0.794243
O O6 0.265253 0.428641 0.647078
O O7 0.312017 0.390002 0.969114
O O8 0.327641 0.896923 0.359966
O O9 0.369392 0.815810 0.574770
O O10 0.316611 0.905202 0.881221
O O11 0.266317 0.819682 0.721526
O O12 0.681123 0.000000 0.843744
O O13 0.577143 0.241665 0.170003
O O14 0.679780 0.270442 0.090827
O O15 0.500000 0.688454 0.500000
O O16 0.500000 0.729785 0.000000
#
# Coordination Sequence:
#
# PCOD8092496 Si02
#       7
#     8   8   8   8   8   8   8
#     4  10  19  35  55  81 108 142 191 225 280 330
#     4   9  18  33  51  76 109 152 201 232 255 311
#     4  11  21  34  54  79 118 151 184 224 262 321
#     4  10  21  35  52  77 115 160 193 219 257 306
#     4  10  22  34  56  84 110 142 184 223 285 338
#     4  11  22  39  59  78 108 143 176 232 293 345
#     4   9  19  32  47  81 114 151 181 223 274 320
#
# _framework density 19.100401999999999
#
# number of rings (size 3 to 8) (size 9 to 14) (size 15 to 20)
#    0.000    2.000    2.857    0.857    4.000    1.714 
#    0.000    0.000    0.000    0.857    0.000    0.000 
#    0.000   11.429    0.000    0.000    0.000    0.000 
#
# Total GULP energy -346906.883437 kJ/mol
# GULP energy per Si atom -12389.531551 kJ/mol
# Density = 1.905693 g / cm^3
# Si number density = 19.100402 Si / 1000 Ang^3
#
#
#
# Elastic Constant Matrix: (Units=GPa)
#
#
# Indices 1 2 3 4 5 6 
#
# 1 79.4888 32.1587 16.2344 0.0000 19.1193 0.0000
# 2 32.1587 73.2242 -1.0389 0.0000 11.1792 0.0000
# 3 16.2344 -1.0389 51.2333 0.0000 13.2446 0.0000
# 4 0.0000 0.0000 0.0000 15.5657 0.0000 7.0399
# 5 19.1193 11.1792 13.2446 0.0000 32.9895 0.0000
# 6 0.0000 0.0000 0.0000 7.0399 0.0000 14.9581
#
#
#
# Elastic Compliance Matrix: (Units=1/GPa)
#
#
# Indices 1 2 3 4 5 6 
#
# 1 0.017718 -0.006882 -0.004131 0.000000 -0.006278 0.000000
# 2 -0.006882 0.017214 0.003355 0.000000 -0.003192 0.000000
# 3 -0.004131 0.003355 0.022953 0.000000 -0.007958 0.000000
# 4 0.000000 0.000000 0.000000 0.081616 0.000000 -0.038412
# 5 -0.006278 -0.003192 -0.007958 0.000000 0.038228 0.000000
# 6 0.000000 0.000000 0.000000 -0.038412 0.000000 0.084932
#
#
# Mechanical properties :
#
#
# Convention : Reuss Voigt Hill
#
# Bulk Modulus (GPa) = 23.49102 33.18383 28.33743
# Shear Modulus (GPa) = 17.11356 23.14214 20.12785
#
# Velocity S-wave (km/s) = 2.99654 3.48459 3.24974
# Velocity P-wave (km/s) = 4.92927 5.79663 5.38046
#
# Compressibility (1/GPa) = 0.04256945
#
# Stress axis : x y z
#
# Youngs Moduli (GPa) = 56.43894 58.09264 43.56769
#
# Poissons Ratio (x) = 0.39977 0.17997
# Poissons Ratio (y) = 0.38839 -0.14616
# Poissons Ratio (z) = 0.23315 -0.19489
#
# Static dielectric constant tensor:
#      x y z
#    x 3.507490 0.000000 0.196600 
#    y 0.000000 3.246500 0.000000 
#    z 0.196600 0.000000 3.529540 
# 
# 
# High freq. dielectric constant tensor:
#      x y z
#    x 1.724870 0.000000 0.024140 
#    y 0.000000 1.706560 0.000000 
#    z 0.024140 0.000000 1.746960 
# 
# From -- ./inp_files/25413.got.cif
#   From: 2010.06.25/outbox.cif.g09.slc.cpg/sg12_13_cif.got.tgz:25413.got - 2010.06.28 00:19:55.
