data_PCOD8092599
_publ_section_title
;
Structure prediction by ZEFSAII (Michael W. Deem and Ramdas Pophale) SiO2 
 PCOD8092599
Probable space group: C 2/M
;
_chemical_formula_sum "Si O2"
_cell_formula_units_Z 64
_cell_length_a 12.473001
_cell_length_b 28.563096
_cell_length_c 9.616888
_cell_angle_alpha 90.000000
_cell_angle_beta 91.995129
_cell_angle_gamma 90.000000
_cell_volume 3424.107899
_symmetry_space_group_name_H-M "C 2/M"
_symmetry_group_IT_number 12
_symmetry_cell_setting 'monoclinic'
loop_
_space_group_symop_operation_xyz
x,y,z
-x,y,-z
-x,-y,-z
x,-y,z
1/2+x,1/2+y,z
1/2-x,1/2+y,-z
1/2-x,1/2-y,-z
1/2+x,1/2-y,z
loop_
_atom_site_type_symbol
_atom_site_label
_atom_site_fract_x
_atom_site_fract_y
_atom_site_fract_z
Si Si1 0.791821 0.203170 0.831871
Si Si2 0.603431 0.419091 0.357983
Si Si3 0.994954 0.553755 0.834504
Si Si4 0.711525 0.898209 0.829735
Si Si5 0.479816 0.314756 0.652322
Si Si6 0.284597 0.893903 0.848018
Si Si7 0.183019 0.199928 0.852460
Si Si8 0.873668 0.051397 0.338747
O O1 0.719836 0.157209 0.795359
O O2 0.884534 0.212870 0.724024
O O3 0.715460 0.247604 0.817184
O O4 0.847541 0.197685 0.985551
O O5 0.692876 0.425386 0.243834
O O6 0.557703 0.367360 0.368108
O O7 0.655930 0.432634 0.506951
O O8 0.501750 0.451615 0.319600
O O9 0.988707 0.500000 0.779514
O O10 0.097859 0.580428 0.774108
O O11 0.890853 0.583844 0.782867
O O12 0.000000 0.554108 0.000000
O O13 0.723908 0.908636 0.992395
O O14 0.500000 0.292657 0.500000
O O15 0.584287 0.313668 0.752142
O O16 0.280506 0.837242 0.831315
O O17 0.178537 0.913322 0.771504
O O18 0.825367 0.000000 0.310936
#
# Coordination Sequence:
#
# PCOD8092599 Si02
#       8
#     8   8   8   8   8   8   8   8
#     4   9  21  34  55  84 107 144 182 233 279 339
#     4  10  19  36  53  78 107 146 178 221 282 332
#     4   9  18  33  52  75 106 142 178 223 277 325
#     4   9  20  35  57  79 108 139 187 231 276 331
#     4  11  19  34  56  78 109 145 181 224 280 336
#     4  10  19  35  56  81 106 144 183 232 276 332
#     4  10  19  36  55  80 113 141 184 227 287 333
#     4  11  21  35  54  79 109 144 183 224 275 337
#
# _framework density 18.690999999999999
#
# number of rings (size 3 to 8) (size 9 to 14) (size 15 to 20)
#    0.000    2.125    2.500    1.500    0.000    3.500 
#    0.000    5.000    0.000    1.500    0.000    0.000 
#    0.000    0.000    0.000    0.000    0.000    0.000 
#
# Total GULP energy -396702.569831 kJ/mol
# GULP energy per Si atom -12396.955307 kJ/mol
# Density = 1.864846 g / cm^3
# Si number density = 18.691000 Si / 1000 Ang^3
#
#
#
# Elastic Constant Matrix: (Units=GPa)
#
#
# Indices 1 2 3 4 5 6 
#
# 1 110.4855 42.5005 49.5959 0.0000 -17.7442 0.0000
# 2 42.5005 97.8461 31.7367 0.0000 -4.4982 0.0000
# 3 49.5959 31.7367 67.0020 0.0000 -14.4039 0.0000
# 4 0.0000 0.0000 0.0000 18.4450 0.0000 5.6619
# 5 -17.7442 -4.4982 -14.4039 0.0000 21.2412 0.0000
# 6 0.0000 0.0000 0.0000 5.6619 0.0000 1.1773
#
#
#
# Elastic Compliance Matrix: (Units=1/GPa)
#
#
# Indices 1 2 3 4 5 6 
#
# 1 0.015105 -0.003646 -0.008086 0.000000 0.006363 0.000000
# 2 -0.003646 0.012999 -0.004122 0.000000 -0.003088 0.000000
# 3 -0.008086 -0.004122 0.024845 0.000000 0.009220 0.000000
# 4 0.000000 0.000000 0.000000 -0.113824 0.000000 0.547422
# 5 0.006363 -0.003088 0.009220 0.000000 0.057992 0.000000
# 6 0.000000 0.000000 0.000000 0.547422 0.000000 -1.783344
#
#
# Mechanical properties :
#
#
# Convention : Reuss Voigt Hill
#
# Bulk Modulus (GPa) = 47.08033 58.11109 52.59571
# Shear Modulus (GPa) = -2.86133 18.27272 7.70570
#
# Velocity S-wave (km/s) = -1.23862 3.13009 2.03264
# Velocity P-wave (km/s) = 4.81642 6.64990 5.80599
#
# Compressibility (1/GPa) = 0.02124029
#
# Stress axis : x y z
#
# Youngs Moduli (GPa) = 66.20268 76.92990 40.24923
#
# Poissons Ratio (x) = 0.28047 0.32547
# Poissons Ratio (y) = 0.24136 0.16592
# Poissons Ratio (z) = 0.53533 0.31714
#
# Static dielectric constant tensor:
#      x y z
#    x 3.536740 0.000000 -0.184120 
#    y 0.000000 3.489050 0.000000 
#    z -0.184120 0.000000 3.429520 
# 
# 
# High freq. dielectric constant tensor:
#      x y z
#    x 1.717700 0.000000 -0.001900 
#    y 0.000000 1.729800 0.000000 
#    z -0.001900 0.000000 1.710970 
# 
# From -- ./inp_files/54691.got.cif
#   From: 2010.06.25/outbox.cif.g09.slc.cpg/sg12_28_cif.got.tgz:54691.got - 2010.06.28 00:19:55.
