data_PCOD8092440
_publ_section_title
;
Structure prediction by ZEFSAII (Michael W. Deem and Ramdas Pophale) SiO2 
 PCOD8092440
Probable space group: C 2/M
;
_chemical_formula_sum "Si O2"
_cell_formula_units_Z 56
_cell_length_a 14.454867
_cell_length_b 9.164188
_cell_length_c 30.192483
_cell_angle_alpha 90.000000
_cell_angle_beta 128.249662
_cell_angle_gamma 90.000000
_cell_volume 3140.898491
_symmetry_space_group_name_H-M "C 2/M"
_symmetry_group_IT_number 12
_symmetry_cell_setting 'monoclinic'
loop_
_space_group_symop_operation_xyz
x,y,z
-x,y,-z
-x,-y,-z
x,-y,z
1/2+x,1/2+y,z
1/2-x,1/2+y,-z
1/2-x,1/2-y,-z
1/2+x,1/2-y,z
loop_
_atom_site_type_symbol
_atom_site_label
_atom_site_fract_x
_atom_site_fract_y
_atom_site_fract_z
Si Si1 0.065711 0.670386 0.563271
Si Si2 0.665121 0.670771 0.345550
Si Si3 0.707410 0.172314 0.943333
Si Si4 0.117636 0.667610 0.063204
Si Si5 0.556024 0.827709 0.142284
Si Si6 0.703812 0.828135 0.268269
Si Si7 0.527710 0.328915 0.640503
O O1 0.044967 0.500000 0.564721
O O2 0.203822 0.706859 0.598149
O O3 0.006995 0.751102 0.587500
O O4 0.000000 0.726683 0.500000
O O5 0.648083 0.500000 0.331669
O O6 0.644962 0.753199 0.293425
O O7 0.569172 0.727014 0.352838
O O8 0.786817 0.220877 0.926330
O O9 0.577398 0.225646 0.891631
O O10 0.713120 0.000000 0.953123
O O11 0.750000 0.250000 0.000000
O O12 0.161907 0.500000 0.074477
O O13 0.100033 0.724771 0.107622
O O14 0.000000 0.683217 0.000000
O O15 0.637645 0.763728 0.205517
O O16 0.561949 0.000000 0.145874
O O17 0.841620 0.789204 0.303408
O O18 0.685247 0.000000 0.268143
O O19 0.512952 0.500000 0.628174
#
# Coordination Sequence:
#
# PCOD8092440 Si02
#       7
#     8   8   8   8   8   8   8
#     4   9  18  32  49  72 104 138 168 200 246 299
#     4   9  18  33  51  73 102 132 164 211 255 287
#     4  11  21  35  53  75 100 130 165 203 247 300
#     4  10  19  35  55  75 100 133 164 199 252 306
#     4   9  19  35  53  72 101 133 162 201 254 307
#     4   9  18  34  53  72  95 130 170 205 247 302
#     4   9  18  32  51  73  98 130 168 209 250 290
#
# _framework density 17.829293
#
# number of rings (size 3 to 8) (size 9 to 14) (size 15 to 20)
#    0.000    2.571    1.429    0.429    0.000    2.857 
#    0.000    3.571    0.000    0.000    0.000    0.000 
#    0.000    0.000    0.000    0.000    0.000    0.000 
#
# Total GULP energy -347189.520162 kJ/mol
# GULP energy per Si atom -12399.625720 kJ/mol
# Density = 1.778871 g / cm^3
# Si number density = 17.829293 Si / 1000 Ang^3
#
#
#
# Elastic Constant Matrix: (Units=GPa)
#
#
# Indices 1 2 3 4 5 6 
#
# 1 157.8504 40.7631 78.0418 0.0000 -15.6612 0.0000
# 2 40.7631 38.7679 39.1994 0.0000 -4.6823 0.0000
# 3 78.0418 39.1994 162.2043 0.0000 -18.7131 0.0000
# 4 0.0000 0.0000 0.0000 19.3413 0.0000 -3.7437
# 5 -15.6612 -4.6823 -18.7131 0.0000 23.9746 0.0000
# 6 0.0000 0.0000 0.0000 -3.7437 0.0000 31.1824
#
#
#
# Elastic Compliance Matrix: (Units=1/GPa)
#
#
# Indices 1 2 3 4 5 6 
#
# 1 0.009807 -0.007317 -0.002611 0.000000 0.002939 0.000000
# 2 -0.007317 0.039596 -0.006273 0.000000 -0.001942 0.000000
# 3 -0.002611 -0.006273 0.009450 0.000000 0.004445 0.000000
# 4 0.000000 0.000000 0.000000 0.052933 0.000000 0.006355
# 5 0.002939 -0.001942 0.004445 0.000000 0.046721 0.000000
# 6 0.000000 0.000000 0.000000 0.006355 0.000000 0.032832
#
#
# Mechanical properties :
#
#
# Convention : Reuss Voigt Hill
#
# Bulk Modulus (GPa) = 37.80473 74.98127 56.39300
# Shear Modulus (GPa) = 21.50000 28.28754 24.89377
#
# Velocity S-wave (km/s) = 3.47635 3.98751 3.74067
# Velocity P-wave (km/s) = 6.11253 7.95906 7.09612
#
# Compressibility (1/GPa) = 0.02645171
#
# Stress axis : x y z
#
# Youngs Moduli (GPa) = 101.96603 25.25529 105.81759
#
# Poissons Ratio (x) = 0.18478 0.27632
# Poissons Ratio (y) = 0.74604 0.66378
# Poissons Ratio (z) = 0.26626 0.15842
#
# Static dielectric constant tensor:
#      x y z
#    x 3.400330 0.000000 -0.017030 
#    y 0.000000 3.141140 0.000000 
#    z -0.017030 0.000000 3.520520 
# 
# 
# High freq. dielectric constant tensor:
#      x y z
#    x 1.696880 0.000000 -0.002480 
#    y 0.000000 1.671630 0.000000 
#    z -0.002480 0.000000 1.692930 
# 
# From -- ./inp_files/337878.got.cif
#   From: 2010.06.25/outbox.cif.g09.slc.cpg/sg12_169_cif.got.tgz:337878.got - 2010.06.28 00:19:55.
