data_PCOD8092451
_publ_section_title
;
Structure prediction by ZEFSAII (Michael W. Deem and Ramdas Pophale) SiO2 
 PCOD8092451
Probable space group: C 2/M
;
_chemical_formula_sum "Si O2"
_cell_formula_units_Z 64
_cell_length_a 29.979130
_cell_length_b 8.813574
_cell_length_c 15.039274
_cell_angle_alpha 90.000000
_cell_angle_beta 120.970814
_cell_angle_gamma 90.000000
_cell_volume 3407.190349
_symmetry_space_group_name_H-M "C 2/M"
_symmetry_group_IT_number 12
_symmetry_cell_setting 'monoclinic'
loop_
_space_group_symop_operation_xyz
x,y,z
-x,y,-z
-x,-y,-z
x,-y,z
1/2+x,1/2+y,z
1/2-x,1/2+y,-z
1/2-x,1/2-y,-z
1/2+x,1/2-y,z
loop_
_atom_site_type_symbol
_atom_site_label
_atom_site_fract_x
_atom_site_fract_y
_atom_site_fract_z
Si Si1 0.471036 0.179669 0.227355
Si Si2 0.117217 0.321004 0.995082
Si Si3 0.775972 0.821312 0.941810
Si Si4 0.632270 0.323611 0.549822
Si Si5 0.445515 0.822230 0.397393
Si Si6 0.912966 0.319286 0.670595
Si Si7 0.254864 0.676786 0.266294
Si Si8 0.855414 0.322035 0.782906
O O1 0.434592 0.233699 0.108895
O O2 0.448309 0.235498 0.298495
O O3 0.528486 0.247183 0.270173
O O4 0.474969 0.000000 0.234595
O O5 0.126523 0.500000 0.992818
O O6 0.164996 0.234412 0.000553
O O7 0.113104 0.277445 0.095146
O O8 0.743113 0.770055 0.822568
O O9 0.774512 0.000000 0.947894
O O10 0.750000 0.750000 0.000000
O O11 0.621327 0.500000 0.522855
O O12 0.600564 0.269724 0.603387
O O13 0.616292 0.229665 0.447774
O O14 0.693244 0.290701 0.625600
O O15 0.500000 0.784743 0.500000
O O16 0.432781 0.000000 0.391303
O O17 0.914004 0.500000 0.674532
O O18 0.883363 0.248071 0.725906
O O19 0.248717 0.500000 0.235332
O O20 0.204709 0.731842 0.272030
O O21 0.857065 0.500000 0.770821
#
# Coordination Sequence:
#
# PCOD8092451 Si02
#       8
#     8   8   8   8   8   8   8   8
#     4   9  18  32  54  82 110 142 181 224 267 316
#     4   9  18  35  55  80 112 144 178 222 272 321
#     4  11  22  36  55  80 108 142 182 223 268 322
#     4  11  23  36  53  80 112 145 180 225 276 326
#     4  10  19  35  55  76 108 145 180 226 270 318
#     4  10  19  35  57  81 107 143 188 226 267 322
#     4   9  20  39  56  78 111 142 178 225 274 320
#     4   8  16  33  58  80 106 141 179 229 275 313
#
# _framework density 18.783805999999998
#
# number of rings (size 3 to 8) (size 9 to 14) (size 15 to 20)
#    0.000    2.375    1.250    2.250    1.750    2.250 
#    0.000    5.625    0.000    0.000    0.000    4.375 
#    0.000    0.000    0.000    0.000    0.000    0.000 
#
# Total GULP energy -396780.083671 kJ/mol
# GULP energy per Si atom -12399.377615 kJ/mol
# Density = 1.874105 g / cm^3
# Si number density = 18.783806 Si / 1000 Ang^3
#
#
#
# Elastic Constant Matrix: (Units=GPa)
#
#
# Indices 1 2 3 4 5 6 
#
# 1 117.9145 28.8580 80.9961 0.0000 -22.8402 0.0000
# 2 28.8580 46.4936 25.7442 0.0000 0.9136 0.0000
# 3 80.9961 25.7442 125.6445 0.0000 3.4027 0.0000
# 4 0.0000 0.0000 0.0000 18.6556 0.0000 1.8814
# 5 -22.8402 0.9136 3.4027 0.0000 34.1885 0.0000
# 6 0.0000 0.0000 0.0000 1.8814 0.0000 20.6321
#
#
#
# Elastic Compliance Matrix: (Units=1/GPa)
#
#
# Indices 1 2 3 4 5 6 
#
# 1 0.022948 -0.006915 -0.013834 0.000000 0.016892 0.000000
# 2 -0.006915 0.026346 -0.000798 0.000000 -0.005244 0.000000
# 3 -0.013834 -0.000798 0.017337 0.000000 -0.010946 0.000000
# 4 0.000000 0.000000 0.000000 0.054101 0.000000 -0.004933
# 5 0.016892 -0.005244 -0.010946 0.000000 0.041764 0.000000
# 6 0.000000 0.000000 0.000000 -0.004933 0.000000 0.048918
#
#
# Mechanical properties :
#
#
# Convention : Reuss Voigt Hill
#
# Bulk Modulus (GPa) = 42.48865 62.36101 52.42483
# Shear Modulus (GPa) = 19.05836 24.99218 22.02527
#
# Velocity S-wave (km/s) = 3.18876 3.65158 3.42799
# Velocity P-wave (km/s) = 6.01885 7.14494 6.60593
#
# Compressibility (1/GPa) = 0.02353570
#
# Stress axis : x y z
#
# Youngs Moduli (GPa) = 43.57770 37.95704 57.68115
#
# Poissons Ratio (x) = 0.26248 0.79794
# Poissons Ratio (y) = 0.30135 0.04604
# Poissons Ratio (z) = 0.60283 0.03030
#
# Static dielectric constant tensor:
#      x y z
#    x 3.689860 0.000000 0.010520 
#    y 0.000000 3.146910 0.000000 
#    z 0.010520 0.000000 3.381600 
# 
# 
# High freq. dielectric constant tensor:
#      x y z
#    x 1.737800 0.000000 -0.000490 
#    y 0.000000 1.697120 0.000000 
#    z -0.000490 0.000000 1.737180 
# 
# From -- ./inp_files/249116.got.cif
#   From: 2010.06.25/outbox.cif.g09.slc.cpg/sg12_125_cif.got.tgz:249116.got - 2010.06.28 00:19:55.
