data_PCOD8092101
_publ_section_title
;
Structure prediction by ZEFSAII (Michael W. Deem and Ramdas Pophale) SiO2 
 PCOD8092101
Probable space group: C 2/M
;
_chemical_formula_sum "Si O2"
_cell_formula_units_Z 40
_cell_length_a 21.961123
_cell_length_b 13.534695
_cell_length_c 8.780954
_cell_angle_alpha 90.000000
_cell_angle_beta 54.461856
_cell_angle_gamma 90.000000
_cell_volume 2123.852617
_symmetry_space_group_name_H-M "C 2/M"
_symmetry_group_IT_number 12
_symmetry_cell_setting 'monoclinic'
loop_
_space_group_symop_operation_xyz
x,y,z
-x,y,-z
-x,-y,-z
x,-y,z
1/2+x,1/2+y,z
1/2-x,1/2+y,-z
1/2-x,1/2-y,-z
1/2+x,1/2-y,z
loop_
_atom_site_type_symbol
_atom_site_label
_atom_site_fract_x
_atom_site_fract_y
_atom_site_fract_z
Si Si1 0.041257 0.000000 0.688904
Si Si2 0.373834 0.000000 0.187217
Si Si3 0.625322 0.500000 0.114859
Si Si4 0.755403 0.847478 0.584108
Si Si5 0.615992 0.339730 0.374314
Si Si6 0.336443 0.500000 0.267652
Si Si7 0.501436 0.000000 0.249181
Si Si8 0.500000 0.831333 0.500000
O O1 0.061704 0.096497 0.560290
O O2 0.077247 0.000000 0.803790
O O3 0.954865 0.000000 0.846294
O O4 0.322386 0.098603 0.258548
O O5 0.424898 0.000000 0.263780
O O6 0.425562 0.000000 0.963207
O O7 0.636438 0.399881 0.192595
O O8 0.679371 0.500000 0.889977
O O9 0.750000 0.750000 0.500000
O O10 0.803416 0.825475 0.665259
O O11 0.799425 0.906719 0.395006
O O12 0.574817 0.236356 0.397367
O O13 0.503417 0.900469 0.346360
#
# Coordination Sequence:
#
# PCOD8092101 Si02
#       8
#     4   4   4   8   8   4   4   4
#     4   9  16  33  52  81 114 150 167 218 289 335
#     4  10  21  45  59  81 112 148 202 235 277 338
#     4  11  17  32  53  90 115 139 173 227 290 331
#     4  10  21  40  60  78 111 156 190 231 286 339
#     4  10  19  34  59  84 117 148 181 233 288 344
#     4   9  21  32  53  82 114 142 187 223 269 342
#     4  10  24  38  63  80 110 157 193 242 271 325
#     4  11  20  39  56  90 116 145 194 231 288 336
#
# _framework density 18.833697999999998
#
# number of rings (size 3 to 8) (size 9 to 14) (size 15 to 20)
#    0.000    2.000    2.000    3.900    0.000    1.600 
#    0.000   16.000    0.000    0.000    0.000    0.000 
#    0.000    0.000    0.000    0.000    0.000    0.000 
#
# Total GULP energy -247845.617917 kJ/mol
# GULP energy per Si atom -12392.280896 kJ/mol
# Density = 1.879083 g / cm^3
# Si number density = 18.833698 Si / 1000 Ang^3
#
#
#
# Elastic Constant Matrix: (Units=GPa)
#
#
# Indices 1 2 3 4 5 6 
#
# 1 153.9227 78.0798 71.4239 0.0000 2.8101 0.0000
# 2 78.0798 140.5232 41.3154 0.0000 12.0346 0.0000
# 3 71.4239 41.3154 98.2202 0.0000 22.6902 0.0000
# 4 0.0000 0.0000 0.0000 109.9389 0.0000 -58.1553
# 5 2.8101 12.0346 22.6902 0.0000 32.1001 0.0000
# 6 0.0000 0.0000 0.0000 -58.1553 0.0000 69.0170
#
#
#
# Elastic Compliance Matrix: (Units=1/GPa)
#
#
# Indices 1 2 3 4 5 6 
#
# 1 0.013293 -0.005332 -0.009103 0.000000 0.007270 0.000000
# 2 -0.005332 0.010275 0.000403 0.000000 -0.003670 0.000000
# 3 -0.009103 0.000403 0.019698 0.000000 -0.013278 0.000000
# 4 0.000000 0.000000 0.000000 0.016411 0.000000 0.013828
# 5 0.007270 -0.003670 -0.013278 0.000000 0.041278 0.000000
# 6 0.000000 0.000000 0.000000 0.013828 0.000000 0.026141
#
#
# Mechanical properties :
#
#
# Convention : Reuss Voigt Hill
#
# Bulk Modulus (GPa) = 65.77726 86.03382 75.90554
# Shear Modulus (GPa) = 31.20586 55.66767 43.43676
#
# Velocity S-wave (km/s) = 4.07494 5.44258 4.80764
# Velocity P-wave (km/s) = 7.55919 9.23447 8.43851
#
# Compressibility (1/GPa) = 0.01520282
#
# Stress axis : x y z
#
# Youngs Moduli (GPa) = 75.22859 97.32563 50.76580
#
# Poissons Ratio (x) = 0.51897 0.46211
# Poissons Ratio (y) = 0.40114 -0.02048
# Poissons Ratio (z) = 0.68479 -0.03927
#
# Static dielectric constant tensor:
#      x y z
#    x 3.695490 0.000000 -0.023440 
#    y 0.000000 3.449710 0.000000 
#    z -0.023440 0.000000 3.153140 
# 
# 
# High freq. dielectric constant tensor:
#      x y z
#    x 1.748520 0.000000 0.009680 
#    y 0.000000 1.735210 0.000000 
#    z 0.009680 0.000000 1.719380 
# 
# From -- ./inp_files/84997.got.cif
#   From: 2010.06.25/outbox.cif.g09.slc.cpg/sg12_43_cif.got.tgz:84997.got - 2010.06.28 00:19:55.
