data_PCOD8092663
_publ_section_title
;
Structure prediction by ZEFSAII (Michael W. Deem and Ramdas Pophale) SiO2 
 PCOD8092663
Probable space group: C 2/M
;
_chemical_formula_sum "Si O2"
_cell_formula_units_Z 64
_cell_length_a 20.741517
_cell_length_b 9.244644
_cell_length_c 23.599758
_cell_angle_alpha 90.000000
_cell_angle_beta 132.724375
_cell_angle_gamma 90.000000
_cell_volume 3324.333351
_symmetry_space_group_name_H-M "C 2/M"
_symmetry_group_IT_number 12
_symmetry_cell_setting 'monoclinic'
loop_
_space_group_symop_operation_xyz
x,y,z
-x,y,-z
-x,-y,-z
x,-y,z
1/2+x,1/2+y,z
1/2-x,1/2+y,-z
1/2-x,1/2-y,-z
1/2+x,1/2-y,z
loop_
_atom_site_type_symbol
_atom_site_label
_atom_site_fract_x
_atom_site_fract_y
_atom_site_fract_z
Si Si1 0.746538 0.169016 0.136405
Si Si2 0.514665 0.329228 0.166202
Si Si3 0.486032 0.159165 0.355204
Si Si4 0.819432 0.669336 0.703957
Si Si5 0.601255 0.838687 0.817269
Si Si6 0.420307 0.661341 0.994917
Si Si7 0.328217 0.171663 0.577939
Si Si8 0.834418 0.833952 0.307486
O O1 0.806637 0.253999 0.126870
O O2 0.775618 0.204512 0.217695
O O3 0.752768 0.000000 0.126580
O O4 0.648180 0.222262 0.068514
O O5 0.523009 0.500000 0.180616
O O6 0.611569 0.261614 0.218043
O O7 0.470547 0.254199 0.193328
O O8 0.456006 0.290574 0.077148
O O9 0.430936 0.147774 0.265486
O O10 0.581476 0.226479 0.397609
O O11 0.428119 0.251847 0.364847
O O12 0.498487 0.000000 0.389202
O O13 0.841510 0.500000 0.724833
O O14 0.824980 0.716636 0.641865
O O15 0.722525 0.704729 0.670736
O O16 0.612047 0.000000 0.850037
O O17 0.378316 0.500000 0.972719
O O18 0.500000 0.659897 0.000000
O O19 0.250000 0.250000 0.500000
O O20 0.318699 0.000000 0.566489
O O21 0.860989 0.000000 0.322378
#
# Coordination Sequence:
#
# PCOD8092663 Si02
#       8
#     8   8   8   8   8   8   8   8
#     4  10  20  34  53  81 110 138 184 235 277 325
#     4  11  22  34  54  82 108 138 185 235 273 320
#     4   9  18  35  57  81 111 146 183 220 268 331
#     4  10  20  38  59  82 114 146 183 226 276 335
#     4  10  19  35  57  78 105 145 182 223 279 330
#     4  10  22  38  52  71 105 147 185 224 278 338
#     4  10  21  38  59  85 113 146 183 221 270 329
#     4   9  19  34  57  85 111 144 185 232 275 320
#
# _framework density 19.25198
#
# number of rings (size 3 to 8) (size 9 to 14) (size 15 to 20)
#    0.000    2.125    1.250    1.875    0.000    4.250 
#    0.000    0.625    0.000    3.750    0.000    0.000 
#    0.000    0.000    0.000    0.000    0.000    0.000 
#
# Total GULP energy -396774.661675 kJ/mol
# GULP energy per Si atom -12399.208177 kJ/mol
# Density = 1.920816 g / cm^3
# Si number density = 19.251980 Si / 1000 Ang^3
#
#
#
# Elastic Constant Matrix: (Units=GPa)
#
#
# Indices 1 2 3 4 5 6 
#
# 1 130.6730 52.0784 37.5713 0.0000 21.3053 0.0000
# 2 52.0784 83.5996 42.4948 0.0000 13.2394 0.0000
# 3 37.5713 42.4948 62.3532 0.0000 20.9360 0.0000
# 4 0.0000 0.0000 0.0000 31.5384 0.0000 9.8846
# 5 21.3053 13.2394 20.9360 0.0000 24.9918 0.0000
# 6 0.0000 0.0000 0.0000 9.8846 0.0000 33.3535
#
#
#
# Elastic Compliance Matrix: (Units=1/GPa)
#
#
# Indices 1 2 3 4 5 6 
#
# 1 0.011049 -0.005460 -0.001037 0.000000 -0.005659 0.000000
# 2 -0.005460 0.021020 -0.012327 0.000000 0.003846 0.000000
# 3 -0.001037 -0.012327 0.031408 0.000000 -0.018897 0.000000
# 4 0.000000 0.000000 0.000000 0.034954 0.000000 -0.010359
# 5 -0.005659 0.003846 -0.018897 0.000000 0.058630 0.000000
# 6 0.000000 0.000000 0.000000 -0.010359 0.000000 0.033052
#
#
# Mechanical properties :
#
#
# Convention : Reuss Voigt Hill
#
# Bulk Modulus (GPa) = 38.71397 60.10166 49.40781
# Shear Modulus (GPa) = 21.15317 27.60880 24.38099
#
# Velocity S-wave (km/s) = 3.31834 3.79103 3.56253
# Velocity P-wave (km/s) = 5.90208 7.10273 6.53006
#
# Compressibility (1/GPa) = 0.02583047
#
# Stress axis : x y z
#
# Youngs Moduli (GPa) = 90.50217 47.57389 31.83875
#
# Poissons Ratio (x) = 0.25976 0.03301
# Poissons Ratio (y) = 0.49415 0.39247
# Poissons Ratio (z) = 0.09384 0.58643
#
# Static dielectric constant tensor:
#      x y z
#    x 3.664280 0.000000 0.180350 
#    y 0.000000 3.672610 0.000000 
#    z 0.180350 0.000000 2.952390 
# 
# 
# High freq. dielectric constant tensor:
#      x y z
#    x 1.760820 0.000000 0.009840 
#    y 0.000000 1.750410 0.000000 
#    z 0.009840 0.000000 1.723360 
# 
# From -- ./inp_files/281331.got.cif
#   From: 2010.06.25/outbox.cif.g09.slc.cpg/sg12_141_cif.got.tgz:281331.got - 2010.06.28 00:19:55.
