data_PCOD8092008
_publ_section_title
;
Structure prediction by ZEFSAII (Michael W. Deem and Ramdas Pophale) SiO2 
 PCOD8092008
Probable space group: C 2/M
;
_chemical_formula_sum "Si O2"
_cell_formula_units_Z 48
_cell_length_a 28.710384
_cell_length_b 8.974345
_cell_length_c 14.793055
_cell_angle_alpha 90.000000
_cell_angle_beta 40.226469
_cell_angle_gamma 90.000000
_cell_volume 2461.527637
_symmetry_space_group_name_H-M "C 2/M"
_symmetry_group_IT_number 12
_symmetry_cell_setting 'monoclinic'
loop_
_space_group_symop_operation_xyz
x,y,z
-x,y,-z
-x,-y,-z
x,-y,z
1/2+x,1/2+y,z
1/2-x,1/2+y,-z
1/2-x,1/2-y,-z
1/2+x,1/2-y,z
loop_
_atom_site_type_symbol
_atom_site_label
_atom_site_fract_x
_atom_site_fract_y
_atom_site_fract_z
Si Si1 0.825966 0.675264 0.582442
Si Si2 0.165036 0.171095 0.771519
Si Si3 0.154584 0.671680 0.085078
Si Si4 0.942999 0.673060 0.936839
Si Si5 0.312045 0.674268 0.788315
Si Si6 0.590633 0.328592 0.696660
O O1 0.835145 0.500000 0.574676
O O2 0.746875 0.722554 0.665828
O O3 0.842485 0.743387 0.655652
O O4 0.885119 0.736534 0.426052
O O5 0.148743 0.191508 0.689990
O O6 0.152861 0.000000 0.820120
O O7 0.114488 0.278598 0.903569
O O8 0.159221 0.500000 0.108017
O O9 0.088255 0.702385 0.116810
O O10 0.142942 0.771175 0.191264
O O11 0.228218 0.717930 0.925051
O O12 0.960437 0.500000 0.925784
O O13 0.014485 0.768420 0.844984
O O14 0.323532 0.500000 0.758440
O O15 0.582240 0.500000 0.681462
#
# Coordination Sequence:
#
# PCOD8092008 Si02
#       6
#     8   8   8   8   8   8
#     4  11  22  38  60  86 116 152 193 237 288 341
#     4  10  22  39  60  85 114 152 196 240 284 336
#     4   9  19  35  56  85 116 147 186 234 283 336
#     4  11  22  38  60  87 118 152 192 236 285 340
#     4  10  19  34  58  87 115 147 187 234 286 339
#     4  11  24  40  57  82 119 156 193 238 287 339
#
# _framework density 19.500084999999999
#
# number of rings (size 3 to 8) (size 9 to 14) (size 15 to 20)
#    0.000    1.667    1.667    3.000    0.000    6.000 
#    0.000    0.833    0.000    5.000    0.000    0.000 
#    0.000    0.000    0.000    0.000    0.000    0.000 
#
# Total GULP energy -297758.236655 kJ/mol
# GULP energy per Si atom -12406.593194 kJ/mol
# Density = 1.945570 g / cm^3
# Si number density = 19.500085 Si / 1000 Ang^3
#
#
#
# Elastic Constant Matrix: (Units=GPa)
#
#
# Indices 1 2 3 4 5 6 
#
# 1 51.4652 31.4281 10.9496 0.0000 13.9446 0.0000
# 2 31.4281 93.0519 38.1522 0.0006 16.4116 -0.0003
# 3 10.9496 38.1522 68.7498 0.0000 13.6358 0.0000
# 4 0.0000 0.0006 0.0000 37.1138 0.0000 4.9589
# 5 13.9446 16.4116 13.6358 0.0000 28.4407 0.0000
# 6 0.0000 -0.0003 0.0000 4.9589 0.0000 32.4729
#
#
#
# Elastic Compliance Matrix: (Units=1/GPa)
#
#
# Indices 1 2 3 4 5 6 
#
# 1 0.026496 -0.008200 0.002176 0.000000 -0.009302 0.000000
# 2 -0.008200 0.017064 -0.007745 0.000000 -0.002113 0.000000
# 3 0.002176 -0.007745 0.019695 0.000000 -0.006040 0.000000
# 4 0.000000 0.000000 0.000000 0.027505 0.000000 -0.004200
# 5 -0.009302 -0.002113 -0.006040 0.000000 0.043837 0.000000
# 6 0.000000 0.000000 0.000000 -0.004200 0.000000 0.031436
#
#
# Mechanical properties :
#
#
# Convention : Reuss Voigt Hill
#
# Bulk Modulus (GPa) = 27.99806 41.59187 34.79496
# Shear Modulus (GPa) = 24.33350 28.45461 26.39406
#
# Velocity S-wave (km/s) = 3.53635 3.82410 3.68303
# Velocity P-wave (km/s) = 5.57346 6.39325 5.99738
#
# Compressibility (1/GPa) = 0.03571676
#
# Stress axis : x y z
#
# Youngs Moduli (GPa) = 37.74171 58.60142 50.77470
#
# Poissons Ratio (x) = 0.48056 -0.11048
# Poissons Ratio (y) = 0.30950 0.39323
# Poissons Ratio (z) = -0.08212 0.45385
#
# Static dielectric constant tensor:
#      x y z
#    x 3.623900 0.000000 0.038580 
#    y 0.000000 3.584810 0.000000 
#    z 0.038580 0.000000 3.319780 
# 
# 
# High freq. dielectric constant tensor:
#      x y z
#    x 1.764320 0.000000 0.011000 
#    y 0.000000 1.768670 0.000000 
#    z 0.011000 0.000000 1.745570 
# 
# From -- ./inp_files/244587.got.cif
#   From: 2010.06.25/outbox.cif.g09.slc.cpg/sg12_123_cif.got.tgz:244587.got - 2010.06.28 00:19:55.
