data_PCOD8092586
_publ_section_title
;
Structure prediction by ZEFSAII (Michael W. Deem and Ramdas Pophale) SiO2 
 PCOD8092586
Probable space group: C 2/M
;
_chemical_formula_sum "Si O2"
_cell_formula_units_Z 56
_cell_length_a 18.746761
_cell_length_b 10.271237
_cell_length_c 17.310426
_cell_angle_alpha 90.000000
_cell_angle_beta 60.882145
_cell_angle_gamma 90.000000
_cell_volume 2911.921259
_symmetry_space_group_name_H-M "C 2/M"
_symmetry_group_IT_number 12
_symmetry_cell_setting 'monoclinic'
loop_
_space_group_symop_operation_xyz
x,y,z
-x,y,-z
-x,-y,-z
x,-y,z
1/2+x,1/2+y,z
1/2-x,1/2+y,-z
1/2-x,1/2-y,-z
1/2+x,1/2-y,z
loop_
_atom_site_type_symbol
_atom_site_label
_atom_site_fract_x
_atom_site_fract_y
_atom_site_fract_z
Si Si1 0.867540 0.850538 0.122750
Si Si2 0.824618 0.640961 0.024775
Si Si3 0.822209 0.350656 0.549884
Si Si4 0.852630 0.222701 0.859551
Si Si5 0.685270 0.147017 0.272185
Si Si6 0.531469 0.353821 0.790634
Si Si7 0.637152 0.650104 0.595927
O O1 0.868257 0.758377 0.047315
O O2 0.782038 0.838936 0.211361
O O3 0.936197 0.793682 0.145429
O O4 0.884759 0.000000 0.086803
O O5 0.859745 0.500000 0.031703
O O6 0.727265 0.633674 0.090160
O O7 0.841827 0.656999 0.924445
O O8 0.851266 0.500000 0.519225
O O9 0.839081 0.307607 0.629195
O O10 0.726400 0.340069 0.585049
O O11 0.871713 0.247580 0.471936
O O12 0.862416 0.269263 0.766267
O O13 0.934162 0.145701 0.837977
O O14 0.657408 0.000000 0.274295
O O15 0.565593 0.500000 0.774592
O O16 0.573196 0.292287 0.692594
O O17 0.617890 0.500000 0.581300
#
# Coordination Sequence:
#
# PCOD8092586 Si02
#       7
#     8   8   8   8   8   8   8
#     4   9  18  34  58  80 102 136 181 222 260 310
#     4  10  21  38  55  78 107 139 177 221 268 316
#     4   9  16  30  54  80 105 136 175 214 255 309
#     4  10  21  34  55  77 106 142 178 217 263 317
#     4   9  16  32  55  77 101 141 184 214 250 313
#     4  10  19  35  56  80 106 138 179 222 263 310
#     4   9  17  31  53  80 108 134 169 218 266 305
#
# _framework density 19.231289
#
# number of rings (size 3 to 8) (size 9 to 14) (size 15 to 20)
#    0.000    2.571    1.429    0.857    0.000    4.571 
#    0.000   10.000    0.000    3.429    0.000    0.000 
#    0.000    0.000    0.000    0.000    0.000    0.000 
#
# Total GULP energy -347041.744098 kJ/mol
# GULP energy per Si atom -12394.348004 kJ/mol
# Density = 1.918752 g / cm^3
# Si number density = 19.231289 Si / 1000 Ang^3
#
#
#
# Elastic Constant Matrix: (Units=GPa)
#
#
# Indices 1 2 3 4 5 6 
#
# 1 80.6955 26.6818 36.1648 0.0000 19.1912 0.0000
# 2 26.6818 98.8677 51.8851 0.0000 22.4225 0.0000
# 3 36.1648 51.8851 103.4973 0.0000 26.8369 0.0000
# 4 0.0000 0.0000 0.0000 10.3265 0.0000 4.5384
# 5 19.1912 22.4225 26.8369 0.0000 31.0794 0.0000
# 6 0.0000 0.0000 0.0000 4.5384 0.0000 18.9426
#
#
#
# Elastic Compliance Matrix: (Units=1/GPa)
#
#
# Indices 1 2 3 4 5 6 
#
# 1 0.015694 -0.001107 -0.003380 0.000000 -0.005974 0.000000
# 2 -0.001107 0.014462 -0.005586 0.000000 -0.004927 0.000000
# 3 -0.003380 -0.005586 0.015536 0.000000 -0.007298 0.000000
# 4 0.000000 0.000000 0.000000 0.108236 0.000000 -0.025932
# 5 -0.005974 -0.004927 -0.007298 0.000000 0.045721 0.000000
# 6 0.000000 0.000000 0.000000 -0.025932 0.000000 0.059004
#
#
# Mechanical properties :
#
#
# Convention : Reuss Voigt Hill
#
# Bulk Modulus (GPa) = 39.14439 56.94710 48.04574
# Shear Modulus (GPa) = 17.40265 23.29161 20.34713
#
# Velocity S-wave (km/s) = 3.01144 3.48391 3.25625
# Velocity P-wave (km/s) = 5.70004 6.77196 6.25899
#
# Compressibility (1/GPa) = 0.02554645
#
# Stress axis : x y z
#
# Youngs Moduli (GPa) = 63.72001 69.14676 64.36757
#
# Poissons Ratio (x) = 0.07653 0.21756
# Poissons Ratio (y) = 0.07052 0.35954
# Poissons Ratio (z) = 0.21538 0.38624
#
# Static dielectric constant tensor:
#      x y z
#    x 3.313140 0.000000 0.207800 
#    y 0.000000 3.326030 0.000000 
#    z 0.207800 0.000000 3.552280 
# 
# 
# High freq. dielectric constant tensor:
#      x y z
#    x 1.732400 0.000000 0.013310 
#    y 0.000000 1.725970 0.000000 
#    z 0.013310 0.000000 1.750010 
# 
# From -- ./inp_files/223178.got.cif
#   From: 2010.06.25/outbox.cif.g09.slc.cpg/sg12_112_cif.got.tgz:223178.got - 2010.06.28 00:19:55.
