data_PCOD8092497
_publ_section_title
;
Structure prediction by ZEFSAII (Michael W. Deem and Ramdas Pophale) SiO2 
 PCOD8092497
Probable space group: C 2/M
;
_chemical_formula_sum "Si O2"
_cell_formula_units_Z 64
_cell_length_a 12.505106
_cell_length_b 13.431452
_cell_length_c 30.186042
_cell_angle_alpha 90.000000
_cell_angle_beta 42.022773
_cell_angle_gamma 90.000000
_cell_volume 3394.056301
_symmetry_space_group_name_H-M "C 2/M"
_symmetry_group_IT_number 12
_symmetry_cell_setting 'monoclinic'
loop_
_space_group_symop_operation_xyz
x,y,z
-x,y,-z
-x,-y,-z
x,-y,z
1/2+x,1/2+y,z
1/2-x,1/2+y,-z
1/2-x,1/2-y,-z
1/2+x,1/2-y,z
loop_
_atom_site_type_symbol
_atom_site_label
_atom_site_fract_x
_atom_site_fract_y
_atom_site_fract_z
Si Si1 0.730889 0.116012 0.766539
Si Si2 0.539191 0.884766 0.739535
Si Si3 0.677299 0.780515 0.953730
Si Si4 0.087216 0.108723 0.627753
Si Si5 0.382181 0.674751 0.474674
Si Si6 0.218947 0.202711 0.402184
Si Si7 0.104905 0.116748 0.045446
Si Si8 0.721660 0.726921 0.843359
O O1 0.610849 0.149151 0.764574
O O2 0.683656 0.177916 0.824583
O O3 0.909585 0.140833 0.696068
O O4 0.710760 0.000000 0.784245
O O5 0.666052 0.864629 0.662186
O O6 0.378140 0.827178 0.777050
O O7 0.497722 0.000000 0.753271
O O8 0.778168 0.862113 0.949350
O O9 0.760381 0.762183 0.881158
O O10 0.500000 0.823717 0.000000
O O11 0.668325 0.675671 0.982885
O O12 0.098820 0.095255 0.570660
O O13 0.208257 0.189503 0.609507
O O14 0.128700 0.000000 0.635170
O O15 0.250000 0.750000 0.500000
O O16 0.554579 0.727274 0.427409
O O17 0.320047 0.636244 0.541732
O O18 0.927265 0.151902 0.112436
O O19 0.105135 0.000000 0.034323
#
# Coordination Sequence:
#
# PCOD8092497 Si02
#       8
#     8   8   8   8   8   8   8   8
#     4  10  21  36  56  82 111 149 191 228 274 332
#     4  11  22  35  55  82 112 149 189 231 280 336
#     4   9  21  39  60  87 115 150 189 230 278 325
#     4  10  19  35  57  80 106 144 187 231 280 336
#     4   9  19  34  55  78 107 143 183 234 289 329
#     4  10  19  35  55  81 109 144 187 236 285 340
#     4  10  21  39  62  88 117 149 187 231 279 329
#     4  11  21  38  58  84 119 150 185 230 277 334
#
# _framework density 18.856493
#
# number of rings (size 3 to 8) (size 9 to 14) (size 15 to 20)
#    0.000    2.000    2.500    1.125    0.000    4.000 
#    0.000   13.750    0.000    4.500    0.000    0.000 
#    0.000    0.000    0.000    0.000    0.000    0.000 
#
# Total GULP energy -396669.479876 kJ/mol
# GULP energy per Si atom -12395.921246 kJ/mol
# Density = 1.881358 g / cm^3
# Si number density = 18.856493 Si / 1000 Ang^3
#
#
#
# Elastic Constant Matrix: (Units=GPa)
#
#
# Indices 1 2 3 4 5 6 
#
# 1 96.2675 28.3016 31.3453 0.0000 1.7924 0.0000
# 2 28.3016 71.9688 27.2940 0.0000 6.3288 0.0000
# 3 31.3453 27.2940 88.1177 0.0004 9.4051 0.0000
# 4 0.0000 0.0000 0.0004 19.1064 0.0001 3.0312
# 5 1.7924 6.3288 9.4051 0.0001 34.0829 0.0000
# 6 0.0000 0.0000 0.0000 3.0312 0.0000 21.5896
#
#
#
# Elastic Compliance Matrix: (Units=1/GPa)
#
#
# Indices 1 2 3 4 5 6 
#
# 1 0.012582 -0.003736 -0.003423 0.000000 0.000977 0.000000
# 2 -0.003736 0.016941 -0.003713 0.000000 -0.001925 0.000000
# 3 -0.003423 -0.003713 0.014037 0.000000 -0.003004 0.000000
# 4 0.000000 0.000000 0.000000 0.053531 0.000000 -0.007516
# 5 0.000977 -0.001925 -0.003004 0.000000 0.030475 0.000000
# 6 0.000000 0.000000 0.000000 -0.007516 0.000000 0.047374
#
#
# Mechanical properties :
#
#
# Convention : Reuss Voigt Hill
#
# Bulk Modulus (GPa) = 45.83600 47.80398 46.81999
# Shear Modulus (GPa) = 24.51501 26.24997 25.38249
#
# Velocity S-wave (km/s) = 3.60958 3.73512 3.67289
# Velocity P-wave (km/s) = 6.46008 6.63385 6.54754
#
# Compressibility (1/GPa) = 0.02181691
#
# Stress axis : x y z
#
# Youngs Moduli (GPa) = 79.47663 59.02681 71.24114
#
# Poissons Ratio (x) = 0.22051 0.24385
# Poissons Ratio (y) = 0.29690 0.26453
# Poissons Ratio (z) = 0.27204 0.21918
#
# Static dielectric constant tensor:
#      x y z
#    x 3.707360 0.000000 0.103680 
#    y 0.000000 3.605010 0.000000 
#    z 0.103680 0.000000 3.660970 
# 
# 
# High freq. dielectric constant tensor:
#      x y z
#    x 1.743270 0.000000 -0.002610 
#    y 0.000000 1.709510 0.000000 
#    z -0.002610 0.000000 1.745750 
# 
# From -- ./inp_files/374098.got.cif
#   From: 2010.06.25/outbox.cif.g09.slc.cpg/sg12_188_cif.got.tgz:374098.got - 2010.06.28 00:19:55.
