data_PCOD8092738
_publ_section_title
;
Structure prediction by ZEFSAII (Michael W. Deem and Ramdas Pophale) SiO2 
 PCOD8092738
Probable space group: C 2/M
;
_chemical_formula_sum "Si O2"
_cell_formula_units_Z 56
_cell_length_a 13.340922
_cell_length_b 28.006734
_cell_length_c 14.992316
_cell_angle_alpha 90.000000
_cell_angle_beta 30.602980
_cell_angle_gamma 90.000000
_cell_volume 2851.729637
_symmetry_space_group_name_H-M "C 2/M"
_symmetry_group_IT_number 12
_symmetry_cell_setting 'monoclinic'
loop_
_space_group_symop_operation_xyz
x,y,z
-x,y,-z
-x,-y,-z
x,-y,z
1/2+x,1/2+y,z
1/2-x,1/2+y,-z
1/2-x,1/2-y,-z
1/2+x,1/2-y,z
loop_
_atom_site_type_symbol
_atom_site_label
_atom_site_fract_x
_atom_site_fract_y
_atom_site_fract_z
Si Si1 0.515950 0.226116 0.591398
Si Si2 0.933199 0.897743 0.451636
Si Si3 0.031339 0.881824 0.839453
Si Si4 0.677050 0.874046 0.241151
Si Si5 0.676651 0.555082 0.123170
Si Si6 0.530296 0.944435 0.725383
Si Si7 0.080050 0.809886 0.653865
O O1 0.500000 0.239175 0.500000
O O2 0.400269 0.179240 0.708718
O O3 0.743282 0.218763 0.437463
O O4 0.440824 0.270943 0.709961
O O5 0.754792 0.935733 0.582826
O O6 0.852145 0.848520 0.472057
O O7 0.000000 0.888300 0.500000
O O8 0.129758 0.916548 0.250184
O O9 0.998310 0.931639 0.812433
O O10 0.256689 0.882121 0.705348
O O11 0.978894 0.838191 0.812671
O O12 0.878212 0.877878 0.035082
O O13 0.521991 0.912986 0.322740
O O14 0.669013 0.500000 0.152166
O O15 0.886874 0.569628 0.918275
O O16 0.500547 0.000000 0.723667
#
# Coordination Sequence:
#
# PCOD8092738 Si02
#       7
#     8   8   8   8   8   8   8
#     4  11  20  34  58  81 107 142 180 225 276 330
#     4  11  22  38  58  80 111 147 192 234 280 331
#     4   9  19  35  57  81 112 149 178 227 278 326
#     4  10  19  35  57  82 111 145 186 223 276 336
#     4   9  20  37  56  83 116 146 185 232 278 331
#     4  10  21  37  57  83 114 149 186 232 284 330
#     4  10  21  36  55  80 109 142 181 227 276 330
#
# _framework density 19.637205999999999
#
# number of rings (size 3 to 8) (size 9 to 14) (size 15 to 20)
#    0.000    2.000    2.857    0.857    0.000    2.857 
#    0.000    4.286    0.000    3.000    0.000    0.000 
#    0.000    0.000    0.000    0.000    0.000    0.000 
#
# Total GULP energy -346966.829561 kJ/mol
# GULP energy per Si atom -12391.672484 kJ/mol
# Density = 1.959251 g / cm^3
# Si number density = 19.637206 Si / 1000 Ang^3
#
#
#
# Elastic Constant Matrix: (Units=GPa)
#
#
# Indices 1 2 3 4 5 6 
#
# 1 114.1626 34.4027 18.4577 -0.0163 12.9118 0.0029
# 2 34.4027 72.6723 7.5284 -0.0014 7.2338 0.0009
# 3 18.4577 7.5284 29.2778 -0.0268 4.4379 0.0058
# 4 -0.0163 -0.0014 -0.0268 92.9612 0.0219 -8.3406
# 5 12.9118 7.2338 4.4379 0.0219 25.5139 -0.0025
# 6 0.0029 0.0009 0.0058 -8.3406 -0.0025 26.6817
#
#
#
# Elastic Compliance Matrix: (Units=1/GPa)
#
#
# Indices 1 2 3 4 5 6 
#
# 1 0.011397 -0.004473 -0.005498 0.000001 -0.003543 0.000000
# 2 -0.004473 0.016198 -0.001019 0.000000 -0.002152 0.000000
# 3 -0.005498 -0.001019 0.038431 0.000011 -0.003614 -0.000005
# 4 0.000001 0.000000 0.000011 0.011068 -0.000012 0.003460
# 5 -0.003543 -0.002152 -0.003614 -0.000012 0.042226 0.000002
# 6 0.000000 0.000000 -0.000005 0.003460 0.000002 0.038560
#
#
# Mechanical properties :
#
#
# Convention : Reuss Voigt Hill
#
# Bulk Modulus (GPa) = 22.70333 37.43225 30.06779
# Shear Modulus (GPa) = 25.70147 39.41296 32.55722
#
# Velocity S-wave (km/s) = 3.62168 4.48488 4.07619
# Velocity P-wave (km/s) = 5.39215 6.77659 6.12362
#
# Compressibility (1/GPa) = 0.04404641
#
# Stress axis : x y z
#
# Youngs Moduli (GPa) = 87.74249 61.73745 26.02047
#
# Poissons Ratio (x) = 0.27615 0.14305
# Poissons Ratio (y) = 0.39248 0.02651
# Poissons Ratio (z) = 0.48239 0.06291
#
# Static dielectric constant tensor:
#      x y z
#    x 3.876680 0.000000 0.170130 
#    y 0.000000 3.766590 0.000000 
#    z 0.170130 0.000000 3.540260 
# 
# 
# High freq. dielectric constant tensor:
#      x y z
#    x 1.770470 0.000000 0.011220 
#    y 0.000000 1.767460 0.000000 
#    z 0.011220 0.000000 1.748150 
# 
# From -- ./inp_files/209134.got.cif
#   From: 2010.06.25/outbox.cif.g09.slc.cpg/sg12_105_cif.got.tgz:209134.got - 2010.06.28 00:19:55.
