data_PCOD8092413
_publ_section_title
;
Structure prediction by ZEFSAII (Michael W. Deem and Ramdas Pophale) SiO2 
 PCOD8092413
Probable space group: C 2/M
;
_chemical_formula_sum "Si O2"
_cell_formula_units_Z 40
_cell_length_a 19.960573
_cell_length_b 17.334876
_cell_length_c 16.192503
_cell_angle_alpha 90.000000
_cell_angle_beta 21.037520
_cell_angle_gamma 90.000000
_cell_volume 2011.300891
_symmetry_space_group_name_H-M "C 2/M"
_symmetry_group_IT_number 12
_symmetry_cell_setting 'monoclinic'
loop_
_space_group_symop_operation_xyz
x,y,z
-x,y,-z
-x,-y,-z
x,-y,z
1/2+x,1/2+y,z
1/2-x,1/2+y,-z
1/2-x,1/2-y,-z
1/2+x,1/2-y,z
loop_
_atom_site_type_symbol
_atom_site_label
_atom_site_fract_x
_atom_site_fract_y
_atom_site_fract_z
Si Si1 0.678411 0.163824 0.077882
Si Si2 0.242526 0.644756 0.660766
Si Si3 0.339571 0.089602 0.073905
Si Si4 0.239590 0.699451 0.430111
Si Si5 0.006975 0.910117 0.774579
O O1 0.724166 0.134643 0.933583
O O2 0.788610 0.112301 0.018826
O O3 0.750000 0.250000 0.000000
O O4 0.459766 0.157896 0.350618
O O5 0.284816 0.617511 0.705247
O O6 0.223508 0.738735 0.685358
O O7 0.406459 0.616592 0.412393
O O8 0.055577 0.605353 0.842989
O O9 0.306841 0.000000 0.095714
O O10 0.250000 0.750000 0.500000
O O11 0.397728 0.633469 0.256837
O O12 0.032962 0.000000 0.760404
#
# Coordination Sequence:
#
# PCOD8092413 Si02
#       5
#     8   8   8   8   8
#     4  12  21  36  54  78 111 153 196 225 269 334
#     4  10  19  35  54  80 117 153 182 221 281 344
#     4  11  21  33  55  86 119 147 178 229 286 338
#     4  10  19  37  56  74 112 156 191 227 268 337
#     4  11  21  34  56  83 111 145 189 237 281 329
#
# _framework density 19.887625
#
# number of rings (size 3 to 8) (size 9 to 14) (size 15 to 20)
#    0.000    1.200    8.000    3.000    0.000    1.600 
#    0.000    2.000    0.000    0.000    0.000   12.600 
#    0.000   27.600    0.000    0.000    0.000    0.000 
#
# Total GULP energy -247966.436744 kJ/mol
# GULP energy per Si atom -12398.321837 kJ/mol
# Density = 1.984236 g / cm^3
# Si number density = 19.887625 Si / 1000 Ang^3
#
#
#
# Elastic Constant Matrix: (Units=GPa)
#
#
# Indices 1 2 3 4 5 6 
#
# 1 68.4673 65.3214 25.8527 -0.0382 -14.6524 0.0102
# 2 65.3214 172.1818 24.2294 -0.0459 -6.7328 0.0329
# 3 25.8527 24.2294 55.3213 -0.0212 -19.8486 0.0292
# 4 -0.0382 -0.0459 -0.0212 28.5287 0.0293 -0.6275
# 5 -14.6524 -6.7328 -19.8486 0.0293 30.8030 -0.0195
# 6 0.0102 0.0329 0.0292 -0.6275 -0.0195 32.4544
#
#
#
# Elastic Compliance Matrix: (Units=1/GPa)
#
#
# Indices 1 2 3 4 5 6 
#
# 1 0.027173 -0.009166 -0.006198 0.000010 0.006928 0.000011
# 2 -0.009166 0.009287 -0.000807 0.000005 -0.002850 -0.000007
# 3 -0.006198 -0.000807 0.026281 -0.000005 0.013810 -0.000013
# 4 0.000010 0.000005 -0.000005 0.035067 -0.000030 0.000678
# 5 0.006928 -0.002850 0.013810 -0.000030 0.044036 0.000014
# 6 0.000011 -0.000007 -0.000013 0.000678 0.000014 0.030826
#
#
# Mechanical properties :
#
#
# Convention : Reuss Voigt Hill
#
# Bulk Modulus (GPa) = 32.89512 58.53083 45.71297
# Shear Modulus (GPa) = 23.24012 30.39501 26.81756
#
# Velocity S-wave (km/s) = 3.42215 3.91364 3.67612
# Velocity P-wave (km/s) = 5.67373 7.06518 6.40734
#
# Compressibility (1/GPa) = 0.03039965
#
# Stress axis : x y z
#
# Youngs Moduli (GPa) = 36.80089 107.67590 38.05029
#
# Poissons Ratio (x) = 0.98692 0.23585
# Poissons Ratio (y) = 0.33731 0.03070
# Poissons Ratio (z) = 0.22811 0.08686
#
# Static dielectric constant tensor:
#      x y z
#    x 3.742550 -0.000090 -0.226550 
#    y -0.000090 4.022960 0.000160 
#    z -0.226550 0.000160 3.768880 
# 
# 
# High freq. dielectric constant tensor:
#      x y z
#    x 1.750600 0.000000 -0.033690 
#    y 0.000000 1.782200 0.000010 
#    z -0.033690 0.000010 1.762310 
# 
# From -- ./inp_files/284919.got.cif
#   From: 2010.06.25/outbox.cif.g09.slc.cpg/sg12_143_cif.got.tgz:284919.got - 2010.06.28 00:19:55.
