data_PCOD8092079
_publ_section_title
;
Structure prediction by ZEFSAII (Michael W. Deem and Ramdas Pophale) SiO2 
 PCOD8092079
Probable space group: C 2/M
;
_chemical_formula_sum "Si O2"
_cell_formula_units_Z 64
_cell_length_a 19.449693
_cell_length_b 18.426760
_cell_length_c 16.180612
_cell_angle_alpha 90.000000
_cell_angle_beta 143.035819
_cell_angle_gamma 90.000000
_cell_volume 3487.057970
_symmetry_space_group_name_H-M "C 2/M"
_symmetry_group_IT_number 12
_symmetry_cell_setting 'monoclinic'
loop_
_space_group_symop_operation_xyz
x,y,z
-x,y,-z
-x,-y,-z
x,-y,z
1/2+x,1/2+y,z
1/2-x,1/2+y,-z
1/2-x,1/2-y,-z
1/2+x,1/2-y,z
loop_
_atom_site_type_symbol
_atom_site_label
_atom_site_fract_x
_atom_site_fract_y
_atom_site_fract_z
Si Si1 0.934633 0.417339 0.088530
Si Si2 0.658844 0.312665 0.085364
Si Si3 0.258960 0.846564 0.805737
Si Si4 0.332673 0.165860 0.694460
Si Si5 0.341647 0.415188 0.580685
Si Si6 0.252155 0.082846 0.046804
Si Si7 0.099327 0.823428 0.212023
Si Si8 0.580904 0.583481 0.737062
O O1 0.977152 0.500000 0.124353
O O2 0.872013 0.402358 0.115775
O O3 0.040059 0.364395 0.179378
O O4 0.846432 0.404205 0.929229
O O5 0.710719 0.232692 0.131493
O O6 0.744284 0.365942 0.119046
O O7 0.650693 0.340508 0.171382
O O8 0.535842 0.311097 0.923926
O O9 0.265811 0.852968 0.714126
O O10 0.130261 0.866978 0.710371
O O11 0.266513 0.130296 0.554610
O O12 0.341818 0.252224 0.692021
O O13 0.311233 0.500000 0.552539
O O14 0.371794 0.391667 0.702722
O O15 0.448120 0.398428 0.622746
O O16 0.244207 0.000000 0.069580
O O17 0.147695 0.101141 0.885567
O O18 0.599113 0.500000 0.729808
#
# Coordination Sequence:
#
# PCOD8092079 Si02
#       8
#     8   8   8   8   8   8   8   8
#     4  10  20  33  53  81 110 141 181 225 264 310
#     4  10  19  34  59  83 106 140 174 221 280 319
#     4  10  20  34  54  81 109 137 180 225 266 313
#     4  11  22  37  54  77 109 147 180 217 265 318
#     4  11  23  38  56  78 109 147 183 216 261 324
#     4   9  18  33  53  80 111 136 172 226 272 314
#     4  10  21  37  55  81 112 136 177 228 266 315
#     4   9  19  34  51  78 112 142 176 219 263 311
#
# _framework density 18.353580999999998
#
# number of rings (size 3 to 8) (size 9 to 14) (size 15 to 20)
#    0.000    2.000    2.500    2.250    0.000    6.500 
#    0.000    2.500    0.000    2.250    0.000    2.625 
#    0.000    0.000    0.000    0.000    0.000    0.000 
#
# Total GULP energy -396878.803036 kJ/mol
# GULP energy per Si atom -12402.462595 kJ/mol
# Density = 1.831181 g / cm^3
# Si number density = 18.353581 Si / 1000 Ang^3
#
#
#
# Elastic Constant Matrix: (Units=GPa)
#
#
# Indices 1 2 3 4 5 6 
#
# 1 69.8072 42.9100 9.4545 0.0000 -9.9396 0.0000
# 2 42.9100 69.9844 20.4501 0.0000 -11.2259 0.0000
# 3 9.4545 20.4501 52.7091 0.0000 -6.7865 0.0000
# 4 0.0000 0.0000 0.0000 11.5400 0.0000 -0.6388
# 5 -9.9396 -11.2259 -6.7865 0.0000 18.4163 0.0000
# 6 0.0000 0.0000 0.0000 -0.6388 0.0000 34.1796
#
#
#
# Elastic Compliance Matrix: (Units=1/GPa)
#
#
# Indices 1 2 3 4 5 6 
#
# 1 0.023456 -0.014181 0.001902 0.000000 0.004716 0.000000
# 2 -0.014181 0.025862 -0.006767 0.000000 0.005617 0.000000
# 3 0.001902 -0.006767 0.021896 0.000000 0.004970 0.000000
# 4 0.000000 0.000000 0.000000 0.086745 0.000000 0.001621
# 5 0.004716 0.005617 0.004970 0.000000 0.062101 0.000000
# 6 0.000000 0.000000 0.000000 0.001621 0.000000 0.029288
#
#
# Mechanical properties :
#
#
# Convention : Reuss Voigt Hill
#
# Bulk Modulus (GPa) = 30.19132 37.57000 33.88066
# Shear Modulus (GPa) = 16.75148 20.80625 18.77887
#
# Velocity S-wave (km/s) = 3.02439 3.37060 3.20218
# Velocity P-wave (km/s) = 5.35550 5.97181 5.67203
#
# Compressibility (1/GPa) = 0.03312210
#
# Stress axis : x y z
#
# Youngs Moduli (GPa) = 42.63292 38.66641 45.66959
#
# Poissons Ratio (x) = 0.54833 -0.08686
# Poissons Ratio (y) = 0.60458 0.30905
# Poissons Ratio (z) = -0.08108 0.26166
#
# Static dielectric constant tensor:
#      x y z
#    x 3.439340 0.000000 0.043450 
#    y 0.000000 3.360230 0.000000 
#    z 0.043450 0.000000 3.098900 
# 
# 
# High freq. dielectric constant tensor:
#      x y z
#    x 1.716610 0.000000 0.003730 
#    y 0.000000 1.714700 0.000000 
#    z 0.003730 0.000000 1.686060 
# 
# From -- ./inp_files/168786.got.cif
#   From: 2010.06.25/outbox.cif.g09.slc.cpg/sg12_85_cif.got.tgz:168786.got - 2010.06.28 00:19:55.
