data_PCOD8092566
_publ_section_title
;
Structure prediction by ZEFSAII (Michael W. Deem and Ramdas Pophale) SiO2 
 PCOD8092566
Probable space group: C 2/M
;
_chemical_formula_sum "Si O2"
_cell_formula_units_Z 56
_cell_length_a 27.857010
_cell_length_b 13.696139
_cell_length_c 8.821749
_cell_angle_alpha 90.000000
_cell_angle_beta 66.096333
_cell_angle_gamma 90.000000
_cell_volume 3077.101922
_symmetry_space_group_name_H-M "C 2/M"
_symmetry_group_IT_number 12
_symmetry_cell_setting 'monoclinic'
loop_
_space_group_symop_operation_xyz
x,y,z
-x,y,-z
-x,-y,-z
x,-y,z
1/2+x,1/2+y,z
1/2-x,1/2+y,-z
1/2-x,1/2-y,-z
1/2+x,1/2-y,z
loop_
_atom_site_type_symbol
_atom_site_label
_atom_site_fract_x
_atom_site_fract_y
_atom_site_fract_z
Si Si1 0.174222 0.269013 0.178688
Si Si2 0.256017 0.114807 0.137473
Si Si3 0.554844 0.392246 0.844588
Si Si4 0.390911 0.115842 0.492208
Si Si5 0.350486 0.111290 0.223277
Si Si6 0.515850 0.744258 0.647095
Si Si7 0.407990 0.743037 0.957022
O O1 0.204027 0.180648 0.226366
O O2 0.138736 0.333204 0.333145
O O3 0.135808 0.214704 0.109764
O O4 0.214084 0.345053 0.049285
O O5 0.291155 0.131500 0.242892
O O6 0.242410 0.000000 0.132887
O O7 0.576763 0.500000 0.781401
O O8 0.550553 0.337470 0.688552
O O9 0.500000 0.397864 0.000000
O O10 0.594122 0.340160 0.911332
O O11 0.357667 0.146111 0.386364
O O12 0.450418 0.156380 0.406722
O O13 0.393833 0.000000 0.514556
O O14 0.365371 0.000000 0.192527
O O15 0.393093 0.157168 0.057594
O O16 0.500000 0.706403 0.500000
O O17 0.464243 0.763194 0.811536
#
# Coordination Sequence:
#
# PCOD8092566 Si02
#       7
#     8   8   8   8   8   8   8
#     4  10  20  35  57  83 112 149 177 235 286 328
#     4   9  19  37  58  81 107 143 190 232 281 338
#     4   9  19  35  55  75 103 147 191 228 267 316
#     4  11  22  36  55  84 117 149 185 227 281 335
#     4   9  19  35  57  81 109 147 185 228 280 333
#     4  11  21  36  54  82 117 149 187 229 273 324
#     4  10  19  35  56  78 114 149 188 226 269 331
#
# _framework density 18.198941000000001
#
# number of rings (size 3 to 8) (size 9 to 14) (size 15 to 20)
#    0.000    2.143    2.857    0.429    0.000    2.857 
#    0.000    2.143    0.000    0.000    0.000    0.000 
#    0.000    0.000    0.000    0.000    0.000    0.000 
#
# Total GULP energy -347108.145145 kJ/mol
# GULP energy per Si atom -12396.719469 kJ/mol
# Density = 1.815752 g / cm^3
# Si number density = 18.198941 Si / 1000 Ang^3
#
#
#
# Elastic Constant Matrix: (Units=GPa)
#
#
# Indices 1 2 3 4 5 6 
#
# 1 107.7565 63.8249 49.4458 0.0000 18.2476 0.0000
# 2 63.8249 91.1171 47.2279 0.0000 6.1457 0.0000
# 3 49.4458 47.2279 65.8662 0.0000 19.2318 0.0000
# 4 0.0000 0.0000 0.0000 20.1829 0.0000 2.8763
# 5 18.2476 6.1457 19.2318 0.0000 34.8063 0.0000
# 6 0.0000 0.0000 0.0000 2.8763 0.0000 23.9947
#
#
#
# Elastic Compliance Matrix: (Units=1/GPa)
#
#
# Indices 1 2 3 4 5 6 
#
# 1 0.018339 -0.009748 -0.005333 0.000000 -0.004946 0.000000
# 2 -0.009748 0.023280 -0.011526 0.000000 0.007369 0.000000
# 3 -0.005333 -0.011526 0.031049 0.000000 -0.012325 0.000000
# 4 0.000000 0.000000 0.000000 0.050408 0.000000 -0.006043
# 5 -0.004946 0.007369 -0.012325 0.000000 0.036832 0.000000
# 6 0.000000 0.000000 0.000000 -0.006043 0.000000 0.042400
#
#
# Mechanical properties :
#
#
# Convention : Reuss Voigt Hill
#
# Bulk Modulus (GPa) = 51.40481 65.08189 58.24335
# Shear Modulus (GPa) = 19.08334 22.74618 20.91476
#
# Velocity S-wave (km/s) = 3.24172 3.53918 3.39371
# Velocity P-wave (km/s) = 6.50531 7.24845 6.88691
#
# Compressibility (1/GPa) = 0.01945343
#
# Stress axis : x y z
#
# Youngs Moduli (GPa) = 54.52943 42.95461 32.20685
#
# Poissons Ratio (x) = 0.41871 0.17176
# Poissons Ratio (y) = 0.53154 0.37123
# Poissons Ratio (z) = 0.29081 0.49512
#
# Static dielectric constant tensor:
#      x y z
#    x 3.618990 0.000000 0.262860 
#    y 0.000000 3.432020 0.000000 
#    z 0.262860 0.000000 3.288890 
# 
# 
# High freq. dielectric constant tensor:
#      x y z
#    x 1.712480 0.000000 0.016460 
#    y 0.000000 1.700960 0.000000 
#    z 0.016460 0.000000 1.695580 
# 
# From -- ./inp_files/96467.got.cif
#   From: 2010.06.25/outbox.cif.g09.slc.cpg/sg12_49_cif.got.tgz:96467.got - 2010.06.28 00:19:55.
