data_PCOD8092529
_publ_section_title
;
Structure prediction by ZEFSAII (Michael W. Deem and Ramdas Pophale) SiO2 
 PCOD8092529
Probable space group: C 2/M
;
_chemical_formula_sum "Si O2"
_cell_formula_units_Z 56
_cell_length_a 17.063621
_cell_length_b 17.516307
_cell_length_c 18.710499
_cell_angle_alpha 90.000000
_cell_angle_beta 148.773481
_cell_angle_gamma 90.000000
_cell_volume 2899.233895
_symmetry_space_group_name_H-M "C 2/M"
_symmetry_group_IT_number 12
_symmetry_cell_setting 'monoclinic'
loop_
_space_group_symop_operation_xyz
x,y,z
-x,y,-z
-x,-y,-z
x,-y,z
1/2+x,1/2+y,z
1/2-x,1/2+y,-z
1/2-x,1/2-y,-z
1/2+x,1/2-y,z
loop_
_atom_site_type_symbol
_atom_site_label
_atom_site_fract_x
_atom_site_fract_y
_atom_site_fract_z
Si Si1 0.330087 0.672832 0.344102
Si Si2 0.093056 0.910338 0.730382
Si Si3 0.049760 0.088354 0.113635
Si Si4 0.047786 0.411170 0.736819
Si Si5 0.757337 0.088823 0.422833
Si Si6 0.679482 0.589913 0.951392
Si Si7 0.360677 0.846358 0.341277
O O1 0.500000 0.657459 0.500000
O O2 0.303358 0.627245 0.249986
O O3 0.227476 0.639158 0.328176
O O4 0.298558 0.761290 0.305076
O O5 0.156338 0.875845 0.854185
O O6 0.915259 0.889268 0.584077
O O7 0.116924 0.000000 0.743256
O O8 0.227899 0.098060 0.263647
O O9 0.951857 0.125748 0.100806
O O10 0.006745 0.000000 0.077548
O O11 0.000000 0.127213 0.000000
O O12 0.068672 0.500000 0.731970
O O13 0.091860 0.359357 0.703686
O O14 0.876236 0.392986 0.625474
O O15 0.156857 0.389892 0.888260
O O16 0.755098 0.000000 0.398616
O O17 0.656686 0.500000 0.927072
O O18 0.500000 0.866199 0.500000
#
# Coordination Sequence:
#
# PCOD8092529 Si02
#       7
#     8   8   8   8   8   8   8
#     4   9  19  38  54  78 111 144 179 216 272 322
#     4   9  17  33  59  83 102 134 182 226 261 317
#     4  10  19  35  56  75 103 146 183 217 264 315
#     4  10  20  36  55  80 111 139 173 224 279 317
#     4   9  18  34  60  85 105 135 180 231 271 311
#     4   9  18  33  54  79 105 135 173 219 272 319
#     4  11  23  36  52  79 111 148 180 216 266 324
#
# _framework density 19.315448
#
# number of rings (size 3 to 8) (size 9 to 14) (size 15 to 20)
#    0.000    2.429    1.429    0.857    2.000    2.857 
#    2.571    5.000    0.000    3.429    0.000    0.000 
#    0.000    0.000    0.000    0.000    0.000    0.000 
#
# Total GULP energy -347146.779130 kJ/mol
# GULP energy per Si atom -12398.099255 kJ/mol
# Density = 1.927148 g / cm^3
# Si number density = 19.315448 Si / 1000 Ang^3
#
#
#
# Elastic Constant Matrix: (Units=GPa)
#
#
# Indices 1 2 3 4 5 6 
#
# 1 71.6403 21.2754 26.8915 -0.0165 -20.1242 -0.0081
# 2 21.2754 35.4718 15.6407 0.0052 -10.9811 0.0075
# 3 26.8915 15.6407 89.0142 -0.0040 -15.6800 0.0025
# 4 -0.0165 0.0052 -0.0040 13.4525 -0.0036 -1.6708
# 5 -20.1242 -10.9811 -15.6800 -0.0036 38.8470 0.0013
# 6 -0.0081 0.0075 0.0025 -1.6708 0.0013 19.3216
#
#
#
# Elastic Compliance Matrix: (Units=1/GPa)
#
#
# Indices 1 2 3 4 5 6 
#
# 1 0.019440 -0.008219 -0.003299 0.000029 0.006416 0.000014
# 2 -0.008219 0.035892 -0.003000 -0.000026 0.004677 -0.000019
# 3 -0.003299 -0.003000 0.013249 0.000002 0.002791 -0.000002
# 4 0.000029 -0.000026 0.000002 0.075143 0.000015 0.006498
# 5 0.006416 0.004677 0.002791 0.000015 0.031514 0.000000
# 6 0.000014 -0.000019 -0.000002 0.006498 0.000000 0.052317
#
#
# Mechanical properties :
#
#
# Convention : Reuss Voigt Hill
#
# Bulk Modulus (GPa) = 25.28675 35.97128 30.62902
# Shear Modulus (GPa) = 18.53414 23.14546 20.83980
#
# Velocity S-wave (km/s) = 3.10102 3.46538 3.28825
# Velocity P-wave (km/s) = 5.09330 5.88858 5.50532
#
# Compressibility (1/GPa) = 0.03954640
#
# Stress axis : x y z
#
# Youngs Moduli (GPa) = 51.44053 27.86166 75.47510
#
# Poissons Ratio (x) = 0.22900 0.24896
# Poissons Ratio (y) = 0.42280 0.22640
# Poissons Ratio (z) = 0.16968 0.08357
#
# Static dielectric constant tensor:
#      x y z
#    x 3.715240 0.000000 -0.189700 
#    y 0.000000 3.224860 0.000000 
#    z -0.189700 0.000000 3.517960 
# 
# 
# High freq. dielectric constant tensor:
#      x y z
#    x 1.760410 0.000000 -0.008550 
#    y 0.000000 1.719500 0.000000 
#    z -0.008550 0.000000 1.744620 
# 
# From -- ./inp_files/89669.got.cif
#   From: 2010.06.25/outbox.cif.g09.slc.cpg/sg12_45_cif.got.tgz:89669.got - 2010.06.28 00:19:55.
