data_PCOD8092275
_publ_section_title
;
Structure prediction by ZEFSAII (Michael W. Deem and Ramdas Pophale) SiO2 
 PCOD8092275
Probable space group: C 2/M
;
_chemical_formula_sum "Si O2"
_cell_formula_units_Z 48
_cell_length_a 21.609691
_cell_length_b 9.241831
_cell_length_c 12.187059
_cell_angle_alpha 90.000000
_cell_angle_beta 78.733746
_cell_angle_gamma 90.000000
_cell_volume 2387.013678
_symmetry_space_group_name_H-M "C 2/M"
_symmetry_group_IT_number 12
_symmetry_cell_setting 'monoclinic'
loop_
_space_group_symop_operation_xyz
x,y,z
-x,y,-z
-x,-y,-z
x,-y,z
1/2+x,1/2+y,z
1/2-x,1/2+y,-z
1/2-x,1/2-y,-z
1/2+x,1/2-y,z
loop_
_atom_site_type_symbol
_atom_site_label
_atom_site_fract_x
_atom_site_fract_y
_atom_site_fract_z
Si Si1 0.925986 0.829981 0.530745
Si Si2 0.814590 0.670331 0.984021
Si Si3 0.481790 0.659885 0.122937
Si Si4 0.867349 0.335658 0.197378
Si Si5 0.607025 0.659560 0.211609
Si Si6 0.314273 0.830799 0.444329
O O1 0.898049 0.797554 0.660208
O O2 0.878951 0.740124 0.468102
O O3 0.000000 0.779922 0.500000
O O4 0.921834 0.000000 0.501910
O O5 0.804942 0.500000 0.983468
O O6 0.855327 0.717940 0.865704
O O7 0.750000 0.750000 0.000000
O O8 0.843378 0.723217 0.089070
O O9 0.455433 0.500000 0.104943
O O10 0.429411 0.747562 0.206682
O O11 0.537688 0.651883 0.188346
O O12 0.500000 0.734813 0.000000
O O13 0.888325 0.500000 0.177731
O O14 0.816070 0.316934 0.311329
O O15 0.639075 0.500000 0.188060
O O16 0.250000 0.750000 0.500000
O O17 0.311234 0.000000 0.480662
#
# Coordination Sequence:
#
# PCOD8092275 Si02
#       6
#     8   8   8   8   8   8
#     4  10  22  42  67  93 126 168 210 256 314 371
#     4  11  24  40  59  86 119 158 201 245 303 362
#     4  10  19  34  60  92 121 153 196 240 289 357
#     4  10  23  41  61  86 121 159 195 247 305 360
#     4  10  21  38  61  91 125 157 195 247 301 358
#     4  11  25  44  65  92 124 164 214 262 313 369
#
# _framework density 20.108808
#
# number of rings (size 3 to 8) (size 9 to 14) (size 15 to 20)
#    0.000    1.667    1.667    2.000    2.333    5.333 
#    0.000    0.000    0.000    0.000    0.000    0.000 
#    0.000    0.000    0.000    0.000    0.000    0.000 
#
# Total GULP energy -297526.532966 kJ/mol
# GULP energy per Si atom -12396.938874 kJ/mol
# Density = 2.006304 g / cm^3
# Si number density = 20.108808 Si / 1000 Ang^3
#
#
#
# Elastic Constant Matrix: (Units=GPa)
#
#
# Indices 1 2 3 4 5 6 
#
# 1 107.7173 58.1360 33.5436 0.0000 -16.2747 0.0000
# 2 58.1360 89.6464 44.8014 0.0000 -10.3325 0.0000
# 3 33.5436 44.8014 104.2219 0.0000 -6.3750 0.0000
# 4 0.0000 0.0000 0.0000 30.8754 0.0000 -1.5798
# 5 -16.2747 -10.3325 -6.3750 0.0000 30.3368 0.0000
# 6 0.0000 0.0000 0.0000 -1.5798 0.0000 28.1933
#
#
#
# Elastic Compliance Matrix: (Units=1/GPa)
#
#
# Indices 1 2 3 4 5 6 
#
# 1 0.015000 -0.008788 -0.000751 0.000000 0.004896 0.000000
# 2 -0.008788 0.019755 -0.005613 0.000000 0.000834 0.000000
# 3 -0.000751 -0.005613 0.012265 0.000000 0.000263 0.000000
# 4 0.000000 0.000000 0.000000 0.032481 0.000000 0.001820
# 5 0.004896 0.000834 0.000263 0.000000 0.035929 0.000000
# 6 0.000000 0.000000 0.000000 0.001820 0.000000 0.035571
#
#
# Mechanical properties :
#
#
# Convention : Reuss Voigt Hill
#
# Bulk Modulus (GPa) = 59.81606 63.83863 61.82734
# Shear Modulus (GPa) = 26.75543 28.88808 27.82175
#
# Velocity S-wave (km/s) = 3.65160 3.79435 3.72366
# Velocity P-wave (km/s) = 6.89853 7.14224 7.02144
#
# Compressibility (1/GPa) = 0.01671792
#
# Stress axis : x y z
#
# Youngs Moduli (GPa) = 66.66620 50.61952 81.53141
#
# Poissons Ratio (x) = 0.44486 0.06119
# Poissons Ratio (y) = 0.58588 0.45760
# Poissons Ratio (z) = 0.05003 0.28411
#
# Static dielectric constant tensor:
#      x y z
#    x 2.841290 0.000000 0.059600 
#    y 0.000000 3.860070 0.000000 
#    z 0.059600 0.000000 3.608380 
# 
# 
# High freq. dielectric constant tensor:
#      x y z
#    x 1.783640 0.000000 0.000870 
#    y 0.000000 1.781600 0.000000 
#    z 0.000870 0.000000 1.800170 
# 
# From -- ./inp_files/172939.got.cif
#   From: 2010.06.25/outbox.cif.g09.slc.cpg/sg12_87_cif.got.tgz:172939.got - 2010.06.28 00:19:55.
