data_PCOD8092803
_publ_section_title
;
Structure prediction by ZEFSAII (Michael W. Deem and Ramdas Pophale) SiO2 
 PCOD8092803
Probable space group: C 2/M
;
_chemical_formula_sum "Si O2"
_cell_formula_units_Z 56
_cell_length_a 13.471381
_cell_length_b 14.150999
_cell_length_c 26.611733
_cell_angle_alpha 90.000000
_cell_angle_beta 148.147038
_cell_angle_gamma 90.000000
_cell_volume 2677.277321
_symmetry_space_group_name_H-M "C 2/M"
_symmetry_group_IT_number 12
_symmetry_cell_setting 'monoclinic'
loop_
_space_group_symop_operation_xyz
x,y,z
-x,y,-z
-x,-y,-z
x,-y,z
1/2+x,1/2+y,z
1/2-x,1/2+y,-z
1/2-x,1/2-y,-z
1/2+x,1/2-y,z
loop_
_atom_site_type_symbol
_atom_site_label
_atom_site_fract_x
_atom_site_fract_y
_atom_site_fract_z
Si Si1 0.956886 0.772436 0.109178
Si Si2 0.378803 0.393981 0.622635
Si Si3 0.002061 0.604993 0.195648
Si Si4 0.870447 0.887803 0.732239
Si Si5 0.485655 0.803448 0.549584
Si Si6 0.918869 0.897358 0.386597
Si Si7 0.150880 0.107280 0.108452
O O1 0.025757 0.670183 0.156939
O O2 0.969826 0.843210 0.162821
O O3 0.091228 0.817251 0.124770
O O4 0.750000 0.750000 0.000000
O O5 0.305947 0.500000 0.598316
O O6 0.420553 0.354702 0.696712
O O7 0.563210 0.387418 0.666730
O O8 0.219198 0.338944 0.521055
O O9 0.943739 0.500000 0.152052
O O10 0.848917 0.641289 0.170135
O O11 0.201590 0.604463 0.309233
O O12 0.663514 0.844154 0.657826
O O13 0.869813 0.000000 0.739260
O O14 0.500000 0.846583 0.500000
O O15 0.478220 0.689719 0.542982
O O16 0.005492 0.000000 0.440272
O O17 0.165485 0.000000 0.137056
O O18 0.000000 0.108880 0.000000
#
# Coordination Sequence:
#
# PCOD8092803 Si02
#       7
#     8   8   8   8   8   8   8
#     4  12  23  38  63  95 122 155 208 264 312 363
#     4   9  19  36  61  88 123 162 199 252 317 376
#     4  10  22  41  61  85 123 167 206 248 311 380
#     4  10  21  38  60  91 123 155 203 259 314 373
#     4  10  19  35  57  87 122 161 207 252 308 367
#     4  10  20  37  58  86 123 164 204 249 307 370
#     4  10  21  40  64  88 120 162 209 258 316 378
#
# _framework density 20.916772000000002
#
# number of rings (size 3 to 8) (size 9 to 14) (size 15 to 20)
#    0.000    1.857    2.857    1.286    0.000    3.714 
#    0.000    0.000    0.000    4.714    0.000    0.000 
#    0.000    0.000    0.000    0.000    0.000    0.000 
#
# Total GULP energy -346907.630917 kJ/mol
# GULP energy per Si atom -12389.558247 kJ/mol
# Density = 2.086916 g / cm^3
# Si number density = 20.916772 Si / 1000 Ang^3
#
#
#
# Elastic Constant Matrix: (Units=GPa)
#
#
# Indices 1 2 3 4 5 6 
#
# 1 112.0832 45.1080 36.2389 0.0000 10.8757 0.0000
# 2 45.1080 130.9205 38.7301 0.0000 0.6563 0.0000
# 3 36.2389 38.7301 92.2013 -0.0002 3.7252 -0.0001
# 4 0.0000 0.0000 -0.0002 34.1129 0.0000 -4.2730
# 5 10.8757 0.6563 3.7252 0.0000 27.2745 0.0000
# 6 0.0000 0.0000 -0.0001 -4.2730 0.0000 34.3804
#
#
#
# Elastic Compliance Matrix: (Units=1/GPa)
#
#
# Indices 1 2 3 4 5 6 
#
# 1 0.011545 -0.003042 -0.003094 0.000000 -0.004108 0.000000
# 2 -0.003042 0.009526 -0.002861 0.000000 0.001375 0.000000
# 3 -0.003094 -0.002861 0.013285 0.000000 -0.000512 0.000000
# 4 0.000000 0.000000 0.000000 0.029778 0.000000 0.003701
# 5 -0.004108 0.001375 -0.000512 0.000000 0.038339 0.000000
# 6 0.000000 0.000000 0.000000 0.003701 0.000000 0.029546
#
#
# Mechanical properties :
#
#
# Convention : Reuss Voigt Hill
#
# Bulk Modulus (GPa) = 61.12093 63.92877 62.52485
# Shear Modulus (GPa) = 32.16113 33.49542 32.82827
#
# Velocity S-wave (km/s) = 3.92545 4.00605 3.96595
# Velocity P-wave (km/s) = 7.05903 7.21302 7.13644
#
# Compressibility (1/GPa) = 0.01636101
#
# Stress axis : x y z
#
# Youngs Moduli (GPa) = 86.61679 104.97695 75.27565
#
# Poissons Ratio (x) = 0.31933 0.23290
# Poissons Ratio (y) = 0.26348 0.21539
# Poissons Ratio (z) = 0.26799 0.30038
#
# Static dielectric constant tensor:
#      x y z
#    x 3.873040 0.000000 0.146630 
#    y 0.000000 4.054590 0.000000 
#    z 0.146630 0.000000 3.683730 
# 
# 
# High freq. dielectric constant tensor:
#      x y z
#    x 1.810660 0.000000 0.008300 
#    y 0.000000 1.834170 0.000000 
#    z 0.008300 0.000000 1.797580 
# 
# From -- ./inp_files/361464.got.cif
#   From: 2010.06.25/outbox.cif.g09.slc.cpg/sg12_181_cif.got.tgz:361464.got - 2010.06.28 00:19:55.
