data_PCOD8092678
_publ_section_title
;
Structure prediction by ZEFSAII (Michael W. Deem and Ramdas Pophale) SiO2 
 PCOD8092678
Probable space group: C 2/M
;
_chemical_formula_sum "Si O2"
_cell_formula_units_Z 64
_cell_length_a 29.765835
_cell_length_b 9.097566
_cell_length_c 18.703959
_cell_angle_alpha 90.000000
_cell_angle_beta 138.811579
_cell_angle_gamma 90.000000
_cell_volume 3335.471735
_symmetry_space_group_name_H-M "C 2/M"
_symmetry_group_IT_number 12
_symmetry_cell_setting 'monoclinic'
loop_
_space_group_symop_operation_xyz
x,y,z
-x,y,-z
-x,-y,-z
x,-y,z
1/2+x,1/2+y,z
1/2-x,1/2+y,-z
1/2-x,1/2-y,-z
1/2+x,1/2-y,z
loop_
_atom_site_type_symbol
_atom_site_label
_atom_site_fract_x
_atom_site_fract_y
_atom_site_fract_z
Si Si1 0.929527 0.171793 0.618732
Si Si2 0.647316 0.832723 0.231527
Si Si3 0.193192 0.168844 0.023729
Si Si4 0.976243 0.824777 0.394016
Si Si5 0.219274 0.168622 0.530625
Si Si6 0.328457 0.669087 0.168575
Si Si7 0.963789 0.828714 0.818448
Si Si8 0.403315 0.172644 0.983699
O O1 0.852943 0.239042 0.531001
O O2 0.968957 0.202318 0.739981
O O3 0.972705 0.241832 0.605100
O O4 0.922787 0.000000 0.595908
O O5 0.728273 0.817739 0.340728
O O6 0.609309 0.724756 0.240762
O O7 0.633456 0.785691 0.133956
O O8 0.622719 0.000000 0.216097
O O9 0.267531 0.235590 0.128779
O O10 0.136863 0.254168 0.000253
O O11 0.194038 0.000000 0.048285
O O12 0.170535 0.187787 0.915104
O O13 0.899415 0.770621 0.285849
O O14 0.000000 0.766784 0.500000
O O15 0.977492 0.000000 0.392156
O O16 0.250000 0.250000 0.500000
O O17 0.207489 0.000000 0.493541
O O18 0.316124 0.500000 0.175397
O O19 0.973001 0.000000 0.846344
O O20 0.020789 0.737228 0.928438
O O21 0.406896 0.000000 0.001001
#
# Coordination Sequence:
#
# PCOD8092678 Si02
#       8
#     8   8   8   8   8   8   8   8
#     4   9  18  32  52  80 109 140 180 226 272 319
#     4  10  22  37  54  78 110 145 182 228 278 329
#     4  10  20  35  56  81 108 142 183 227 272 329
#     4   9  17  30  52  81 110 141 180 224 270 324
#     4  10  19  35  57  79 107 141 181 229 275 324
#     4   9  18  34  56  81 110 142 180 227 274 326
#     4  11  21  35  56  79 107 145 185 227 275 331
#     4  11  23  37  53  79 113 145 180 226 278 331
#
# _framework density 19.18769
#
# number of rings (size 3 to 8) (size 9 to 14) (size 15 to 20)
#    0.000    2.125    1.250    2.250    0.000    6.000 
#    0.000    3.750    0.000    1.125    0.000    0.000 
#    0.000    0.000    0.000    0.000    0.000    0.000 
#
# Total GULP energy -396854.346105 kJ/mol
# GULP energy per Si atom -12401.698316 kJ/mol
# Density = 1.914402 g / cm^3
# Si number density = 19.187690 Si / 1000 Ang^3
#
#
#
# Elastic Constant Matrix: (Units=GPa)
#
#
# Indices 1 2 3 4 5 6 
#
# 1 54.1004 28.0042 25.9636 0.0000 11.7995 0.0000
# 2 28.0042 61.5071 29.0557 0.0000 0.6931 0.0000
# 3 25.9636 29.0557 120.1840 0.0000 16.5028 0.0000
# 4 0.0000 0.0000 0.0000 18.8103 0.0000 3.7859
# 5 11.7995 0.6931 16.5028 0.0000 29.3109 0.0000
# 6 0.0000 0.0000 0.0000 3.7859 0.0000 29.7852
#
#
#
# Elastic Compliance Matrix: (Units=1/GPa)
#
#
# Indices 1 2 3 4 5 6 
#
# 1 0.027450 -0.011538 -0.001800 0.000000 -0.009764 0.000000
# 2 -0.011538 0.023340 -0.004023 0.000000 0.006358 0.000000
# 3 -0.001800 -0.004023 0.010371 0.000000 -0.005020 0.000000
# 4 0.000000 0.000000 0.000000 0.054558 0.000000 -0.006935
# 5 -0.009764 0.006358 -0.005020 0.000000 0.040724 0.000000
# 6 0.000000 0.000000 0.000000 -0.006935 0.000000 0.034455
#
#
# Mechanical properties :
#
#
# Convention : Reuss Voigt Hill
#
# Bulk Modulus (GPa) = 37.82183 44.64872 41.23527
# Shear Modulus (GPa) = 21.32804 25.76581 23.54692
#
# Velocity S-wave (km/s) = 3.33761 3.66844 3.50693
# Velocity P-wave (km/s) = 5.88278 6.42365 6.15915
#
# Compressibility (1/GPa) = 0.02643976
#
# Stress axis : x y z
#
# Youngs Moduli (GPa) = 36.43012 42.84438 96.41941
#
# Poissons Ratio (x) = 0.49432 0.17355
# Poissons Ratio (y) = 0.42032 0.38792
# Poissons Ratio (z) = 0.06557 0.17238
#
# Static dielectric constant tensor:
#      x y z
#    x 3.575800 0.000000 0.148010 
#    y 0.000000 3.304980 0.000000 
#    z 0.148010 0.000000 3.722080 
# 
# 
# High freq. dielectric constant tensor:
#      x y z
#    x 1.747320 0.000000 0.009230 
#    y 0.000000 1.718520 0.000000 
#    z 0.009230 0.000000 1.757830 
# 
# From -- ./inp_files/295817.got.cif
#   From: 2010.06.25/outbox.cif.g09.slc.cpg/sg12_148_cif.got.tgz:295817.got - 2010.06.28 00:19:55.
