data_PCOD8092736
_publ_section_title
;
Structure prediction by ZEFSAII (Michael W. Deem and Ramdas Pophale) SiO2 
 PCOD8092736
Probable space group: C 2/M
;
_chemical_formula_sum "Si O2"
_cell_formula_units_Z 56
_cell_length_a 9.481902
_cell_length_b 18.094681
_cell_length_c 20.054411
_cell_angle_alpha 90.000000
_cell_angle_beta 59.860196
_cell_angle_gamma 90.000000
_cell_volume 2975.592088
_symmetry_space_group_name_H-M "C 2/M"
_symmetry_group_IT_number 12
_symmetry_cell_setting 'monoclinic'
loop_
_space_group_symop_operation_xyz
x,y,z
-x,y,-z
-x,-y,-z
x,-y,z
1/2+x,1/2+y,z
1/2-x,1/2+y,-z
1/2-x,1/2-y,-z
1/2+x,1/2-y,z
loop_
_atom_site_type_symbol
_atom_site_label
_atom_site_fract_x
_atom_site_fract_y
_atom_site_fract_z
Si Si1 0.525866 0.915549 0.567295
Si Si2 0.549868 0.828780 0.179934
Si Si3 0.167649 0.917813 0.424033
Si Si4 0.773734 0.358229 0.727816
Si Si5 0.805594 0.192132 0.695111
Si Si6 0.414501 0.336277 0.809769
Si Si7 0.426367 0.914876 0.089935
O O1 0.500000 0.877515 0.500000
O O2 0.688164 0.883198 0.564185
O O3 0.371549 0.911506 0.654590
O O4 0.565053 0.000000 0.543546
O O5 0.667103 0.860233 0.209483
O O6 0.371115 0.841012 0.250669
O O7 0.588072 0.743348 0.152213
O O8 0.553013 0.875131 0.110462
O O9 0.121593 0.855439 0.381606
O O10 0.000000 0.930442 0.500000
O O11 0.219883 0.000000 0.383342
O O12 0.794957 0.279527 0.685634
O O13 0.583348 0.380192 0.782429
O O14 0.922112 0.179835 0.729816
O O15 0.256271 0.382035 0.868350
O O16 0.413504 0.000000 0.113916
O O17 0.500000 0.904184 0.000000
#
# Coordination Sequence:
#
# PCOD8092736 Si02
#       7
#     8   8   8   8   8   8   8
#     4  10  22  37  50  72 108 146 185 233 284 332
#     4   9  18  37  59  83 115 149 188 229 280 345
#     4  10  21  36  53  74 105 145 192 235 282 346
#     4  10  19  35  57  82 110 142 186 239 282 331
#     4   9  18  34  54  81 108 141 189 233 276 330
#     4   9  20  35  58  86 115 147 186 234 282 340
#     4  10  22  40  61  88 121 153 188 231 278 337
#
# _framework density 18.819783999999999
#
# number of rings (size 3 to 8) (size 9 to 14) (size 15 to 20)
#    0.000    2.429    1.429    0.857    2.000    4.571 
#    0.000    2.143    0.000    1.714    0.000    0.000 
#    0.000    0.000    0.000    0.000    0.000    0.000 
#
# Total GULP energy -346953.079239 kJ/mol
# GULP energy per Si atom -12391.181401 kJ/mol
# Density = 1.877695 g / cm^3
# Si number density = 18.819784 Si / 1000 Ang^3
#
#
#
# Elastic Constant Matrix: (Units=GPa)
#
#
# Indices 1 2 3 4 5 6 
#
# 1 120.4037 30.2469 38.1263 0.0003 3.5386 -0.0001
# 2 30.2469 77.2878 42.0344 0.0001 10.5249 0.0000
# 3 38.1263 42.0344 77.4769 0.0001 5.9916 0.0000
# 4 0.0003 0.0001 0.0001 556.3559 0.0000 -134.5641
# 5 3.5386 10.5249 5.9916 0.0000 22.6012 0.0000
# 6 -0.0001 0.0000 0.0000 -134.5641 0.0000 57.7649
#
#
#
# Elastic Compliance Matrix: (Units=1/GPa)
#
#
# Indices 1 2 3 4 5 6 
#
# 1 0.010006 -0.001799 -0.003973 0.000000 0.000325 0.000000
# 2 -0.001799 0.019520 -0.009213 0.000000 -0.006366 0.000000
# 3 -0.003973 -0.009213 0.019888 0.000000 -0.000360 0.000000
# 4 0.000000 0.000000 0.000000 0.004117 0.000000 0.009591
# 5 0.000325 -0.006366 -0.000360 0.000000 0.047255 0.000000
# 6 0.000000 0.000000 0.000000 0.009591 0.000000 0.039654
#
#
# Mechanical properties :
#
#
# Convention : Reuss Voigt Hill
#
# Bulk Modulus (GPa) = 51.42817 55.10932 53.26875
# Shear Modulus (GPa) = 28.26594 138.32845 83.29720
#
# Velocity S-wave (km/s) = 3.87967 8.58261 6.66007
# Velocity P-wave (km/s) = 6.88877 11.29430 9.35458
#
# Compressibility (1/GPa) = 0.01944459
#
# Stress axis : x y z
#
# Youngs Moduli (GPa) = 99.94143 51.22867 50.28103
#
# Poissons Ratio (x) = 0.09218 0.19975
# Poissons Ratio (y) = 0.17983 0.46323
# Poissons Ratio (z) = 0.39704 0.47196
#
# Static dielectric constant tensor:
#      x y z
#    x 3.735070 0.000000 0.261580 
#    y 0.000000 3.392180 0.000000 
#    z 0.261580 0.000000 3.293790 
# 
# 
# High freq. dielectric constant tensor:
#      x y z
#    x 1.746040 0.000000 0.008470 
#    y 0.000000 1.718810 0.000000 
#    z 0.008470 0.000000 1.708300 
# 
# From -- ./inp_files/257013.got.cif
#   From: 2010.06.25/outbox.cif.g09.slc.cpg/sg12_129_cif.got.tgz:257013.got - 2010.06.28 00:19:55.
