data_PCOD8092872
_publ_section_title
;
Structure prediction by ZEFSAII (Michael W. Deem and Ramdas Pophale) SiO2 
 PCOD8092872
Probable space group: C 2/M
;
_chemical_formula_sum "Si O2"
_cell_formula_units_Z 56
_cell_length_a 30.122960
_cell_length_b 9.064752
_cell_length_c 17.946847
_cell_angle_alpha 90.000000
_cell_angle_beta 143.748438
_cell_angle_gamma 90.000000
_cell_volume 2897.829603
_symmetry_space_group_name_H-M "C 2/M"
_symmetry_group_IT_number 12
_symmetry_cell_setting 'monoclinic'
loop_
_space_group_symop_operation_xyz
x,y,z
-x,y,-z
-x,-y,-z
x,-y,z
1/2+x,1/2+y,z
1/2-x,1/2+y,-z
1/2-x,1/2-y,-z
1/2+x,1/2-y,z
loop_
_atom_site_type_symbol
_atom_site_label
_atom_site_fract_x
_atom_site_fract_y
_atom_site_fract_z
Si Si1 0.366381 0.672504 0.163131
Si Si2 0.003715 0.327994 0.420173
Si Si3 0.668689 0.324392 0.393636
Si Si4 0.728857 0.171582 0.080538
Si Si5 0.360868 0.832800 0.501195
Si Si6 0.783418 0.167264 0.787200
Si Si7 0.419207 0.672853 0.869731
O O1 0.376300 0.500000 0.165585
O O2 0.445285 0.741164 0.290907
O O3 0.306552 0.713390 0.145780
O O4 0.339994 0.740500 0.049183
O O5 0.983223 0.500000 0.390671
O O6 0.000000 0.269072 0.500000
O O7 0.085000 0.294087 0.494980
O O8 0.679095 0.500000 0.404854
O O9 0.750000 0.250000 0.500000
O O10 0.626331 0.276661 0.412213
O O11 0.616590 0.265142 0.255321
O O12 0.737152 0.218060 0.176815
O O13 0.711162 0.000000 0.049982
O O14 0.275537 0.814670 0.359220
O O15 0.376036 0.000000 0.548607
O O16 0.864672 0.207497 0.864903
O O17 0.781003 0.000000 0.815324
O O18 0.429594 0.500000 0.872217
O O19 0.500000 0.745109 0.000000
#
# Coordination Sequence:
#
# PCOD8092872 Si02
#       7
#     8   8   8   8   8   8   8
#     4  10  21  37  56  79 111 150 191 236 286 345
#     4  10  21  37  58  83 117 155 191 238 291 347
#     4  11  21  37  61  86 116 154 198 247 297 355
#     4  10  21  36  56  82 111 145 189 238 288 345
#     4  10  21  37  58  87 117 151 196 240 291 352
#     4  10  19  35  58  82 111 148 190 234 285 350
#     4   9  19  36  58  84 113 147 189 238 290 346
#
# _framework density 19.324808000000001
#
# number of rings (size 3 to 8) (size 9 to 14) (size 15 to 20)
#    0.000    2.000    1.429    2.143    0.000    5.429 
#    0.000    1.429    0.000    3.000    0.000    0.000 
#    0.000    0.000    0.000    0.000    0.000    0.000 
#
# Total GULP energy -347273.922630 kJ/mol
# GULP energy per Si atom -12402.640094 kJ/mol
# Density = 1.928082 g / cm^3
# Si number density = 19.324808 Si / 1000 Ang^3
#
#
#
# Elastic Constant Matrix: (Units=GPa)
#
#
# Indices 1 2 3 4 5 6 
#
# 1 86.5742 29.3126 37.5188 0.0000 -4.5604 0.0000
# 2 29.3126 52.8826 32.7974 0.0000 0.9838 0.0000
# 3 37.5188 32.7974 108.6678 0.0000 7.5019 0.0000
# 4 0.0000 0.0000 0.0000 28.6974 0.0000 -3.5139
# 5 -4.5604 0.9838 7.5019 0.0000 32.5486 0.0000
# 6 0.0000 0.0000 0.0000 -3.5139 0.0000 33.1349
#
#
#
# Elastic Compliance Matrix: (Units=1/GPa)
#
#
# Indices 1 2 3 4 5 6 
#
# 1 0.015450 -0.006371 -0.003632 0.000000 0.003194 0.000000
# 2 -0.006371 0.025919 -0.005597 0.000000 -0.000386 0.000000
# 3 -0.003632 -0.005597 0.012366 0.000000 -0.003190 0.000000
# 4 0.000000 0.000000 0.000000 0.035305 0.000000 0.003744
# 5 0.003194 -0.000386 -0.003190 0.000000 0.031918 0.000000
# 6 0.000000 0.000000 0.000000 0.003744 0.000000 0.030577
#
#
# Mechanical properties :
#
#
# Convention : Reuss Voigt Hill
#
# Bulk Modulus (GPa) = 44.37292 49.70915 47.04103
# Shear Modulus (GPa) = 26.28187 28.77590 27.52888
#
# Velocity S-wave (km/s) = 3.69183 3.86303 3.77840
# Velocity P-wave (km/s) = 6.41750 6.75841 6.59016
#
# Compressibility (1/GPa) = 0.02253627
#
# Stress axis : x y z
#
# Youngs Moduli (GPa) = 64.72436 38.58136 80.86892
#
# Poissons Ratio (x) = 0.24579 0.29372
# Poissons Ratio (y) = 0.41235 0.45259
# Poissons Ratio (z) = 0.23508 0.21592
#
# Static dielectric constant tensor:
#      x y z
#    x 3.533020 0.000000 0.009600 
#    y 0.000000 3.368620 0.000000 
#    z 0.009600 0.000000 3.664260 
# 
# 
# High freq. dielectric constant tensor:
#      x y z
#    x 1.755540 0.000000 -0.001860 
#    y 0.000000 1.734930 0.000000 
#    z -0.001860 0.000000 1.755890 
# 
# From -- ./inp_files/281024.got.cif
#   From: 2010.06.25/outbox.cif.g09.slc.cpg/sg12_141_cif.got.tgz:281024.got - 2010.06.28 00:19:55.
