data_PCOD8092530
_publ_section_title
;
Structure prediction by ZEFSAII (Michael W. Deem and Ramdas Pophale) SiO2 
 PCOD8092530
Probable space group: C 2/M
;
_chemical_formula_sum "Si O2"
_cell_formula_units_Z 64
_cell_length_a 11.971825
_cell_length_b 14.064663
_cell_length_c 15.668524
_cell_angle_alpha 90.000000
_cell_angle_beta 95.646945
_cell_angle_gamma 90.000000
_cell_volume 2625.457936
_symmetry_space_group_name_H-M "C 2/M"
_symmetry_group_IT_number 12
_symmetry_cell_setting 'monoclinic'
loop_
_space_group_symop_operation_xyz
x,y,z
-x,y,-z
-x,-y,-z
x,-y,z
1/2+x,1/2+y,z
1/2-x,1/2+y,-z
1/2-x,1/2-y,-z
1/2+x,1/2-y,z
loop_
_atom_site_type_symbol
_atom_site_label
_atom_site_fract_x
_atom_site_fract_y
_atom_site_fract_z
Si Si1 0.150575 0.279500 0.606876
Si Si2 0.892406 0.392227 0.844113
Si Si3 0.767564 0.107036 0.474572
Si Si4 0.330269 0.393192 0.035866
Si Si5 0.740024 0.276534 0.204728
Si Si6 0.546092 0.608561 0.134585
Si Si7 0.373807 0.888297 0.078275
Si Si8 0.050424 0.605229 0.345493
O O1 0.138882 0.182005 0.551303
O O2 0.221026 0.359832 0.562399
O O3 0.214401 0.256640 0.698799
O O4 0.026255 0.317113 0.614281
O O5 0.850802 0.500000 0.853450
O O6 0.782635 0.324485 0.846548
O O7 0.941665 0.374053 0.754002
O O8 0.992470 0.368605 0.919538
O O9 0.671355 0.111029 0.396479
O O10 0.816882 0.000000 0.486169
O O11 0.324907 0.500000 0.068774
O O12 0.421020 0.343644 0.107546
O O13 0.382678 0.389249 0.946343
O O14 0.199275 0.355328 0.012238
O O15 0.617213 0.327858 0.205994
O O16 0.828519 0.337548 0.159280
O O17 0.535334 0.500000 0.167077
O O18 0.353172 0.000000 0.090969
O O19 0.998363 0.500000 0.355658
#
# Coordination Sequence:
#
# PCOD8092530 Si02
#       8
#     8   8   8   8   8   8   8   8
#     4  11  21  32  54  79  98 126 166 207 244 292
#     4  10  20  33  50  74 102 130 165 208 245 285
#     4  10  22  38  54  75 101 130 162 203 249 295
#     4   7  11  23  43  68  97 127 159 196 242 290
#     4  11  19  29  49  77 102 128 161 206 248 290
#     4   8  14  24  42  70 101 129 157 197 247 292
#     4   9  17  31  53  77 100 128 164 207 248 287
#     4  10  19  35  56  75  96 126 165 206 245 287
#
# _framework density 24.376698999999999
#
# number of rings (size 3 to 8) (size 9 to 14) (size 15 to 20)
#    0.000    2.500    2.500    2.625    0.000    2.500 
#    0.000    0.625    0.000    9.750    0.000    7.000 
#    0.000    0.000    0.000    0.000    0.000    0.000 
#
# Total GULP energy -396538.429896 kJ/mol
# GULP energy per Si atom -12391.825934 kJ/mol
# Density = 2.432122 g / cm^3
# Si number density = 24.376699 Si / 1000 Ang^3
#
#
#
# Elastic Constant Matrix: (Units=GPa)
#
#
# Indices 1 2 3 4 5 6 
#
# 1 82.1123 16.4059 -28.2197 0.0000 1.6393 0.0000
# 2 16.4059 107.3637 9.0400 0.0000 -7.4362 0.0000
# 3 -28.2197 9.0400 27.3336 0.0000 5.8676 0.0000
# 4 0.0000 0.0000 0.0000 26.2248 0.0000 6.5067
# 5 1.6393 -7.4362 5.8676 0.0000 26.0820 0.0000
# 6 0.0000 0.0000 0.0000 6.5067 0.0000 30.6025
#
#
#
# Elastic Compliance Matrix: (Units=1/GPa)
#
#
# Indices 1 2 3 4 5 6 
#
# 1 0.023556 -0.006692 0.028644 0.000000 -0.009832 0.000000
# 2 -0.006692 0.011819 -0.012222 0.000000 0.006540 0.000000
# 3 0.028644 -0.012222 0.074954 0.000000 -0.022147 0.000000
# 4 0.000000 0.000000 0.000000 0.040255 0.000000 -0.008559
# 5 -0.009832 0.006540 -0.022147 0.000000 0.045806 0.000000
# 6 0.000000 0.000000 0.000000 -0.008559 0.000000 0.034497
#
#
# Mechanical properties :
#
#
# Convention : Reuss Voigt Hill
#
# Bulk Modulus (GPa) = 7.70494 23.47354 15.58924
# Shear Modulus (GPa) = 19.63173 31.22075 25.42624
#
# Velocity S-wave (km/s) = 2.84094 3.58266 3.23314
# Velocity P-wave (km/s) = 3.73215 5.17342 4.51072
#
# Compressibility (1/GPa) = 0.12978683
#
# Stress axis : x y z
#
# Youngs Moduli (GPa) = 42.45234 84.61096 13.34159
#
# Poissons Ratio (x) = 0.56624 -0.38215
# Poissons Ratio (y) = 0.28410 0.16306
# Poissons Ratio (z) = -1.21598 1.03411
#
# Static dielectric constant tensor:
#      x y z
#    x 5.161720 0.000000 0.135780 
#    y 0.000000 4.694410 0.000000 
#    z 0.135780 0.000000 4.311780 
# 
# 
# High freq. dielectric constant tensor:
#      x y z
#    x 1.970820 0.000000 0.007300 
#    y 0.000000 1.970590 0.000000 
#    z 0.007300 0.000000 1.960180 
# 
# From -- ./inp_files/263346.got.cif
#   From: 2010.06.25/outbox.cif.g09.slc.cpg/sg12_132_cif.got.tgz:263346.got - 2010.06.28 00:19:55.
