data_PCOD8092921
_publ_section_title
;
Structure prediction by ZEFSAII (Michael W. Deem and Ramdas Pophale) SiO2 
 PCOD8092921
Probable space group: C 2/M
;
_chemical_formula_sum "Si O2"
_cell_formula_units_Z 56
_cell_length_a 20.106134
_cell_length_b 18.900563
_cell_length_c 9.067216
_cell_angle_alpha 90.000000
_cell_angle_beta 58.535395
_cell_angle_gamma 90.000000
_cell_volume 2939.052581
_symmetry_space_group_name_H-M "C 2/M"
_symmetry_group_IT_number 12
_symmetry_cell_setting 'monoclinic'
loop_
_space_group_symop_operation_xyz
x,y,z
-x,y,-z
-x,-y,-z
x,-y,z
1/2+x,1/2+y,z
1/2-x,1/2+y,-z
1/2-x,1/2-y,-z
1/2+x,1/2-y,z
loop_
_atom_site_type_symbol
_atom_site_label
_atom_site_fract_x
_atom_site_fract_y
_atom_site_fract_z
Si Si1 0.616732 0.184831 0.965934
Si Si2 0.087658 0.579787 0.451316
Si Si3 0.148431 0.837890 0.998222
Si Si4 0.445674 0.808538 0.280511
Si Si5 0.417733 0.579147 0.177254
Si Si6 0.295279 0.083252 0.948196
Si Si7 0.486347 0.340682 0.346828
O O1 0.662086 0.253627 0.975741
O O2 0.606216 0.199104 0.805286
O O3 0.533481 0.170503 0.137791
O O4 0.668754 0.116137 0.943276
O O5 0.103266 0.500000 0.487726
O O6 0.099424 0.632105 0.574103
O O7 0.146417 0.600203 0.253219
O O8 0.000000 0.589426 0.500000
O O9 0.142958 0.871162 0.840288
O O10 0.214530 0.877701 0.012387
O O11 0.068223 0.850094 0.173952
O O12 0.448934 0.736922 0.371915
O O13 0.383695 0.500000 0.218562
O O14 0.426646 0.605434 0.335810
O O15 0.500000 0.582632 0.000000
O O16 0.282199 0.000000 0.986995
O O17 0.500000 0.360660 0.500000
#
# Coordination Sequence:
#
# PCOD8092921 Si02
#       7
#     8   8   8   8   8   8   8
#     4  10  20  35  58  85 112 148 192 236 283 342
#     4  10  20  36  56  81 112 151 194 233 280 338
#     4  10  20  38  57  84 117 152 191 232 282 347
#     4  10  19  35  58  84 115 145 188 243 286 331
#     4   9  17  33  56  80 110 150 192 230 273 335
#     4  11  23  38  58  84 115 154 194 237 289 337
#     4  10  20  34  59  89 116 148 189 235 286 336
#
# _framework density 19.05376
#
# number of rings (size 3 to 8) (size 9 to 14) (size 15 to 20)
#    0.000    2.000    2.857    1.286    2.000    1.429 
#    0.000    3.571    0.000    0.000    0.000    0.000 
#    0.000    0.000    0.000    0.000    0.000    0.000 
#
# Total GULP energy -347140.088169 kJ/mol
# GULP energy per Si atom -12397.860292 kJ/mol
# Density = 1.901039 g / cm^3
# Si number density = 19.053760 Si / 1000 Ang^3
#
#
#
# Elastic Constant Matrix: (Units=GPa)
#
#
# Indices 1 2 3 4 5 6 
#
# 1 89.2851 51.8133 14.4420 0.0000 18.1479 0.0000
# 2 51.8133 106.0592 33.3629 0.0000 4.6147 0.0000
# 3 14.4420 33.3629 43.7405 0.0000 19.7874 0.0000
# 4 0.0000 0.0000 0.0000 23.8464 0.0000 6.3223
# 5 18.1479 4.6147 19.7874 0.0000 30.1900 0.0000
# 6 0.0000 0.0000 0.0000 6.3223 0.0000 33.8033
#
#
#
# Elastic Compliance Matrix: (Units=1/GPa)
#
#
# Indices 1 2 3 4 5 6 
#
# 1 0.020214 -0.012467 0.010618 0.000000 -0.017205 0.000000
# 2 -0.012467 0.020944 -0.019617 0.000000 0.017150 0.000000
# 3 0.010618 -0.019617 0.050960 0.000000 -0.036785 0.000000
# 4 0.000000 0.000000 0.000000 0.044123 0.000000 -0.008252
# 5 -0.017205 0.017150 -0.036785 0.000000 0.064954 0.000000
# 6 0.000000 0.000000 0.000000 -0.008252 0.000000 0.031126
#
#
# Mechanical properties :
#
#
# Convention : Reuss Voigt Hill
#
# Bulk Modulus (GPa) = 20.33091 48.70235 34.51663
# Shear Modulus (GPa) = 17.14392 26.86572 22.00482
#
# Velocity S-wave (km/s) = 3.00286 3.75906 3.40204
# Velocity P-wave (km/s) = 4.76617 6.66759 5.79539
#
# Compressibility (1/GPa) = 0.04918619
#
# Stress axis : x y z
#
# Youngs Moduli (GPa) = 49.46992 47.74672 19.62328
#
# Poissons Ratio (x) = 0.59525 -0.20836
# Poissons Ratio (y) = 0.61673 0.38495
# Poissons Ratio (z) = -0.52527 0.93665
#
# Static dielectric constant tensor:
#      x y z
#    x 3.515510 0.000000 0.176290 
#    y 0.000000 3.634730 0.000000 
#    z 0.176290 0.000000 3.271360 
# 
# 
# High freq. dielectric constant tensor:
#      x y z
#    x 1.737170 0.000000 0.016030 
#    y 0.000000 1.750920 0.000000 
#    z 0.016030 0.000000 1.710510 
# 
# From -- ./inp_files/77395.got.cif
#   From: 2010.06.25/outbox.cif.g09.slc.cpg/sg12_39_cif.got.tgz:77395.got - 2010.06.28 00:19:55.
