data_PCOD8092875
_publ_section_title
;
Structure prediction by ZEFSAII (Michael W. Deem and Ramdas Pophale) SiO2 
 PCOD8092875
Probable space group: C 2/M
;
_chemical_formula_sum "Si O2"
_cell_formula_units_Z 64
_cell_length_a 19.618894
_cell_length_b 8.798703
_cell_length_c 31.308805
_cell_angle_alpha 90.000000
_cell_angle_beta 37.019195
_cell_angle_gamma 90.000000
_cell_volume 3253.986206
_symmetry_space_group_name_H-M "C 2/M"
_symmetry_group_IT_number 12
_symmetry_cell_setting 'monoclinic'
loop_
_space_group_symop_operation_xyz
x,y,z
-x,y,-z
-x,-y,-z
x,-y,z
1/2+x,1/2+y,z
1/2-x,1/2+y,-z
1/2-x,1/2-y,-z
1/2+x,1/2-y,z
loop_
_atom_site_type_symbol
_atom_site_label
_atom_site_fract_x
_atom_site_fract_y
_atom_site_fract_z
Si Si1 0.021154 0.319461 0.622835
Si Si2 0.490714 0.673596 0.224160
Si Si3 0.212429 0.680232 0.221905
Si Si4 0.923829 0.680375 0.499380
Si Si5 0.433578 0.325792 0.158359
Si Si6 0.777387 0.678735 0.879558
Si Si7 0.158828 0.678736 0.014114
Si Si8 0.331343 0.680087 0.380531
O O1 0.028018 0.500000 0.622793
O O2 0.904594 0.253433 0.700863
O O3 0.026397 0.265795 0.571050
O O4 0.126859 0.252073 0.596043
O O5 0.529704 0.500000 0.212774
O O6 0.420028 0.685905 0.215990
O O7 0.599202 0.780153 0.164295
O O8 0.412877 0.734209 0.301455
O O9 0.204950 0.500000 0.226822
O O10 0.316825 0.738683 0.197832
O O11 0.231313 0.738708 0.164432
O O12 0.926026 0.500000 0.501334
O O13 0.794630 0.739099 0.567500
O O14 0.000000 0.748832 0.500000
O O15 0.455810 0.500000 0.133100
O O16 0.533424 0.222796 0.090495
O O17 0.758132 0.500000 0.892904
O O18 0.680855 0.761976 0.955187
O O19 0.174179 0.500000 0.008041
O O20 0.250000 0.750000 0.000000
O O21 0.331666 0.500000 0.385410
#
# Coordination Sequence:
#
# PCOD8092875 Si02
#       8
#     8   8   8   8   8   8   8   8
#     4  10  19  35  58  82 111 152 194 232 276 334
#     4  10  20  33  55  83 112 146 190 239 284 333
#     4   9  20  36  57  85 113 148 191 235 282 334
#     4   9  19  33  54  85 117 147 188 238 282 329
#     4  10  21  38  58  82 112 148 190 236 286 338
#     4  11  21  37  60  84 114 148 189 235 280 337
#     4  12  24  39  59  85 114 148 189 233 285 340
#     4  10  20  34  54  84 115 149 190 236 285 331
#
# _framework density 19.668185000000001
#
# number of rings (size 3 to 8) (size 9 to 14) (size 15 to 20)
#    0.000    1.875    2.500    1.875    1.750    0.500 
#    0.000    4.375    0.000    1.500    0.000    0.000 
#    0.000    0.000    0.000    0.000    0.000    0.000 
#
# Total GULP energy -396871.207024 kJ/mol
# GULP energy per Si atom -12402.225220 kJ/mol
# Density = 1.962342 g / cm^3
# Si number density = 19.668185 Si / 1000 Ang^3
#
#
#
# Elastic Constant Matrix: (Units=GPa)
#
#
# Indices 1 2 3 4 5 6 
#
# 1 152.2930 23.9799 59.1483 0.0032 0.2248 0.0568
# 2 23.9799 55.7426 26.6586 0.0037 2.9957 0.0172
# 3 59.1483 26.6586 117.8023 0.0006 9.5961 0.0024
# 4 0.0032 0.0037 0.0006 19.1218 -0.0020 0.0299
# 5 0.2248 2.9957 9.5961 -0.0020 37.5136 0.0011
# 6 0.0568 0.0172 0.0024 0.0299 0.0011 23.9682
#
#
#
# Elastic Compliance Matrix: (Units=1/GPa)
#
#
# Indices 1 2 3 4 5 6 
#
# 1 0.008353 -0.001798 -0.003875 -0.000001 0.001085 -0.000018
# 2 -0.001798 0.020511 -0.003683 -0.000004 -0.000685 -0.000010
# 3 -0.003875 -0.003683 0.011482 0.000001 -0.002620 0.000011
# 4 -0.000001 -0.000004 0.000001 0.052296 0.000003 -0.000065
# 5 0.001085 -0.000685 -0.002620 0.000003 0.027375 -0.000003
# 6 -0.000018 -0.000010 0.000011 -0.000065 -0.000003 0.041722
#
#
# Mechanical properties :
#
#
# Convention : Reuss Voigt Hill
#
# Bulk Modulus (GPa) = 46.22678 60.60126 53.41402
# Shear Modulus (GPa) = 26.64335 30.52412 28.58374
#
# Velocity S-wave (km/s) = 3.68454 3.94376 3.81635
# Velocity P-wave (km/s) = 6.45410 7.18445 6.82905
#
# Compressibility (1/GPa) = 0.02163248
#
# Stress axis : x y z
#
# Youngs Moduli (GPa) = 119.71716 48.75335 87.09642
#
# Poissons Ratio (x) = 0.08767 0.33754
# Poissons Ratio (y) = 0.21528 0.32078
# Poissons Ratio (z) = 0.46396 0.17956
#
# Static dielectric constant tensor:
#      x y z
#    x 3.773780 -0.000030 0.053110 
#    y -0.000030 3.255180 -0.000010 
#    z 0.053110 -0.000010 3.873240 
# 
# 
# High freq. dielectric constant tensor:
#      x y z
#    x 1.773160 0.000000 0.007280 
#    y 0.000000 1.732050 0.000000 
#    z 0.007280 0.000000 1.778710 
# 
# From -- ./inp_files/378256.got.cif
#   From: 2010.06.25/outbox.cif.g09.slc.cpg/sg12_190_cif.got.tgz:378256.got - 2010.06.28 00:19:55.
