data_PCOD8092031
_publ_section_title
;
Structure prediction by ZEFSAII (Michael W. Deem and Ramdas Pophale) SiO2 
 PCOD8092031
Probable space group: C 2/M
;
_chemical_formula_sum "Si O2"
_cell_formula_units_Z 40
_cell_length_a 11.052881
_cell_length_b 13.251329
_cell_length_c 13.554650
_cell_angle_alpha 90.000000
_cell_angle_beta 103.451123
_cell_angle_gamma 90.000000
_cell_volume 1930.827751
_symmetry_space_group_name_H-M "C 2/M"
_symmetry_group_IT_number 12
_symmetry_cell_setting 'monoclinic'
loop_
_space_group_symop_operation_xyz
x,y,z
-x,y,-z
-x,-y,-z
x,-y,z
1/2+x,1/2+y,z
1/2-x,1/2+y,-z
1/2-x,1/2-y,-z
1/2+x,1/2-y,z
loop_
_atom_site_type_symbol
_atom_site_label
_atom_site_fract_x
_atom_site_fract_y
_atom_site_fract_z
Si Si1 0.631371 0.884870 0.446255
Si Si2 0.391974 0.266372 0.060952
Si Si3 0.317503 0.615275 0.218873
Si Si4 0.539685 0.882595 0.218138
Si Si5 0.384607 0.695908 0.425731
O O1 0.545368 0.853655 0.336007
O O2 0.613378 0.813452 0.538111
O O3 0.770667 0.871797 0.437402
O O4 0.607593 0.000000 0.474888
O O5 0.382520 0.367176 0.125623
O O6 0.430262 0.174218 0.139626
O O7 0.500000 0.282540 0.000000
O O8 0.250000 0.250000 0.000000
O O9 0.335212 0.500000 0.254553
O O10 0.170985 0.643589 0.189773
O O11 0.390491 0.688686 0.308818
O O12 0.509919 0.000000 0.201545
O O13 0.500000 0.641325 0.500000
#
# Coordination Sequence:
#
# PCOD8092031 Si02
#       5
#     8   8   8   8   8
#     4   9  19  35  58  89 124 163 207 251 296 361
#     4  12  24  41  66  95 124 158 208 270 320 365
#     4  10  22  40  61  87 125 170 210 253 311 380
#     4   9  19  39  64  89 122 169 213 246 304 386
#     4  10  19  34  58  87 124 164 203 246 307 368
#
# _framework density 20.716505000000002
#
# number of rings (size 3 to 8) (size 9 to 14) (size 15 to 20)
#    0.000    2.000    2.000    3.000    0.000    3.600 
#    0.000    1.000    0.000    0.000    0.000    0.000 
#    0.000    0.000    0.000    0.000    0.000    0.000 
#
# Total GULP energy -247783.918015 kJ/mol
# GULP energy per Si atom -12389.195901 kJ/mol
# Density = 2.066935 g / cm^3
# Si number density = 20.716505 Si / 1000 Ang^3
#
#
#
# Elastic Constant Matrix: (Units=GPa)
#
#
# Indices 1 2 3 4 5 6 
#
# 1 106.7212 36.5197 75.2499 0.0000 11.1083 0.0000
# 2 36.5197 100.6250 66.1088 0.0000 7.1451 0.0000
# 3 75.2499 66.1088 144.3375 0.0000 5.2755 0.0000
# 4 0.0000 0.0000 0.0000 37.3799 0.0000 2.5458
# 5 11.1083 7.1451 5.2755 0.0000 47.8767 0.0000
# 6 0.0000 0.0000 0.0000 2.5458 0.0000 18.1047
#
#
#
# Elastic Compliance Matrix: (Units=1/GPa)
#
#
# Indices 1 2 3 4 5 6 
#
# 1 0.015151 -0.000266 -0.007681 0.000000 -0.002629 0.000000
# 2 -0.000266 0.014315 -0.006368 0.000000 -0.001373 0.000000
# 3 -0.007681 -0.006368 0.013805 0.000000 0.001211 0.000000
# 4 0.000000 0.000000 0.000000 0.027011 0.000000 -0.003798
# 5 -0.002629 -0.001373 0.001211 0.000000 0.021568 0.000000
# 6 0.000000 0.000000 0.000000 -0.003798 0.000000 0.055768
#
#
# Mechanical properties :
#
#
# Convention : Reuss Voigt Hill
#
# Bulk Modulus (GPa) = 68.29725 78.60450 73.45087
# Shear Modulus (GPa) = 27.60462 32.25927 29.93194
#
# Velocity S-wave (km/s) = 3.65429 3.95039 3.80522
# Velocity P-wave (km/s) = 7.13052 7.67025 7.40530
#
# Compressibility (1/GPa) = 0.01464188
#
# Stress axis : x y z
#
# Youngs Moduli (GPa) = 66.00340 69.85443 72.43718
#
# Poissons Ratio (x) = 0.01856 0.55639
# Poissons Ratio (y) = 0.01753 0.46128
# Poissons Ratio (z) = 0.50697 0.44484
#
# Static dielectric constant tensor:
#      x y z
#    x 4.024270 0.000000 -0.071940 
#    y 0.000000 3.485750 0.000000 
#    z -0.071940 0.000000 4.067710 
# 
# 
# High freq. dielectric constant tensor:
#      x y z
#    x 1.819080 0.000000 -0.001460 
#    y 0.000000 1.799050 0.000000 
#    z -0.001460 0.000000 1.817470 
# 
# From -- ./inp_files/129823.got.cif
#   From: 2010.06.25/outbox.cif.g09.slc.cpg/sg12_65_cif.got.tgz:129823.got - 2010.06.28 00:19:55.
