data_PCOD8092614
_publ_section_title
;
Structure prediction by ZEFSAII (Michael W. Deem and Ramdas Pophale) SiO2 
 PCOD8092614
Probable space group: C 2/M
;
_chemical_formula_sum "Si O2"
_cell_formula_units_Z 44
_cell_length_a 9.257365
_cell_length_b 26.689800
_cell_length_c 16.008529
_cell_angle_alpha 90.000000
_cell_angle_beta 143.811592
_cell_angle_gamma 90.000000
_cell_volume 2335.402094
_symmetry_space_group_name_H-M "C 2/M"
_symmetry_group_IT_number 12
_symmetry_cell_setting 'monoclinic'
loop_
_space_group_symop_operation_xyz
x,y,z
-x,y,-z
-x,-y,-z
x,-y,z
1/2+x,1/2+y,z
1/2-x,1/2+y,-z
1/2-x,1/2-y,-z
1/2+x,1/2-y,z
loop_
_atom_site_type_symbol
_atom_site_label
_atom_site_fract_x
_atom_site_fract_y
_atom_site_fract_z
Si Si1 0.157219 0.943119 0.997206
Si Si2 0.985095 0.284596 0.626978
Si Si3 0.764940 0.802297 0.331992
Si Si4 0.890732 0.611982 0.861043
Si Si5 0.058027 0.943713 0.281805
Si Si6 0.500000 0.869624 0.500000
O O1 0.984945 0.940716 0.836615
O O2 0.237861 0.000000 0.054254
O O3 0.400178 0.910634 0.099944
O O4 0.000000 0.920586 0.000000
O O5 0.750000 0.250000 0.500000
O O6 0.975457 0.299246 0.720581
O O7 0.999983 0.335492 0.581922
O O8 0.215572 0.250770 0.707661
O O9 0.738536 0.843487 0.248546
O O10 0.000000 0.814532 0.500000
O O11 0.691429 0.569147 0.785977
O O12 0.000000 0.631965 0.000000
O O13 0.265173 0.904347 0.401240
O O14 0.136736 0.000000 0.344712
#
# Coordination Sequence:
#
# PCOD8092614 Si02
#       6
#     8   8   8   8   8   4
#     4   9  19  37  58  81 111 150 196 240 287 343
#     4  10  19  35  56  82 112 153 191 233 283 341
#     4  10  20  36  59  85 114 150 195 236 288 342
#     4  10  21  38  61  84 117 155 198 234 290 345
#     4  10  21  36  58  85 117 154 192 236 287 345
#     4  12  21  34  62  88 120 150 193 236 292 346
#
# _framework density 18.840439
#
# number of rings (size 3 to 8) (size 9 to 14) (size 15 to 20)
#    0.000    2.000    2.727    3.000    2.545    2.182 
#    0.000    0.909    0.000    2.182    0.000    0.000 
#    0.000    0.000    0.000    0.000    0.000    0.000 
#
# Total GULP energy -272741.883549 kJ/mol
# GULP energy per Si atom -12397.358343 kJ/mol
# Density = 1.879756 g / cm^3
# Si number density = 18.840439 Si / 1000 Ang^3
#
#
#
# Elastic Constant Matrix: (Units=GPa)
#
#
# Indices 1 2 3 4 5 6 
#
# 1 161.0522 61.3574 35.7608 0.0000 -9.6223 0.0000
# 2 61.3574 132.6928 46.8354 0.0000 -4.7938 0.0000
# 3 35.7608 46.8354 55.6392 0.0000 1.9912 0.0000
# 4 0.0000 0.0000 0.0000 15.4602 0.0000 -8.5292
# 5 -9.6223 -4.7938 1.9912 0.0000 23.0559 0.0000
# 6 0.0000 0.0000 0.0000 -8.5292 0.0000 18.6559
#
#
#
# Elastic Compliance Matrix: (Units=1/GPa)
#
#
# Indices 1 2 3 4 5 6 
#
# 1 0.008051 -0.002482 -0.003197 0.000000 0.003120 0.000000
# 2 -0.002482 0.011700 -0.008330 0.000000 0.002116 0.000000
# 3 -0.003197 -0.008330 0.027234 0.000000 -0.005418 0.000000
# 4 0.000000 0.000000 0.000000 0.086499 0.000000 0.039546
# 5 0.003120 0.002116 -0.005418 0.000000 0.045583 0.000000
# 6 0.000000 0.000000 0.000000 0.039546 0.000000 0.071682
#
#
# Mechanical properties :
#
#
# Convention : Reuss Voigt Hill
#
# Bulk Modulus (GPa) = 52.72152 70.81016 61.76584
# Shear Modulus (GPa) = 17.53841 25.12977 21.33409
#
# Velocity S-wave (km/s) = 3.05436 3.65611 3.36870
# Velocity P-wave (km/s) = 6.36261 7.44907 6.92717
#
# Compressibility (1/GPa) = 0.01896759
#
# Stress axis : x y z
#
# Youngs Moduli (GPa) = 124.20906 85.46892 36.71947
#
# Poissons Ratio (x) = 0.21209 0.11741
# Poissons Ratio (y) = 0.30823 0.30586
# Poissons Ratio (z) = 0.39714 0.71193
#
# Static dielectric constant tensor:
#      x y z
#    x 3.968620 0.000000 -0.096660 
#    y 0.000000 3.496780 0.000000 
#    z -0.096660 0.000000 3.167590 
# 
# 
# High freq. dielectric constant tensor:
#      x y z
#    x 1.756550 0.000000 -0.003700 
#    y 0.000000 1.735220 0.000000 
#    z -0.003700 0.000000 1.692150 
# 
# From -- ./inp_files/200713.got.cif
#   From: 2010.06.25/outbox.cif.g09.slc.cpg/sg12_101_cif.got.tgz:200713.got - 2010.06.28 00:19:55.
