data_PCOD8092454
_publ_section_title
;
Structure prediction by ZEFSAII (Michael W. Deem and Ramdas Pophale) SiO2 
 PCOD8092454
Probable space group: C 2/M
;
_chemical_formula_sum "Si O2"
_cell_formula_units_Z 56
_cell_length_a 18.555684
_cell_length_b 11.199453
_cell_length_c 23.910598
_cell_angle_alpha 90.000000
_cell_angle_beta 39.246287
_cell_angle_gamma 90.000000
_cell_volume 3143.628812
_symmetry_space_group_name_H-M "C 2/M"
_symmetry_group_IT_number 12
_symmetry_cell_setting 'monoclinic'
loop_
_space_group_symop_operation_xyz
x,y,z
-x,y,-z
-x,-y,-z
x,-y,z
1/2+x,1/2+y,z
1/2-x,1/2+y,-z
1/2-x,1/2-y,-z
1/2+x,1/2-y,z
loop_
_atom_site_type_symbol
_atom_site_label
_atom_site_fract_x
_atom_site_fract_y
_atom_site_fract_z
Si Si1 0.603417 0.500000 0.359440
Si Si2 0.311303 0.645830 0.999689
Si Si3 0.236337 0.860752 0.844454
Si Si4 0.929935 0.139449 0.148447
Si Si5 0.728521 0.136990 0.346773
Si Si6 0.321051 0.255653 0.512686
Si Si7 0.085611 0.252312 0.339179
Si Si8 0.846030 0.000000 0.551184
O O1 0.620684 0.614228 0.309914
O O2 0.479423 0.500000 0.460788
O O3 0.686732 0.500000 0.363286
O O4 0.292615 0.500000 0.995724
O O5 0.442986 0.686235 0.917697
O O6 0.250000 0.750000 0.000000
O O7 0.269342 0.672816 0.087513
O O8 0.131736 0.805630 0.870253
O O9 0.357748 0.820698 0.746489
O O10 0.229257 0.000000 0.840235
O O11 0.853228 0.172891 0.248438
O O12 0.941943 0.000000 0.131991
O O13 0.722376 0.158421 0.416602
O O14 0.629695 0.208437 0.373873
O O15 0.705130 0.000000 0.347422
O O16 0.250000 0.250000 0.500000
O O17 0.451079 0.229464 0.418799
O O18 0.292826 0.383583 0.555624
#
# Coordination Sequence:
#
# PCOD8092454 Si02
#       8
#     4   8   8   8   8   8   8   4
#     4   9  16  32  58  70  94 135 186 220 250 309
#     4  10  20  36  60  83 112 147 175 214 270 325
#     4   9  18  34  58  84 105 132 180 228 262 309
#     4   8  16  33  58  82 101 132 180 223 257 307
#     4  10  20  34  55  80 103 132 178 226 263 307
#     4  11  23  34  50  73 108 145 176 215 265 315
#     4  10  19  35  55  77 102 137 180 222 261 311
#     4   9  18  36  50  70  96 138 185 217 250 318
#
# _framework density 17.813808000000002
#
# number of rings (size 3 to 8) (size 9 to 14) (size 15 to 20)
#    0.000    2.429    1.429    2.143    1.000    4.571 
#    1.286    0.000    7.857    0.857    0.000    0.000 
#    0.000    0.000    0.000    0.000    0.000    0.000 
#
# Total GULP energy -346909.726545 kJ/mol
# GULP energy per Si atom -12389.633091 kJ/mol
# Density = 1.777326 g / cm^3
# Si number density = 17.813808 Si / 1000 Ang^3
#
#
#
# Elastic Constant Matrix: (Units=GPa)
#
#
# Indices 1 2 3 4 5 6 
#
# 1 110.2470 42.3716 72.0229 0.0000 6.0980 0.0000
# 2 42.3716 40.4908 30.6114 0.0000 4.7008 0.0000
# 3 72.0229 30.6114 109.1736 0.0000 0.7706 0.0000
# 4 0.0000 0.0000 0.0000 18.3088 0.0000 -9.0540
# 5 6.0980 4.7008 0.7706 0.0000 20.9508 0.0000
# 6 0.0000 0.0000 0.0000 -9.0540 0.0000 1.3095
#
#
#
# Elastic Compliance Matrix: (Units=1/GPa)
#
#
# Indices 1 2 3 4 5 6 
#
# 1 0.021268 -0.014418 -0.009970 0.000000 -0.002589 0.000000
# 2 -0.014418 0.042088 -0.002253 0.000000 -0.005164 0.000000
# 3 -0.009970 -0.002253 0.016349 0.000000 0.002806 0.000000
# 4 0.000000 0.000000 0.000000 -0.022576 0.000000 -0.156101
# 5 -0.002589 -0.005164 0.002806 0.000000 0.049540 0.000000
# 6 0.000000 0.000000 0.000000 -0.156101 0.000000 -0.315663
#
#
# Mechanical properties :
#
#
# Convention : Reuss Voigt Hill
#
# Bulk Modulus (GPa) = 37.84591 61.10258 49.47425
# Shear Modulus (GPa) = -34.03546 15.77417 -9.13064
#
# Velocity S-wave (km/s) = -4.37581 2.97897 -2.26643
# Velocity P-wave (km/s) = 2.05885 6.79761 4.58086
#
# Compressibility (1/GPa) = 0.02642293
#
# Stress axis : x y z
#
# Youngs Moduli (GPa) = 47.01810 23.75994 61.16669
#
# Poissons Ratio (x) = 0.34258 0.60983
# Poissons Ratio (y) = 0.67793 0.13778
# Poissons Ratio (z) = 0.46877 0.05352
#
# Static dielectric constant tensor:
#      x y z
#    x 3.337730 0.000000 -0.011560 
#    y 0.000000 2.649750 0.000000 
#    z -0.011560 0.000000 3.427860 
# 
# 
# High freq. dielectric constant tensor:
#      x y z
#    x 1.676950 0.000000 0.001790 
#    y 0.000000 1.680400 0.000000 
#    z 0.001790 0.000000 1.687710 
# 
# From -- ./inp_files/315286.got.cif
#   From: 2010.06.25/outbox.cif.g09.slc.cpg/sg12_158_cif.got.tgz:315286.got - 2010.06.28 00:19:55.
