data_PCOD8092053
_publ_section_title
;
Structure prediction by ZEFSAII (Michael W. Deem and Ramdas Pophale) SiO2 
 PCOD8092053
Probable space group: C 2/M
;
_chemical_formula_sum "Si O2"
_cell_formula_units_Z 64
_cell_length_a 23.013180
_cell_length_b 10.650623
_cell_length_c 13.128843
_cell_angle_alpha 90.000000
_cell_angle_beta 70.819085
_cell_angle_gamma 90.000000
_cell_volume 3039.299950
_symmetry_space_group_name_H-M "C 2/M"
_symmetry_group_IT_number 12
_symmetry_cell_setting 'monoclinic'
loop_
_space_group_symop_operation_xyz
x,y,z
-x,y,-z
-x,-y,-z
x,-y,z
1/2+x,1/2+y,z
1/2-x,1/2+y,-z
1/2-x,1/2-y,-z
1/2+x,1/2-y,z
loop_
_atom_site_type_symbol
_atom_site_label
_atom_site_fract_x
_atom_site_fract_y
_atom_site_fract_z
Si Si1 0.007892 0.858120 0.760474
Si Si2 0.775536 0.862534 0.856051
Si Si3 0.736110 0.783406 0.667745
Si Si4 0.832588 0.638858 0.483508
Si Si5 0.942662 0.726008 0.972985
Si Si6 0.025438 0.644721 0.597965
Si Si7 0.832649 0.362743 0.926592
Si Si8 0.373496 0.639659 0.187017
O O1 0.991263 0.747631 0.689346
O O2 0.080153 0.847165 0.744557
O O3 0.970046 0.837048 0.886821
O O4 0.993034 0.000000 0.728391
O O5 0.759927 0.868711 0.745904
O O6 0.824139 0.750554 0.850589
O O7 0.803433 0.000000 0.868973
O O8 0.713073 0.837602 0.953478
O O9 0.795866 0.733687 0.575445
O O10 0.694111 0.864101 0.615665
O O11 0.694912 0.671053 0.736063
O O12 0.826809 0.500000 0.533411
O O13 0.903136 0.680205 0.441981
O O14 0.903191 0.631979 0.925669
O O15 0.893352 0.775576 0.081634
O O16 0.000000 0.659906 0.000000
O O17 0.014513 0.500000 0.642328
O O18 0.000000 0.661704 0.500000
O O19 0.819694 0.500000 0.883933
O O20 0.372316 0.500000 0.144699
#
# Coordination Sequence:
#
# PCOD8092053 Si02
#       8
#     8   8   8   8   8   8   8   8
#     4  10  21  38  60  90 124 160 207 257 304 363
#     4  10  22  40  61  88 122 165 207 251 306 362
#     4  11  20  37  62  89 118 159 204 258 311 369
#     4  10  22  38  59  90 122 153 204 260 311 368
#     4  10  21  38  60  93 129 163 202 252 308 368
#     4  10  22  42  64  86 120 167 208 253 313 371
#     4  10  22  40  60  89 126 163 208 251 298 366
#     4  10  19  34  58  89 123 162 200 247 309 374
#
# _framework density 21.057480999999999
#
# number of rings (size 3 to 8) (size 9 to 14) (size 15 to 20)
#    0.000    1.875    2.500    1.125    0.000    5.500 
#    0.000    3.750    0.000    0.000    0.000    0.000 
#    0.000    0.000    0.000    0.000    0.000    0.000 
#
# Total GULP energy -396642.062546 kJ/mol
# GULP energy per Si atom -12395.064455 kJ/mol
# Density = 2.100955 g / cm^3
# Si number density = 21.057481 Si / 1000 Ang^3
#
#
#
# Elastic Constant Matrix: (Units=GPa)
#
#
# Indices 1 2 3 4 5 6 
#
# 1 86.5753 38.7036 23.0921 0.0000 11.1656 0.0000
# 2 38.7036 121.4756 33.9229 0.0000 10.6850 0.0000
# 3 23.0921 33.9229 82.1283 0.0000 10.0337 0.0000
# 4 0.0000 0.0000 0.0000 14.0926 0.0000 10.8648
# 5 11.1656 10.6850 10.0337 0.0000 24.2549 0.0000
# 6 0.0000 0.0000 0.0000 10.8648 0.0000 16.3950
#
#
#
# Elastic Compliance Matrix: (Units=1/GPa)
#
#
# Indices 1 2 3 4 5 6 
#
# 1 0.014233 -0.003611 -0.002005 0.000000 -0.004132 0.000000
# 2 -0.003611 0.010385 -0.003074 0.000000 -0.001641 0.000000
# 3 -0.002005 -0.003074 0.014462 0.000000 -0.003705 0.000000
# 4 0.000000 0.000000 0.000000 0.145082 0.000000 -0.096144
# 5 -0.004132 -0.001641 -0.003705 0.000000 0.045386 0.000000
# 6 0.000000 0.000000 0.000000 -0.096144 0.000000 0.124708
#
#
# Mechanical properties :
#
#
# Convention : Reuss Voigt Hill
#
# Bulk Modulus (GPa) = 46.08422 53.51294 49.79858
# Shear Modulus (GPa) = 13.19710 23.91254 18.55482
#
# Velocity S-wave (km/s) = 2.50615 3.37350 2.97164
# Velocity P-wave (km/s) = 5.50517 6.37510 5.95604
#
# Compressibility (1/GPa) = 0.02169940
#
# Stress axis : x y z
#
# Youngs Moduli (GPa) = 70.26002 96.28867 69.14545
#
# Poissons Ratio (x) = 0.34773 0.13867
# Poissons Ratio (y) = 0.25373 0.21254
# Poissons Ratio (z) = 0.14090 0.29597
#
# Static dielectric constant tensor:
#      x y z
#    x 3.802440 0.000000 0.062270 
#    y 0.000000 3.691030 0.000000 
#    z 0.062270 0.000000 3.599420 
# 
# 
# High freq. dielectric constant tensor:
#      x y z
#    x 1.822710 0.000000 0.000110 
#    y 0.000000 1.819330 0.000000 
#    z 0.000110 0.000000 1.812030 
# 
# From -- ./inp_files/175250.got.cif
#   From: 2010.06.25/outbox.cif.g09.slc.cpg/sg12_88_cif.got.tgz:175250.got - 2010.06.28 00:19:55.
