data_PCOD8092991
_publ_section_title
;
Structure prediction by ZEFSAII (Michael W. Deem and Ramdas Pophale) SiO2 
 PCOD8092991
Probable space group: C 2/M
;
_chemical_formula_sum "Si O2"
_cell_formula_units_Z 56
_cell_length_a 15.907015
_cell_length_b 9.062324
_cell_length_c 22.775814
_cell_angle_alpha 90.000000
_cell_angle_beta 120.655396
_cell_angle_gamma 90.000000
_cell_volume 2824.402537
_symmetry_space_group_name_H-M "C 2/M"
_symmetry_group_IT_number 12
_symmetry_cell_setting 'monoclinic'
loop_
_space_group_symop_operation_xyz
x,y,z
-x,y,-z
-x,-y,-z
x,-y,z
1/2+x,1/2+y,z
1/2-x,1/2+y,-z
1/2-x,1/2-y,-z
1/2+x,1/2-y,z
loop_
_atom_site_type_symbol
_atom_site_label
_atom_site_fract_x
_atom_site_fract_y
_atom_site_fract_z
Si Si1 0.437544 0.173806 0.420990
Si Si2 0.021752 0.829649 0.070799
Si Si3 0.229726 0.325807 0.343910
Si Si4 0.812220 0.832215 0.787187
Si Si5 0.369629 0.166303 0.199630
Si Si6 0.461109 0.174396 0.660590
Si Si7 0.174738 0.830313 0.931496
O O1 0.500000 0.214292 0.500000
O O2 0.332440 0.248197 0.391748
O O3 0.498022 0.238088 0.386601
O O4 0.419346 0.000000 0.408500
O O5 0.117058 0.764191 0.137136
O O6 0.932549 0.804705 0.082220
O O7 0.044106 0.000000 0.065795
O O8 0.000000 0.751700 0.000000
O O9 0.246176 0.500000 0.346774
O O10 0.180200 0.271741 0.266293
O O11 0.152240 0.282744 0.368120
O O12 0.701599 0.832018 0.769905
O O13 0.844527 0.000000 0.782458
O O14 0.472091 0.230459 0.260920
O O15 0.323331 0.267160 0.133125
O O16 0.380685 0.000000 0.178705
O O17 0.472733 0.000000 0.662276
O O18 0.204762 0.000000 0.939968
O O19 0.250000 0.750000 0.000000
#
# Coordination Sequence:
#
# PCOD8092991 Si02
#       7
#     8   8   8   8   8   8   8
#     4  10  21  41  66  88 116 159 206 242 283 355
#     4   9  18  33  53  77 103 138 188 240 284 332
#     4  11  22  36  58  88 124 155 189 243 303 350
#     4  10  19  35  60  83 109 150 197 238 285 351
#     4  10  19  35  59  80 108 149 189 233 288 348
#     4   9  19  37  59  87 120 156 193 238 297 352
#     4  11  22  35  52  77 109 143 187 239 293 349
#
# _framework density 19.827203000000001
#
# number of rings (size 3 to 8) (size 9 to 14) (size 15 to 20)
#    0.000    2.000    1.429    2.571    0.000    3.714 
#    0.000    2.857    0.000    3.000    0.000    0.000 
#    0.000    0.000    0.000    0.000    0.000    0.000 
#
# Total GULP energy -347149.739541 kJ/mol
# GULP energy per Si atom -12398.204984 kJ/mol
# Density = 1.978208 g / cm^3
# Si number density = 19.827203 Si / 1000 Ang^3
#
#
#
# Elastic Constant Matrix: (Units=GPa)
#
#
# Indices 1 2 3 4 5 6 
#
# 1 115.6740 40.9240 73.6041 0.0000 8.0411 0.0000
# 2 40.9240 56.3060 38.9359 0.0000 1.2089 0.0000
# 3 73.6041 38.9359 136.4607 0.0000 8.3956 0.0000
# 4 0.0000 0.0000 0.0000 26.7984 0.0000 2.3931
# 5 8.0411 1.2089 8.3956 0.0000 31.4158 0.0000
# 6 0.0000 0.0000 0.0000 2.3931 0.0000 24.0226
#
#
#
# Elastic Compliance Matrix: (Units=1/GPa)
#
#
# Indices 1 2 3 4 5 6 
#
# 1 0.015001 -0.006664 -0.006069 0.000000 -0.001961 0.000000
# 2 -0.006664 0.025108 -0.003676 0.000000 0.001722 0.000000
# 3 -0.006069 -0.003676 0.011739 0.000000 -0.001442 0.000000
# 4 0.000000 0.000000 0.000000 0.037651 0.000000 -0.003751
# 5 -0.001961 0.001722 -0.001442 0.000000 0.032652 0.000000
# 6 0.000000 0.000000 0.000000 -0.003751 0.000000 0.042001
#
#
# Mechanical properties :
#
#
# Convention : Reuss Voigt Hill
#
# Bulk Modulus (GPa) = 52.54581 68.37432 60.46006
# Shear Modulus (GPa) = 24.59267 26.77914 25.68591
#
# Velocity S-wave (km/s) = 3.52568 3.67907 3.60319
# Velocity P-wave (km/s) = 6.56760 7.25310 6.91884
#
# Compressibility (1/GPa) = 0.01903101
#
# Stress axis : x y z
#
# Youngs Moduli (GPa) = 66.66383 39.82762 85.18524
#
# Poissons Ratio (x) = 0.26540 0.51699
# Poissons Ratio (y) = 0.44423 0.31311
# Poissons Ratio (z) = 0.40458 0.14639
#
# Static dielectric constant tensor:
#      x y z
#    x 3.595390 0.000000 -0.056170 
#    y 0.000000 3.054560 0.000000 
#    z -0.056170 0.000000 3.689390 
# 
# 
# High freq. dielectric constant tensor:
#      x y z
#    x 1.783670 0.000000 0.005480 
#    y 0.000000 1.736650 0.000000 
#    z 0.005480 0.000000 1.781780 
# 
# From -- ./inp_files/339075.got.cif
#   From: 2010.06.25/outbox.cif.g09.slc.cpg/sg12_170_cif.got.tgz:339075.got - 2010.06.28 00:19:55.
