data_PCOD8092225
_publ_section_title
;
Structure prediction by ZEFSAII (Michael W. Deem and Ramdas Pophale) SiO2 
 PCOD8092225
Probable space group: C 2/M
;
_chemical_formula_sum "Si O2"
_cell_formula_units_Z 56
_cell_length_a 19.327953
_cell_length_b 9.361079
_cell_length_c 18.300647
_cell_angle_alpha 90.000000
_cell_angle_beta 111.696903
_cell_angle_gamma 90.000000
_cell_volume 3076.558951
_symmetry_space_group_name_H-M "C 2/M"
_symmetry_group_IT_number 12
_symmetry_cell_setting 'monoclinic'
loop_
_space_group_symop_operation_xyz
x,y,z
-x,y,-z
-x,-y,-z
x,-y,z
1/2+x,1/2+y,z
1/2-x,1/2+y,-z
1/2-x,1/2-y,-z
1/2+x,1/2-y,z
loop_
_atom_site_type_symbol
_atom_site_label
_atom_site_fract_x
_atom_site_fract_y
_atom_site_fract_z
Si Si1 0.625433 0.162730 0.875798
Si Si2 0.707784 0.665081 0.704022
Si Si3 0.930808 0.662714 0.301977
Si Si4 0.578623 0.668119 0.998020
Si Si5 0.776428 0.167226 0.856309
Si Si6 0.699450 0.336022 0.534712
Si Si7 0.557032 0.158063 0.456410
O O1 0.570330 0.183833 0.785615
O O2 0.709431 0.208081 0.885644
O O3 0.625296 0.000000 0.903669
O O4 0.593683 0.261807 0.926237
O O5 0.705141 0.500000 0.726349
O O6 0.626202 0.731015 0.681532
O O7 0.767939 0.746269 0.777659
O O8 0.731228 0.682851 0.628902
O O9 0.906745 0.500000 0.312139
O O10 0.013383 0.694449 0.364140
O O11 0.576974 0.500000 0.984362
O O12 0.644795 0.711702 0.078687
O O13 0.500000 0.722247 0.000000
O O14 0.772352 0.000000 0.836099
O O15 0.699003 0.500000 0.511102
O O16 0.750000 0.250000 0.500000
O O17 0.616192 0.279311 0.494980
O O18 0.500000 0.157932 0.500000
O O19 0.594169 0.000000 0.464330
#
# Coordination Sequence:
#
# PCOD8092225 Si02
#       7
#     8   8   8   8   8   8   8
#     4   9  18  33  55  81 107 138 178 219 260 313
#     4  10  20  34  55  83 110 138 181 234 273 315
#     4   9  18  34  56  84 113 143 179 222 273 328
#     4  10  21  37  55  78 110 142 174 216 268 325
#     4   9  19  36  58  80 105 140 179 219 267 327
#     4  11  24  39  55  79 113 150 190 234 277 325
#     4  10  19  34  60  85 110 148 186 223 274 330
#
# _framework density 18.202154
#
# number of rings (size 3 to 8) (size 9 to 14) (size 15 to 20)
#    0.000    2.286    1.429    2.143    0.000    5.714 
#    2.571    0.000    0.000    0.000    0.000    0.000 
#    0.000    0.000    0.000    0.000    0.000    0.000 
#
# Total GULP energy -347209.013438 kJ/mol
# GULP energy per Si atom -12400.321909 kJ/mol
# Density = 1.816073 g / cm^3
# Si number density = 18.202154 Si / 1000 Ang^3
#
#
#
# Elastic Constant Matrix: (Units=GPa)
#
#
# Indices 1 2 3 4 5 6 
#
# 1 88.8588 46.9863 64.0613 0.0000 1.5629 0.0000
# 2 46.9863 94.6820 64.7171 0.0000 -8.1565 0.0000
# 3 64.0613 64.7171 128.3630 0.0000 7.1677 0.0000
# 4 0.0000 0.0000 0.0000 29.2000 0.0000 -11.0706
# 5 1.5629 -8.1565 7.1677 0.0000 24.8451 0.0000
# 6 0.0000 0.0000 0.0000 -11.0706 0.0000 16.6994
#
#
#
# Elastic Compliance Matrix: (Units=1/GPa)
#
#
# Indices 1 2 3 4 5 6 
#
# 1 0.018732 -0.004557 -0.007014 0.000000 -0.000651 0.000000
# 2 -0.004557 0.018844 -0.007712 0.000000 0.008698 0.000000
# 3 -0.007014 -0.007712 0.015546 0.000000 -0.006576 0.000000
# 4 0.000000 0.000000 0.000000 0.045744 0.000000 0.030325
# 5 -0.000651 0.008698 -0.006576 0.000000 0.045043 0.000000
# 6 0.000000 0.000000 0.000000 0.030325 0.000000 0.079986
#
#
# Mechanical properties :
#
#
# Convention : Reuss Voigt Hill
#
# Bulk Modulus (GPa) = 68.70538 73.71480 71.21009
# Shear Modulus (GPa) = 18.70464 23.22484 20.96474
#
# Velocity S-wave (km/s) = 3.20911 3.57590 3.39746
# Velocity P-wave (km/s) = 7.18045 7.59179 7.38898
#
# Compressibility (1/GPa) = 0.01455490
#
# Stress axis : x y z
#
# Youngs Moduli (GPa) = 53.38454 53.06812 64.32427
#
# Poissons Ratio (x) = 0.24185 0.45120
# Poissons Ratio (y) = 0.24330 0.49605
# Poissons Ratio (z) = 0.37446 0.40925
#
# Static dielectric constant tensor:
#      x y z
#    x 3.010030 0.000000 0.033920 
#    y 0.000000 3.454530 0.000000 
#    z 0.033920 0.000000 3.490890 
# 
# 
# High freq. dielectric constant tensor:
#      x y z
#    x 1.682400 0.000000 0.006530 
#    y 0.000000 1.707760 0.000000 
#    z 0.006530 0.000000 1.718150 
# 
# From -- ./inp_files/275565.got.cif
#   From: 2010.06.25/outbox.cif.g09.slc.cpg/sg12_138_cif.got.tgz:275565.got - 2010.06.28 00:19:55.
