data_PCOD8092152
_publ_section_title
;
Structure prediction by ZEFSAII (Michael W. Deem and Ramdas Pophale) SiO2 
 PCOD8092152
Probable space group: C 2/M
;
_chemical_formula_sum "Si O2"
_cell_formula_units_Z 64
_cell_length_a 25.817739
_cell_length_b 9.127130
_cell_length_c 15.087792
_cell_angle_alpha 90.000000
_cell_angle_beta 62.653147
_cell_angle_gamma 90.000000
_cell_volume 3157.980010
_symmetry_space_group_name_H-M "C 2/M"
_symmetry_group_IT_number 12
_symmetry_cell_setting 'monoclinic'
loop_
_space_group_symop_operation_xyz
x,y,z
-x,y,-z
-x,-y,-z
x,-y,z
1/2+x,1/2+y,z
1/2-x,1/2+y,-z
1/2-x,1/2-y,-z
1/2+x,1/2-y,z
loop_
_atom_site_type_symbol
_atom_site_label
_atom_site_fract_x
_atom_site_fract_y
_atom_site_fract_z
Si Si1 0.564098 0.159497 0.479690
Si Si2 0.630966 0.171753 0.259658
Si Si3 0.435204 0.828797 0.204306
Si Si4 0.772830 0.835970 0.565067
Si Si5 0.382546 0.327321 0.079637
Si Si6 0.247284 0.169742 0.763884
Si Si7 0.899334 0.163956 0.396341
Si Si8 0.070654 0.328353 0.127901
O O1 0.500000 0.128234 0.500000
O O2 0.601457 0.237543 0.371952
O O3 0.555480 0.258747 0.573492
O O4 0.592429 0.000000 0.482306
O O5 0.700342 0.208139 0.208294
O O6 0.600175 0.232799 0.195162
O O7 0.618605 0.000000 0.270704
O O8 0.422456 0.753695 0.120618
O O9 0.392828 0.755203 0.310542
O O10 0.501452 0.800338 0.182837
O O11 0.421098 0.000000 0.207562
O O12 0.750000 0.750000 0.500000
O O13 0.753275 0.760967 0.670283
O O14 0.841873 0.836390 0.501083
O O15 0.747396 0.000000 0.584740
O O16 0.394531 0.500000 0.076948
O O17 0.314231 0.290246 0.143801
O O18 0.400485 0.267610 0.970723
O O19 0.250066 0.000000 0.734747
O O20 0.919370 0.000000 0.355762
O O21 0.084201 0.500000 0.101719
#
# Coordination Sequence:
#
# PCOD8092152 Si02
#       8
#     8   8   8   8   8   8   8   8
#     4  10  19  34  59  87 115 155 203 241 281 344
#     4   9  18  36  61  86 117 155 197 247 293 342
#     4  11  23  40  63  89 118 155 203 251 296 358
#     4  11  23  37  56  84 118 155 198 241 289 350
#     4  11  24  40  60  89 121 154 197 248 307 367
#     4  10  21  39  61  85 118 159 199 242 297 355
#     4  11  23  37  55  86 123 155 188 235 298 355
#     4  10  22  41  64  89 115 151 202 252 299 355
#
# _framework density 20.266120000000001
#
# number of rings (size 3 to 8) (size 9 to 14) (size 15 to 20)
#    0.000    1.625    1.250    3.375    0.000   10.750 
#    0.000    1.250    0.000    0.000    0.000    0.000 
#    0.000    0.000    0.000    0.000    0.000    0.000 
#
# Total GULP energy -396765.900964 kJ/mol
# GULP energy per Si atom -12398.934405 kJ/mol
# Density = 2.021999 g / cm^3
# Si number density = 20.266120 Si / 1000 Ang^3
#
#
#
# Elastic Constant Matrix: (Units=GPa)
#
#
# Indices 1 2 3 4 5 6 
#
# 1 92.1741 37.5935 25.1596 0.0000 15.2674 0.0000
# 2 37.5935 102.2497 51.2783 0.0001 6.2629 0.0002
# 3 25.1596 51.2783 111.5264 0.0000 14.9526 0.0000
# 4 0.0000 0.0001 0.0000 36.7033 0.0000 -2.3846
# 5 15.2674 6.2629 14.9526 0.0000 38.0176 0.0000
# 6 0.0000 0.0002 0.0000 -2.3846 0.0000 13.7796
#
#
#
# Elastic Compliance Matrix: (Units=1/GPa)
#
#
# Indices 1 2 3 4 5 6 
#
# 1 0.013546 -0.004516 -0.000369 0.000000 -0.004551 0.000000
# 2 -0.004516 0.014218 -0.005751 0.000000 0.001733 0.000000
# 3 -0.000369 -0.005751 0.012190 0.000000 -0.003699 0.000000
# 4 0.000000 0.000000 0.000000 0.027555 0.000000 0.004769
# 5 -0.004551 0.001733 -0.003699 0.000000 0.029300 0.000000
# 6 0.000000 0.000000 0.000000 0.004769 0.000000 0.073396
#
#
# Mechanical properties :
#
#
# Convention : Reuss Voigt Hill
#
# Bulk Modulus (GPa) = 53.53051 59.33479 56.43265
# Shear Modulus (GPa) = 25.29013 30.49468 27.89241
#
# Velocity S-wave (km/s) = 3.53640 3.88327 3.71389
# Velocity P-wave (km/s) = 6.56856 7.03191 6.80418
#
# Compressibility (1/GPa) = 0.01868094
#
# Stress axis : x y z
#
# Youngs Moduli (GPa) = 73.82509 70.33116 82.03528
#
# Poissons Ratio (x) = 0.31764 0.03028
# Poissons Ratio (y) = 0.33342 0.47178
# Poissons Ratio (z) = 0.02725 0.40447
#
# Static dielectric constant tensor:
#      x y z
#    x 3.977450 0.000000 0.029660 
#    y 0.000000 3.675270 0.000000 
#    z 0.029660 0.000000 3.684730 
# 
# 
# High freq. dielectric constant tensor:
#      x y z
#    x 1.799000 0.000000 0.001880 
#    y 0.000000 1.781320 0.000000 
#    z 0.001880 0.000000 1.794130 
# 
# From -- ./inp_files/243868.got.cif
#   From: 2010.06.25/outbox.cif.g09.slc.cpg/sg12_122_cif.got.tgz:243868.got - 2010.06.28 00:19:55.
