data_PCOD8092881
_publ_section_title
;
Structure prediction by ZEFSAII (Michael W. Deem and Ramdas Pophale) SiO2 
 PCOD8092881
Probable space group: C 2/M
;
_chemical_formula_sum "Si O2"
_cell_formula_units_Z 64
_cell_length_a 24.937010
_cell_length_b 9.204796
_cell_length_c 18.735589
_cell_angle_alpha 90.000000
_cell_angle_beta 130.720069
_cell_angle_gamma 90.000000
_cell_volume 3259.426364
_symmetry_space_group_name_H-M "C 2/M"
_symmetry_group_IT_number 12
_symmetry_cell_setting 'monoclinic'
loop_
_space_group_symop_operation_xyz
x,y,z
-x,y,-z
-x,-y,-z
x,-y,z
1/2+x,1/2+y,z
1/2-x,1/2+y,-z
1/2-x,1/2-y,-z
1/2+x,1/2-y,z
loop_
_atom_site_type_symbol
_atom_site_label
_atom_site_fract_x
_atom_site_fract_y
_atom_site_fract_z
Si Si1 0.977286 0.829350 0.656561
Si Si2 0.575813 0.169535 0.985331
Si Si3 0.451288 0.327340 0.797245
Si Si4 0.114104 0.339719 0.765641
Si Si5 0.813539 0.658689 0.027438
Si Si6 0.209630 0.666848 0.724313
Si Si7 0.931257 0.331261 0.485790
Si Si8 0.850351 0.669501 0.805419
O O1 0.961462 0.779910 0.723907
O O2 0.924133 0.754130 0.554710
O O3 0.055267 0.780205 0.699834
O O4 0.970681 0.000000 0.643029
O O5 0.513108 0.268213 0.901837
O O6 0.648331 0.221117 0.009563
O O7 0.559378 0.000000 0.954138
O O8 0.590120 0.193070 0.081443
O O9 0.448182 0.500000 0.802367
O O10 0.377738 0.256556 0.759957
O O11 0.087801 0.500000 0.715618
O O12 0.126671 0.346168 0.860393
O O13 0.186759 0.302259 0.786662
O O14 0.782845 0.500000 0.983937
O O15 0.750000 0.750000 0.000000
O O16 0.233703 0.500000 0.734332
O O17 0.140538 0.705079 0.618184
O O18 0.273814 0.771628 0.760720
O O19 0.937477 0.500000 0.509190
O O20 0.000000 0.279981 0.500000
O O21 0.842659 0.500000 0.780724
#
# Coordination Sequence:
#
# PCOD8092881 Si02
#       8
#     8   8   8   8   8   8   8   8
#     4  11  23  37  58  90 120 148 191 247 295 340
#     4  10  21  38  59  85 117 154 199 247 295 349
#     4  11  24  41  61  86 117 157 204 250 293 345
#     4  10  19  35  58  82 115 158 194 230 288 352
#     4  10  20  32  51  79 116 157 192 234 287 347
#     4  10  21  38  61  89 120 155 196 240 287 354
#     4  10  20  38  64  91 120 156 195 233 289 361
#     4  11  24  40  60  87 119 157 199 247 300 350
#
# _framework density 19.635356999999999
#
# number of rings (size 3 to 8) (size 9 to 14) (size 15 to 20)
#    0.000    1.625    2.500    2.250    0.000    6.250 
#    0.000    0.625    0.000    0.000    0.000    0.000 
#    0.000    0.000    0.000    0.000    0.000    0.000 
#
# Total GULP energy -396760.510988 kJ/mol
# GULP energy per Si atom -12398.765968 kJ/mol
# Density = 1.959067 g / cm^3
# Si number density = 19.635357 Si / 1000 Ang^3
#
#
#
# Elastic Constant Matrix: (Units=GPa)
#
#
# Indices 1 2 3 4 5 6 
#
# 1 111.2897 54.7260 23.7207 0.0000 -10.9864 0.0000
# 2 54.7260 81.8852 33.5313 0.0000 -4.8716 0.0000
# 3 23.7207 33.5313 60.5860 0.0000 -9.8684 0.0000
# 4 0.0000 0.0000 0.0000 31.0282 0.0000 3.4002
# 5 -10.9864 -4.8716 -9.8684 0.0000 22.0419 0.0000
# 6 0.0000 0.0000 0.0000 3.4002 0.0000 34.8383
#
#
#
# Elastic Compliance Matrix: (Units=1/GPa)
#
#
# Indices 1 2 3 4 5 6 
#
# 1 0.013905 -0.009181 0.000470 0.000000 0.005112 0.000000
# 2 -0.009181 0.021858 -0.009126 0.000000 -0.003831 0.000000
# 3 0.000470 -0.009126 0.022740 0.000000 0.008398 0.000000
# 4 0.000000 0.000000 0.000000 0.032577 0.000000 -0.003180
# 5 0.005112 -0.003831 0.008398 0.000000 0.050829 0.000000
# 6 0.000000 0.000000 0.000000 -0.003180 0.000000 0.029014
#
#
# Mechanical properties :
#
#
# Convention : Reuss Voigt Hill
#
# Bulk Modulus (GPa) = 43.80726 53.07966 48.44346
# Shear Modulus (GPa) = 23.34176 27.03387 25.18781
#
# Velocity S-wave (km/s) = 3.45158 3.71454 3.58548
# Velocity P-wave (km/s) = 6.18412 6.74452 6.47039
#
# Compressibility (1/GPa) = 0.02282726
#
# Stress axis : x y z
#
# Youngs Moduli (GPa) = 71.91725 45.75075 43.97460
#
# Poissons Ratio (x) = 0.42005 -0.02067
# Poissons Ratio (y) = 0.66029 0.40133
# Poissons Ratio (z) = -0.03380 0.41754
#
# Static dielectric constant tensor:
#      x y z
#    x 3.744000 0.000000 -0.277230 
#    y 0.000000 3.240980 0.000000 
#    z -0.277230 0.000000 3.620360 
# 
# 
# High freq. dielectric constant tensor:
#      x y z
#    x 1.771240 0.000000 -0.010860 
#    y 0.000000 1.760670 0.000000 
#    z -0.010860 0.000000 1.756460 
# 
# From -- ./inp_files/324301.got.cif
#   From: 2010.06.25/outbox.cif.g09.slc.cpg/sg12_163_cif.got.tgz:324301.got - 2010.06.28 00:19:55.
