data_PCOD8092891
_publ_section_title
;
Structure prediction by ZEFSAII (Michael W. Deem and Ramdas Pophale) SiO2 
 PCOD8092891
Probable space group: C 2/M
;
_chemical_formula_sum "Si O2"
_cell_formula_units_Z 64
_cell_length_a 20.376561
_cell_length_b 9.249700
_cell_length_c 24.397165
_cell_angle_alpha 90.000000
_cell_angle_beta 129.703041
_cell_angle_gamma 90.000000
_cell_volume 3537.778942
_symmetry_space_group_name_H-M "C 2/M"
_symmetry_group_IT_number 12
_symmetry_cell_setting 'monoclinic'
loop_
_space_group_symop_operation_xyz
x,y,z
-x,y,-z
-x,-y,-z
x,-y,z
1/2+x,1/2+y,z
1/2-x,1/2+y,-z
1/2-x,1/2-y,-z
1/2+x,1/2-y,z
loop_
_atom_site_type_symbol
_atom_site_label
_atom_site_fract_x
_atom_site_fract_y
_atom_site_fract_z
Si Si1 0.533567 0.668319 0.288222
Si Si2 0.202561 0.668701 0.927135
Si Si3 0.505482 0.330601 0.439289
Si Si4 0.407603 0.831375 0.298908
Si Si5 0.729251 0.333835 0.153687
Si Si6 0.837098 0.164917 0.548774
Si Si7 0.941901 0.669863 0.919220
Si Si8 0.492861 0.831749 0.164832
O O1 0.509462 0.500000 0.270614
O O2 0.455901 0.752094 0.275322
O O3 0.619534 0.689318 0.369069
O O4 0.550076 0.737119 0.237129
O O5 0.214148 0.500000 0.943435
O O6 0.241854 0.718688 0.890712
O O7 0.104027 0.711060 0.875229
O O8 0.250000 0.750000 0.000000
O O9 0.500000 0.292171 0.500000
O O10 0.489394 0.500000 0.419149
O O11 0.432040 0.239460 0.370012
O O12 0.597601 0.284408 0.464218
O O13 0.306558 0.811321 0.237445
O O14 0.432992 0.000000 0.311154
O O15 0.700676 0.500000 0.136864
O O16 0.650765 0.239076 0.131168
O O17 0.750000 0.250000 0.500000
O O18 0.812665 0.000000 0.526134
O O19 0.929698 0.500000 0.919485
O O20 0.986986 0.711726 0.886576
O O21 0.000000 0.730527 0.000000
O O22 0.511441 0.000000 0.185580
#
# Coordination Sequence:
#
# PCOD8092891 Si02
#       8
#     8   8   8   8   8   8   8   8
#     4  10  20  35  57  84 112 144 184 228 275 324
#     4  10  20  35  55  81 108 137 178 226 272 321
#     4   9  19  37  58  82 114 146 183 229 271 319
#     4  10  19  35  58  83 112 146 184 228 277 326
#     4  10  21  37  56  79 111 145 179 226 278 327
#     4   9  19  35  55  81 110 143 179 219 267 318
#     4  10  22  39  58  79 108 147 186 228 276 330
#     4  10  20  37  57  79 110 144 183 227 273 326
#
# _framework density 18.090447000000001
#
# number of rings (size 3 to 8) (size 9 to 14) (size 15 to 20)
#    0.000    2.250    1.250    2.250    0.000    6.500 
#    2.250    0.000    0.000    0.000    0.000    0.000 
#    0.000    0.000    0.000    0.000    0.000    0.000 
#
# Total GULP energy -396859.141193 kJ/mol
# GULP energy per Si atom -12401.848162 kJ/mol
# Density = 1.804927 g / cm^3
# Si number density = 18.090447 Si / 1000 Ang^3
#
#
#
# Elastic Constant Matrix: (Units=GPa)
#
#
# Indices 1 2 3 4 5 6 
#
# 1 76.2551 43.9479 50.3030 0.0000 -6.2795 0.0000
# 2 43.9479 70.8099 60.1564 0.0000 -2.9478 0.0000
# 3 50.3030 60.1564 122.2151 0.0000 -13.4660 0.0000
# 4 0.0000 0.0000 0.0000 38.6716 0.0000 1.3016
# 5 -6.2795 -2.9478 -13.4660 0.0000 33.2308 0.0000
# 6 0.0000 0.0000 0.0000 1.3016 0.0000 31.6055
#
#
#
# Elastic Compliance Matrix: (Units=1/GPa)
#
#
# Indices 1 2 3 4 5 6 
#
# 1 0.021541 -0.010182 -0.003669 0.000000 0.001680 0.000000
# 2 -0.010182 0.029339 -0.010651 0.000000 -0.003638 0.000000
# 3 -0.003669 -0.010651 0.015444 0.000000 0.004620 0.000000
# 4 0.000000 0.000000 0.000000 0.025895 0.000000 -0.001066
# 5 0.001680 -0.003638 0.004620 0.000000 0.031960 0.000000
# 6 0.000000 0.000000 0.000000 -0.001066 0.000000 0.031684
#
#
# Mechanical properties :
#
#
# Convention : Reuss Voigt Hill
#
# Bulk Modulus (GPa) = 57.73882 64.23276 60.98579
# Shear Modulus (GPa) = 23.73714 28.35978 26.04846
#
# Velocity S-wave (km/s) = 3.62627 3.96367 3.79872
# Velocity P-wave (km/s) = 7.03699 7.51872 7.28184
#
# Compressibility (1/GPa) = 0.01731937
#
# Stress axis : x y z
#
# Youngs Moduli (GPa) = 46.42312 34.08427 64.74953
#
# Poissons Ratio (x) = 0.34706 0.23757
# Poissons Ratio (y) = 0.47270 0.68965
# Poissons Ratio (z) = 0.17033 0.36303
#
# Static dielectric constant tensor:
#      x y z
#    x 3.249830 0.000000 -0.132710 
#    y 0.000000 3.329580 0.000000 
#    z -0.132710 0.000000 3.442350 
# 
# 
# High freq. dielectric constant tensor:
#      x y z
#    x 1.691740 0.000000 -0.005110 
#    y 0.000000 1.700480 0.000000 
#    z -0.005110 0.000000 1.709310 
# 
# From -- ./inp_files/346310.got.cif
#   From: 2010.06.25/outbox.cif.g09.slc.cpg/sg12_174_cif.got.tgz:346310.got - 2010.06.28 00:19:55.
