data_PCOD8092076
_publ_section_title
;
Structure prediction by ZEFSAII (Michael W. Deem and Ramdas Pophale) SiO2 
 PCOD8092076
Probable space group: C 2/M
;
_chemical_formula_sum "Si O2"
_cell_formula_units_Z 56
_cell_length_a 19.596720
_cell_length_b 16.947401
_cell_length_c 9.864773
_cell_angle_alpha 90.000000
_cell_angle_beta 119.126938
_cell_angle_gamma 90.000000
_cell_volume 2861.924101
_symmetry_space_group_name_H-M "C 2/M"
_symmetry_group_IT_number 12
_symmetry_cell_setting 'monoclinic'
loop_
_space_group_symop_operation_xyz
x,y,z
-x,y,-z
-x,-y,-z
x,-y,z
1/2+x,1/2+y,z
1/2-x,1/2+y,-z
1/2-x,1/2-y,-z
1/2+x,1/2-y,z
loop_
_atom_site_type_symbol
_atom_site_label
_atom_site_fract_x
_atom_site_fract_y
_atom_site_fract_z
Si Si1 0.145634 0.814806 0.334816
Si Si2 0.501202 0.412124 0.839427
Si Si3 0.598366 0.142214 0.941651
Si Si4 0.644214 0.312087 0.016162
Si Si5 0.179321 0.346582 0.509961
Si Si6 0.202906 0.590031 0.818004
Si Si7 0.069911 0.588050 0.203015
O O1 0.075554 0.873963 0.304979
O O2 0.144330 0.737934 0.429602
O O3 0.229159 0.856574 0.435629
O O4 0.132710 0.794634 0.164614
O O5 0.508580 0.500000 0.786305
O O6 0.576824 0.361464 0.876073
O O7 0.500000 0.415749 0.000000
O O8 0.638832 0.225800 0.944961
O O9 0.638696 0.083195 0.874329
O O10 0.504104 0.143968 0.833031
O O11 0.615130 0.115809 0.111700
O O12 0.722908 0.359498 0.060143
O O13 0.165041 0.363799 0.654154
O O14 0.132677 0.412728 0.383130
O O15 0.227969 0.500000 0.803542
O O16 0.036883 0.500000 0.151764
#
# Coordination Sequence:
#
# PCOD8092076 Si02
#       7
#     8   8   8   8   8   8   8
#     4   9  18  33  54  83 113 150 190 228 270 337
#     4   9  17  29  52  85 115 142 182 233 282 324
#     4  11  22  38  58  82 112 149 190 235 279 333
#     4  10  19  34  59  82 112 148 188 228 281 336
#     4  10  20  35  56  80 114 151 185 228 282 335
#     4  11  23  38  56  85 119 144 183 238 288 334
#     4  11  22  37  59  82 110 148 192 234 280 331
#
# _framework density 19.567256
#
# number of rings (size 3 to 8) (size 9 to 14) (size 15 to 20)
#    0.000    1.857    1.429    3.857    4.000    4.571 
#    0.000    1.429    0.000    0.000    0.000    1.000 
#    0.000    0.000    0.000    0.000    0.000    0.000 
#
# Total GULP energy -347065.159573 kJ/mol
# GULP energy per Si atom -12395.184270 kJ/mol
# Density = 1.952272 g / cm^3
# Si number density = 19.567256 Si / 1000 Ang^3
#
#
#
# Elastic Constant Matrix: (Units=GPa)
#
#
# Indices 1 2 3 4 5 6 
#
# 1 91.4795 40.4151 57.4728 0.0000 0.9667 0.0000
# 2 40.4151 122.0541 39.9542 0.0000 11.1616 0.0000
# 3 57.4728 39.9542 84.9716 0.0000 27.5243 0.0000
# 4 0.0000 0.0000 0.0000 18.7788 0.0000 4.8119
# 5 0.9667 11.1616 27.5243 0.0000 30.7606 0.0000
# 6 0.0000 0.0000 0.0000 4.8119 0.0000 27.1776
#
#
#
# Elastic Compliance Matrix: (Units=1/GPa)
#
#
# Indices 1 2 3 4 5 6 
#
# 1 0.027056 -0.003136 -0.023824 0.000000 0.021605 0.000000
# 2 -0.003136 0.010061 -0.002054 0.000000 -0.001714 0.000000
# 3 -0.023824 -0.002054 0.039941 0.000000 -0.034245 0.000000
# 4 0.000000 0.000000 0.000000 0.055782 0.000000 -0.009876
# 5 0.021605 -0.001714 -0.034245 0.000000 0.063094 0.000000
# 6 0.000000 0.000000 0.000000 -0.009876 0.000000 0.038544
#
#
# Mechanical properties :
#
#
# Convention : Reuss Voigt Hill
#
# Bulk Modulus (GPa) = 52.54989 63.79882 58.17436
# Shear Modulus (GPa) = 16.73080 26.05426 21.39253
#
# Velocity S-wave (km/s) = 2.92728 3.65296 3.31007
# Velocity P-wave (km/s) = 6.19190 7.10407 6.66361
#
# Compressibility (1/GPa) = 0.01902953
#
# Stress axis : x y z
#
# Youngs Moduli (GPa) = 36.96018 99.39663 25.03675
#
# Poissons Ratio (x) = 0.31170 0.59647
# Poissons Ratio (y) = 0.11591 0.05144
# Poissons Ratio (z) = 0.88054 0.20420
#
# Static dielectric constant tensor:
#      x y z
#    x 3.308200 0.000000 0.243410 
#    y 0.000000 3.625330 0.000000 
#    z 0.243410 0.000000 3.469430 
# 
# 
# High freq. dielectric constant tensor:
#      x y z
#    x 1.744590 0.000000 0.026090 
#    y 0.000000 1.772310 0.000000 
#    z 0.026090 0.000000 1.746000 
# 
# From -- ./inp_files/88095.got.cif
#   From: 2010.06.25/outbox.cif.g09.slc.cpg/sg12_45_cif.got.tgz:88095.got - 2010.06.28 00:19:55.
