data_PCOD8092952
_publ_section_title
;
Structure prediction by ZEFSAII (Michael W. Deem and Ramdas Pophale) SiO2 
 PCOD8092952
Probable space group: C 2/M
;
_chemical_formula_sum "Si O2"
_cell_formula_units_Z 52
_cell_length_a 22.983318
_cell_length_b 12.823475
_cell_length_c 11.668508
_cell_angle_alpha 90.000000
_cell_angle_beta 125.217375
_cell_angle_gamma 90.000000
_cell_volume 2809.570429
_symmetry_space_group_name_H-M "C 2/M"
_symmetry_group_IT_number 12
_symmetry_cell_setting 'monoclinic'
loop_
_space_group_symop_operation_xyz
x,y,z
-x,y,-z
-x,-y,-z
x,-y,z
1/2+x,1/2+y,z
1/2-x,1/2+y,-z
1/2-x,1/2-y,-z
1/2+x,1/2-y,z
loop_
_atom_site_type_symbol
_atom_site_label
_atom_site_fract_x
_atom_site_fract_y
_atom_site_fract_z
Si Si1 0.500000 0.730846 0.500000
Si Si2 0.856872 0.121031 0.390426
Si Si3 0.214251 0.285800 0.842664
Si Si4 0.527615 0.245574 0.907756
Si Si5 0.155982 0.118692 0.129891
Si Si6 0.565269 0.120680 0.745436
Si Si7 0.603546 0.379728 0.314249
O O1 0.434431 0.653199 0.436096
O O2 0.492619 0.807739 0.383745
O O3 0.799044 0.185571 0.252956
O O4 0.851323 0.145719 0.520010
O O5 0.843178 0.000000 0.348549
O O6 0.266008 0.360522 0.830374
O O7 0.143660 0.350752 0.789992
O O8 0.250000 0.250000 0.000000
O O9 0.552777 0.144104 0.865700
O O10 0.467349 0.310390 0.772638
O O11 0.500000 0.207933 0.000000
O O12 0.597196 0.316463 0.995583
O O13 0.154483 0.144128 0.263988
O O14 0.135367 0.000000 0.084516
O O15 0.550283 0.000000 0.704301
O O16 0.578500 0.500000 0.287470
#
# Coordination Sequence:
#
# PCOD8092952 Si02
#       7
#     4   8   8   8   8   8   8
#     4  10  20  38  56  84 112 144 180 228 282 334
#     4  10  21  36  59  85 112 142 183 233 281 327
#     4  11  23  39  52  81 114 153 188 226 273 331
#     4  10  19  35  58  86 114 144 183 234 279 327
#     4  10  20  36  58  82 114 152 188 226 275 331
#     4  11  22  37  57  80 111 149 187 229 276 333
#     4   9  18  35  60  88 111 139 183 237 285 325
#
# _framework density 18.508167
#
# number of rings (size 3 to 8) (size 9 to 14) (size 15 to 20)
#    0.000    1.846    3.077    1.385    0.000    4.000 
#    0.000    0.000    0.000    0.000    0.000    0.000 
#    0.000    0.000    0.000    0.000    0.000    0.000 
#
# Total GULP energy -322390.093829 kJ/mol
# GULP energy per Si atom -12399.618993 kJ/mol
# Density = 1.846604 g / cm^3
# Si number density = 18.508167 Si / 1000 Ang^3
#
#
#
# Elastic Constant Matrix: (Units=GPa)
#
#
# Indices 1 2 3 4 5 6 
#
# 1 92.0540 23.1689 23.1195 0.0000 -11.6383 0.0000
# 2 23.1689 57.9276 25.1701 0.0000 -14.6294 0.0000
# 3 23.1195 25.1701 95.0113 0.0000 -14.6827 0.0000
# 4 0.0000 0.0000 0.0000 23.9240 0.0000 -7.2381
# 5 -11.6383 -14.6294 -14.6827 0.0000 25.3543 0.0000
# 6 0.0000 0.0000 0.0000 -7.2381 0.0000 24.5308
#
#
#
# Elastic Compliance Matrix: (Units=1/GPa)
#
#
# Indices 1 2 3 4 5 6 
#
# 1 0.012533 -0.003601 -0.001678 0.000000 0.002703 0.000000
# 2 -0.003601 0.022650 -0.003690 0.000000 0.009279 0.000000
# 3 -0.001678 -0.003690 0.012590 0.000000 0.004391 0.000000
# 4 0.000000 0.000000 0.000000 0.045896 0.000000 0.013542
# 5 0.002703 0.009279 0.004391 0.000000 0.048579 0.000000
# 6 0.000000 0.000000 0.000000 0.013542 0.000000 0.044761
#
#
# Mechanical properties :
#
#
# Convention : Reuss Voigt Hill
#
# Bulk Modulus (GPa) = 33.51838 43.10111 38.30975
# Shear Modulus (GPa) = 23.26765 26.33079 24.79922
#
# Velocity S-wave (km/s) = 3.54949 3.77591 3.66444
# Velocity P-wave (km/s) = 5.91167 6.50754 6.21675
#
# Compressibility (1/GPa) = 0.02983437
#
# Stress axis : x y z
#
# Youngs Moduli (GPa) = 79.79139 44.15018 79.43091
#
# Poissons Ratio (x) = 0.15897 0.13328
# Poissons Ratio (y) = 0.28731 0.29312
# Poissons Ratio (z) = 0.13389 0.16292
#
# Static dielectric constant tensor:
#      x y z
#    x 3.488430 0.000000 -0.176670 
#    y 0.000000 3.284600 0.000000 
#    z -0.176670 0.000000 3.506650 
# 
# 
# High freq. dielectric constant tensor:
#      x y z
#    x 1.720620 0.000000 -0.014900 
#    y 0.000000 1.709780 0.000000 
#    z -0.014900 0.000000 1.721890 
# 
# From -- ./inp_files/165091.got.cif
#   From: 2010.06.25/outbox.cif.g09.slc.cpg/sg12_83_cif.got.tgz:165091.got - 2010.06.28 00:19:55.
