data_PCOD8092493
_publ_section_title
;
Structure prediction by ZEFSAII (Michael W. Deem and Ramdas Pophale) SiO2 
 PCOD8092493
Probable space group: C 2/M
;
_chemical_formula_sum "Si O2"
_cell_formula_units_Z 56
_cell_length_a 30.689874
_cell_length_b 8.904978
_cell_length_c 11.699100
_cell_angle_alpha 90.000000
_cell_angle_beta 116.374930
_cell_angle_gamma 90.000000
_cell_volume 2864.461334
_symmetry_space_group_name_H-M "C 2/M"
_symmetry_group_IT_number 12
_symmetry_cell_setting 'monoclinic'
loop_
_space_group_symop_operation_xyz
x,y,z
-x,y,-z
-x,-y,-z
x,-y,z
1/2+x,1/2+y,z
1/2-x,1/2+y,-z
1/2-x,1/2-y,-z
1/2+x,1/2-y,z
loop_
_atom_site_type_symbol
_atom_site_label
_atom_site_fract_x
_atom_site_fract_y
_atom_site_fract_z
Si Si1 0.949092 0.672287 0.386172
Si Si2 0.089789 0.676736 0.288384
Si Si3 0.021557 0.327389 0.834308
Si Si4 0.898865 0.176760 0.933223
Si Si5 0.317288 0.173502 0.986305
Si Si6 0.127690 0.172264 0.552453
Si Si7 0.291522 0.328888 0.182667
O O1 0.937146 0.500000 0.405039
O O2 0.950585 0.695342 0.252316
O O3 0.908596 0.781273 0.388653
O O4 0.000000 0.719837 0.500000
O O5 0.094482 0.500000 0.279859
O O6 0.112134 0.754157 0.203187
O O7 0.121349 0.726502 0.433668
O O8 0.033970 0.727105 0.242577
O O9 0.023127 0.500000 0.875218
O O10 0.048318 0.231067 0.962139
O O11 0.857254 0.227101 0.971134
O O12 0.899158 0.000000 0.923510
O O13 0.265466 0.204928 0.865689
O O14 0.332914 0.000000 0.996604
O O15 0.314524 0.218122 0.115925
O O16 0.182058 0.196229 0.665034
O O17 0.117981 0.000000 0.508226
O O18 0.298679 0.500000 0.147791
#
# Coordination Sequence:
#
# PCOD8092493 Si02
#       7
#     8   8   8   8   8   8   8
#     4  10  19  35  55  80 113 151 191 229 270 327
#     4  11  23  41  60  80 111 153 198 236 276 338
#     4  10  21  38  60  83 111 151 196 237 279 334
#     4  12  25  39  57  84 116 148 190 240 289 337
#     4  10  20  38  63  88 115 150 191 232 281 339
#     4  11  22  36  56  86 120 151 185 232 291 339
#     4   9  20  38  61  90 120 148 183 234 288 339
#
# _framework density 19.549923
#
# number of rings (size 3 to 8) (size 9 to 14) (size 15 to 20)
#    0.000    1.571    1.429    3.857    0.000    7.714 
#    0.000    0.714    0.000    0.000    0.000    0.000 
#    0.000    0.000    0.000    0.000    0.000    0.000 
#
# Total GULP energy -347359.277291 kJ/mol
# GULP energy per Si atom -12405.688475 kJ/mol
# Density = 1.950543 g / cm^3
# Si number density = 19.549923 Si / 1000 Ang^3
#
#
#
# Elastic Constant Matrix: (Units=GPa)
#
#
# Indices 1 2 3 4 5 6 
#
# 1 47.5658 30.5456 32.3009 0.0000 5.8510 0.0000
# 2 30.5456 97.9299 46.8007 0.0000 3.4052 0.0000
# 3 32.3009 46.8007 116.2991 0.0000 8.0878 0.0000
# 4 0.0000 0.0000 0.0000 32.5635 0.0000 -4.1876
# 5 5.8510 3.4052 8.0878 0.0000 24.3944 0.0000
# 6 0.0000 0.0000 0.0000 -4.1876 0.0000 29.0035
#
#
#
# Elastic Compliance Matrix: (Units=1/GPa)
#
#
# Indices 1 2 3 4 5 6 
#
# 1 0.029268 -0.006485 -0.005214 0.000000 -0.004386 0.000000
# 2 -0.006485 0.014080 -0.003927 0.000000 0.000892 0.000000
# 3 -0.005214 -0.003927 0.011773 0.000000 -0.002105 0.000000
# 4 0.000000 0.000000 0.000000 0.031290 0.000000 0.004518
# 5 -0.004386 0.000892 -0.002105 0.000000 0.042618 0.000000
# 6 0.000000 0.000000 0.000000 0.004518 0.000000 0.035131
#
#
# Mechanical properties :
#
#
# Convention : Reuss Voigt Hill
#
# Bulk Modulus (GPa) = 41.89459 53.45436 47.67448
# Shear Modulus (GPa) = 24.58581 27.33543 25.96062
#
# Velocity S-wave (km/s) = 3.55010 3.74336 3.64801
# Velocity P-wave (km/s) = 6.18711 6.78863 6.49484
#
# Compressibility (1/GPa) = 0.02386943
#
# Stress axis : x y z
#
# Youngs Moduli (GPa) = 34.16657 71.02430 84.93742
#
# Poissons Ratio (x) = 0.46057 0.44290
# Poissons Ratio (y) = 0.22156 0.33354
# Poissons Ratio (z) = 0.17816 0.27890
#
# Static dielectric constant tensor:
#      x y z
#    x 3.482830 0.000000 0.102270 
#    y 0.000000 3.547340 0.000000 
#    z 0.102270 0.000000 3.676320 
# 
# 
# High freq. dielectric constant tensor:
#      x y z
#    x 1.748870 0.000000 0.005600 
#    y 0.000000 1.763380 0.000000 
#    z 0.005600 0.000000 1.769990 
# 
# From -- ./inp_files/187778.got.cif
#   From: 2010.06.25/outbox.cif.g09.slc.cpg/sg12_94_cif.got.tgz:187778.got - 2010.06.28 00:19:55.
