data_PCOD8092572
_publ_section_title
;
Structure prediction by ZEFSAII (Michael W. Deem and Ramdas Pophale) SiO2 
 PCOD8092572
Probable space group: C 2/M
;
_chemical_formula_sum "Si O2"
_cell_formula_units_Z 56
_cell_length_a 14.409781
_cell_length_b 17.201992
_cell_length_c 12.269820
_cell_angle_alpha 90.000000
_cell_angle_beta 74.830448
_cell_angle_gamma 90.000000
_cell_volume 2935.429733
_symmetry_space_group_name_H-M "C 2/M"
_symmetry_group_IT_number 12
_symmetry_cell_setting 'monoclinic'
loop_
_space_group_symop_operation_xyz
x,y,z
-x,y,-z
-x,-y,-z
x,-y,z
1/2+x,1/2+y,z
1/2-x,1/2+y,-z
1/2-x,1/2-y,-z
1/2+x,1/2-y,z
loop_
_atom_site_type_symbol
_atom_site_label
_atom_site_fract_x
_atom_site_fract_y
_atom_site_fract_z
Si Si1 0.072884 0.660566 0.378936
Si Si2 0.222497 0.808133 0.603955
Si Si3 0.907657 0.724153 0.966477
Si Si4 0.454204 0.590420 0.398690
Si Si5 0.315424 0.186863 0.209458
Si Si6 0.895886 0.815206 0.756128
Si Si7 0.501120 0.089428 0.191657
O O1 0.182522 0.646962 0.383199
O O2 0.061960 0.744773 0.327985
O O3 0.000000 0.654573 0.500000
O O4 0.042275 0.595153 0.301319
O O5 0.250000 0.750000 0.500000
O O6 0.149545 0.870965 0.579807
O O7 0.170117 0.761684 0.717663
O O8 0.880688 0.787737 0.884756
O O9 0.930915 0.639292 0.908902
O O10 0.823864 0.714358 0.081067
O O11 0.000000 0.757705 0.000000
O O12 0.500000 0.614285 0.500000
O O13 0.436926 0.500000 0.393298
O O14 0.527024 0.615961 0.279648
O O15 0.206927 0.155202 0.258093
O O16 0.391739 0.121067 0.218817
O O17 0.502538 0.000000 0.153607
#
# Coordination Sequence:
#
# PCOD8092572 Si02
#       7
#     8   8   8   8   8   8   8
#     4  10  20  35  57  81 104 137 179 223 266 313
#     4  11  21  37  61  82 104 140 183 224 266 316
#     4   9  18  33  55  80 105 140 183 228 270 311
#     4  11  23  37  54  79 112 145 176 217 270 325
#     4  10  20  33  57  84 105 140 183 226 267 312
#     4  10  19  35  56  79 108 138 180 223 263 316
#     4  10  21  35  51  78 114 145 175 217 273 326
#
# _framework density 19.077275
#
# number of rings (size 3 to 8) (size 9 to 14) (size 15 to 20)
#    0.000    1.857    0.000    6.857    0.000    4.000 
#    0.000    3.571    0.000    3.857    0.000    0.000 
#    0.000    0.000    0.000    0.000    0.000    0.000 
#
# Total GULP energy -347220.820496 kJ/mol
# GULP energy per Si atom -12400.743589 kJ/mol
# Density = 1.903385 g / cm^3
# Si number density = 19.077275 Si / 1000 Ang^3
#
#
#
# Elastic Constant Matrix: (Units=GPa)
#
#
# Indices 1 2 3 4 5 6 
#
# 1 109.7362 47.4889 42.0055 0.0000 10.4404 0.0000
# 2 47.4889 80.0689 46.3860 0.0000 5.9375 0.0000
# 3 42.0055 46.3860 116.3521 0.0000 0.7877 0.0000
# 4 0.0000 0.0000 0.0000 12.8743 0.0000 1.9996
# 5 10.4404 5.9375 0.7877 0.0000 30.2901 0.0000
# 6 0.0000 0.0000 0.0000 1.9996 0.0000 22.7267
#
#
#
# Elastic Compliance Matrix: (Units=1/GPa)
#
#
# Indices 1 2 3 4 5 6 
#
# 1 0.012918 -0.006158 -0.002187 0.000000 -0.003189 0.000000
# 2 -0.006158 0.019456 -0.005523 0.000000 -0.001547 0.000000
# 3 -0.002187 -0.005523 0.011576 0.000000 0.001535 0.000000
# 4 0.000000 0.000000 0.000000 0.078750 0.000000 -0.006929
# 5 -0.003189 -0.001547 0.001535 0.000000 0.034377 0.000000
# 6 0.000000 0.000000 0.000000 -0.006929 0.000000 0.044611
#
#
# Mechanical properties :
#
#
# Convention : Reuss Voigt Hill
#
# Bulk Modulus (GPa) = 61.67686 64.21312 62.94499
# Shear Modulus (GPa) = 21.29212 24.52999 22.91106
#
# Velocity S-wave (km/s) = 3.34443 3.58973 3.46925
# Velocity P-wave (km/s) = 6.87850 7.13541 7.00813
#
# Compressibility (1/GPa) = 0.01621354
#
# Stress axis : x y z
#
# Youngs Moduli (GPa) = 77.40883 51.39792 86.38930
#
# Poissons Ratio (x) = 0.31653 0.18894
# Poissons Ratio (y) = 0.47672 0.47710
# Poissons Ratio (z) = 0.16930 0.28386
#
# Static dielectric constant tensor:
#      x y z
#    x 3.680320 0.000000 0.153740 
#    y 0.000000 3.135060 0.000000 
#    z 0.153740 0.000000 3.743420 
# 
# 
# High freq. dielectric constant tensor:
#      x y z
#    x 1.758560 0.000000 0.003030 
#    y 0.000000 1.703930 0.000000 
#    z 0.003030 0.000000 1.753930 
# 
# From -- ./inp_files/145469.got.cif
#   From: 2010.06.25/outbox.cif.g09.slc.cpg/sg12_73_cif.got.tgz:145469.got - 2010.06.28 00:19:55.
