data_PCOD8092923
_publ_section_title
;
Structure prediction by ZEFSAII (Michael W. Deem and Ramdas Pophale) SiO2 
 PCOD8092923
Probable space group: C 2/M
;
_chemical_formula_sum "Si O2"
_cell_formula_units_Z 40
_cell_length_a 25.731960
_cell_length_b 7.778147
_cell_length_c 13.069487
_cell_angle_alpha 90.000000
_cell_angle_beta 121.199103
_cell_angle_gamma 90.000000
_cell_volume 2237.498604
_symmetry_space_group_name_H-M "C 2/M"
_symmetry_group_IT_number 12
_symmetry_cell_setting 'monoclinic'
loop_
_space_group_symop_operation_xyz
x,y,z
-x,y,-z
-x,-y,-z
x,-y,z
1/2+x,1/2+y,z
1/2-x,1/2+y,-z
1/2-x,1/2-y,-z
1/2+x,1/2-y,z
loop_
_atom_site_type_symbol
_atom_site_label
_atom_site_fract_x
_atom_site_fract_y
_atom_site_fract_z
Si Si1 0.848338 0.000000 0.466974
Si Si2 0.300438 0.000000 0.910256
Si Si3 0.615438 0.185096 0.364152
Si Si4 0.374819 0.691424 0.075024
Si Si5 0.003137 0.797958 0.119487
Si Si6 0.294927 0.000000 0.669282
Si Si7 0.157302 0.000000 0.774081
O O1 0.878883 0.832671 0.546574
O O2 0.777073 0.000000 0.415523
O O3 0.865352 0.000000 0.365133
O O4 0.326123 0.827259 0.986466
O O5 0.316335 0.000000 0.807605
O O6 0.229317 0.000000 0.855664
O O7 0.559100 0.210397 0.231987
O O8 0.606346 0.000000 0.411367
O O9 0.676450 0.170620 0.355622
O O10 0.363105 0.500000 0.013072
O O11 0.441896 0.757151 0.115643
O O12 0.368109 0.669446 0.191910
O O13 0.013718 0.000000 0.133603
O O14 0.000000 0.730478 0.000000
#
# Coordination Sequence:
#
# PCOD8092923 Si02
#       7
#     4   4   8   8   8   4   4
#     4  11  20  43  57  71 121 151 182 243 260 314
#     4  11  18  37  60  81 120 143 169 241 283 322
#     4  10  22  36  57  85 111 143 189 223 281 329
#     4   9  21  36  54  86 114 142 186 221 275 341
#     4  10  19  35  58  84 116 145 173 226 291 334
#     4   9  22  35  56  91 108 143 189 217 289 340
#     4   9  22  39  55  83 107 153 198 217 272 326
#
# _framework density 17.877106000000001
#
# number of rings (size 3 to 8) (size 9 to 14) (size 15 to 20)
#    1.200    1.000    1.000    2.400    1.400    0.400 
#    3.600    4.000    0.000    1.200    0.000    0.000 
#    0.000    0.000    0.000    0.000    0.000    0.000 
#
# Total GULP energy -247831.094913 kJ/mol
# GULP energy per Si atom -12391.554746 kJ/mol
# Density = 1.783642 g / cm^3
# Si number density = 17.877106 Si / 1000 Ang^3
#
#
#
# Elastic Constant Matrix: (Units=GPa)
#
#
# Indices 1 2 3 4 5 6 
#
# 1 102.7109 29.2724 54.9866 0.0000 -9.7142 0.0000
# 2 29.2724 102.3339 65.5486 0.0000 -5.4528 0.0000
# 3 54.9866 65.5486 133.4253 0.0000 -7.9515 0.0000
# 4 0.0000 0.0000 0.0000 105.8313 0.0000 21.5058
# 5 -9.7142 -5.4528 -7.9515 0.0000 23.2575 0.0000
# 6 0.0000 0.0000 0.0000 21.5058 0.0000 16.7791
#
#
#
# Elastic Compliance Matrix: (Units=1/GPa)
#
#
# Indices 1 2 3 4 5 6 
#
# 1 0.012790 -0.000333 -0.004894 0.000000 0.003591 0.000000
# 2 -0.000333 0.014289 -0.006830 0.000000 0.000876 0.000000
# 3 -0.004894 -0.006830 0.012913 0.000000 0.000769 0.000000
# 4 0.000000 0.000000 0.000000 0.012777 0.000000 -0.016376
# 5 0.003591 0.000876 0.000769 0.000000 0.044965 0.000000
# 6 0.000000 0.000000 0.000000 -0.016376 0.000000 0.080587
#
#
# Mechanical properties :
#
#
# Convention : Reuss Voigt Hill
#
# Bulk Modulus (GPa) = 62.97754 70.89838 66.93796
# Shear Modulus (GPa) = 24.06989 41.75107 32.91048
#
# Velocity S-wave (km/s) = 3.67333 4.83789 4.29526
# Velocity P-wave (km/s) = 7.30038 8.42329 7.88186
#
# Compressibility (1/GPa) = 0.01587868
#
# Stress axis : x y z
#
# Youngs Moduli (GPa) = 78.18386 69.98405 77.44096
#
# Poissons Ratio (x) = 0.02329 0.37897
# Poissons Ratio (y) = 0.02602 0.52896
# Poissons Ratio (z) = 0.38260 0.47803
#
# Static dielectric constant tensor:
#      x y z
#    x 3.384590 0.000000 -0.048310 
#    y 0.000000 3.209660 0.000000 
#    z -0.048310 0.000000 3.151170 
# 
# 
# High freq. dielectric constant tensor:
#      x y z
#    x 1.697290 0.000000 0.005760 
#    y 0.000000 1.686490 0.000000 
#    z 0.005760 0.000000 1.679600 
# 
# From -- ./inp_files/186047.got.cif
#   From: 2010.06.25/outbox.cif.g09.slc.cpg/sg12_94_cif.got.tgz:186047.got - 2010.06.28 00:19:55.
