data_PCOD8092485
_publ_section_title
;
Structure prediction by ZEFSAII (Michael W. Deem and Ramdas Pophale) SiO2 
 PCOD8092485
Probable space group: C 2/M
;
_chemical_formula_sum "Si O2"
_cell_formula_units_Z 56
_cell_length_a 31.043826
_cell_length_b 8.966080
_cell_length_c 11.757267
_cell_angle_alpha 90.000000
_cell_angle_beta 62.495061
_cell_angle_gamma 90.000000
_cell_volume 2902.643266
_symmetry_space_group_name_H-M "C 2/M"
_symmetry_group_IT_number 12
_symmetry_cell_setting 'monoclinic'
loop_
_space_group_symop_operation_xyz
x,y,z
-x,y,-z
-x,-y,-z
x,-y,z
1/2+x,1/2+y,z
1/2-x,1/2+y,-z
1/2-x,1/2-y,-z
1/2+x,1/2-y,z
loop_
_atom_site_type_symbol
_atom_site_label
_atom_site_fract_x
_atom_site_fract_y
_atom_site_fract_z
Si Si1 0.083690 0.176609 0.720391
Si Si2 0.866858 0.828443 0.572275
Si Si3 0.795504 0.671737 0.808470
Si Si4 0.955351 0.828461 0.630813
Si Si5 0.018897 0.328625 0.178182
Si Si6 0.315006 0.672112 0.016610
Si Si7 0.391074 0.171905 0.085549
O O1 0.111588 0.229211 0.573040
O O2 0.113132 0.241669 0.790660
O O3 0.028907 0.233858 0.785291
O O4 0.081945 0.000000 0.730735
O O5 0.820075 0.730045 0.662256
O O6 0.906319 0.805239 0.622039
O O7 0.850961 0.000000 0.581709
O O8 0.808689 0.500000 0.814266
O O9 0.738045 0.693740 0.864392
O O10 0.816200 0.767982 0.887104
O O11 0.952332 0.728481 0.746513
O O12 0.000000 0.772723 0.500000
O O13 0.963518 0.000000 0.656621
O O14 0.004006 0.500000 0.213269
O O15 0.054403 0.309289 0.027799
O O16 0.330797 0.500000 0.993986
O O17 0.352538 0.762819 0.045499
O O18 0.378465 0.000000 0.121588
#
# Coordination Sequence:
#
# PCOD8092485 Si02
#       7
#     8   8   8   8   8   8   8
#     4  11  23  40  59  81 112 154 198 236 278 338
#     4  10  21  37  58  84 115 152 192 233 283 341
#     4  10  21  37  61  91 119 146 183 233 287 340
#     4  10  19  35  55  79 113 148 187 232 276 331
#     4  11  23  37  55  83 116 150 190 237 288 338
#     4  10  21  39  62  88 116 149 188 231 282 340
#     4  11  24  40  58  84 115 149 192 241 287 334
#
# _framework density 19.292760000000001
#
# number of rings (size 3 to 8) (size 9 to 14) (size 15 to 20)
#    0.000    1.571    1.429    3.429    0.000   10.000 
#    0.000    0.714    0.000    0.000    0.000    0.000 
#    0.000    0.000    0.000    0.000    0.000    0.000 
#
# Total GULP energy -347361.537528 kJ/mol
# GULP energy per Si atom -12405.769197 kJ/mol
# Density = 1.924885 g / cm^3
# Si number density = 19.292760 Si / 1000 Ang^3
#
#
#
# Elastic Constant Matrix: (Units=GPa)
#
#
# Indices 1 2 3 4 5 6 
#
# 1 60.3754 34.4408 36.8536 0.0000 -1.3604 0.0000
# 2 34.4408 99.0206 51.7591 0.0000 -4.4027 0.0000
# 3 36.8536 51.7591 90.1599 0.0000 -5.8759 0.0000
# 4 0.0000 0.0000 0.0000 33.3332 0.0000 -0.8348
# 5 -1.3604 -4.4027 -5.8759 0.0000 27.3214 0.0000
# 6 0.0000 0.0000 0.0000 -0.8348 0.0000 30.2470
#
#
#
# Elastic Compliance Matrix: (Units=1/GPa)
#
#
# Indices 1 2 3 4 5 6 
#
# 1 0.023415 -0.004504 -0.007056 0.000000 -0.001077 0.000000
# 2 -0.004504 0.015303 -0.006895 0.000000 0.000759 0.000000
# 3 -0.007056 -0.006895 0.018092 0.000000 0.002429 0.000000
# 4 0.000000 0.000000 0.000000 0.030021 0.000000 0.000829
# 5 -0.001077 0.000759 0.002429 0.000000 0.037192 0.000000
# 6 0.000000 0.000000 0.000000 0.000829 0.000000 0.033084
#
#
# Mechanical properties :
#
#
# Convention : Reuss Voigt Hill
#
# Bulk Modulus (GPa) = 50.24807 55.07367 52.66087
# Shear Modulus (GPa) = 24.91913 26.61383 25.76648
#
# Velocity S-wave (km/s) = 3.59783 3.71815 3.65848
# Velocity P-wave (km/s) = 6.58489 6.85866 6.72316
#
# Compressibility (1/GPa) = 0.01990126
#
# Stress axis : x y z
#
# Youngs Moduli (GPa) = 42.70814 65.34611 55.27338
#
# Poissons Ratio (x) = 0.29431 0.38999
# Poissons Ratio (y) = 0.19235 0.38110
# Poissons Ratio (z) = 0.30133 0.45055
#
# Static dielectric constant tensor:
#      x y z
#    x 3.394240 0.000000 -0.022650 
#    y 0.000000 3.604030 0.000000 
#    z -0.022650 0.000000 3.691150 
# 
# 
# High freq. dielectric constant tensor:
#      x y z
#    x 1.742340 0.000000 -0.003120 
#    y 0.000000 1.759320 0.000000 
#    z -0.003120 0.000000 1.757130 
# 
# From -- ./inp_files/187166.got.cif
#   From: 2010.06.25/outbox.cif.g09.slc.cpg/sg12_94_cif.got.tgz:187166.got - 2010.06.28 00:19:55.
