data_PCOD8092423
_publ_section_title
;
Structure prediction by ZEFSAII (Michael W. Deem and Ramdas Pophale) SiO2 
 PCOD8092423
Probable space group: C 2/M
;
_chemical_formula_sum "Si O2"
_cell_formula_units_Z 52
_cell_length_a 20.493189
_cell_length_b 18.302216
_cell_length_c 10.070976
_cell_angle_alpha 90.000000
_cell_angle_beta 39.733564
_cell_angle_gamma 90.000000
_cell_volume 2414.538123
_symmetry_space_group_name_H-M "C 2/M"
_symmetry_group_IT_number 12
_symmetry_cell_setting 'monoclinic'
loop_
_space_group_symop_operation_xyz
x,y,z
-x,y,-z
-x,-y,-z
x,-y,z
1/2+x,1/2+y,z
1/2-x,1/2+y,-z
1/2-x,1/2-y,-z
1/2+x,1/2-y,z
loop_
_atom_site_type_symbol
_atom_site_label
_atom_site_fract_x
_atom_site_fract_y
_atom_site_fract_z
Si Si1 0.586919 0.865568 0.207860
Si Si2 0.233950 0.157435 0.255854
Si Si3 0.702852 0.306751 0.774119
Si Si4 0.632217 0.083367 0.426695
Si Si5 0.453967 0.418801 0.355600
Si Si6 0.393451 0.300753 0.796526
Si Si7 0.500000 0.630229 0.000000
O O1 0.481683 0.906119 0.338044
O O2 0.635802 0.897907 0.264980
O O3 0.559154 0.780129 0.270378
O O4 0.663833 0.879287 0.964267
O O5 0.260148 0.224174 0.315292
O O6 0.166810 0.098559 0.440918
O O7 0.172432 0.192687 0.231172
O O8 0.790381 0.366620 0.608216
O O9 0.680389 0.314567 0.965218
O O10 0.600692 0.319503 0.848942
O O11 0.666925 0.000000 0.392666
O O12 0.475148 0.500000 0.378247
O O13 0.515108 0.359618 0.346703
O O14 0.489625 0.419063 0.146873
#
# Coordination Sequence:
#
# PCOD8092423 Si02
#       7
#     8   8   8   8   8   8   4
#     4  10  19  35  54  86 124 157 190 233 296 363
#     4  11  20  37  62  88 121 154 194 251 309 359
#     4  10  20  40  64  89 115 159 205 248 297 352
#     4  11  21  32  54  87 121 161 193 229 290 359
#     4  11  25  39  58  88 122 165 204 248 305 357
#     4  10  19  36  61  87 120 158 191 245 308 361
#     4  10  25  46  64  82 115 156 216 262 293 348
#
# _framework density 21.536208999999999
#
# number of rings (size 3 to 8) (size 9 to 14) (size 15 to 20)
#    0.000    1.538    3.077    3.462    2.154    6.154 
#    0.000    0.000    0.000    0.000    0.000    2.692 
#    0.000    0.000    0.000    0.000    0.000    0.000 
#
# Total GULP energy -322412.509168 kJ/mol
# GULP energy per Si atom -12400.481122 kJ/mol
# Density = 2.148719 g / cm^3
# Si number density = 21.536209 Si / 1000 Ang^3
#
#
#
# Elastic Constant Matrix: (Units=GPa)
#
#
# Indices 1 2 3 4 5 6 
#
# 1 58.7979 9.2211 0.6313 0.0000 -25.0616 0.0000
# 2 9.2211 108.7274 22.2803 0.0000 -13.9013 0.0000
# 3 0.6313 22.2803 81.2193 0.0000 -17.0305 0.0000
# 4 0.0000 0.0000 0.0000 25.3678 0.0000 2.9138
# 5 -25.0616 -13.9013 -17.0305 0.0000 30.9516 0.0000
# 6 0.0000 0.0000 0.0000 2.9138 0.0000 6.0722
#
#
#
# Elastic Compliance Matrix: (Units=1/GPa)
#
#
# Indices 1 2 3 4 5 6 
#
# 1 0.027707 -0.000180 0.005111 0.000000 0.025166 0.000000
# 2 -0.000180 0.010051 -0.002080 0.000000 0.003225 0.000000
# 3 0.005111 -0.002080 0.015278 0.000000 0.011611 0.000000
# 4 0.000000 0.000000 0.000000 0.041720 0.000000 -0.020019
# 5 0.025166 0.003225 0.011611 0.000000 0.060523 0.000000
# 6 0.000000 0.000000 0.000000 -0.020019 0.000000 0.174292
#
#
# Mechanical properties :
#
#
# Convention : Reuss Voigt Hill
#
# Bulk Modulus (GPa) = 17.02429 34.77889 25.90159
# Shear Modulus (GPa) = 14.55830 26.91911 20.73870
#
# Velocity S-wave (km/s) = 2.60281 3.53929 3.10654
# Velocity P-wave (km/s) = 4.11763 5.73465 4.99205
#
# Compressibility (1/GPa) = 0.05873959
#
# Stress axis : x y z
#
# Youngs Moduli (GPa) = 36.09134 99.49284 65.45492
#
# Poissons Ratio (x) = 0.01786 -0.33454
# Poissons Ratio (y) = 0.00648 0.13613
# Poissons Ratio (z) = -0.18446 0.20691
#
# Static dielectric constant tensor:
#      x y z
#    x 3.577110 0.000000 -0.228890 
#    y 0.000000 3.808800 0.000000 
#    z -0.228890 0.000000 4.195510 
# 
# 
# High freq. dielectric constant tensor:
#      x y z
#    x 1.813380 0.000000 -0.016360 
#    y 0.000000 1.836800 0.000000 
#    z -0.016360 0.000000 1.857680 
# 
# From -- ./inp_files/168725.got.cif
#   From: 2010.06.25/outbox.cif.g09.slc.cpg/sg12_85_cif.got.tgz:168725.got - 2010.06.28 00:19:55.
