data_PCOD8092258
_publ_section_title
;
Structure prediction by ZEFSAII (Michael W. Deem and Ramdas Pophale) SiO2 
 PCOD8092258
Probable space group: C 2/M
;
_chemical_formula_sum "Si O2"
_cell_formula_units_Z 56
_cell_length_a 10.701532
_cell_length_b 14.762672
_cell_length_c 18.693225
_cell_angle_alpha 90.000000
_cell_angle_beta 71.365529
_cell_angle_gamma 90.000000
_cell_volume 2798.397266
_symmetry_space_group_name_H-M "C 2/M"
_symmetry_group_IT_number 12
_symmetry_cell_setting 'monoclinic'
loop_
_space_group_symop_operation_xyz
x,y,z
-x,y,-z
-x,-y,-z
x,-y,z
1/2+x,1/2+y,z
1/2-x,1/2+y,-z
1/2-x,1/2-y,-z
1/2+x,1/2-y,z
loop_
_atom_site_type_symbol
_atom_site_label
_atom_site_fract_x
_atom_site_fract_y
_atom_site_fract_z
Si Si1 0.509604 0.400594 0.295976
Si Si2 0.056348 0.101993 0.855439
Si Si3 0.267917 0.098249 0.609275
Si Si4 0.612762 0.200658 0.527584
Si Si5 0.355736 0.106906 0.836415
Si Si6 0.574475 0.207376 0.314266
Si Si7 0.902400 0.737668 0.952496
O O1 0.580570 0.500000 0.291212
O O2 0.445473 0.392412 0.229570
O O3 0.389302 0.393675 0.375062
O O4 0.602859 0.314442 0.293630
O O5 0.201071 0.129953 0.856467
O O6 0.948025 0.168494 0.908181
O O7 0.022183 0.000000 0.887361
O O8 0.351843 0.107064 0.520573
O O9 0.304319 0.175027 0.659894
O O10 0.300680 0.000000 0.636650
O O11 0.500000 0.250980 0.500000
O O12 0.750000 0.250000 0.500000
O O13 0.562207 0.188054 0.617709
O O14 0.436226 0.150595 0.756223
O O15 0.413449 0.152856 0.896979
O O16 0.382203 0.000000 0.834628
O O17 0.750000 0.750000 0.000000
O O18 0.000000 0.714649 0.000000
#
# Coordination Sequence:
#
# PCOD8092258 Si02
#       7
#     8   8   8   8   8   8   8
#     4  10  19  34  60  89 118 159 208 256 309 369
#     4  10  21  40  66  94 124 164 213 254 305 384
#     4  10  20  35  58  88 122 162 214 263 307 364
#     4  10  21  35  57  92 126 167 209 261 322 364
#     4  11  23  40  64  95 128 166 211 261 315 376
#     4  11  20  34  62  88 124 161 216 261 311 364
#     4  12  25  42  67  97 128 165 206 255 319 375
#
# _framework density 20.011455999999999
#
# number of rings (size 3 to 8) (size 9 to 14) (size 15 to 20)
#    0.000    1.429    5.714    0.429    0.000    4.286 
#    0.000    0.000    0.000   13.714    0.000    0.000 
#    0.000    0.000    0.000    0.000    0.000    0.000 
#
# Total GULP energy -346964.696609 kJ/mol
# GULP energy per Si atom -12391.596307 kJ/mol
# Density = 1.996591 g / cm^3
# Si number density = 20.011456 Si / 1000 Ang^3
#
#
#
# Elastic Constant Matrix: (Units=GPa)
#
#
# Indices 1 2 3 4 5 6 
#
# 1 95.9386 52.8209 40.2991 0.0000 -8.3249 0.0000
# 2 52.8209 171.4566 57.6037 0.0000 2.4032 0.0000
# 3 40.2991 57.6037 117.9894 0.0000 -9.3011 0.0000
# 4 0.0000 0.0000 0.0000 25.9428 0.0000 0.7305
# 5 -8.3249 2.4032 -9.3011 0.0000 26.8977 0.0000
# 6 0.0000 0.0000 0.0000 0.7305 0.0000 33.0631
#
#
#
# Elastic Compliance Matrix: (Units=1/GPa)
#
#
# Indices 1 2 3 4 5 6 
#
# 1 0.013747 -0.003353 -0.002775 0.000000 0.003595 0.000000
# 2 -0.003353 0.007886 -0.002922 0.000000 -0.002753 0.000000
# 3 -0.002775 -0.002922 0.011105 0.000000 0.003242 0.000000
# 4 0.000000 0.000000 0.000000 0.038570 0.000000 -0.000852
# 5 0.003595 -0.002753 0.003242 0.000000 0.039658 0.000000
# 6 0.000000 0.000000 0.000000 -0.000852 0.000000 0.030264
#
#
# Mechanical properties :
#
#
# Convention : Reuss Voigt Hill
#
# Bulk Modulus (GPa) = 68.31329 76.31466 72.31398
# Shear Modulus (GPa) = 30.44921 32.82479 31.63700
#
# Velocity S-wave (km/s) = 3.90499 4.05446 3.98042
# Velocity P-wave (km/s) = 7.38533 7.75477 7.57230
#
# Compressibility (1/GPa) = 0.01463844
#
# Stress axis : x y z
#
# Youngs Moduli (GPa) = 72.74316 126.81480 90.04972
#
# Poissons Ratio (x) = 0.42523 0.24987
# Poissons Ratio (y) = 0.24392 0.26308
# Poissons Ratio (z) = 0.20185 0.37049
#
# Static dielectric constant tensor:
#      x y z
#    x 3.449500 0.000000 -0.059940 
#    y 0.000000 3.931400 0.000000 
#    z -0.059940 0.000000 4.302580 
# 
# 
# High freq. dielectric constant tensor:
#      x y z
#    x 1.755820 0.000000 -0.007600 
#    y 0.000000 1.783320 0.000000 
#    z -0.007600 0.000000 1.790470 
# 
# From -- ./inp_files/262826.got.cif
#   From: 2010.06.25/outbox.cif.g09.slc.cpg/sg12_132_cif.got.tgz:262826.got - 2010.06.28 00:19:55.
