data_PCOD8092709
_publ_section_title
;
Structure prediction by ZEFSAII (Michael W. Deem and Ramdas Pophale) SiO2 
 PCOD8092709
Probable space group: C 2/M
;
_chemical_formula_sum "Si O2"
_cell_formula_units_Z 48
_cell_length_a 28.814995
_cell_length_b 9.067318
_cell_length_c 18.572598
_cell_angle_alpha 90.000000
_cell_angle_beta 148.919228
_cell_angle_gamma 90.000000
_cell_volume 2505.109457
_symmetry_space_group_name_H-M "C 2/M"
_symmetry_group_IT_number 12
_symmetry_cell_setting 'monoclinic'
loop_
_space_group_symop_operation_xyz
x,y,z
-x,y,-z
-x,-y,-z
x,-y,z
1/2+x,1/2+y,z
1/2-x,1/2+y,-z
1/2-x,1/2-y,-z
1/2+x,1/2-y,z
loop_
_atom_site_type_symbol
_atom_site_label
_atom_site_fract_x
_atom_site_fract_y
_atom_site_fract_z
Si Si1 0.903333 0.830511 0.846269
Si Si2 0.761470 0.326075 0.754748
Si Si3 0.239787 0.171595 0.098744
Si Si4 0.384255 0.327922 0.200087
Si Si5 0.917569 0.826279 0.561936
Si Si6 0.658119 0.669082 0.390986
O O1 0.826187 0.729751 0.777600
O O2 0.904667 0.813755 0.761964
O O3 0.886741 0.000000 0.847599
O O4 0.000000 0.773344 0.000000
O O5 0.773407 0.500000 0.778873
O O6 0.788279 0.248546 0.864497
O O7 0.658931 0.284377 0.597530
O O8 0.332339 0.239623 0.192708
O O9 0.254873 0.000000 0.132900
O O10 0.159498 0.200845 0.936012
O O11 0.379935 0.500000 0.214738
O O12 0.485759 0.264015 0.334346
O O13 0.892211 0.760952 0.606783
O O14 0.928577 0.000000 0.584372
O O15 0.681963 0.500000 0.438853
O O16 0.750000 0.750000 0.500000
#
# Coordination Sequence:
#
# PCOD8092709 Si02
#       6
#     8   8   8   8   8   8
#     4  10  22  37  57  83 112 147 187 228 274 326
#     4  11  22  37  57  81 113 146 185 229 273 327
#     4  10  21  37  59  84 114 143 178 228 279 329
#     4   9  19  38  62  82 106 144 187 226 271 329
#     4   9  19  35  57  82 107 145 189 225 267 324
#     4  10  19  35  57  80 111 146 184 224 269 324
#
# _framework density 19.16084
#
# number of rings (size 3 to 8) (size 9 to 14) (size 15 to 20)
#    0.000    2.167    1.667    1.000    2.333    1.667 
#    0.000    5.833    0.000    0.000    0.000    0.000 
#    0.000    0.000    0.000    0.000    0.000    0.000 
#
# Total GULP energy -297648.728021 kJ/mol
# GULP energy per Si atom -12402.030334 kJ/mol
# Density = 1.911723 g / cm^3
# Si number density = 19.160840 Si / 1000 Ang^3
#
#
#
# Elastic Constant Matrix: (Units=GPa)
#
#
# Indices 1 2 3 4 5 6 
#
# 1 60.5495 25.3920 11.3285 0.0000 0.6643 0.0000
# 2 25.3920 62.2084 26.0436 0.0000 -0.7400 0.0000
# 3 11.3285 26.0436 79.2685 0.0000 13.8199 0.0000
# 4 0.0000 0.0000 0.0000 22.4316 0.0000 0.2816
# 5 0.6643 -0.7400 13.8199 0.0000 39.4528 0.0000
# 6 0.0000 0.0000 0.0000 0.2816 0.0000 33.0249
#
#
#
# Elastic Compliance Matrix: (Units=1/GPa)
#
#
# Indices 1 2 3 4 5 6 
#
# 1 0.019936 -0.008096 -0.000111 0.000000 -0.000449 0.000000
# 2 -0.008096 0.022192 -0.006636 0.000000 0.002877 0.000000
# 3 -0.000111 -0.006636 0.015797 0.000000 -0.005656 0.000000
# 4 0.000000 0.000000 0.000000 0.044585 0.000000 -0.000380
# 5 -0.000449 0.002877 -0.005656 0.000000 0.027390 0.000000
# 6 0.000000 0.000000 0.000000 -0.000380 0.000000 0.030283
#
#
# Mechanical properties :
#
#
# Convention : Reuss Voigt Hill
#
# Bulk Modulus (GPa) = 35.41088 36.39496 35.90292
# Shear Modulus (GPa) = 25.08995 28.26600 26.67797
#
# Velocity S-wave (km/s) = 3.62254 3.84500 3.73543
# Velocity P-wave (km/s) = 6.00151 6.22476 6.11415
#
# Compressibility (1/GPa) = 0.02823991
#
# Stress axis : x y z
#
# Youngs Moduli (GPa) = 50.15950 45.06119 63.30130
#
# Poissons Ratio (x) = 0.36484 0.00702
# Poissons Ratio (y) = 0.40612 0.42005
# Poissons Ratio (z) = 0.00556 0.29901
#
# Static dielectric constant tensor:
#      x y z
#    x 3.654070 0.000000 -0.043610 
#    y 0.000000 3.362570 0.000000 
#    z -0.043610 0.000000 3.694880 
# 
# 
# High freq. dielectric constant tensor:
#      x y z
#    x 1.751060 0.000000 -0.003060 
#    y 0.000000 1.726090 0.000000 
#    z -0.003060 0.000000 1.751490 
# 
# From -- ./inp_files/244589.got.cif
#   From: 2010.06.25/outbox.cif.g09.slc.cpg/sg12_123_cif.got.tgz:244589.got - 2010.06.28 00:19:55.
