data_PCOD8092341
_publ_section_title
;
Structure prediction by ZEFSAII (Michael W. Deem and Ramdas Pophale) SiO2 
 PCOD8092341
Probable space group: C 2/M
;
_chemical_formula_sum "Si O2"
_cell_formula_units_Z 44
_cell_length_a 16.504808
_cell_length_b 20.977252
_cell_length_c 13.357101
_cell_angle_alpha 90.000000
_cell_angle_beta 150.025821
_cell_angle_gamma 90.000000
_cell_volume 2310.479466
_symmetry_space_group_name_H-M "C 2/M"
_symmetry_group_IT_number 12
_symmetry_cell_setting 'monoclinic'
loop_
_space_group_symop_operation_xyz
x,y,z
-x,y,-z
-x,-y,-z
x,-y,z
1/2+x,1/2+y,z
1/2-x,1/2+y,-z
1/2-x,1/2-y,-z
1/2+x,1/2-y,z
loop_
_atom_site_type_symbol
_atom_site_label
_atom_site_fract_x
_atom_site_fract_y
_atom_site_fract_z
Si Si1 0.000000 0.798148 0.000000
Si Si2 0.301343 0.804212 0.668361
Si Si3 0.113559 0.929046 0.776558
Si Si4 0.300764 0.327344 0.964993
Si Si5 0.505443 0.232691 0.301924
Si Si6 0.234642 0.071207 0.688059
O O1 0.880907 0.754404 0.809609
O O2 0.885896 0.842763 0.949036
O O3 0.361943 0.808862 0.617977
O O4 0.106374 0.788887 0.466232
O O5 0.347973 0.872090 0.768207
O O6 0.204167 0.911719 0.770748
O O7 0.923444 0.926243 0.550797
O O8 0.161636 0.000000 0.862117
O O9 0.170642 0.883893 0.926638
O O10 0.106463 0.312044 0.745820
O O11 0.383347 0.262421 0.090554
O O12 0.312397 0.000000 0.761749
#
# Coordination Sequence:
#
# PCOD8092341 Si02
#       6
#     4   8   8   8   8   8
#     4  10  24  32  54  78 108 130 188 216 262 302
#     4  10  19  35  49  80 108 141 171 219 249 325
#     4   9  18  32  53  78 106 137 176 213 254 316
#     4  10  19  36  50  80 101 139 174 220 257 313
#     4   9  20  32  54  73 109 140 172 209 274 298
#     4   9  18  31  52  79 106 142 173 205 257 318
#
# _framework density 19.043666000000002
#
# number of rings (size 3 to 8) (size 9 to 14) (size 15 to 20)
#    0.000    2.545    1.818    1.091    7.636    0.727 
#    0.000    1.818    0.000    0.000    0.000    1.273 
#    0.000    0.000    0.000    0.000    0.000    0.000 
#
# Total GULP energy -272550.275514 kJ/mol
# GULP energy per Si atom -12388.648887 kJ/mol
# Density = 1.900032 g / cm^3
# Si number density = 19.043666 Si / 1000 Ang^3
#
#
#
# Elastic Constant Matrix: (Units=GPa)
#
#
# Indices 1 2 3 4 5 6 
#
# 1 118.4439 61.7228 37.5536 0.0000 9.1118 0.0000
# 2 61.7228 100.2805 13.6643 0.0000 -2.0217 0.0000
# 3 37.5536 13.6643 55.6808 0.0000 10.8150 0.0000
# 4 0.0000 0.0000 0.0000 16.6858 0.0000 -11.7603
# 5 9.1118 -2.0217 10.8150 0.0000 21.3504 0.0000
# 6 0.0000 0.0000 0.0000 -11.7603 0.0000 25.0431
#
#
#
# Elastic Compliance Matrix: (Units=1/GPa)
#
#
# Indices 1 2 3 4 5 6 
#
# 1 0.015704 -0.008680 -0.007764 0.000000 -0.003591 0.000000
# 2 -0.008680 0.015237 0.001237 0.000000 0.004521 0.000000
# 3 -0.007764 0.001237 0.024651 0.000000 -0.009057 0.000000
# 4 0.000000 0.000000 0.000000 0.089581 0.000000 0.042068
# 5 -0.003591 0.004521 -0.009057 0.000000 0.053386 0.000000
# 6 0.000000 0.000000 0.000000 0.042068 0.000000 0.059686
#
#
# Mechanical properties :
#
#
# Convention : Reuss Voigt Hill
#
# Bulk Modulus (GPa) = 39.71647 55.58739 47.65193
# Shear Modulus (GPa) = 16.83200 23.38016 20.10608
#
# Velocity S-wave (km/s) = 2.97621 3.50767 3.25281
# Velocity P-wave (km/s) = 5.71937 6.75706 6.25975
#
# Compressibility (1/GPa) = 0.02517847
#
# Stress axis : x y z
#
# Youngs Moduli (GPa) = 63.67736 65.62784 40.56590
#
# Poissons Ratio (x) = 0.56968 0.31495
# Poissons Ratio (y) = 0.55275 -0.05018
# Poissons Ratio (z) = 0.49438 -0.08119
#
# Static dielectric constant tensor:
#      x y z
#    x 3.743310 0.000000 0.208210 
#    y 0.000000 3.448760 0.000000 
#    z 0.208210 0.000000 3.385680 
# 
# 
# High freq. dielectric constant tensor:
#      x y z
#    x 1.733900 0.000000 0.012120 
#    y 0.000000 1.715200 0.000000 
#    z 0.012120 0.000000 1.726300 
# 
# From -- ./inp_files/76675.got.cif
#   From: 2010.06.25/outbox.cif.g09.slc.cpg/sg12_39_cif.got.tgz:76675.got - 2010.06.28 00:19:55.
