data_PCOD8092662
_publ_section_title
;
Structure prediction by ZEFSAII (Michael W. Deem and Ramdas Pophale) SiO2 
 PCOD8092662
Probable space group: C 2/M
;
_chemical_formula_sum "Si O2"
_cell_formula_units_Z 56
_cell_length_a 19.331102
_cell_length_b 9.045042
_cell_length_c 26.866154
_cell_angle_alpha 90.000000
_cell_angle_beta 141.204771
_cell_angle_gamma 90.000000
_cell_volume 2943.206609
_symmetry_space_group_name_H-M "C 2/M"
_symmetry_group_IT_number 12
_symmetry_cell_setting 'monoclinic'
loop_
_space_group_symop_operation_xyz
x,y,z
-x,y,-z
-x,-y,-z
x,-y,z
1/2+x,1/2+y,z
1/2-x,1/2+y,-z
1/2-x,1/2-y,-z
1/2+x,1/2-y,z
loop_
_atom_site_type_symbol
_atom_site_label
_atom_site_fract_x
_atom_site_fract_y
_atom_site_fract_z
Si Si1 0.358613 0.326637 0.824570
Si Si2 0.747553 0.173458 0.866783
Si Si3 0.942925 0.666227 0.021187
Si Si4 0.308916 0.174317 0.696802
Si Si5 0.499232 0.174129 0.268641
Si Si6 0.864615 0.330802 0.563434
Si Si7 0.390747 0.169766 0.465915
O O1 0.372527 0.500000 0.824137
O O2 0.284000 0.291010 0.830768
O O3 0.480314 0.256027 0.897637
O O4 0.297948 0.255859 0.743280
O O5 0.624461 0.237504 0.806518
O O6 0.757356 0.000000 0.883019
O O7 0.824433 0.255735 0.949991
O O8 0.927356 0.500000 0.032865
O O9 0.000000 0.665926 0.000000
O O10 0.425887 0.215911 0.736842
O O11 0.211774 0.228024 0.606192
O O12 0.297979 0.000000 0.698768
O O13 0.553710 0.239815 0.349600
O O14 0.488131 0.000000 0.268861
O O15 0.840979 0.500000 0.564211
O O16 0.750000 0.250000 0.500000
O O17 0.918782 0.314409 0.539788
O O18 0.500000 0.227017 0.500000
O O19 0.363241 0.000000 0.436280
#
# Coordination Sequence:
#
# PCOD8092662 Si02
#       7
#     8   8   8   8   8   8   8
#     4  10  20  34  57  83 109 141 181 221 264 318
#     4   9  18  34  58  82 105 138 182 224 262 314
#     4   9  17  32  54  81 114 142 172 217 270 319
#     4  11  22  37  55  77 111 145 177 219 274 324
#     4   9  19  35  55  78 106 142 180 220 266 317
#     4  10  19  35  57  78 105 141 181 220 266 317
#     4  10  22  37  57  81 107 140 182 227 268 315
#
# _framework density 19.026866999999999
#
# number of rings (size 3 to 8) (size 9 to 14) (size 15 to 20)
#    0.000    2.286    1.429    1.286    2.000    2.571 
#    0.000    2.857    0.000    0.000    0.000    0.000 
#    0.000    0.000    0.000    0.000    0.000    0.000 
#
# Total GULP energy -347227.459256 kJ/mol
# GULP energy per Si atom -12400.980688 kJ/mol
# Density = 1.898356 g / cm^3
# Si number density = 19.026867 Si / 1000 Ang^3
#
#
#
# Elastic Constant Matrix: (Units=GPa)
#
#
# Indices 1 2 3 4 5 6 
#
# 1 68.5619 27.1113 17.6468 0.0000 17.5473 0.0000
# 2 27.1113 73.0500 27.0338 0.0000 4.8471 0.0001
# 3 17.6468 27.0338 73.7558 0.0000 20.1516 0.0000
# 4 0.0000 0.0000 0.0000 33.7188 0.0000 -0.0288
# 5 17.5473 4.8471 20.1516 0.0000 37.1150 0.0000
# 6 0.0000 0.0001 0.0000 -0.0288 0.0000 20.5319
#
#
#
# Elastic Compliance Matrix: (Units=1/GPa)
#
#
# Indices 1 2 3 4 5 6 
#
# 1 0.019321 -0.006651 0.000086 0.000000 -0.008313 0.000000
# 2 -0.006651 0.018178 -0.006202 0.000000 0.004138 0.000000
# 3 0.000086 -0.006202 0.018318 0.000000 -0.009177 0.000000
# 4 0.000000 0.000000 0.000000 0.029657 0.000000 0.000042
# 5 -0.008313 0.004138 -0.009177 0.000000 0.035315 0.000000
# 6 0.000000 0.000000 0.000000 0.000042 0.000000 0.048705
#
#
# Mechanical properties :
#
#
# Convention : Reuss Voigt Hill
#
# Bulk Modulus (GPa) = 33.02123 39.88350 36.45237
# Shear Modulus (GPa) = 24.37571 27.84487 26.11029
#
# Velocity S-wave (km/s) = 3.58316 3.82966 3.70846
# Velocity P-wave (km/s) = 5.87464 6.36885 6.12673
#
# Compressibility (1/GPa) = 0.03028355
#
# Stress axis : x y z
#
# Youngs Moduli (GPa) = 51.75824 55.01064 54.59074
#
# Poissons Ratio (x) = 0.36587 -0.00471
# Poissons Ratio (y) = 0.34424 0.33858
# Poissons Ratio (z) = -0.00447 0.34118
#
# Static dielectric constant tensor:
#      x y z
#    x 3.517550 0.000000 0.001320 
#    y 0.000000 3.402630 0.000000 
#    z 0.001320 0.000000 3.691460 
# 
# 
# High freq. dielectric constant tensor:
#      x y z
#    x 1.727440 0.000000 0.001110 
#    y 0.000000 1.726300 0.000000 
#    z 0.001110 0.000000 1.747470 
# 
# From -- ./inp_files/363093.got.cif
#   From: 2010.06.25/outbox.cif.g09.slc.cpg/sg12_182_cif.got.tgz:363093.got - 2010.06.28 00:19:55.
