data_PCOD8092295
_publ_section_title
;
Structure prediction by ZEFSAII (Michael W. Deem and Ramdas Pophale) SiO2 
 PCOD8092295
Probable space group: C 2/M
;
_chemical_formula_sum "Si O2"
_cell_formula_units_Z 56
_cell_length_a 19.649390
_cell_length_b 17.701349
_cell_length_c 14.044383
_cell_angle_alpha 90.000000
_cell_angle_beta 143.776201
_cell_angle_gamma 90.000000
_cell_volume 2886.702849
_symmetry_space_group_name_H-M "C 2/M"
_symmetry_group_IT_number 12
_symmetry_cell_setting 'monoclinic'
loop_
_space_group_symop_operation_xyz
x,y,z
-x,y,-z
-x,-y,-z
x,-y,z
1/2+x,1/2+y,z
1/2-x,1/2+y,-z
1/2-x,1/2-y,-z
1/2+x,1/2-y,z
loop_
_atom_site_type_symbol
_atom_site_label
_atom_site_fract_x
_atom_site_fract_y
_atom_site_fract_z
Si Si1 0.657391 0.672498 0.496311
Si Si2 0.393871 0.325326 0.218814
Si Si3 0.164535 0.344773 0.455820
Si Si4 0.624629 0.086144 0.606683
Si Si5 0.694631 0.834558 0.854613
Si Si6 0.762034 0.088275 0.226540
Si Si7 0.556080 0.912478 0.860006
O O1 0.523730 0.651030 0.341749
O O2 0.719779 0.638816 0.473283
O O3 0.669241 0.762617 0.508589
O O4 0.718791 0.638641 0.658675
O O5 0.380332 0.241440 0.245934
O O6 0.351566 0.387579 0.246049
O O7 0.321411 0.321695 0.039535
O O8 0.151256 0.404120 0.525843
O O9 0.055891 0.358132 0.262102
O O10 0.500000 0.116740 0.500000
O O11 0.716231 0.131038 0.774683
O O12 0.636884 0.000000 0.647296
O O13 0.626338 0.893349 0.843902
O O14 0.780948 0.000000 0.271403
O O15 0.633137 0.103062 0.040883
O O16 0.518835 0.000000 0.813512
#
# Coordination Sequence:
#
# PCOD8092295 Si02
#       7
#     8   8   8   8   8   8   8
#     4  11  23  40  58  83 122 160 194 240 290 356
#     4  10  20  37  62  86 118 155 197 243 288 349
#     4  11  23  38  58  87 119 157 199 236 297 356
#     4  11  20  33  58  88 115 145 189 245 294 339
#     4  10  19  34  61  91 117 149 197 243 296 342
#     4  10  23  39  62  91 117 155 201 246 297 349
#     4  10  19  37  62  91 121 148 195 252 296 345
#
# _framework density 19.399294999999999
#
# number of rings (size 3 to 8) (size 9 to 14) (size 15 to 20)
#    0.000    1.571    2.857    2.143    0.000    3.429 
#    0.000    2.143    0.000    0.857    0.000    0.000 
#    0.000    0.000    0.000    0.000    0.000    0.000 
#
# Total GULP energy -347174.276472 kJ/mol
# GULP energy per Si atom -12399.081303 kJ/mol
# Density = 1.935514 g / cm^3
# Si number density = 19.399295 Si / 1000 Ang^3
#
#
#
# Elastic Constant Matrix: (Units=GPa)
#
#
# Indices 1 2 3 4 5 6 
#
# 1 92.7533 35.0464 64.7859 0.0000 5.3438 0.0000
# 2 35.0464 98.2592 63.1717 0.0000 -4.2503 0.0000
# 3 64.7859 63.1717 116.2235 0.0000 -4.7893 0.0000
# 4 0.0000 0.0000 0.0000 35.0012 0.0000 -6.2415
# 5 5.3438 -4.2503 -4.7893 0.0000 21.5142 0.0000
# 6 0.0000 0.0000 0.0000 -6.2415 0.0000 18.8196
#
#
#
# Elastic Compliance Matrix: (Units=1/GPa)
#
#
# Indices 1 2 3 4 5 6 
#
# 1 0.018648 -0.000132 -0.010612 0.000000 -0.007020 0.000000
# 2 -0.000132 0.015676 -0.008395 0.000000 0.001261 0.000000
# 3 -0.010612 -0.008395 0.019300 0.000000 0.005274 0.000000
# 4 0.000000 0.000000 0.000000 0.030366 0.000000 0.010071
# 5 -0.007020 0.001261 0.005274 0.000000 0.049648 0.000000
# 6 0.000000 0.000000 0.000000 0.010071 0.000000 0.056476
#
#
# Mechanical properties :
#
#
# Convention : Reuss Voigt Hill
#
# Bulk Modulus (GPa) = 65.16661 70.36046 67.76354
# Shear Modulus (GPa) = 21.41253 24.68249 23.04751
#
# Velocity S-wave (km/s) = 3.32592 3.57086 3.45056
# Velocity P-wave (km/s) = 6.95803 7.30409 7.13316
#
# Compressibility (1/GPa) = 0.01534528
#
# Stress axis : x y z
#
# Youngs Moduli (GPa) = 53.62442 63.79200 51.81355
#
# Poissons Ratio (x) = 0.00843 0.54987
# Poissons Ratio (y) = 0.00709 0.43497
# Poissons Ratio (z) = 0.56909 0.53552
#
# Static dielectric constant tensor:
#      x y z
#    x 3.400540 0.000000 -0.046890 
#    y 0.000000 3.547350 0.000000 
#    z -0.046890 0.000000 3.715950 
# 
# 
# High freq. dielectric constant tensor:
#      x y z
#    x 1.735090 0.000000 -0.011080 
#    y 0.000000 1.760140 0.000000 
#    z -0.011080 0.000000 1.758850 
# 
# From -- ./inp_files/158349.got.cif
#   From: 2010.06.25/outbox.cif.g09.slc.cpg/sg12_80_cif.got.tgz:158349.got - 2010.06.28 00:19:55.
