data_PCOD8092567
_publ_section_title
;
Structure prediction by ZEFSAII (Michael W. Deem and Ramdas Pophale) SiO2 
 PCOD8092567
Probable space group: C 2/M
;
_chemical_formula_sum "Si O2"
_cell_formula_units_Z 40
_cell_length_a 13.696266
_cell_length_b 19.241592
_cell_length_c 11.631445
_cell_angle_alpha 90.000000
_cell_angle_beta 42.526909
_cell_angle_gamma 90.000000
_cell_volume 2071.966297
_symmetry_space_group_name_H-M "C 2/M"
_symmetry_group_IT_number 12
_symmetry_cell_setting 'monoclinic'
loop_
_space_group_symop_operation_xyz
x,y,z
-x,y,-z
-x,-y,-z
x,-y,z
1/2+x,1/2+y,z
1/2-x,1/2+y,-z
1/2-x,1/2-y,-z
1/2+x,1/2-y,z
loop_
_atom_site_type_symbol
_atom_site_label
_atom_site_fract_x
_atom_site_fract_y
_atom_site_fract_z
Si Si1 0.815885 0.720771 0.280178
Si Si2 0.102800 0.582762 0.213328
Si Si3 0.648469 0.579654 0.833613
Si Si4 0.354526 0.796220 0.986346
Si Si5 0.702256 0.856831 0.485788
O O1 0.715520 0.785947 0.399866
O O2 0.767741 0.657142 0.405438
O O3 0.985331 0.737459 0.156095
O O4 0.790722 0.699579 0.170355
O O5 0.104015 0.500000 0.188305
O O6 0.220270 0.608359 0.204164
O O7 0.136592 0.624284 0.066516
O O8 0.951478 0.606587 0.398564
O O9 0.630961 0.500000 0.877162
O O10 0.678253 0.591664 0.672312
O O11 0.500000 0.618290 0.000000
O O12 0.250000 0.750000 0.000000
#
# Coordination Sequence:
#
# PCOD8092567 Si02
#       5
#     8   8   8   8   8
#     4   9  21  36  54  87 116 143 200 230 282 358
#     4  10  21  37  58  86 115 150 199 242 291 351
#     4  10  21  34  55  82 110 148 190 236 290 342
#     4  10  20  36  60  85 117 157 191 242 292 341
#     4  10  19  35  56  78 117 145 179 249 281 334
#
# _framework density 19.305333999999998
#
# number of rings (size 3 to 8) (size 9 to 14) (size 15 to 20)
#    0.000    2.200    0.000    2.400    5.600    3.200 
#    0.000   12.000    0.000    0.000    0.000    4.200 
#    0.000    0.000    0.000    0.000    0.000    0.000 
#
# Total GULP energy -247862.940521 kJ/mol
# GULP energy per Si atom -12393.147026 kJ/mol
# Density = 1.926139 g / cm^3
# Si number density = 19.305334 Si / 1000 Ang^3
#
#
#
# Elastic Constant Matrix: (Units=GPa)
#
#
# Indices 1 2 3 4 5 6 
#
# 1 109.8196 46.5820 74.5133 -0.0008 14.8137 0.0012
# 2 46.5820 84.5107 45.3556 -0.0002 -0.6072 0.0003
# 3 74.5133 45.3556 143.6150 -0.0014 19.3672 0.0011
# 4 -0.0008 -0.0002 -0.0014 36.9893 0.0010 1.9957
# 5 14.8137 -0.6072 19.3672 0.0010 35.7979 -0.0011
# 6 0.0012 0.0003 0.0011 1.9957 -0.0011 23.4398
#
#
#
# Elastic Compliance Matrix: (Units=1/GPa)
#
#
# Indices 1 2 3 4 5 6 
#
# 1 0.016104 -0.005619 -0.006116 0.000000 -0.003451 -0.000001
# 2 -0.005619 0.016490 -0.002852 0.000000 0.004148 0.000000
# 3 -0.006116 -0.002852 0.011544 0.000000 -0.003763 0.000000
# 4 0.000000 0.000000 0.000000 0.027160 -0.000001 -0.002312
# 5 -0.003451 0.004148 -0.003763 -0.000001 0.031469 0.000002
# 6 -0.000001 0.000000 0.000000 -0.002312 0.000002 0.042859
#
#
# Mechanical properties :
#
#
# Convention : Reuss Voigt Hill
#
# Bulk Modulus (GPa) = 66.81937 74.53857 70.67897
# Shear Modulus (GPa) = 27.81044 30.67837 29.24441
#
# Velocity S-wave (km/s) = 3.79959 3.99069 3.89631
# Velocity P-wave (km/s) = 7.34412 7.74134 7.54535
#
# Compressibility (1/GPa) = 0.01496572
#
# Stress axis : x y z
#
# Youngs Moduli (GPa) = 62.09520 60.64110 86.62391
#
# Poissons Ratio (x) = 0.34076 0.52975
# Poissons Ratio (y) = 0.34893 0.24703
# Poissons Ratio (z) = 0.37974 0.17293
#
# Static dielectric constant tensor:
#      x y z
#    x 3.593360 0.000000 0.021200 
#    y 0.000000 3.467660 0.000000 
#    z 0.021200 0.000000 3.922870 
# 
# 
# High freq. dielectric constant tensor:
#      x y z
#    x 1.733610 0.000000 0.005270 
#    y 0.000000 1.741990 0.000000 
#    z 0.005270 0.000000 1.770450 
# 
# From -- ./inp_files/63169.got.cif
#   From: 2010.06.25/outbox.cif.g09.slc.cpg/sg12_32_cif.got.tgz:63169.got - 2010.06.28 00:19:55.
