data_PCOD8092181
_publ_section_title
;
Structure prediction by ZEFSAII (Michael W. Deem and Ramdas Pophale) SiO2 
 PCOD8092181
Probable space group: C 2/M
;
_chemical_formula_sum "Si O2"
_cell_formula_units_Z 28
_cell_length_a 5.104754
_cell_length_b 30.533201
_cell_length_c 9.901496
_cell_angle_alpha 90.000000
_cell_angle_beta 121.164235
_cell_angle_gamma 90.000000
_cell_volume 1320.575197
_symmetry_space_group_name_H-M "C 2/M"
_symmetry_group_IT_number 12
_symmetry_cell_setting 'monoclinic'
loop_
_space_group_symop_operation_xyz
x,y,z
-x,y,-z
-x,-y,-z
x,-y,z
1/2+x,1/2+y,z
1/2-x,1/2+y,-z
1/2-x,1/2-y,-z
1/2+x,1/2-y,z
loop_
_atom_site_type_symbol
_atom_site_label
_atom_site_fract_x
_atom_site_fract_y
_atom_site_fract_z
Si Si1 0.579414 0.870735 0.671999
Si Si2 0.856482 0.000000 0.109877
Si Si3 0.453005 0.769539 0.675576
Si Si4 0.776628 0.907708 0.177929
O O1 0.500000 0.885700 0.500000
O O2 0.483941 0.821125 0.672867
O O3 0.369644 0.900318 0.713901
O O4 0.946486 0.875079 0.788551
O O5 0.937123 0.044161 0.213433
O O6 0.500000 0.000000 0.000000
O O7 0.000000 0.000000 0.000000
O O8 0.250000 0.750000 0.500000
O O9 0.779696 0.744684 0.765973
O O10 0.500000 0.901025 0.000000
#
# Coordination Sequence:
#
# PCOD8092181 Si02
#       4
#     8   4   8   8
#     4  12  23  38  65 100 126 160 217 270 313 366
#     4  10  20  42  69  88 119 178 223 236 295 412
#     4  10  19  34  59  89 116 161 219 250 286 376
#     4  11  24  42  65  93 128 167 212 260 319 377
#
# _framework density 21.202884000000001
#
# number of rings (size 3 to 8) (size 9 to 14) (size 15 to 20)
#    0.000    1.143    2.857    6.857    4.000    0.000 
#    0.000    4.286    0.000   17.143    0.000    0.000 
#    0.000    0.000    0.000    0.000    0.000    0.000 
#
# Total GULP energy -173487.349595 kJ/mol
# GULP energy per Si atom -12391.953543 kJ/mol
# Density = 2.115463 g / cm^3
# Si number density = 21.202884 Si / 1000 Ang^3
#
#
#
# Elastic Constant Matrix: (Units=GPa)
#
#
# Indices 1 2 3 4 5 6 
#
# 1 214.7062 70.2999 46.0286 0.0000 -26.5549 0.0000
# 2 70.2999 133.7781 62.4432 0.0000 -14.2828 0.0000
# 3 46.0286 62.4432 63.2523 0.0000 -15.5646 0.0000
# 4 0.0000 0.0000 0.0000 15.9362 0.0000 8.4383
# 5 -26.5549 -14.2828 -15.5646 0.0000 40.8543 0.0000
# 6 0.0000 0.0000 0.0000 8.4383 0.0000 31.4110
#
#
#
# Elastic Compliance Matrix: (Units=1/GPa)
#
#
# Indices 1 2 3 4 5 6 
#
# 1 0.006022 -0.002113 -0.001671 0.000000 0.002539 0.000000
# 2 -0.002113 0.014611 -0.013205 0.000000 -0.001297 0.000000
# 3 -0.001671 -0.013205 0.031623 0.000000 0.006345 0.000000
# 4 0.000000 0.000000 0.000000 0.073157 0.000000 -0.019653
# 5 0.002539 -0.001297 0.006345 0.000000 0.028091 0.000000
# 6 0.000000 0.000000 0.000000 -0.019653 0.000000 0.037116
#
#
# Mechanical properties :
#
#
# Convention : Reuss Voigt Hill
#
# Bulk Modulus (GPa) = 54.71398 85.47555 70.09477
# Shear Modulus (GPa) = 21.67400 33.17129 27.42265
#
# Velocity S-wave (km/s) = 3.20069 3.95963 3.60021
# Velocity P-wave (km/s) = 6.28651 7.82979 7.10020
#
# Compressibility (1/GPa) = 0.01827686
#
# Stress axis : x y z
#
# Youngs Moduli (GPa) = 166.06621 68.44166 31.62233
#
# Poissons Ratio (x) = 0.14465 0.05284
# Poissons Ratio (y) = 0.35097 0.41758
# Poissons Ratio (z) = 0.27748 0.90378
#
# Static dielectric constant tensor:
#      x y z
#    x 4.867460 0.000000 -0.298230 
#    y 0.000000 6.558470 0.000000 
#    z -0.298230 0.000000 3.552000 
# 
# 
# High freq. dielectric constant tensor:
#      x y z
#    x 1.876010 0.000000 -0.007900 
#    y 0.000000 1.838290 0.000000 
#    z -0.007900 0.000000 1.781410 
# 
# From -- ./inp_files/34690.got.cif
#   From: 2010.06.25/outbox.cif.g09.slc.cpg/sg12_18_cif.got.tgz:34690.got - 2010.06.28 00:19:55.
