data_PCOD8092562
_publ_section_title
;
Structure prediction by ZEFSAII (Michael W. Deem and Ramdas Pophale) SiO2 
 PCOD8092562
Probable space group: C 2/M
;
_chemical_formula_sum "Si O2"
_cell_formula_units_Z 64
_cell_length_a 20.399686
_cell_length_b 9.150429
_cell_length_c 18.361357
_cell_angle_alpha 90.000000
_cell_angle_beta 83.491360
_cell_angle_gamma 90.000000
_cell_volume 3405.348214
_symmetry_space_group_name_H-M "C 2/M"
_symmetry_group_IT_number 12
_symmetry_cell_setting 'monoclinic'
loop_
_space_group_symop_operation_xyz
x,y,z
-x,y,-z
-x,-y,-z
x,-y,z
1/2+x,1/2+y,z
1/2-x,1/2+y,-z
1/2-x,1/2-y,-z
1/2+x,1/2-y,z
loop_
_atom_site_type_symbol
_atom_site_label
_atom_site_fract_x
_atom_site_fract_y
_atom_site_fract_z
Si Si1 0.586061 0.673179 0.729087
Si Si2 0.059720 0.670413 0.589811
Si Si3 0.196065 0.331309 0.959046
Si Si4 0.069824 0.170947 0.027987
Si Si5 0.201780 0.332876 0.790030
Si Si6 0.553455 0.673487 0.193846
Si Si7 0.839552 0.827784 0.705734
Si Si8 0.588599 0.170052 0.424326
O O1 0.588407 0.500000 0.724371
O O2 0.596533 0.737724 0.647162
O O3 0.642736 0.727293 0.775579
O O4 0.517085 0.731989 0.770021
O O5 0.064897 0.500000 0.607830
O O6 0.095879 0.704737 0.509011
O O7 0.983505 0.719333 0.594266
O O8 0.193295 0.500000 0.983081
O O9 0.217925 0.315257 0.872854
O O10 0.250000 0.250000 0.000000
O O11 0.124514 0.260183 0.977488
O O12 0.067709 0.230200 0.110827
O O13 0.087901 0.000000 0.022286
O O14 0.000000 0.202507 0.000000
O O15 0.182740 0.500000 0.774189
O O16 0.266036 0.283301 0.737238
O O17 0.552746 0.500000 0.193288
O O18 0.609959 0.734741 0.240055
O O19 0.855418 0.758329 0.625507
O O20 0.847806 0.000000 0.698306
O O21 0.598825 0.000000 0.408175
#
# Coordination Sequence:
#
# PCOD8092562 Si02
#       8
#     8   8   8   8   8   8   8   8
#     4  11  21  35  58  86 113 145 188 232 271 325
#     4   9  18  34  55  81 116 150 177 217 279 335
#     4  11  23  40  61  83 111 149 193 237 283 339
#     4  10  20  36  58  82 113 150 185 229 286 341
#     4  10  23  40  57  78 113 154 183 222 284 340
#     4   9  18  33  54  81 110 141 179 226 281 330
#     4  10  19  35  56  78 107 144 185 229 274 325
#     4   9  18  33  55  83 113 145 181 224 273 326
#
# _framework density 18.793966000000001
#
# number of rings (size 3 to 8) (size 9 to 14) (size 15 to 20)
#    0.000    2.125    1.250    3.000    0.000    5.250 
#    0.000    5.000    0.000    0.000    0.000    0.000 
#    0.000    0.000    0.000    0.000    0.000    0.000 
#
# Total GULP energy -396906.670065 kJ/mol
# GULP energy per Si atom -12403.333440 kJ/mol
# Density = 1.875119 g / cm^3
# Si number density = 18.793966 Si / 1000 Ang^3
#
#
#
# Elastic Constant Matrix: (Units=GPa)
#
#
# Indices 1 2 3 4 5 6 
#
# 1 88.7389 40.7756 27.3591 0.0000 -10.9647 0.0000
# 2 40.7756 64.2724 33.1223 0.0000 -3.9836 0.0000
# 3 27.3591 33.1223 85.0711 0.0000 -13.8026 0.0000
# 4 0.0000 0.0000 0.0000 31.6036 0.0000 0.0520
# 5 -10.9647 -3.9836 -13.8026 0.0000 34.1312 0.0000
# 6 0.0000 0.0000 0.0000 0.0520 0.0000 30.8327
#
#
#
# Elastic Compliance Matrix: (Units=1/GPa)
#
#
# Indices 1 2 3 4 5 6 
#
# 1 0.016505 -0.009781 -0.000883 0.000000 0.003804 0.000000
# 2 -0.009781 0.025283 -0.007202 0.000000 -0.003104 0.000000
# 3 -0.000883 -0.007202 0.015690 0.000000 0.005221 0.000000
# 4 0.000000 0.000000 0.000000 0.031642 0.000000 -0.000053
# 5 0.003804 -0.003104 0.005221 0.000000 0.032270 0.000000
# 6 0.000000 0.000000 0.000000 -0.000053 0.000000 0.032433
#
#
# Mechanical properties :
#
#
# Convention : Reuss Voigt Hill
#
# Bulk Modulus (GPa) = 45.98274 48.95515 47.46895
# Shear Modulus (GPa) = 25.40608 28.43517 26.92063
#
# Velocity S-wave (km/s) = 3.68070 3.89394 3.78882
# Velocity P-wave (km/s) = 6.52559 6.80602 6.66728
#
# Compressibility (1/GPa) = 0.02174729
#
# Stress axis : x y z
#
# Youngs Moduli (GPa) = 60.58614 39.55253 63.73504
#
# Poissons Ratio (x) = 0.38685 0.05628
# Poissons Ratio (y) = 0.59257 0.45902
# Poissons Ratio (z) = 0.05350 0.28485
#
# Static dielectric constant tensor:
#      x y z
#    x 3.403870 0.000000 -0.091220 
#    y 0.000000 3.251970 0.000000 
#    z -0.091220 0.000000 3.566660 
# 
# 
# High freq. dielectric constant tensor:
#      x y z
#    x 1.723850 0.000000 -0.004160 
#    y 0.000000 1.714060 0.000000 
#    z -0.004160 0.000000 1.742510 
# 
# From -- ./inp_files/281410.got.cif
#   From: 2010.06.25/outbox.cif.g09.slc.cpg/sg12_141_cif.got.tgz:281410.got - 2010.06.28 00:19:55.
