data_PCOD8092922
_publ_section_title
;
Structure prediction by ZEFSAII (Michael W. Deem and Ramdas Pophale) SiO2 
 PCOD8092922
Probable space group: C 2/M
;
_chemical_formula_sum "Si O2"
_cell_formula_units_Z 56
_cell_length_a 28.014801
_cell_length_b 8.474466
_cell_length_c 19.497288
_cell_angle_alpha 90.000000
_cell_angle_beta 38.322719
_cell_angle_gamma 90.000000
_cell_volume 2870.310849
_symmetry_space_group_name_H-M "C 2/M"
_symmetry_group_IT_number 12
_symmetry_cell_setting 'monoclinic'
loop_
_space_group_symop_operation_xyz
x,y,z
-x,y,-z
-x,-y,-z
x,-y,z
1/2+x,1/2+y,z
1/2-x,1/2+y,-z
1/2-x,1/2-y,-z
1/2+x,1/2-y,z
loop_
_atom_site_type_symbol
_atom_site_label
_atom_site_fract_x
_atom_site_fract_y
_atom_site_fract_z
Si Si1 0.249372 0.684384 0.662245
Si Si2 0.052482 0.315348 0.090120
Si Si3 0.197978 0.182956 0.861107
Si Si4 0.295050 0.186102 0.884094
Si Si5 0.554738 0.316107 0.236361
Si Si6 0.380807 0.813553 0.291356
Si Si7 0.393871 0.814908 0.430288
O O1 0.260844 0.500000 0.635759
O O2 0.224860 0.712306 0.767448
O O3 0.184350 0.757984 0.684862
O O4 0.329316 0.772764 0.558243
O O5 0.064411 0.500000 0.062908
O O6 0.069685 0.281082 0.150135
O O7 0.965490 0.259411 0.170784
O O8 0.108818 0.217957 0.977510
O O9 0.249292 0.235115 0.867682
O O10 0.208240 0.000000 0.831499
O O11 0.379023 0.266248 0.784889
O O12 0.303516 0.000000 0.880432
O O13 0.250000 0.250000 0.000000
O O14 0.559850 0.500000 0.213531
O O15 0.472483 0.273693 0.362288
O O16 0.366698 0.756494 0.385383
O O17 0.376834 0.000000 0.292365
O O18 0.411020 0.000000 0.410868
#
# Coordination Sequence:
#
# PCOD8092922 Si02
#       7
#     8   8   8   8   8   8   8
#     4  11  22  38  58  82 115 154 194 236 284 337
#     4  10  19  35  58  84 115 150 190 235 285 336
#     4  11  24  39  55  82 118 153 190 233 285 344
#     4  11  22  37  60  86 115 148 189 235 285 340
#     4  11  21  35  58  89 118 145 186 236 286 339
#     4   8  18  35  58  86 113 148 192 236 282 334
#     4  10  20  38  61  85 115 150 192 237 283 334
#
# _framework density 19.510083000000002
#
# number of rings (size 3 to 8) (size 9 to 14) (size 15 to 20)
#    0.000    1.714    1.429    4.714    0.000    2.286 
#    0.000   11.429    0.000    4.286    0.000    0.000 
#    0.000    0.000    0.000    0.000    0.000    0.000 
#
# Total GULP energy -347301.221995 kJ/mol
# GULP energy per Si atom -12403.615071 kJ/mol
# Density = 1.946568 g / cm^3
# Si number density = 19.510083 Si / 1000 Ang^3
#
#
#
# Elastic Constant Matrix: (Units=GPa)
#
#
# Indices 1 2 3 4 5 6 
#
# 1 72.7540 21.7833 43.6070 0.0004 -16.8953 -0.0051
# 2 21.7833 51.2991 8.1980 0.0048 -5.8017 -0.0076
# 3 43.6070 8.1980 120.5254 0.0006 -15.8418 -0.0003
# 4 0.0004 0.0048 0.0006 34.8251 0.0006 -2.3276
# 5 -16.8953 -5.8017 -15.8418 0.0006 27.3789 -0.0007
# 6 -0.0051 -0.0076 -0.0003 -2.3276 -0.0007 24.9740
#
#
#
# Elastic Compliance Matrix: (Units=1/GPa)
#
#
# Indices 1 2 3 4 5 6 
#
# 1 0.021536 -0.007227 -0.006228 0.000001 0.008154 0.000002
# 2 -0.007227 0.022482 0.001218 -0.000003 0.001009 0.000005
# 3 -0.006228 0.001218 0.010819 0.000000 0.002675 -0.000001
# 4 0.000001 -0.000003 0.000000 0.028895 -0.000001 0.002693
# 5 0.008154 0.001009 0.002675 -0.000001 0.043318 0.000003
# 6 0.000002 0.000005 -0.000001 0.002693 0.000003 0.040293
#
#
# Mechanical properties :
#
#
# Convention : Reuss Voigt Hill
#
# Bulk Modulus (GPa) = 32.93582 43.52836 38.23209
# Shear Modulus (GPa) = 24.76016 28.83495 26.79755
#
# Velocity S-wave (km/s) = 3.56630 3.84858 3.71013
# Velocity P-wave (km/s) = 5.82032 6.48906 6.16377
#
# Compressibility (1/GPa) = 0.03036208
#
# Stress axis : x y z
#
# Youngs Moduli (GPa) = 46.43469 44.48032 92.42831
#
# Poissons Ratio (x) = 0.32147 0.57568
# Poissons Ratio (y) = 0.33559 -0.11260
# Poissons Ratio (z) = 0.28921 -0.05419
#
# Static dielectric constant tensor:
#      x y z
#    x 3.780570 -0.000030 -0.282550 
#    y -0.000030 3.439670 0.000030 
#    z -0.282550 0.000030 3.499630 
# 
# 
# High freq. dielectric constant tensor:
#      x y z
#    x 1.753600 0.000000 -0.020250 
#    y 0.000000 1.758380 0.000000 
#    z -0.020250 0.000000 1.757100 
# 
# From -- ./inp_files/292412.got.cif
#   From: 2010.06.25/outbox.cif.g09.slc.cpg/sg12_147_cif.got.tgz:292412.got - 2010.06.28 00:19:55.
