data_PCOD8092072
_publ_section_title
;
Structure prediction by ZEFSAII (Michael W. Deem and Ramdas Pophale) SiO2 
 PCOD8092072
Probable space group: C 2/M
;
_chemical_formula_sum "Si O2"
_cell_formula_units_Z 64
_cell_length_a 20.923791
_cell_length_b 18.779168
_cell_length_c 18.280230
_cell_angle_alpha 90.000000
_cell_angle_beta 150.830502
_cell_angle_gamma 90.000000
_cell_volume 3500.897050
_symmetry_space_group_name_H-M "C 2/M"
_symmetry_group_IT_number 12
_symmetry_cell_setting 'monoclinic'
loop_
_space_group_symop_operation_xyz
x,y,z
-x,y,-z
-x,-y,-z
x,-y,z
1/2+x,1/2+y,z
1/2-x,1/2+y,-z
1/2-x,1/2-y,-z
1/2+x,1/2-y,z
loop_
_atom_site_type_symbol
_atom_site_label
_atom_site_fract_x
_atom_site_fract_y
_atom_site_fract_z
Si Si1 0.109872 0.417385 0.810057
Si Si2 0.619785 0.169599 0.671545
Si Si3 0.131890 0.819892 0.172330
Si Si4 0.339306 0.143004 0.571520
Si Si5 0.635513 0.416393 0.845185
Si Si6 0.586047 0.581117 0.264233
Si Si7 0.464655 0.670824 0.385730
Si Si8 0.721563 0.726672 0.582097
O O1 0.117736 0.500000 0.796864
O O2 0.119774 0.372692 0.746526
O O3 0.973670 0.399776 0.713881
O O4 0.223815 0.396493 0.980516
O O5 0.500000 0.144583 0.500000
O O6 0.756888 0.148399 0.770075
O O7 0.608025 0.253901 0.675163
O O8 0.092030 0.874792 0.195865
O O9 0.188450 0.745314 0.258803
O O10 0.000000 0.799601 0.000000
O O11 0.223052 0.086421 0.444333
O O12 0.341765 0.198174 0.506617
O O13 0.318262 0.190133 0.622039
O O14 0.618580 0.500000 0.814645
O O15 0.526869 0.388845 0.794706
O O16 0.624886 0.378582 0.755385
O O17 0.556132 0.500000 0.213025
O O18 0.500000 0.636001 0.500000
O O19 0.603183 0.675627 0.483291
#
# Coordination Sequence:
#
# PCOD8092072 Si02
#       8
#     8   8   8   8   8   8   8   8
#     4  11  23  38  56  86 124 156 189 237 286 335
#     4  11  21  37  57  85 120 158 195 226 275 346
#     4  11  22  34  53  84 118 147 185 234 281 333
#     4  10  19  34  59  81 109 145 191 233 280 327
#     4  10  23  40  59  85 114 148 197 244 290 344
#     4  10  20  36  57  79 109 154 196 227 269 334
#     4  11  20  39  63  81 110 148 188 243 289 346
#     4  10  19  36  56  83 111 143 187 237 279 337
#
# _framework density 18.281030000000001
#
# number of rings (size 3 to 8) (size 9 to 14) (size 15 to 20)
#    0.000    1.500    5.000    1.875    0.000    2.750 
#    0.000    0.000    0.000    0.000    0.000    1.750 
#    0.000    0.000    0.000    0.000    0.000    0.000 
#
# Total GULP energy -396781.315933 kJ/mol
# GULP energy per Si atom -12399.416123 kJ/mol
# Density = 1.823942 g / cm^3
# Si number density = 18.281030 Si / 1000 Ang^3
#
#
#
# Elastic Constant Matrix: (Units=GPa)
#
#
# Indices 1 2 3 4 5 6 
#
# 1 76.2460 25.2274 51.8227 -0.0008 -0.0299 -0.0001
# 2 25.2274 54.1373 39.2895 0.0000 -14.5973 0.0007
# 3 51.8227 39.2895 150.0634 -0.0008 1.0981 0.0000
# 4 -0.0008 0.0000 -0.0008 21.9469 0.0006 1.8554
# 5 -0.0299 -14.5973 1.0981 0.0006 33.5637 0.0005
# 6 -0.0001 0.0007 0.0000 1.8554 0.0005 20.0037
#
#
#
# Elastic Compliance Matrix: (Units=1/GPa)
#
#
# Indices 1 2 3 4 5 6 
#
# 1 0.018246 -0.005622 -0.004812 0.000000 -0.002272 0.000000
# 2 -0.005622 0.028580 -0.005633 -0.000001 0.012609 -0.000001
# 3 -0.004812 -0.005633 0.009821 0.000000 -0.002776 0.000000
# 4 0.000000 -0.000001 0.000000 0.045925 -0.000001 -0.004260
# 5 -0.002272 0.012609 -0.002776 -0.000001 0.035367 -0.000001
# 6 0.000000 -0.000001 0.000000 -0.004260 -0.000001 0.050386
#
#
# Mechanical properties :
#
#
# Convention : Reuss Voigt Hill
#
# Bulk Modulus (GPa) = 40.79912 57.01397 48.90655
# Shear Modulus (GPa) = 21.86947 26.04333 23.95640
#
# Velocity S-wave (km/s) = 3.46250 3.77850 3.62394
# Velocity P-wave (km/s) = 6.19285 7.09163 6.65743
#
# Compressibility (1/GPa) = 0.02451033
#
# Stress axis : x y z
#
# Youngs Moduli (GPa) = 54.80776 34.98996 101.82315
#
# Poissons Ratio (x) = 0.19672 0.49000
# Poissons Ratio (y) = 0.30814 0.57361
# Poissons Ratio (z) = 0.26375 0.19711
#
# Static dielectric constant tensor:
#      x y z
#    x 3.477350 0.000000 0.057950 
#    y 0.000000 3.164410 0.000000 
#    z 0.057950 0.000000 3.515630 
# 
# 
# High freq. dielectric constant tensor:
#      x y z
#    x 1.718600 0.000000 0.004580 
#    y 0.000000 1.687800 0.000000 
#    z 0.004580 0.000000 1.712780 
# 
# From -- ./inp_files/285226.got.cif
#   From: 2010.06.25/outbox.cif.g09.slc.cpg/sg12_143_cif.got.tgz:285226.got - 2010.06.28 00:19:55.
