data_PCOD8092026
_publ_section_title
;
Structure prediction by ZEFSAII (Michael W. Deem and Ramdas Pophale) SiO2 
 PCOD8092026
Probable space group: C 2/M
;
_chemical_formula_sum "Si O2"
_cell_formula_units_Z 64
_cell_length_a 28.834416
_cell_length_b 9.093935
_cell_length_c 14.445349
_cell_angle_alpha 90.000000
_cell_angle_beta 121.576826
_cell_angle_gamma 90.000000
_cell_volume 3227.003532
_symmetry_space_group_name_H-M "C 2/M"
_symmetry_group_IT_number 12
_symmetry_cell_setting 'monoclinic'
loop_
_space_group_symop_operation_xyz
x,y,z
-x,y,-z
-x,-y,-z
x,-y,z
1/2+x,1/2+y,z
1/2-x,1/2+y,-z
1/2-x,1/2-y,-z
1/2+x,1/2-y,z
loop_
_atom_site_type_symbol
_atom_site_label
_atom_site_fract_x
_atom_site_fract_y
_atom_site_fract_z
Si Si1 0.562039 0.828215 0.549463
Si Si2 0.518158 0.167548 0.790205
Si Si3 0.198537 0.174752 0.991769
Si Si4 0.401264 0.327652 0.243487
Si Si5 0.300222 0.324514 0.602592
Si Si6 0.053210 0.837172 0.995246
Si Si7 0.399928 0.832036 0.616730
Si Si8 0.671076 0.330027 0.167020
O O1 0.500000 0.772408 0.500000
O O2 0.604741 0.746432 0.662117
O O3 0.583052 0.791081 0.469339
O O4 0.565101 0.000000 0.573822
O O5 0.540646 0.271094 0.732970
O O6 0.453671 0.189566 0.735576
O O7 0.531709 0.000000 0.777794
O O8 0.548489 0.209792 0.915720
O O9 0.146189 0.221734 0.876649
O O10 0.205858 0.000000 0.998378
O O11 0.250000 0.250000 0.000000
O O12 0.191976 0.236217 0.090622
O O13 0.402156 0.500000 0.257738
O O14 0.295126 0.500000 0.593594
O O15 0.250000 0.250000 0.500000
O O16 0.354697 0.278734 0.606104
O O17 0.301262 0.265551 0.710719
O O18 0.106427 0.802450 0.111474
O O19 0.060589 0.000000 0.955968
O O20 0.000000 0.838070 0.000000
O O21 0.378492 0.000000 0.600493
O O22 0.685238 0.500000 0.178773
#
# Coordination Sequence:
#
# PCOD8092026 Si02
#       8
#     8   8   8   8   8   8   8   8
#     4  10  20  38  60  85 123 168 206 244 302 369
#     4  11  21  35  57  86 123 160 197 242 300 364
#     4  10  22  41  62  86 119 155 199 248 296 357
#     4  11  22  37  59  87 120 156 201 255 302 351
#     4  11  24  43  67  90 117 157 207 256 305 358
#     4  10  19  34  58  87 119 156 199 243 295 359
#     4  10  22  40  61  87 124 164 203 248 300 363
#     4   9  19  39  62  85 117 157 196 239 297 361
#
# _framework density 19.832640000000001
#
# number of rings (size 3 to 8) (size 9 to 14) (size 15 to 20)
#    0.000    1.750    2.500    1.875    0.000    5.000 
#    0.000    6.250    0.000    0.000    0.000    0.000 
#    0.000    0.000    0.000    0.000    0.000    0.000 
#
# Total GULP energy -396698.992911 kJ/mol
# GULP energy per Si atom -12396.843528 kJ/mol
# Density = 1.978750 g / cm^3
# Si number density = 19.832640 Si / 1000 Ang^3
#
#
#
# Elastic Constant Matrix: (Units=GPa)
#
#
# Indices 1 2 3 4 5 6 
#
# 1 111.5029 37.6040 56.4277 0.0000 -0.9641 0.0000
# 2 37.6040 57.4562 50.9628 0.0000 1.3095 0.0000
# 3 56.4277 50.9628 159.3033 0.0000 -6.0299 0.0000
# 4 0.0000 0.0000 0.0000 27.1650 0.0000 0.8815
# 5 -0.9641 1.3095 -6.0299 0.0000 26.1618 0.0000
# 6 0.0000 0.0000 0.0000 0.8815 0.0000 34.6144
#
#
#
# Elastic Compliance Matrix: (Units=1/GPa)
#
#
# Indices 1 2 3 4 5 6 
#
# 1 0.012162 -0.005792 -0.002449 0.000000 0.000174 0.000000
# 2 -0.005792 0.027299 -0.006801 0.000000 -0.003147 0.000000
# 3 -0.002449 -0.006801 0.009412 0.000000 0.002419 0.000000
# 4 0.000000 0.000000 0.000000 0.036843 0.000000 -0.000938
# 5 0.000174 -0.003147 0.002419 0.000000 0.038945 0.000000
# 6 0.000000 0.000000 0.000000 -0.000938 0.000000 0.028914
#
#
# Mechanical properties :
#
#
# Convention : Reuss Voigt Hill
#
# Bulk Modulus (GPa) = 53.21823 68.69462 60.95642
# Shear Modulus (GPa) = 26.32664 29.80609 28.06636
#
# Velocity S-wave (km/s) = 3.64736 3.88091 3.76594
# Velocity P-wave (km/s) = 6.68053 7.40231 7.05067
#
# Compressibility (1/GPa) = 0.01879055
#
# Stress axis : x y z
#
# Youngs Moduli (GPa) = 82.22052 36.63089 106.24879
#
# Poissons Ratio (x) = 0.21217 0.26016
# Poissons Ratio (y) = 0.47624 0.72258
# Poissons Ratio (z) = 0.20132 0.24912
#
# Static dielectric constant tensor:
#      x y z
#    x 3.649320 0.000000 -0.116820 
#    y 0.000000 3.503690 0.000000 
#    z -0.116820 0.000000 3.984890 
# 
# 
# High freq. dielectric constant tensor:
#      x y z
#    x 1.768120 0.000000 -0.004940 
#    y 0.000000 1.756100 0.000000 
#    z -0.004940 0.000000 1.786140 
# 
# From -- ./inp_files/249188.got.cif
#   From: 2010.06.25/outbox.cif.g09.slc.cpg/sg12_125_cif.got.tgz:249188.got - 2010.06.28 00:19:55.
