data_PCOD8092355
_publ_section_title
;
Structure prediction by ZEFSAII (Michael W. Deem and Ramdas Pophale) SiO2 
 PCOD8092355
Probable space group: C 2/M
;
_chemical_formula_sum "Si O2"
_cell_formula_units_Z 56
_cell_length_a 25.833135
_cell_length_b 20.568833
_cell_length_c 19.227483
_cell_angle_alpha 90.000000
_cell_angle_beta 17.720262
_cell_angle_gamma 90.000000
_cell_volume 3109.646057
_symmetry_space_group_name_H-M "C 2/M"
_symmetry_group_IT_number 12
_symmetry_cell_setting 'monoclinic'
loop_
_space_group_symop_operation_xyz
x,y,z
-x,y,-z
-x,-y,-z
x,-y,z
1/2+x,1/2+y,z
1/2-x,1/2+y,-z
1/2-x,1/2-y,-z
1/2+x,1/2-y,z
loop_
_atom_site_type_symbol
_atom_site_label
_atom_site_fract_x
_atom_site_fract_y
_atom_site_fract_z
Si Si1 0.669245 0.738033 0.239387
Si Si2 0.342797 0.239691 0.247493
Si Si3 0.986642 0.203995 0.705037
Si Si4 0.708288 0.373576 0.633611
Si Si5 0.866953 0.129906 0.979005
Si Si6 0.194335 0.000000 0.737227
Si Si7 0.513621 0.194823 0.795549
Si Si8 0.697463 0.000000 0.245048
O O1 0.500000 0.725254 0.500000
O O2 0.632550 0.728346 0.204567
O O3 0.744649 0.810029 0.158937
O O4 0.815831 0.684317 0.072602
O O5 0.303567 0.316710 0.292853
O O6 0.378282 0.228678 0.282919
O O7 0.181135 0.197023 0.428547
O O8 0.500000 0.217524 0.000000
O O9 0.995037 0.256618 0.755137
O O10 0.917045 0.138762 0.832713
O O11 0.747534 0.438174 0.624867
O O12 0.876577 0.367061 0.369172
O O13 0.535712 0.374793 0.809987
O O14 0.767056 0.062948 0.115721
O O15 0.272658 0.000000 0.711969
O O16 0.000000 0.000000 0.000000
O O17 0.500000 0.000000 0.500000
#
# Coordination Sequence:
#
# PCOD8092355 Si02
#       8
#     8   8   8   8   8   4   8   4
#     4  11  22  34  54  85 116 143 182 236 292 335
#     4  11  19  30  54  81 109 143 182 234 287 332
#     4  10  20  33  54  80 109 149 185 227 289 340
#     4  11  20  35  57  79 111 150 190 230 272 326
#     4  11  20  38  55  76 115 153 185 228 270 338
#     4  12  24  38  58  86 113 154 198 228 263 328
#     4  10  19  35  52  76 108 147 186 228 282 340
#     4  12  28  40  56  84 121 154 192 226 269 334
#
# _framework density 18.008479999999999
#
# number of rings (size 3 to 8) (size 9 to 14) (size 15 to 20)
#    0.000    1.143    5.714    4.286    0.000    4.571 
#    0.000    0.000    0.000    0.000    0.000    6.000 
#    0.000    0.000    0.000    0.000    0.000    0.000 
#
# Total GULP energy -346900.362900 kJ/mol
# GULP energy per Si atom -12389.298675 kJ/mol
# Density = 1.796749 g / cm^3
# Si number density = 18.008480 Si / 1000 Ang^3
#
#
#
# Elastic Constant Matrix: (Units=GPa)
#
#
# Indices 1 2 3 4 5 6 
#
# 1 88.9554 45.1312 18.6165 -0.0083 -9.5432 0.0043
# 2 45.1312 97.4744 60.7126 -0.0005 7.0887 -0.0044
# 3 18.6165 60.7126 152.4523 0.0109 -4.5273 -0.0189
# 4 -0.0083 -0.0005 0.0109 22.8936 0.0010 9.9103
# 5 -9.5432 7.0887 -4.5273 0.0010 33.3439 0.0022
# 6 0.0043 -0.0044 -0.0189 9.9103 0.0022 14.9416
#
#
#
# Elastic Compliance Matrix: (Units=1/GPa)
#
#
# Indices 1 2 3 4 5 6 
#
# 1 0.016248 -0.009193 0.001881 0.000010 0.006860 -0.000013
# 2 -0.009193 0.019303 -0.006792 0.000000 -0.007657 0.000001
# 3 0.001881 -0.006792 0.009130 -0.000011 0.003222 0.000016
# 4 0.000010 0.000000 -0.000011 0.061273 0.000002 -0.040640
# 5 0.006860 -0.007657 0.003222 0.000002 0.034019 -0.000007
# 6 -0.000013 0.000001 0.000016 -0.040640 -0.000007 0.093883
#
#
# Mechanical properties :
#
#
# Convention : Reuss Voigt Hill
#
# Bulk Modulus (GPa) = 60.70797 65.31139 63.00968
# Shear Modulus (GPa) = 18.68772 28.53063 23.60917
#
# Velocity S-wave (km/s) = 3.22486 3.98463 3.62471
# Velocity P-wave (km/s) = 6.90291 7.58389 7.25140
#
# Compressibility (1/GPa) = 0.01647230
#
# Stress axis : x y z
#
# Youngs Moduli (GPa) = 61.54554 51.80561 109.52569
#
# Poissons Ratio (x) = 0.47626 -0.20599
# Poissons Ratio (y) = 0.56581 0.74389
# Poissons Ratio (z) = -0.11575 0.35186
#
# Static dielectric constant tensor:
#      x y z
#    x 3.389880 -0.000050 -0.087060 
#    y -0.000050 3.182310 0.000020 
#    z -0.087060 0.000020 4.220430 
# 
# 
# High freq. dielectric constant tensor:
#      x y z
#    x 1.704150 0.000000 -0.010670 
#    y 0.000000 1.643040 0.000010 
#    z -0.010670 0.000010 1.725130 
# 
# From -- ./inp_files/290821.got.cif
#   From: 2010.06.25/outbox.cif.g09.slc.cpg/sg12_146_cif.got.tgz:290821.got - 2010.06.28 00:19:55.
