data_PCOD8092345
_publ_section_title
;
Structure prediction by ZEFSAII (Michael W. Deem and Ramdas Pophale) SiO2 
 PCOD8092345
Probable space group: C 2/M
;
_chemical_formula_sum "Si O2"
_cell_formula_units_Z 56
_cell_length_a 23.458578
_cell_length_b 8.938523
_cell_length_c 20.720286
_cell_angle_alpha 90.000000
_cell_angle_beta 54.512979
_cell_angle_gamma 90.000000
_cell_volume 3537.686790
_symmetry_space_group_name_H-M "C 2/M"
_symmetry_group_IT_number 12
_symmetry_cell_setting 'monoclinic'
loop_
_space_group_symop_operation_xyz
x,y,z
-x,y,-z
-x,-y,-z
x,-y,z
1/2+x,1/2+y,z
1/2-x,1/2+y,-z
1/2-x,1/2-y,-z
1/2+x,1/2-y,z
loop_
_atom_site_type_symbol
_atom_site_label
_atom_site_fract_x
_atom_site_fract_y
_atom_site_fract_z
Si Si1 0.183886 0.677848 0.860983
Si Si2 0.035066 0.675305 0.154298
Si Si3 0.545247 0.677321 0.908939
Si Si4 0.960400 0.676125 0.590125
Si Si5 0.664807 0.331234 0.280982
Si Si6 0.813014 0.325785 0.994995
Si Si7 0.962657 0.169287 0.714997
O O1 0.174359 0.500000 0.863770
O O2 0.123007 0.757162 0.861283
O O3 0.257324 0.730286 0.781550
O O4 0.181084 0.736003 0.936216
O O5 0.019353 0.500000 0.159189
O O6 0.015471 0.733258 0.238022
O O7 0.988224 0.761827 0.134058
O O8 0.115841 0.712888 0.088690
O O9 0.548638 0.500000 0.903987
O O10 0.500000 0.733089 0.000000
O O11 0.964816 0.500000 0.596813
O O12 0.878372 0.727621 0.639922
O O13 0.996985 0.756654 0.627919
O O14 0.000000 0.729247 0.500000
O O15 0.667458 0.500000 0.306668
O O16 0.621987 0.329506 0.240741
O O17 0.797255 0.500000 0.006939
O O18 0.750000 0.250000 0.000000
O O19 0.990339 0.000000 0.705633
#
# Coordination Sequence:
#
# PCOD8092345 Si02
#       7
#     8   8   8   8   8   8   8
#     4  10  19  35  51  68  95 130 171 211 251 293
#     4  11  21  34  51  70  94 131 171 211 252 294
#     4  11  23  36  50  69  92 129 176 220 257 291
#     4   9  17  30  50  77 107 134 161 195 239 297
#     4   8  17  30  49  74 102 132 161 200 246 293
#     4  10  21  32  47  69  95 128 166 204 250 296
#     4   9  18  32  50  73 104 132 160 201 243 294
#
# _framework density 15.829552
#
# number of rings (size 3 to 8) (size 9 to 14) (size 15 to 20)
#    0.857    1.429    1.429    2.143    0.000    5.143 
#    0.000    0.000    0.000    0.000    0.000    1.000 
#    0.000    0.000    0.000    0.000    0.000    0.000 
#
# Total GULP energy -347060.873364 kJ/mol
# GULP energy per Si atom -12395.031192 kJ/mol
# Density = 1.579352 g / cm^3
# Si number density = 15.829552 Si / 1000 Ang^3
#
#
#
# Elastic Constant Matrix: (Units=GPa)
#
#
# Indices 1 2 3 4 5 6 
#
# 1 76.4162 26.3629 29.6805 -0.0004 10.5302 -0.0009
# 2 26.3629 49.6303 35.1479 -0.0003 0.6597 -0.0009
# 3 29.6805 35.1479 101.6565 0.0001 12.0931 -0.0004
# 4 -0.0004 -0.0003 0.0001 22.7780 0.0001 2.1483
# 5 10.5302 0.6597 12.0931 0.0001 13.4174 -0.0001
# 6 -0.0009 -0.0009 -0.0004 2.1483 -0.0001 29.0863
#
#
#
# Elastic Compliance Matrix: (Units=1/GPa)
#
#
# Indices 1 2 3 4 5 6 
#
# 1 0.018311 -0.009124 -0.000600 0.000000 -0.013381 0.000000
# 2 -0.009124 0.031987 -0.010148 0.000000 0.014734 0.000001
# 3 -0.000600 -0.010148 0.015016 0.000000 -0.012564 0.000000
# 4 0.000000 0.000000 0.000000 0.044210 -0.000001 -0.003265
# 5 -0.013381 0.014734 -0.012564 -0.000001 0.095631 0.000000
# 6 0.000000 0.000001 0.000000 -0.003265 0.000000 0.034622
#
#
# Mechanical properties :
#
#
# Convention : Reuss Voigt Hill
#
# Bulk Modulus (GPa) = 39.10971 45.56505 42.33738
# Shear Modulus (GPa) = 17.35855 22.15713 19.75784
#
# Velocity S-wave (km/s) = 3.31507 3.74536 3.53677
# Velocity P-wave (km/s) = 6.27801 6.89572 6.59410
#
# Compressibility (1/GPa) = 0.02556909
#
# Stress axis : x y z
#
# Youngs Moduli (GPa) = 54.61267 31.26319 66.59767
#
# Poissons Ratio (x) = 0.28524 0.03994
# Poissons Ratio (y) = 0.49828 0.67585
# Poissons Ratio (z) = 0.03275 0.31727
#
# Static dielectric constant tensor:
#      x y z
#    x 2.809300 0.000000 -0.021320 
#    y 0.000000 2.991810 0.000000 
#    z -0.021320 0.000000 2.891230 
# 
# 
# High freq. dielectric constant tensor:
#      x y z
#    x 1.590020 0.000000 0.003290 
#    y 0.000000 1.616640 0.000000 
#    z 0.003290 0.000000 1.589360 
# 
# From -- ./inp_files/319038.got.cif
#   From: 2010.06.25/outbox.cif.g09.slc.cpg/sg12_160_cif.got.tgz:319038.got - 2010.06.28 00:19:55.
