data_PCOD8092889
_publ_section_title
;
Structure prediction by ZEFSAII (Michael W. Deem and Ramdas Pophale) SiO2 
 PCOD8092889
Probable space group: C 2/M
;
_chemical_formula_sum "Si O2"
_cell_formula_units_Z 56
_cell_length_a 27.593287
_cell_length_b 10.616438
_cell_length_c 11.458746
_cell_angle_alpha 90.000000
_cell_angle_beta 113.925806
_cell_angle_gamma 90.000000
_cell_volume 3068.311679
_symmetry_space_group_name_H-M "C 2/M"
_symmetry_group_IT_number 12
_symmetry_cell_setting 'monoclinic'
loop_
_space_group_symop_operation_xyz
x,y,z
-x,y,-z
-x,-y,-z
x,-y,z
1/2+x,1/2+y,z
1/2-x,1/2+y,-z
1/2-x,1/2-y,-z
1/2+x,1/2-y,z
loop_
_atom_site_type_symbol
_atom_site_label
_atom_site_fract_x
_atom_site_fract_y
_atom_site_fract_z
Si Si1 0.243951 0.754450 0.697016
Si Si2 0.942977 0.356938 0.924774
Si Si3 0.612697 0.144447 0.365541
Si Si4 0.694856 0.363909 0.433688
Si Si5 0.839333 0.649865 0.947802
Si Si6 0.842862 0.647779 0.215171
Si Si7 0.441745 0.147778 0.454894
O O1 0.262962 0.640089 0.631947
O O2 0.223459 0.861894 0.587895
O O3 0.290770 0.801947 0.824791
O O4 0.195788 0.714273 0.732096
O O5 0.948033 0.500000 0.974792
O O6 0.931629 0.351320 0.776725
O O7 0.894589 0.294095 0.950208
O O8 0.000000 0.288404 0.000000
O O9 0.659047 0.240814 0.378667
O O10 0.586368 0.198635 0.456542
O O11 0.634495 0.000000 0.399995
O O12 0.665349 0.500000 0.396542
O O13 0.840466 0.500000 0.941300
O O14 0.832830 0.697476 0.074406
O O15 0.832137 0.500000 0.212732
O O16 0.904016 0.679479 0.308127
O O17 0.500000 0.211264 0.500000
O O18 0.449380 0.000000 0.477899
#
# Coordination Sequence:
#
# PCOD8092889 Si02
#       7
#     8   8   8   8   8   8   8
#     4  11  21  36  52  74 107 145 186 228 272 325
#     4   9  18  31  51  80 109 137 173 221 274 324
#     4  10  19  35  58  83 112 143 179 228 278 328
#     4  11  23  35  56  82 110 146 185 228 274 330
#     4  10  20  33  51  77 108 140 177 224 274 326
#     4  10  20  33  51  77 108 140 177 224 274 326
#     4   9  18  31  51  80 109 137 173 221 274 324
#
# _framework density 18.251080000000002
#
# number of rings (size 3 to 8) (size 9 to 14) (size 15 to 20)
#    0.000    2.000    2.857    1.286    2.000    2.286 
#    0.000    0.000    0.000    0.857    0.000    0.000 
#    0.000    0.000    0.000    0.000    0.000    0.000 
#
# Total GULP energy -346977.512042 kJ/mol
# GULP energy per Si atom -12392.054002 kJ/mol
# Density = 1.820954 g / cm^3
# Si number density = 18.251080 Si / 1000 Ang^3
#
#
#
# Elastic Constant Matrix: (Units=GPa)
#
#
# Indices 1 2 3 4 5 6 
#
# 1 87.8117 20.6379 43.4555 0.0000 5.8646 0.0000
# 2 20.6379 59.2066 18.5648 0.0000 4.1947 0.0000
# 3 43.4555 18.5648 120.7217 0.0000 -4.5830 0.0000
# 4 0.0000 0.0000 0.0000 9.8166 0.0000 5.4720
# 5 5.8646 4.1947 -4.5830 0.0000 35.7081 0.0000
# 6 0.0000 0.0000 0.0000 5.4720 0.0000 13.0304
#
#
#
# Elastic Compliance Matrix: (Units=1/GPa)
#
#
# Indices 1 2 3 4 5 6 
#
# 1 0.014797 -0.003433 -0.004899 0.000000 -0.002656 0.000000
# 2 -0.003433 0.018758 -0.001719 0.000000 -0.001860 0.000000
# 3 -0.004899 -0.001719 0.010400 0.000000 0.002341 0.000000
# 4 0.000000 0.000000 0.000000 0.133001 0.000000 -0.055852
# 5 -0.002656 -0.001860 0.002341 0.000000 0.028960 0.000000
# 6 0.000000 0.000000 0.000000 -0.055852 0.000000 0.100198
#
#
# Mechanical properties :
#
#
# Convention : Reuss Voigt Hill
#
# Bulk Modulus (GPa) = 41.92688 48.11738 45.02213
# Shear Modulus (GPa) = 14.96253 24.04979 19.50616
#
# Velocity S-wave (km/s) = 2.86635 3.63398 3.27275
# Velocity P-wave (km/s) = 5.82896 6.63544 6.24523
#
# Compressibility (1/GPa) = 0.02385105
#
# Stress axis : x y z
#
# Youngs Moduli (GPa) = 67.58240 53.31133 96.15094
#
# Poissons Ratio (x) = 0.18304 0.47106
# Poissons Ratio (y) = 0.23204 0.16531
# Poissons Ratio (z) = 0.33109 0.09166
#
# Static dielectric constant tensor:
#      x y z
#    x 3.675810 0.000000 -0.025740 
#    y 0.000000 2.899990 0.000000 
#    z -0.025740 0.000000 3.595830 
# 
# 
# High freq. dielectric constant tensor:
#      x y z
#    x 1.716230 0.000000 -0.004080 
#    y 0.000000 1.646280 0.000000 
#    z -0.004080 0.000000 1.725690 
# 
# From -- ./inp_files/182191.got.cif
#   From: 2010.06.25/outbox.cif.g09.slc.cpg/sg12_92_cif.got.tgz:182191.got - 2010.06.28 00:19:55.
