data_PCOD8092104
_publ_section_title
;
Structure prediction by ZEFSAII (Michael W. Deem and Ramdas Pophale) SiO2 
 PCOD8092104
Probable space group: C 2/M
;
_chemical_formula_sum "Si O2"
_cell_formula_units_Z 64
_cell_length_a 20.541948
_cell_length_b 9.065894
_cell_length_c 22.242683
_cell_angle_alpha 90.000000
_cell_angle_beta 55.888355
_cell_angle_gamma 90.000000
_cell_volume 3429.585559
_symmetry_space_group_name_H-M "C 2/M"
_symmetry_group_IT_number 12
_symmetry_cell_setting 'monoclinic'
loop_
_space_group_symop_operation_xyz
x,y,z
-x,y,-z
-x,-y,-z
x,-y,z
1/2+x,1/2+y,z
1/2-x,1/2+y,-z
1/2-x,1/2-y,-z
1/2+x,1/2-y,z
loop_
_atom_site_type_symbol
_atom_site_label
_atom_site_fract_x
_atom_site_fract_y
_atom_site_fract_z
Si Si1 0.384636 0.170955 0.202369
Si Si2 0.615888 0.174499 0.332254
Si Si3 0.204394 0.674344 0.970305
Si Si4 0.672257 0.174606 0.431498
Si Si5 0.436821 0.174728 0.404923
Si Si6 0.850294 0.825845 0.342384
Si Si7 0.258539 0.328785 0.810737
Si Si8 0.970159 0.673499 0.953033
O O1 0.373784 0.277484 0.263888
O O2 0.319151 0.208543 0.186901
O O3 0.469617 0.209962 0.131390
O O4 0.379721 0.000000 0.224742
O O5 0.646280 0.239304 0.380281
O O6 0.526065 0.223206 0.370069
O O7 0.666981 0.239388 0.251828
O O8 0.624588 0.000000 0.326157
O O9 0.206610 0.500000 0.978218
O O10 0.243680 0.719596 0.886830
O O11 0.250000 0.750000 0.000000
O O12 0.115440 0.736592 0.018830
O O13 0.614895 0.236195 0.512821
O O14 0.760662 0.224566 0.401283
O O15 0.665071 0.000000 0.432152
O O16 0.407788 0.247924 0.358990
O O17 0.428329 0.000000 0.402981
O O18 0.859728 0.000000 0.343299
O O19 0.279142 0.500000 0.795444
O O20 0.962262 0.500000 0.967440
O O21 0.000000 0.745435 0.000000
#
# Coordination Sequence:
#
# PCOD8092104 Si02
#       8
#     8   8   8   8   8   8   8   8
#     4  10  19  34  59  85 107 139 187 230 268 321
#     4  10  20  36  59  83 109 144 186 227 270 324
#     4  10  21  37  57  83 113 144 179 221 271 321
#     4   9  18  35  58  82 106 141 186 229 273 320
#     4  10  21  37  57  80 109 145 187 229 268 321
#     4  11  22  36  55  81 115 146 176 225 282 328
#     4  10  20  35  57  83 112 144 178 225 276 324
#     4   9  16  32  59  83 102 134 184 229 259 303
#
# _framework density 18.661147
#
# number of rings (size 3 to 8) (size 9 to 14) (size 15 to 20)
#    0.000    2.125    2.500    1.125    0.000    3.500 
#    0.000    5.625    0.000    2.250    0.000    0.000 
#    0.000    0.000    0.000    0.000    0.000    0.000 
#
# Total GULP energy -396861.118402 kJ/mol
# GULP energy per Si atom -12401.909950 kJ/mol
# Density = 1.861867 g / cm^3
# Si number density = 18.661147 Si / 1000 Ang^3
#
#
#
# Elastic Constant Matrix: (Units=GPa)
#
#
# Indices 1 2 3 4 5 6 
#
# 1 120.3069 32.2733 53.2749 0.0005 1.0082 0.0011
# 2 32.2733 23.5035 24.8944 0.0009 -1.6519 0.0026
# 3 53.2749 24.8944 107.1435 -0.0001 -2.0548 0.0001
# 4 0.0005 0.0009 -0.0001 28.7537 -0.0001 -0.6977
# 5 1.0082 -1.6519 -2.0548 -0.0001 36.1025 0.0001
# 6 0.0011 0.0026 0.0001 -0.6977 0.0001 23.1971
#
#
#
# Elastic Compliance Matrix: (Units=1/GPa)
#
#
# Indices 1 2 3 4 5 6 
#
# 1 0.014051 -0.015863 -0.003326 0.000000 -0.001308 0.000001
# 2 -0.015863 0.074467 -0.009351 -0.000002 0.003318 -0.000008
# 3 -0.003326 -0.009351 0.013168 0.000000 0.000414 0.000001
# 4 0.000000 -0.000002 0.000000 0.034804 0.000000 0.001047
# 5 -0.001308 0.003318 0.000414 0.000000 0.027911 0.000000
# 6 0.000001 -0.000008 0.000001 0.001047 0.000000 0.043140
#
#
# Mechanical properties :
#
#
# Convention : Reuss Voigt Hill
#
# Bulk Modulus (GPa) = 22.41882 52.42657 37.42270
# Shear Modulus (GPa) = 17.88981 26.97808 22.43394
#
# Velocity S-wave (km/s) = 3.09959 3.80634 3.47100
# Velocity P-wave (km/s) = 4.98495 6.89003 6.01341
#
# Compressibility (1/GPa) = 0.04460538
#
# Stress axis : x y z
#
# Youngs Moduli (GPa) = 71.16749 13.42886 75.94388
#
# Poissons Ratio (x) = 0.21303 0.25259
# Poissons Ratio (y) = 1.12896 0.71013
# Poissons Ratio (z) = 0.23671 0.12557
#
# Static dielectric constant tensor:
#      x y z
#    x 3.590460 0.000000 -0.078120 
#    y 0.000000 3.088620 0.000000 
#    z -0.078120 0.000000 3.590930 
# 
# 
# High freq. dielectric constant tensor:
#      x y z
#    x 1.734460 0.000000 -0.003580 
#    y 0.000000 1.690060 0.000000 
#    z -0.003580 0.000000 1.738570 
# 
# From -- ./inp_files/319974.got.cif
#   From: 2010.06.25/outbox.cif.g09.slc.cpg/sg12_160_cif.got.tgz:319974.got - 2010.06.28 00:19:55.
