data_PCOD8092145
_publ_section_title
;
Structure prediction by ZEFSAII (Michael W. Deem and Ramdas Pophale) SiO2 
 PCOD8092145
Probable space group: C 2/M
;
_chemical_formula_sum "Si O2"
_cell_formula_units_Z 56
_cell_length_a 32.744206
_cell_length_b 8.706812
_cell_length_c 22.653915
_cell_angle_alpha 90.000000
_cell_angle_beta 154.216066
_cell_angle_gamma 90.000000
_cell_volume 2809.343329
_symmetry_space_group_name_H-M "C 2/M"
_symmetry_group_IT_number 12
_symmetry_cell_setting 'monoclinic'
loop_
_space_group_symop_operation_xyz
x,y,z
-x,y,-z
-x,-y,-z
x,-y,z
1/2+x,1/2+y,z
1/2-x,1/2+y,-z
1/2-x,1/2-y,-z
1/2+x,1/2-y,z
loop_
_atom_site_type_symbol
_atom_site_label
_atom_site_fract_x
_atom_site_fract_y
_atom_site_fract_z
Si Si1 0.862243 0.681988 0.843307
Si Si2 0.902252 0.320389 0.345181
Si Si3 0.166746 0.179346 0.633630
Si Si4 0.535435 0.817781 0.137033
Si Si5 0.652282 0.681102 0.850116
Si Si6 0.847735 0.681684 0.603640
Si Si7 0.953149 0.178660 0.632178
O O1 0.867741 0.500000 0.847261
O O2 0.757407 0.738083 0.716367
O O3 0.896971 0.749791 0.826190
O O4 0.929540 0.737856 0.984857
O O5 0.905725 0.500000 0.335784
O O6 0.829778 0.279842 0.302613
O O7 0.870362 0.234320 0.245207
O O8 0.000000 0.258688 0.500000
O O9 0.078542 0.214575 0.476382
O O10 0.171952 0.000000 0.657254
O O11 0.570849 0.757570 0.246169
O O12 0.541603 0.000000 0.144845
O O13 0.663720 0.500000 0.864370
O O14 0.563845 0.727161 0.777838
O O15 0.750000 0.750000 0.000000
O O16 0.836157 0.500000 0.588616
O O17 0.750000 0.750000 0.500000
O O18 0.884239 0.732702 0.586968
O O19 0.940022 0.000000 0.629312
#
# Coordination Sequence:
#
# PCOD8092145 Si02
#       7
#     8   8   8   8   8   8   8
#     4   8  14  27  51  79 105 137 180 233 286 343
#     4  11  23  39  61  88 120 155 198 250 303 364
#     4  10  19  34  59  87 114 147 195 245 299 362
#     4   8  15  29  48  74 108 141 179 230 284 337
#     4  11  24  43  66  91 125 165 207 256 314 377
#     4  11  22  35  55  82 116 154 196 242 295 361
#     4  10  22  39  59  85 118 155 197 248 305 366
#
# _framework density 19.933485000000001
#
# number of rings (size 3 to 8) (size 9 to 14) (size 15 to 20)
#    0.000    2.143    1.429    3.000    0.000    5.714 
#    0.000    1.429    0.000    0.857    0.000    6.000 
#    0.000    0.000    0.000    0.000    0.000    0.000 
#
# Total GULP energy -346978.708235 kJ/mol
# GULP energy per Si atom -12392.096723 kJ/mol
# Density = 1.988812 g / cm^3
# Si number density = 19.933485 Si / 1000 Ang^3
#
#
#
# Elastic Constant Matrix: (Units=GPa)
#
#
# Indices 1 2 3 4 5 6 
#
# 1 104.4040 32.9356 49.5391 0.0000 0.8367 0.0000
# 2 32.9356 54.1275 35.6663 0.0000 2.7770 0.0000
# 3 49.5391 35.6663 122.6868 0.0000 6.0269 0.0000
# 4 0.0000 0.0000 0.0000 26.2146 0.0000 -0.3213
# 5 0.8367 2.7770 6.0269 0.0000 35.4087 0.0000
# 6 0.0000 0.0000 0.0000 -0.3213 0.0000 30.6706
#
#
#
# Elastic Compliance Matrix: (Units=1/GPa)
#
#
# Indices 1 2 3 4 5 6 
#
# 1 0.013083 -0.005559 -0.003704 0.000000 0.000757 0.000000
# 2 -0.005559 0.025230 -0.005041 0.000000 -0.000989 0.000000
# 3 -0.003704 -0.005041 0.011182 0.000000 -0.001420 0.000000
# 4 0.000000 0.000000 0.000000 0.038152 0.000000 0.000400
# 5 0.000757 -0.000989 -0.001420 0.000000 0.028543 0.000000
# 6 0.000000 0.000000 0.000000 0.000400 0.000000 0.032609
#
#
# Mechanical properties :
#
#
# Convention : Reuss Voigt Hill
#
# Bulk Modulus (GPa) = 47.87815 57.50004 52.68909
# Shear Modulus (GPa) = 27.11940 29.33059 28.22500
#
# Velocity S-wave (km/s) = 3.69249 3.84007 3.76701
# Velocity P-wave (km/s) = 6.50003 6.96923 6.73871
#
# Compressibility (1/GPa) = 0.02088635
#
# Stress axis : x y z
#
# Youngs Moduli (GPa) = 76.43313 39.63499 89.43111
#
# Poissons Ratio (x) = 0.22034 0.33125
# Poissons Ratio (y) = 0.42491 0.45086
# Poissons Ratio (z) = 0.28310 0.19981
#
# Static dielectric constant tensor:
#      x y z
#    x 3.753060 0.000000 0.052360 
#    y 0.000000 3.268360 0.000000 
#    z 0.052360 0.000000 3.978910 
# 
# 
# High freq. dielectric constant tensor:
#      x y z
#    x 1.781920 0.000000 0.002850 
#    y 0.000000 1.745140 0.000000 
#    z 0.002850 0.000000 1.788120 
# 
# From -- ./inp_files/329716.got.cif
#   From: 2010.06.25/outbox.cif.g09.slc.cpg/sg12_165_cif.got.tgz:329716.got - 2010.06.28 00:19:55.
