data_PCOD8092309
_publ_section_title
;
Structure prediction by ZEFSAII (Michael W. Deem and Ramdas Pophale) SiO2 
 PCOD8092309
Probable space group: C 2/M
;
_chemical_formula_sum "Si O2"
_cell_formula_units_Z 56
_cell_length_a 17.985239
_cell_length_b 22.875644
_cell_length_c 9.564032
_cell_angle_alpha 90.000000
_cell_angle_beta 137.335922
_cell_angle_gamma 90.000000
_cell_volume 2666.657656
_symmetry_space_group_name_H-M "C 2/M"
_symmetry_group_IT_number 12
_symmetry_cell_setting 'monoclinic'
loop_
_space_group_symop_operation_xyz
x,y,z
-x,y,-z
-x,-y,-z
x,-y,z
1/2+x,1/2+y,z
1/2-x,1/2+y,-z
1/2-x,1/2-y,-z
1/2+x,1/2-y,z
loop_
_atom_site_type_symbol
_atom_site_label
_atom_site_fract_x
_atom_site_fract_y
_atom_site_fract_z
Si Si1 0.683852 0.868739 0.072521
Si Si2 0.626745 0.566980 0.144990
Si Si3 0.770798 0.566259 0.601124
Si Si4 0.089657 0.317699 0.514298
Si Si5 0.465807 0.759995 0.106239
Si Si6 0.305630 0.336650 0.964153
Si Si7 0.526387 0.065973 0.299938
O O1 0.753476 0.893842 0.297947
O O2 0.617026 0.813000 0.031407
O O3 0.767088 0.849666 0.067210
O O4 0.599750 0.918966 0.906305
O O5 0.658272 0.500000 0.159706
O O6 0.696035 0.591133 0.372221
O O7 0.658766 0.602048 0.051643
O O8 0.500000 0.575502 0.000000
O O9 0.735722 0.500000 0.587394
O O10 0.899417 0.569810 0.737762
O O11 0.209902 0.305354 0.741091
O O12 0.075027 0.387918 0.478321
O O13 0.000000 0.294528 0.500000
O O14 0.069824 0.283082 0.341143
O O15 0.500000 0.737321 0.000000
O O16 0.408210 0.707164 0.109156
O O17 0.533191 0.000000 0.370968
#
# Coordination Sequence:
#
# PCOD8092309 Si02
#       7
#     8   8   8   8   8   8   8
#     4  11  22  38  61  94 131 162 199 259 313 373
#     4  10  23  44  66  89 126 169 213 258 298 361
#     4  10  20  37  63  94 128 167 206 248 308 371
#     4  11  22  41  62  92 130 162 201 263 314 370
#     4  11  25  43  63  88 123 165 211 259 310 371
#     4  12  24  43  64  93 124 165 211 257 314 370
#     4  10  19  34  61  96 131 163 198 245 308 378
#
# _framework density 21.000070000000001
#
# number of rings (size 3 to 8) (size 9 to 14) (size 15 to 20)
#    0.000    1.286    4.286    3.429    0.000    3.143 
#    2.571    0.714    0.000    2.571    0.000    0.000 
#    0.000    0.000    0.000    0.000    0.000    0.000 
#
# Total GULP energy -347272.261191 kJ/mol
# GULP energy per Si atom -12402.580757 kJ/mol
# Density = 2.095227 g / cm^3
# Si number density = 21.000070 Si / 1000 Ang^3
#
#
#
# Elastic Constant Matrix: (Units=GPa)
#
#
# Indices 1 2 3 4 5 6 
#
# 1 95.0251 32.9185 24.5166 0.0000 -8.1798 0.0000
# 2 32.9185 72.1028 32.6521 0.0000 -0.5414 0.0000
# 3 24.5166 32.6521 49.2633 0.0000 -9.0802 0.0000
# 4 0.0000 0.0000 0.0000 17.9137 0.0000 -1.6750
# 5 -8.1798 -0.5414 -9.0802 0.0000 27.4988 0.0000
# 6 0.0000 0.0000 0.0000 -1.6750 0.0000 29.0123
#
#
#
# Elastic Compliance Matrix: (Units=1/GPa)
#
#
# Indices 1 2 3 4 5 6 
#
# 1 0.013135 -0.004648 -0.002931 0.000000 0.002848 0.000000
# 2 -0.004648 0.021929 -0.013200 0.000000 -0.005310 0.000000
# 3 -0.002931 -0.013200 0.032262 0.000000 0.009521 0.000000
# 4 0.000000 0.000000 0.000000 0.056126 0.000000 0.003240
# 5 0.002848 -0.005310 0.009521 0.000000 0.040252 0.000000
# 6 0.000000 0.000000 0.000000 0.003240 0.000000 0.034655
#
#
# Mechanical properties :
#
#
# Convention : Reuss Voigt Hill
#
# Bulk Modulus (GPa) = 38.80908 44.06284 41.43596
# Shear Modulus (GPa) = 20.12016 23.30525 21.71270
#
# Velocity S-wave (km/s) = 3.09868 3.33494 3.21897
# Velocity P-wave (km/s) = 5.59669 5.98806 5.79568
#
# Compressibility (1/GPa) = 0.02576717
#
# Stress axis : x y z
#
# Youngs Moduli (GPa) = 76.13194 45.60164 30.99625
#
# Poissons Ratio (x) = 0.21196 0.09086
# Poissons Ratio (y) = 0.35386 0.40916
# Poissons Ratio (z) = 0.22316 0.60195
#
# Static dielectric constant tensor:
#      x y z
#    x 3.714670 0.000000 0.045900 
#    y 0.000000 3.799480 0.000000 
#    z 0.045900 0.000000 3.775290 
# 
# 
# High freq. dielectric constant tensor:
#      x y z
#    x 1.814290 0.000000 -0.004350 
#    y 0.000000 1.822820 0.000000 
#    z -0.004350 0.000000 1.810760 
# 
# From -- ./inp_files/79148.got.cif
#   From: 2010.06.25/outbox.cif.g09.slc.cpg/sg12_40_cif.got.tgz:79148.got - 2010.06.28 00:19:55.
