data_PCOD8092143
_publ_section_title
;
Structure prediction by ZEFSAII (Michael W. Deem and Ramdas Pophale) SiO2 
 PCOD8092143
Probable space group: C 2/M
;
_chemical_formula_sum "Si O2"
_cell_formula_units_Z 64
_cell_length_a 29.998734
_cell_length_b 8.934624
_cell_length_c 16.251236
_cell_angle_alpha 90.000000
_cell_angle_beta 132.850318
_cell_angle_gamma 90.000000
_cell_volume 3193.363125
_symmetry_space_group_name_H-M "C 2/M"
_symmetry_group_IT_number 12
_symmetry_cell_setting 'monoclinic'
loop_
_space_group_symop_operation_xyz
x,y,z
-x,y,-z
-x,-y,-z
x,-y,z
1/2+x,1/2+y,z
1/2-x,1/2+y,-z
1/2-x,1/2-y,-z
1/2+x,1/2-y,z
loop_
_atom_site_type_symbol
_atom_site_label
_atom_site_fract_x
_atom_site_fract_y
_atom_site_fract_z
Si Si1 0.593691 0.322841 0.774226
Si Si2 0.140122 0.825864 0.005417
Si Si3 0.375901 0.824275 0.353414
Si Si4 0.916662 0.673792 0.697686
Si Si5 0.209326 0.324543 0.380054
Si Si6 0.256173 0.676515 0.747418
Si Si7 0.015160 0.827210 0.926463
Si Si8 0.952677 0.824387 0.583513
O O1 0.601885 0.500000 0.774818
O O2 0.625215 0.257640 0.896818
O O3 0.626987 0.240478 0.741711
O O4 0.522505 0.281402 0.687576
O O5 0.085743 0.792960 0.000708
O O6 0.147744 0.000000 0.999907
O O7 0.201604 0.762807 0.124349
O O8 0.313000 0.783697 0.319221
O O9 0.431577 0.749147 0.471725
O O10 0.386878 0.000000 0.363201
O O11 0.919097 0.500000 0.678438
O O12 0.860394 0.712290 0.685965
O O13 0.977713 0.721681 0.819642
O O14 0.910790 0.762107 0.604538
O O15 0.222333 0.500000 0.395661
O O16 0.250000 0.250000 0.500000
O O17 0.224496 0.258243 0.310875
O O18 0.266049 0.500000 0.747106
O O19 0.999198 0.000000 0.886249
O O20 0.000000 0.784298 0.000000
O O21 0.942926 0.000000 0.564099
#
# Coordination Sequence:
#
# PCOD8092143 Si02
#       8
#     8   8   8   8   8   8   8   8
#     4  10  21  39  62  87 116 153 201 249 294 349
#     4   9  18  37  61  86 117 154 199 247 286 340
#     4  11  24  39  58  89 122 153 195 246 307 361
#     4  11  23  37  56  86 123 154 185 238 304 353
#     4  11  24  40  59  86 120 158 201 244 290 351
#     4  10  22  41  63  86 118 159 200 246 296 348
#     4  10  19  34  59  87 113 151 201 240 279 342
#     4  11  22  39  63  89 117 154 203 247 291 354
#
# _framework density 20.041567000000001
#
# number of rings (size 3 to 8) (size 9 to 14) (size 15 to 20)
#    0.000    1.625    1.250    3.375    0.000   10.250 
#    0.000    1.250    0.000    0.000    0.000    0.000 
#    0.000    0.000    0.000    0.000    0.000    0.000 
#
# Total GULP energy -396912.392626 kJ/mol
# GULP energy per Si atom -12403.512270 kJ/mol
# Density = 1.999595 g / cm^3
# Si number density = 20.041567 Si / 1000 Ang^3
#
#
#
# Elastic Constant Matrix: (Units=GPa)
#
#
# Indices 1 2 3 4 5 6 
#
# 1 87.2954 41.8844 36.9441 0.0000 -19.6912 0.0000
# 2 41.8844 55.5724 40.0105 0.0000 -2.7278 0.0000
# 3 36.9441 40.0105 138.4226 0.0000 -10.5755 0.0000
# 4 0.0000 0.0000 0.0000 26.7607 0.0000 -7.5537
# 5 -19.6912 -2.7278 -10.5755 0.0000 37.3782 0.0000
# 6 0.0000 0.0000 0.0000 -7.5537 0.0000 31.2563
#
#
#
# Elastic Compliance Matrix: (Units=1/GPa)
#
#
# Indices 1 2 3 4 5 6 
#
# 1 0.021138 -0.015063 -0.000532 0.000000 0.009886 0.000000
# 2 -0.015063 0.033459 -0.006205 0.000000 -0.007249 0.000000
# 3 -0.000532 -0.006205 0.009305 0.000000 0.001899 0.000000
# 4 0.000000 0.000000 0.000000 0.040104 0.000000 0.009692
# 5 0.009886 -0.007249 0.001899 0.000000 0.031970 0.000000
# 6 0.000000 0.000000 0.000000 0.009692 0.000000 0.034336
#
#
# Mechanical properties :
#
#
# Convention : Reuss Voigt Hill
#
# Bulk Modulus (GPa) = 49.25763 57.66315 53.46039
# Shear Modulus (GPa) = 22.65750 29.90913 26.28331
#
# Velocity S-wave (km/s) = 3.36598 3.86729 3.62531
# Velocity P-wave (km/s) = 6.30377 6.98395 6.65256
#
# Compressibility (1/GPa) = 0.02030142
#
# Stress axis : x y z
#
# Youngs Moduli (GPa) = 47.30889 29.88773 107.46992
#
# Poissons Ratio (x) = 0.45019 0.05722
# Poissons Ratio (y) = 0.71260 0.66682
# Poissons Ratio (z) = 0.02519 0.18545
#
# Static dielectric constant tensor:
#      x y z
#    x 3.717410 0.000000 0.054120 
#    y 0.000000 3.490890 0.000000 
#    z 0.054120 0.000000 3.772960 
# 
# 
# High freq. dielectric constant tensor:
#      x y z
#    x 1.790030 0.000000 -0.005900 
#    y 0.000000 1.767530 0.000000 
#    z -0.005900 0.000000 1.795460 
# 
# From -- ./inp_files/250020.got.cif
#   From: 2010.06.25/outbox.cif.g09.slc.cpg/sg12_126_cif.got.tgz:250020.got - 2010.06.28 00:19:55.
