data_PCOD8092130
_publ_section_title
;
Structure prediction by ZEFSAII (Michael W. Deem and Ramdas Pophale) SiO2 
 PCOD8092130
Probable space group: C 2/M
;
_chemical_formula_sum "Si O2"
_cell_formula_units_Z 64
_cell_length_a 32.406992
_cell_length_b 9.124160
_cell_length_c 20.504895
_cell_angle_alpha 90.000000
_cell_angle_beta 144.208380
_cell_angle_gamma 90.000000
_cell_volume 3545.892151
_symmetry_space_group_name_H-M "C 2/M"
_symmetry_group_IT_number 12
_symmetry_cell_setting 'monoclinic'
loop_
_space_group_symop_operation_xyz
x,y,z
-x,y,-z
-x,-y,-z
x,-y,z
1/2+x,1/2+y,z
1/2-x,1/2+y,-z
1/2-x,1/2-y,-z
1/2+x,1/2-y,z
loop_
_atom_site_type_symbol
_atom_site_label
_atom_site_fract_x
_atom_site_fract_y
_atom_site_fract_z
Si Si1 0.163028 0.667698 0.565928
Si Si2 0.679366 0.169002 0.098525
Si Si3 0.471970 0.830984 0.149728
Si Si4 0.469138 0.328127 0.650220
Si Si5 0.679804 0.667233 0.230430
Si Si6 0.038846 0.167882 0.116264
Si Si7 0.180929 0.671243 0.739796
Si Si8 0.050222 0.828528 0.622997
O O1 0.141332 0.500000 0.525635
O O2 0.110515 0.770450 0.458718
O O3 0.242196 0.700989 0.641643
O O4 0.159559 0.705388 0.638051
O O5 0.660349 0.228522 0.145601
O O6 0.743460 0.257114 0.147801
O O7 0.701139 0.000000 0.132879
O O8 0.611431 0.190271 0.966117
O O9 0.492800 0.743475 0.240229
O O10 0.514975 0.772508 0.143164
O O11 0.492132 0.000000 0.184391
O O12 0.465357 0.500000 0.656634
O O13 0.513052 0.285852 0.642552
O O14 0.678196 0.500000 0.201592
O O15 0.622973 0.689295 0.214821
O O16 0.020288 0.000000 0.110301
O O17 0.000000 0.213888 0.000000
O O18 0.186314 0.500000 0.760948
O O19 0.123358 0.741174 0.713771
O O20 0.000000 0.776521 0.500000
O O21 0.066762 0.000000 0.638830
#
# Coordination Sequence:
#
# PCOD8092130 Si02
#       8
#     8   8   8   8   8   8   8   8
#     4   9  18  33  53  80 114 145 179 224 274 326
#     4  10  20  34  54  80 112 148 183 227 279 328
#     4  11  24  39  56  81 115 151 188 231 279 333
#     4  11  23  38  58  81 110 150 188 226 279 338
#     4   9  18  33  55  85 114 144 182 228 278 327
#     4  10  19  34  59  86 114 146 186 233 276 329
#     4  10  20  33  56  86 113 144 183 230 277 328
#     4  10  20  36  57  84 115 143 183 235 281 330
#
# _framework density 18.049054999999999
#
# number of rings (size 3 to 8) (size 9 to 14) (size 15 to 20)
#    0.000    2.000    2.500    2.250    0.000    5.500 
#    0.000    1.250    0.000    0.000    0.000    0.000 
#    0.000    0.000    0.000    0.000    0.000    0.000 
#
# Total GULP energy -396905.487222 kJ/mol
# GULP energy per Si atom -12403.296476 kJ/mol
# Density = 1.800797 g / cm^3
# Si number density = 18.049055 Si / 1000 Ang^3
#
#
#
# Elastic Constant Matrix: (Units=GPa)
#
#
# Indices 1 2 3 4 5 6 
#
# 1 101.9684 54.1792 58.8035 0.0000 11.5227 0.0000
# 2 54.1792 94.4143 62.9617 0.0000 4.3844 0.0000
# 3 58.8035 62.9617 105.6975 0.0000 5.0713 0.0000
# 4 0.0000 0.0000 0.0000 31.0887 0.0000 2.9771
# 5 11.5227 4.3844 5.0713 0.0000 29.9390 0.0000
# 6 0.0000 0.0000 0.0000 2.9771 0.0000 29.4973
#
#
#
# Elastic Compliance Matrix: (Units=1/GPa)
#
#
# Indices 1 2 3 4 5 6 
#
# 1 0.016524 -0.005451 -0.005726 0.000000 -0.004591 0.000000
# 2 -0.005451 0.019389 -0.008551 0.000000 0.000707 0.000000
# 3 -0.005726 -0.008551 0.017718 0.000000 0.000455 0.000000
# 4 0.000000 0.000000 0.000000 0.032480 0.000000 -0.003278
# 5 -0.004591 0.000707 0.000455 0.000000 0.034988 0.000000
# 6 0.000000 0.000000 0.000000 -0.003278 0.000000 0.034232
#
#
# Mechanical properties :
#
#
# Convention : Reuss Voigt Hill
#
# Bulk Modulus (GPa) = 70.54069 72.66321 71.60195
# Shear Modulus (GPa) = 25.06119 26.51406 25.78763
#
# Velocity S-wave (km/s) = 3.73031 3.83691 3.78398
# Velocity P-wave (km/s) = 7.59745 7.74437 7.67126
#
# Compressibility (1/GPa) = 0.01417622
#
# Stress axis : x y z
#
# Youngs Moduli (GPa) = 60.51863 51.57540 56.43879
#
# Poissons Ratio (x) = 0.28112 0.32315
# Poissons Ratio (y) = 0.32986 0.48262
# Poissons Ratio (z) = 0.34651 0.44103
#
# Static dielectric constant tensor:
#      x y z
#    x 3.353550 0.000000 0.223240 
#    y 0.000000 3.378210 0.000000 
#    z 0.223240 0.000000 3.257990 
# 
# 
# High freq. dielectric constant tensor:
#      x y z
#    x 1.693660 0.000000 0.023750 
#    y 0.000000 1.706680 0.000000 
#    z 0.023750 0.000000 1.688210 
# 
# From -- ./inp_files/295746.got.cif
#   From: 2010.06.25/outbox.cif.g09.slc.cpg/sg12_148_cif.got.tgz:295746.got - 2010.06.28 00:19:55.
