data_PCOD8092501
_publ_section_title
;
Structure prediction by ZEFSAII (Michael W. Deem and Ramdas Pophale) SiO2 
 PCOD8092501
Probable space group: C 2/M
;
_chemical_formula_sum "Si O2"
_cell_formula_units_Z 48
_cell_length_a 21.381689
_cell_length_b 13.599535
_cell_length_c 19.279319
_cell_angle_alpha 90.000000
_cell_angle_beta 26.423062
_cell_angle_gamma 90.000000
_cell_volume 2494.672536
_symmetry_space_group_name_H-M "C 2/M"
_symmetry_group_IT_number 12
_symmetry_cell_setting 'monoclinic'
loop_
_space_group_symop_operation_xyz
x,y,z
-x,y,-z
-x,-y,-z
x,-y,z
1/2+x,1/2+y,z
1/2-x,1/2+y,-z
1/2-x,1/2-y,-z
1/2+x,1/2-y,z
loop_
_atom_site_type_symbol
_atom_site_label
_atom_site_fract_x
_atom_site_fract_y
_atom_site_fract_z
Si Si1 0.181109 0.662292 0.609447
Si Si2 0.924653 0.394551 0.425090
Si Si3 0.182539 0.883243 0.261899
Si Si4 0.880128 0.701975 0.958565
Si Si5 0.615045 0.684411 0.480107
Si Si6 0.729423 0.888879 0.070897
O O1 0.250000 0.750000 0.500000
O O2 0.134538 0.589090 0.594670
O O3 0.297638 0.622898 0.548392
O O4 0.047219 0.692754 0.788740
O O5 0.893643 0.500000 0.493667
O O6 0.862558 0.301794 0.528461
O O7 0.091113 0.377534 0.254996
O O8 0.177117 0.837971 0.343599
O O9 0.047072 0.847465 0.352483
O O10 0.182332 0.000000 0.267468
O O11 0.324528 0.843685 0.085776
O O12 0.801135 0.641272 0.977511
O O13 0.846977 0.817944 0.986528
O O14 0.787756 0.000000 0.014049
#
# Coordination Sequence:
#
# PCOD8092501 Si02
#       6
#     8   8   8   8   8   8
#     4   9  20  36  57  83 115 146 177 230 288 323
#     4   9  17  33  57  84 112 142 183 230 279 329
#     4  11  23  38  57  80 111 151 191 231 275 332
#     4  10  19  35  55  81 114 143 185 230 270 336
#     4  10  20  38  54  80 117 152 186 231 277 331
#     4   9  17  31  55  82 108 141 181 227 275 325
#
# _framework density 19.241002000000002
#
# number of rings (size 3 to 8) (size 9 to 14) (size 15 to 20)
#    0.000    2.333    1.667    1.500    2.333    2.667 
#    0.000    6.667    0.000    0.000    0.000    5.833 
#    0.000    0.000    0.000    0.000    0.000    0.000 
#
# Total GULP energy -297426.746760 kJ/mol
# GULP energy per Si atom -12392.781115 kJ/mol
# Density = 1.919721 g / cm^3
# Si number density = 19.241002 Si / 1000 Ang^3
#
#
#
# Elastic Constant Matrix: (Units=GPa)
#
#
# Indices 1 2 3 4 5 6 
#
# 1 87.0667 30.6111 33.0097 0.0001 -3.9253 -0.0001
# 2 30.6111 141.9297 35.8415 -0.0001 11.1437 -0.0002
# 3 33.0097 35.8415 108.2147 0.0004 9.4591 -0.0009
# 4 0.0001 -0.0001 0.0004 19.3741 -0.0004 9.5996
# 5 -3.9253 11.1437 9.4591 -0.0004 21.2827 0.0005
# 6 -0.0001 -0.0002 -0.0009 9.5996 0.0005 8.4608
#
#
#
# Elastic Compliance Matrix: (Units=1/GPa)
#
#
# Indices 1 2 3 4 5 6 
#
# 1 0.014125 -0.002487 -0.003981 0.000001 0.005677 -0.000002
# 2 -0.002487 0.008317 -0.001639 0.000000 -0.004085 0.000000
# 3 -0.003981 -0.001639 0.011431 -0.000002 -0.004957 0.000004
# 4 0.000001 0.000000 -0.000002 0.117892 0.000007 -0.133760
# 5 0.005677 -0.004085 -0.004957 0.000007 0.052375 -0.000011
# 6 -0.000002 0.000000 0.000004 -0.133760 -0.000011 0.269955
#
#
# Mechanical properties :
#
#
# Convention : Reuss Voigt Hill
#
# Bulk Modulus (GPa) = 56.62750 59.57064 58.09907
# Shear Modulus (GPa) = 10.07666 25.67344 17.87505
#
# Velocity S-wave (km/s) = 2.29095 3.65678 3.05127
# Velocity P-wave (km/s) = 6.04090 6.98977 6.53259
#
# Compressibility (1/GPa) = 0.01765926
#
# Stress axis : x y z
#
# Youngs Moduli (GPa) = 70.79590 120.24015 87.47814
#
# Poissons Ratio (x) = 0.29901 0.34827
# Poissons Ratio (y) = 0.17605 0.14337
# Poissons Ratio (z) = 0.28186 0.19706
#
# Static dielectric constant tensor:
#      x y z
#    x 3.712550 0.000000 -0.124160 
#    y 0.000000 3.578460 0.000000 
#    z -0.124160 0.000000 3.455580 
# 
# 
# High freq. dielectric constant tensor:
#      x y z
#    x 1.727850 0.000000 -0.000530 
#    y 0.000000 1.752220 0.000000 
#    z -0.000530 0.000000 1.740630 
# 
# From -- ./inp_files/283991.got.cif
#   From: 2010.06.25/outbox.cif.g09.slc.cpg/sg12_142_cif.got.tgz:283991.got - 2010.06.28 00:19:55.
