data_PCOD8092813
_publ_section_title
;
Structure prediction by ZEFSAII (Michael W. Deem and Ramdas Pophale) SiO2 
 PCOD8092813
Probable space group: C 2/M
;
_chemical_formula_sum "Si O2"
_cell_formula_units_Z 64
_cell_length_a 20.494386
_cell_length_b 8.973216
_cell_length_c 20.287125
_cell_angle_alpha 90.000000
_cell_angle_beta 113.866109
_cell_angle_gamma 90.000000
_cell_volume 3411.804467
_symmetry_space_group_name_H-M "C 2/M"
_symmetry_group_IT_number 12
_symmetry_cell_setting 'monoclinic'
loop_
_space_group_symop_operation_xyz
x,y,z
-x,y,-z
-x,-y,-z
x,-y,z
1/2+x,1/2+y,z
1/2-x,1/2+y,-z
1/2-x,1/2-y,-z
1/2+x,1/2-y,z
loop_
_atom_site_type_symbol
_atom_site_label
_atom_site_fract_x
_atom_site_fract_y
_atom_site_fract_z
Si Si1 0.084712 0.322236 0.200938
Si Si2 0.909863 0.674473 0.563320
Si Si3 0.577444 0.822885 0.051089
Si Si4 0.326249 0.823084 0.028654
Si Si5 0.686282 0.177126 0.355912
Si Si6 0.847591 0.176613 0.412928
Si Si7 0.570855 0.174061 0.668619
Si Si8 0.567838 0.823544 0.816012
O O1 0.083015 0.500000 0.202687
O O2 0.099948 0.265689 0.132894
O O3 0.146360 0.260537 0.274498
O O4 0.008703 0.257387 0.193851
O O5 0.899656 0.500000 0.546139
O O6 0.854357 0.734305 0.595403
O O7 0.897496 0.759947 0.490452
O O8 0.989035 0.711425 0.619599
O O9 0.573173 0.000000 0.048294
O O10 0.500000 0.757862 0.000000
O O11 0.635370 0.766674 0.022224
O O12 0.371367 0.764952 0.109771
O O13 0.318661 0.000000 0.026598
O O14 0.250000 0.750000 0.000000
O O15 0.767025 0.237032 0.389600
O O16 0.684094 0.000000 0.353885
O O17 0.876296 0.231470 0.354754
O O18 0.849920 0.000000 0.415890
O O19 0.586980 0.225557 0.749787
O O20 0.586278 0.000000 0.664071
O O21 0.562191 0.000000 0.818059
#
# Coordination Sequence:
#
# PCOD8092813 Si02
#       8
#     8   8   8   8   8   8   8   8
#     4   9  14  26  50  77 101 126 169 225 261 287
#     4  10  19  35  58  77  95 130 181 223 251 295
#     4   9  15  25  47  78 104 126 164 216 256 287
#     4  10  20  33  51  80 112 140 170 208 258 310
#     4   9  18  32  50  74 101 132 171 214 261 304
#     4  11  23  35  49  76 113 140 160 203 269 326
#     4  10  20  35  56  78  98 132 181 222 252 295
#     4   9  16  30  53  77 101 132 174 220 257 293
#
# _framework density 18.758400999999999
#
# number of rings (size 3 to 8) (size 9 to 14) (size 15 to 20)
#    0.000    2.375    2.500    1.125    0.000    3.000 
#    0.000    2.500    0.000    0.375    0.000    0.875 
#    0.000    0.000    0.000    0.000    0.000    0.000 
#
# Total GULP energy -396788.339108 kJ/mol
# GULP energy per Si atom -12399.635597 kJ/mol
# Density = 1.871571 g / cm^3
# Si number density = 18.758401 Si / 1000 Ang^3
#
#
#
# Elastic Constant Matrix: (Units=GPa)
#
#
# Indices 1 2 3 4 5 6 
#
# 1 129.5909 24.3277 49.6867 0.0000 -12.1980 0.0000
# 2 24.3277 20.0613 19.7887 0.0000 0.0829 0.0000
# 3 49.6867 19.7887 135.4009 0.0000 -16.1740 0.0000
# 4 0.0000 0.0000 0.0000 10.1382 0.0000 3.5569
# 5 -12.1980 0.0829 -16.1740 0.0000 35.5176 0.0000
# 6 0.0000 0.0000 0.0000 3.5569 0.0000 24.4803
#
#
#
# Elastic Compliance Matrix: (Units=1/GPa)
#
#
# Indices 1 2 3 4 5 6 
#
# 1 0.010855 -0.011195 -0.002008 0.000000 0.002840 0.000000
# 2 -0.011195 0.070400 -0.007043 0.000000 -0.007216 0.000000
# 3 -0.002008 -0.007043 0.009593 0.000000 0.003695 0.000000
# 4 0.000000 0.000000 0.000000 0.103935 0.000000 -0.015101
# 5 0.002840 -0.007216 0.003695 0.000000 0.030830 0.000000
# 6 0.000000 0.000000 0.000000 -0.015101 0.000000 0.043043
#
#
# Mechanical properties :
#
#
# Convention : Reuss Voigt Hill
#
# Bulk Modulus (GPa) = 19.85840 52.51770 36.18805
# Shear Modulus (GPa) = 15.34054 26.77721 21.05888
#
# Velocity S-wave (km/s) = 2.86282 3.78230 3.35421
# Velocity P-wave (km/s) = 4.64080 6.86528 5.85957
#
# Compressibility (1/GPa) = 0.05035652
#
# Stress axis : x y z
#
# Youngs Moduli (GPa) = 92.11996 14.20464 104.24166
#
# Poissons Ratio (x) = 0.15902 0.20933
# Poissons Ratio (y) = 1.03127 0.73415
# Poissons Ratio (z) = 0.18499 0.10004
#
# Static dielectric constant tensor:
#      x y z
#    x 3.586660 0.000000 -0.082280 
#    y 0.000000 2.847540 0.000000 
#    z -0.082280 0.000000 3.762870 
# 
# 
# High freq. dielectric constant tensor:
#      x y z
#    x 1.737170 0.000000 -0.005920 
#    y 0.000000 1.666900 0.000000 
#    z -0.005920 0.000000 1.746420 
# 
# From -- ./inp_files/320003.got.cif
#   From: 2010.06.25/outbox.cif.g09.slc.cpg/sg12_161_cif.got.tgz:320003.got - 2010.06.28 00:19:55.
