data_PCOD8092958
_publ_section_title
;
Structure prediction by ZEFSAII (Michael W. Deem and Ramdas Pophale) SiO2 
 PCOD8092958
Probable space group: C 2/M
;
_chemical_formula_sum "Si O2"
_cell_formula_units_Z 56
_cell_length_a 19.291714
_cell_length_b 18.293269
_cell_length_c 20.468631
_cell_angle_alpha 90.000000
_cell_angle_beta 21.118928
_cell_angle_gamma 90.000000
_cell_volume 2602.682641
_symmetry_space_group_name_H-M "C 2/M"
_symmetry_group_IT_number 12
_symmetry_cell_setting 'monoclinic'
loop_
_space_group_symop_operation_xyz
x,y,z
-x,y,-z
-x,-y,-z
x,-y,z
1/2+x,1/2+y,z
1/2-x,1/2+y,-z
1/2-x,1/2-y,-z
1/2+x,1/2-y,z
loop_
_atom_site_type_symbol
_atom_site_label
_atom_site_fract_x
_atom_site_fract_y
_atom_site_fract_z
Si Si1 0.398656 0.418667 0.658774
Si Si2 0.315383 0.263667 0.761854
Si Si3 0.241234 0.582302 0.002608
Si Si4 0.383591 0.226756 0.191686
Si Si5 0.515311 0.174766 0.686151
Si Si6 0.575412 0.691581 0.715310
Si Si7 0.025063 0.420219 0.059166
O O1 0.500000 0.417561 0.500000
O O2 0.448689 0.500000 0.647214
O O3 0.443842 0.340137 0.654810
O O4 0.157985 0.415404 0.874059
O O5 0.267329 0.244115 0.728937
O O6 0.428089 0.193976 0.691602
O O7 0.110304 0.270274 0.977340
O O8 0.293940 0.500000 0.972561
O O9 0.430198 0.626807 0.856366
O O10 0.073565 0.604906 0.200473
O O11 0.181950 0.592451 0.979435
O O12 0.337679 0.272425 0.295857
O O13 0.352548 0.138382 0.223203
O O14 0.462805 0.246603 0.774363
O O15 0.742750 0.160300 0.484076
O O16 0.928592 0.500000 0.152448
#
# Coordination Sequence:
#
# PCOD8092958 Si02
#       7
#     8   8   8   8   8   8   8
#     4   9  18  31  47  76 120 162 200 242 289 358
#     4  10  21  34  57  84 119 162 209 251 309 366
#     4  11  22  41  67  91 125 167 207 262 320 371
#     4  10  19  35  58  86 118 160 203 254 304 371
#     4  11  23  39  63  93 125 163 208 265 312 370
#     4  11  22  38  64  91 123 160 208 259 315 368
#     4   9  18  34  58  87 122 169 209 246 305 369
#
# _framework density 21.516261
#
# number of rings (size 3 to 8) (size 9 to 14) (size 15 to 20)
#    0.000    1.857    2.857    2.143    2.000    1.143 
#    0.000    2.857    0.000    2.571    0.000    2.000 
#    0.000    0.000    0.000    0.000    0.000    0.000 
#
# Total GULP energy -346892.850096 kJ/mol
# GULP energy per Si atom -12389.030361 kJ/mol
# Density = 2.146729 g / cm^3
# Si number density = 21.516261 Si / 1000 Ang^3
#
#
#
# Elastic Constant Matrix: (Units=GPa)
#
#
# Indices 1 2 3 4 5 6 
#
# 1 88.5896 33.5295 22.0448 -0.0373 2.1385 0.0032
# 2 33.5295 77.6317 33.3037 -0.0729 10.8711 0.0301
# 3 22.0448 33.3037 77.8594 0.1227 9.5948 0.0312
# 4 -0.0373 -0.0729 0.1227 14.0809 -0.0352 7.6898
# 5 2.1385 10.8711 9.5948 -0.0352 20.8893 -0.0254
# 6 0.0032 0.0301 0.0312 7.6898 -0.0254 26.1956
#
#
#
# Elastic Compliance Matrix: (Units=1/GPa)
#
#
# Indices 1 2 3 4 5 6 
#
# 1 0.013762 -0.005476 -0.001836 0.000030 0.002284 0.000000
# 2 -0.005476 0.018556 -0.005582 0.000149 -0.006532 -0.000064
# 3 -0.001836 -0.005582 0.016292 -0.000211 -0.004391 0.000045
# 4 0.000030 0.000149 -0.000211 0.084581 0.000129 -0.024829
# 5 0.002284 -0.006532 -0.004391 0.000129 0.053054 0.000026
# 6 0.000000 -0.000064 0.000045 -0.024829 0.000026 0.045463
#
#
# Mechanical properties :
#
#
# Convention : Reuss Voigt Hill
#
# Bulk Modulus (GPa) = 43.81545 46.87073 45.34309
# Shear Modulus (GPa) = 18.86050 22.58001 20.72025
#
# Velocity S-wave (km/s) = 2.96390 3.24302 3.10660
# Velocity P-wave (km/s) = 5.66754 5.98783 5.82988
#
# Compressibility (1/GPa) = 0.02282300
#
# Stress axis : x y z
#
# Youngs Moduli (GPa) = 72.66182 53.89057 61.37816
#
# Poissons Ratio (x) = 0.29513 0.11267
# Poissons Ratio (y) = 0.39792 0.34261
# Poissons Ratio (z) = 0.13339 0.30081
#
# Static dielectric constant tensor:
#      x y z
#    x 3.881590 -0.000230 0.164520 
#    y -0.000230 3.883380 0.000430 
#    z 0.164520 0.000430 3.884470 
# 
# 
# High freq. dielectric constant tensor:
#      x y z
#    x 1.834000 -0.000010 0.002040 
#    y -0.000010 1.817560 0.000030 
#    z 0.002040 0.000030 1.857120 
# 
# From -- ./inp_files/322622.got.cif
#   From: 2010.06.25/outbox.cif.g09.slc.cpg/sg12_162_cif.got.tgz:322622.got - 2010.06.28 00:19:55.
