data_PCOD8092085
_publ_section_title
;
Structure prediction by ZEFSAII (Michael W. Deem and Ramdas Pophale) SiO2 
 PCOD8092085
Probable space group: C 2/M
;
_chemical_formula_sum "Si O2"
_cell_formula_units_Z 40
_cell_length_a 17.611603
_cell_length_b 13.367603
_cell_length_c 13.105019
_cell_angle_alpha 90.000000
_cell_angle_beta 42.921212
_cell_angle_gamma 90.000000
_cell_volume 2101.029287
_symmetry_space_group_name_H-M "C 2/M"
_symmetry_group_IT_number 12
_symmetry_cell_setting 'monoclinic'
loop_
_space_group_symop_operation_xyz
x,y,z
-x,y,-z
-x,-y,-z
x,-y,z
1/2+x,1/2+y,z
1/2-x,1/2+y,-z
1/2-x,1/2-y,-z
1/2+x,1/2-y,z
loop_
_atom_site_type_symbol
_atom_site_label
_atom_site_fract_x
_atom_site_fract_y
_atom_site_fract_z
Si Si1 0.048691 0.113669 0.151369
Si Si2 0.794671 0.795883 0.854228
Si Si3 0.127853 0.385368 0.867046
Si Si4 0.257112 0.386717 0.204806
Si Si5 0.324404 0.720978 0.331540
O O1 0.103353 0.134259 0.209589
O O2 0.947934 0.191203 0.243792
O O3 0.004870 0.000000 0.194403
O O4 0.130435 0.129350 0.973335
O O5 0.696996 0.863420 0.901753
O O6 0.828948 0.700293 0.748453
O O7 0.750000 0.750000 0.000000
O O8 0.138476 0.500000 0.826771
O O9 0.181216 0.323723 0.723929
O O10 0.000000 0.352080 0.000000
O O11 0.210713 0.500000 0.235207
O O12 0.279889 0.368912 0.302477
O O13 0.250000 0.750000 0.500000
#
# Coordination Sequence:
#
# PCOD8092085 Si02
#       5
#     8   8   8   8   8
#     4  10  19  34  59  84 105 135 177 225 269 310
#     4   9  17  31  54  84 111 131 170 222 268 314
#     4  10  20  35  54  76 106 142 177 215 262 316
#     4   9  18  34  57  81 105 136 175 219 265 314
#     4  11  22  35  52  75 107 141 178 220 264 315
#
# _framework density 19.038288000000001
#
# number of rings (size 3 to 8) (size 9 to 14) (size 15 to 20)
#    0.000    2.200    0.000    5.400    0.000    4.000 
#    0.000    5.000    0.000    7.200    0.000    0.000 
#    0.000    0.000    0.000    0.000    0.000    0.000 
#
# Total GULP energy -247782.382279 kJ/mol
# GULP energy per Si atom -12389.119114 kJ/mol
# Density = 1.899496 g / cm^3
# Si number density = 19.038288 Si / 1000 Ang^3
#
#
#
# Elastic Constant Matrix: (Units=GPa)
#
#
# Indices 1 2 3 4 5 6 
#
# 1 114.4952 18.8744 30.0279 0.0000 17.9629 0.0000
# 2 18.8744 84.0084 27.2028 0.0000 9.2140 0.0000
# 3 30.0279 27.2028 73.9541 0.0000 18.5394 0.0000
# 4 0.0000 0.0000 0.0000 18.7094 0.0000 1.6266
# 5 17.9629 9.2140 18.5394 0.0000 14.3657 0.0000
# 6 0.0000 0.0000 0.0000 1.6266 0.0000 28.4602
#
#
#
# Elastic Compliance Matrix: (Units=1/GPa)
#
#
# Indices 1 2 3 4 5 6 
#
# 1 0.011023 -0.000789 -0.001267 0.000000 -0.011642 0.000000
# 2 -0.000789 0.013678 -0.004078 0.000000 -0.002523 0.000000
# 3 -0.001267 -0.004078 0.021410 0.000000 -0.023431 0.000000
# 4 0.000000 0.000000 0.000000 0.053716 0.000000 -0.003070
# 5 -0.011642 -0.002523 -0.023431 0.000000 0.116024 0.000000
# 6 0.000000 0.000000 0.000000 -0.003070 0.000000 0.035312
#
#
# Mechanical properties :
#
#
# Convention : Reuss Voigt Hill
#
# Bulk Modulus (GPa) = 29.54901 47.18532 38.36716
# Shear Modulus (GPa) = 18.20079 25.39721 21.79900
#
# Velocity S-wave (km/s) = 3.09530 3.65637 3.38747
# Velocity P-wave (km/s) = 5.32250 6.53174 5.95788
#
# Compressibility (1/GPa) = 0.03384209
#
# Stress axis : x y z
#
# Youngs Moduli (GPa) = 90.72094 73.10874 46.70652
#
# Poissons Ratio (x) = 0.05772 0.05917
# Poissons Ratio (y) = 0.07162 0.19049
# Poissons Ratio (z) = 0.11493 0.29816
#
# Static dielectric constant tensor:
#      x y z
#    x 4.247750 0.000000 0.270190 
#    y 0.000000 3.948980 0.000000 
#    z 0.270190 0.000000 3.036270 
# 
# 
# High freq. dielectric constant tensor:
#      x y z
#    x 1.749440 0.000000 0.021490 
#    y 0.000000 1.761080 0.000000 
#    z 0.021490 0.000000 1.686670 
# 
# From -- ./inp_files/142505.got.cif
#   From: 2010.06.25/outbox.cif.g09.slc.cpg/sg12_72_cif.got.tgz:142505.got - 2010.06.28 00:19:55.
