data_PCOD8092697
_publ_section_title
;
Structure prediction by ZEFSAII (Michael W. Deem and Ramdas Pophale) SiO2 
 PCOD8092697
Probable space group: C 2/M
;
_chemical_formula_sum "Si O2"
_cell_formula_units_Z 64
_cell_length_a 13.047546
_cell_length_b 11.789967
_cell_length_c 26.050885
_cell_angle_alpha 90.000000
_cell_angle_beta 58.067384
_cell_angle_gamma 90.000000
_cell_volume 3400.972603
_symmetry_space_group_name_H-M "C 2/M"
_symmetry_group_IT_number 12
_symmetry_cell_setting 'monoclinic'
loop_
_space_group_symop_operation_xyz
x,y,z
-x,y,-z
-x,-y,-z
x,-y,z
1/2+x,1/2+y,z
1/2-x,1/2+y,-z
1/2-x,1/2-y,-z
1/2+x,1/2-y,z
loop_
_atom_site_type_symbol
_atom_site_label
_atom_site_fract_x
_atom_site_fract_y
_atom_site_fract_z
Si Si1 0.766108 0.372294 0.617493
Si Si2 0.043052 0.371961 0.358692
Si Si3 0.303690 0.630374 0.817526
Si Si4 0.686688 0.128612 0.508734
Si Si5 0.151112 0.722997 0.096104
Si Si6 0.090692 0.630513 0.798282
Si Si7 0.533608 0.736243 0.713639
Si Si8 0.393934 0.630758 0.990162
O O1 0.741408 0.500000 0.640893
O O2 0.848667 0.310789 0.638709
O O3 0.840131 0.368682 0.544712
O O4 0.635526 0.314886 0.649579
O O5 0.080071 0.500000 0.340273
O O6 0.926837 0.362940 0.424908
O O7 0.034452 0.325392 0.303869
O O8 0.282737 0.500000 0.837324
O O9 0.298867 0.700920 0.870948
O O10 0.196282 0.673067 0.808567
O O11 0.435136 0.643616 0.756714
O O12 0.750000 0.250000 0.500000
O O13 0.747807 0.000000 0.503388
O O14 0.262060 0.644418 0.049948
O O15 0.041278 0.642537 0.141698
O O16 0.099834 0.800168 0.064089
O O17 0.112711 0.500000 0.777703
O O18 0.097048 0.705238 0.745333
O O19 0.416399 0.500000 0.970845
O O20 0.500000 0.674912 0.000000
#
# Coordination Sequence:
#
# PCOD8092697 Si02
#       8
#     8   8   8   8   8   8   8   8
#     4  10  20  34  54  78 104 138 179 220 267 328
#     4  10  20  34  54  78 104 138 179 220 267 328
#     4  10  21  36  53  75 104 139 177 215 258 310
#     4  10  19  35  57  80 108 142 179 223 275 332
#     4  10  20  35  56  77 104 142 174 208 254 308
#     4  10  21  36  53  75 104 139 177 215 258 310
#     4  11  20  34  54  76 104 135 174 224 272 309
#     4  10  20  34  54  82 110 134 168 214 260 302
#
# _framework density 18.818145000000001
#
# number of rings (size 3 to 8) (size 9 to 14) (size 15 to 20)
#    0.000    1.875    1.250    3.375    0.000    1.500 
#    0.000    0.000    0.000   21.000    0.000    0.000 
#    0.000    0.000    0.000    0.000    0.000    0.000 
#
# Total GULP energy -396484.550536 kJ/mol
# GULP energy per Si atom -12390.142204 kJ/mol
# Density = 1.877531 g / cm^3
# Si number density = 18.818145 Si / 1000 Ang^3
#
#
#
# Elastic Constant Matrix: (Units=GPa)
#
#
# Indices 1 2 3 4 5 6 
#
# 1 96.2104 32.6084 16.7050 0.0000 26.7461 0.0000
# 2 32.6084 75.2118 9.2377 0.0000 8.2975 0.0000
# 3 16.7050 9.2377 65.9173 0.0000 14.7689 0.0000
# 4 0.0000 0.0000 0.0000 7.3207 0.0000 4.5434
# 5 26.7461 8.2975 14.7689 0.0000 26.6307 0.0000
# 6 0.0000 0.0000 0.0000 4.5434 0.0000 21.8755
#
#
#
# Elastic Compliance Matrix: (Units=1/GPa)
#
#
# Indices 1 2 3 4 5 6 
#
# 1 0.016331 -0.005453 -0.000092 0.000000 -0.014652 0.000000
# 2 -0.005453 0.015661 -0.001081 0.000000 0.001196 0.000000
# 3 -0.000092 -0.001081 0.017413 0.000000 -0.009228 0.000000
# 4 0.000000 0.000000 0.000000 0.156811 0.000000 -0.032569
# 5 -0.014652 0.001196 -0.009228 0.000000 0.057011 0.000000
# 6 0.000000 0.000000 0.000000 -0.032569 0.000000 0.052478
#
#
# Mechanical properties :
#
#
# Convention : Reuss Voigt Hill
#
# Bulk Modulus (GPa) = 27.65958 39.38241 33.52100
# Shear Modulus (GPa) = 14.66252 23.08463 18.87357
#
# Velocity S-wave (km/s) = 2.79439 3.50626 3.17037
# Velocity P-wave (km/s) = 5.01415 6.11270 5.59048
#
# Compressibility (1/GPa) = 0.03615384
#
# Stress axis : x y z
#
# Youngs Moduli (GPa) = 61.23293 63.85446 57.42915
#
# Poissons Ratio (x) = 0.34818 0.00527
# Poissons Ratio (y) = 0.33389 0.06207
# Poissons Ratio (z) = 0.00562 0.06902
#
# Static dielectric constant tensor:
#      x y z
#    x 3.592140 0.000000 0.078600 
#    y 0.000000 3.983960 0.000000 
#    z 0.078600 0.000000 3.480340 
# 
# 
# High freq. dielectric constant tensor:
#      x y z
#    x 1.733360 0.000000 0.005150 
#    y 0.000000 1.727620 0.000000 
#    z 0.005150 0.000000 1.739220 
# 
# From -- ./inp_files/335184.got.cif
#   From: 2010.06.25/outbox.cif.g09.slc.cpg/sg12_168_cif.got.tgz:335184.got - 2010.06.28 00:19:55.
