data_PCOD8092378
_publ_section_title
;
Structure prediction by ZEFSAII (Michael W. Deem and Ramdas Pophale) SiO2 
 PCOD8092378
Probable space group: C 2/M
;
_chemical_formula_sum "Si O2"
_cell_formula_units_Z 64
_cell_length_a 19.221345
_cell_length_b 18.717989
_cell_length_c 18.914071
_cell_angle_alpha 90.000000
_cell_angle_beta 29.094230
_cell_angle_gamma 90.000000
_cell_volume 3308.912284
_symmetry_space_group_name_H-M "C 2/M"
_symmetry_group_IT_number 12
_symmetry_cell_setting 'monoclinic'
loop_
_space_group_symop_operation_xyz
x,y,z
-x,y,-z
-x,-y,-z
x,-y,z
1/2+x,1/2+y,z
1/2-x,1/2+y,-z
1/2-x,1/2-y,-z
1/2+x,1/2-y,z
loop_
_atom_site_type_symbol
_atom_site_label
_atom_site_fract_x
_atom_site_fract_y
_atom_site_fract_z
Si Si1 0.139204 0.420561 0.235411
Si Si2 0.344246 0.314136 0.657017
Si Si3 0.856816 0.585158 0.407152
Si Si4 0.214389 0.700796 0.925938
Si Si5 0.658094 0.149612 0.356117
Si Si6 0.608563 0.823381 0.758715
Si Si7 0.324319 0.350641 0.970317
Si Si8 0.651113 0.338648 0.686647
O O1 0.133077 0.500000 0.270801
O O2 0.213457 0.371279 0.229354
O O3 0.980664 0.395272 0.353488
O O4 0.240259 0.417873 0.076978
O O5 0.500000 0.349454 0.500000
O O6 0.300740 0.317777 0.777879
O O7 0.353183 0.233377 0.624030
O O8 0.220840 0.349955 0.718535
O O9 0.831062 0.500000 0.424734
O O10 0.900370 0.615330 0.292134
O O11 0.716944 0.628423 0.556630
O O12 0.287652 0.652086 0.920311
O O13 0.234399 0.782122 0.933823
O O14 0.046065 0.684178 0.066634
O O15 0.500000 0.113676 0.500000
O O16 0.766358 0.124051 0.320747
O O17 0.655449 0.747758 0.681999
O O18 0.489979 0.364734 0.834549
#
# Coordination Sequence:
#
# PCOD8092378 Si02
#       8
#     8   8   8   8   8   8   8   8
#     4  11  22  37  58  80 118 161 196 232 281 358
#     4  10  21  33  59  91 117 145 187 247 300 341
#     4  11  23  39  59  84 119 158 202 243 290 351
#     4  10  19  36  58  85 119 150 185 245 299 340
#     4  10  19  35  53  81 118 150 191 237 283 346
#     4  10  21  37  60  88 117 153 194 246 292 352
#     4  10  21  35  57  85 117 149 193 242 288 341
#     4  10  22  35  59  88 114 156 195 248 292 343
#
# _framework density 19.341704
#
# number of rings (size 3 to 8) (size 9 to 14) (size 15 to 20)
#    0.000    1.750    3.750    0.750    1.750    1.750 
#    0.000    0.625    0.000    2.625    0.000    0.000 
#    0.000    0.000    0.000    0.000    0.000    0.000 
#
# Total GULP energy -396679.475289 kJ/mol
# GULP energy per Si atom -12396.233603 kJ/mol
# Density = 1.929768 g / cm^3
# Si number density = 19.341704 Si / 1000 Ang^3
#
#
#
# Elastic Constant Matrix: (Units=GPa)
#
#
# Indices 1 2 3 4 5 6 
#
# 1 112.3557 19.1234 40.5119 -0.0016 -7.5905 0.0011
# 2 19.1234 37.2160 23.1083 -0.0026 -0.7332 -0.0006
# 3 40.5119 23.1083 115.1505 -0.0076 0.6063 0.0028
# 4 -0.0016 -0.0026 -0.0076 16.2799 0.0013 1.1759
# 5 -7.5905 -0.7332 0.6063 0.0013 37.3923 0.0000
# 6 0.0011 -0.0006 0.0028 1.1759 0.0000 15.0882
#
#
#
# Elastic Compliance Matrix: (Units=1/GPa)
#
#
# Indices 1 2 3 4 5 6 
#
# 1 0.010766 -0.003576 -0.003082 -0.000001 0.002165 0.000000
# 2 -0.003576 0.031901 -0.005144 0.000002 -0.000017 0.000002
# 3 -0.003082 -0.005144 0.010805 0.000004 -0.000902 -0.000002
# 4 -0.000001 0.000002 0.000004 0.061773 -0.000002 -0.004814
# 5 0.002165 -0.000017 -0.000902 -0.000002 0.027197 0.000000
# 6 0.000000 0.000002 -0.000002 -0.004814 0.000000 0.066652
#
#
# Mechanical properties :
#
#
# Convention : Reuss Voigt Hill
#
# Bulk Modulus (GPa) = 33.47818 47.80106 40.63962
# Shear Modulus (GPa) = 20.60537 25.88398 23.24467
#
# Velocity S-wave (km/s) = 3.26749 3.66217 3.47045
# Velocity P-wave (km/s) = 5.61976 6.53067 6.09226
#
# Compressibility (1/GPa) = 0.02987020
#
# Stress axis : x y z
#
# Youngs Moduli (GPa) = 92.88172 31.34673 92.54640
#
# Poissons Ratio (x) = 0.11210 0.28518
# Poissons Ratio (y) = 0.33217 0.47603
# Poissons Ratio (z) = 0.28622 0.16124
#
# Static dielectric constant tensor:
#      x y z
#    x 3.641430 -0.000010 -0.168330 
#    y -0.000010 3.106010 0.000010 
#    z -0.168330 0.000010 3.566180 
# 
# 
# High freq. dielectric constant tensor:
#      x y z
#    x 1.761510 0.000000 -0.003180 
#    y 0.000000 1.706430 0.000000 
#    z -0.003180 0.000000 1.759790 
# 
# From -- ./inp_files/279096.got.cif
#   From: 2010.06.25/outbox.cif.g09.slc.cpg/sg12_140_cif.got.tgz:279096.got - 2010.06.28 00:19:55.
