data_PCOD8092338
_publ_section_title
;
Structure prediction by ZEFSAII (Michael W. Deem and Ramdas Pophale) SiO2 
 PCOD8092338
Probable space group: C 2/M
;
_chemical_formula_sum "Si O2"
_cell_formula_units_Z 64
_cell_length_a 10.033392
_cell_length_b 26.455498
_cell_length_c 15.310612
_cell_angle_alpha 90.000000
_cell_angle_beta 113.653184
_cell_angle_gamma 90.000000
_cell_volume 3722.608326
_symmetry_space_group_name_H-M "C 2/M"
_symmetry_group_IT_number 12
_symmetry_cell_setting 'monoclinic'
loop_
_space_group_symop_operation_xyz
x,y,z
-x,y,-z
-x,-y,-z
x,-y,z
1/2+x,1/2+y,z
1/2-x,1/2+y,-z
1/2-x,1/2-y,-z
1/2+x,1/2-y,z
loop_
_atom_site_type_symbol
_atom_site_label
_atom_site_fract_x
_atom_site_fract_y
_atom_site_fract_z
Si Si1 0.101886 0.309827 0.450846
Si Si2 0.917840 0.104359 0.307192
Si Si3 0.896313 0.559711 0.093181
Si Si4 0.286162 0.060011 0.881591
Si Si5 0.875359 0.443005 0.275501
Si Si6 0.716993 0.441765 0.401787
Si Si7 0.823742 0.595755 0.612298
Si Si8 0.564052 0.697780 0.423608
O O1 0.105698 0.347848 0.369125
O O2 0.262733 0.305959 0.533944
O O3 0.031396 0.257015 0.398232
O O4 0.000000 0.332061 0.500000
O O5 0.838558 0.094875 0.193962
O O6 0.806155 0.090735 0.354358
O O7 0.044785 0.063244 0.346822
O O8 0.984769 0.161298 0.331815
O O9 0.906975 0.500000 0.104620
O O10 0.839072 0.582390 0.171093
O O11 0.060266 0.578333 0.117841
O O12 0.787636 0.573484 0.985475
O O13 0.258334 0.000000 0.859369
O O14 0.817428 0.500000 0.259245
O O15 0.795101 0.416841 0.336691
O O16 0.050142 0.443802 0.332423
O O17 0.761692 0.500000 0.425537
O O18 0.765337 0.411262 0.499158
O O19 0.500000 0.680376 0.500000
#
# Coordination Sequence:
#
# PCOD8092338 Si02
#       8
#     8   8   8   8   8   8   8   8
#     4  10  20  33  53  69  94 134 173 209 248 289
#     4  12  21  33  49  74 104 132 168 207 258 302
#     4   8  15  31  52  73  97 129 173 219 249 282
#     4   9  17  30  51  76 101 131 170 212 252 293
#     4  10  20  34  50  71 101 137 176 209 240 288
#     4  11  23  33  44  70 109 142 168 200 245 300
#     4  12  21  33  50  72  99 139 175 201 242 300
#     4  10  19  35  49  71 101 130 165 211 252 296
#
# _framework density 17.192246000000001
#
# number of rings (size 3 to 8) (size 9 to 14) (size 15 to 20)
#    0.000    1.750    3.750    3.000    0.000    3.000 
#    0.000    0.625    0.000    3.000    0.000    0.875 
#    0.000    0.000    0.000    0.250    0.000    0.000 
#
# Total GULP energy -396559.767949 kJ/mol
# GULP energy per Si atom -12392.492748 kJ/mol
# Density = 1.715312 g / cm^3
# Si number density = 17.192246 Si / 1000 Ang^3
#
#
#
# Elastic Constant Matrix: (Units=GPa)
#
#
# Indices 1 2 3 4 5 6 
#
# 1 105.9054 8.6724 39.4627 0.0000 -8.0183 0.0000
# 2 8.6724 47.5430 24.6888 0.0000 7.8419 0.0000
# 3 39.4627 24.6888 123.2967 0.0000 -3.4462 0.0000
# 4 0.0000 0.0000 0.0000 18.2882 0.0000 4.0003
# 5 -8.0183 7.8419 -3.4462 0.0000 20.1346 0.0000
# 6 0.0000 0.0000 0.0000 4.0003 0.0000 18.2508
#
#
#
# Elastic Compliance Matrix: (Units=1/GPa)
#
#
# Indices 1 2 3 4 5 6 
#
# 1 0.011046 -0.001053 -0.003205 0.000000 0.004260 0.000000
# 2 -0.001053 0.025763 -0.005139 0.000000 -0.011333 0.000000
# 3 -0.003205 -0.005139 0.010235 0.000000 0.002477 0.000000
# 4 0.000000 0.000000 0.000000 0.057434 0.000000 -0.012589
# 5 0.004260 -0.011333 0.002477 0.000000 0.056200 0.000000
# 6 0.000000 0.000000 0.000000 -0.012589 0.000000 0.057551
#
#
# Mechanical properties :
#
#
# Convention : Reuss Voigt Hill
#
# Bulk Modulus (GPa) = 35.39861 46.93254 41.16557
# Shear Modulus (GPa) = 20.28899 24.92947 22.60923
#
# Velocity S-wave (km/s) = 3.43902 3.81207 3.63034
# Velocity P-wave (km/s) = 6.03355 6.83621 6.44738
#
# Compressibility (1/GPa) = 0.02824970
#
# Stress axis : x y z
#
# Youngs Moduli (GPa) = 90.53420 38.81475 97.70789
#
# Poissons Ratio (x) = 0.04087 0.31319
# Poissons Ratio (y) = 0.09533 0.50208
# Poissons Ratio (z) = 0.29019 0.19945
#
# Static dielectric constant tensor:
#      x y z
#    x 3.366490 0.000000 -0.179160 
#    y 0.000000 3.152490 0.000000 
#    z -0.179160 0.000000 3.277550 
# 
# 
# High freq. dielectric constant tensor:
#      x y z
#    x 1.673010 0.000000 -0.004150 
#    y 0.000000 1.635680 0.000000 
#    z -0.004150 0.000000 1.640910 
# 
# From -- ./inp_files/200949.got.cif
#   From: 2010.06.25/outbox.cif.g09.slc.cpg/sg12_101_cif.got.tgz:200949.got - 2010.06.28 00:19:55.
