data_PCOD8092230
_publ_section_title
;
Structure prediction by ZEFSAII (Michael W. Deem and Ramdas Pophale) SiO2 
 PCOD8092230
Probable space group: C 2/M
;
_chemical_formula_sum "Si O2"
_cell_formula_units_Z 56
_cell_length_a 11.385607
_cell_length_b 28.396223
_cell_length_c 11.453348
_cell_angle_alpha 90.000000
_cell_angle_beta 51.126908
_cell_angle_gamma 90.000000
_cell_volume 2882.896327
_symmetry_space_group_name_H-M "C 2/M"
_symmetry_group_IT_number 12
_symmetry_cell_setting 'monoclinic'
loop_
_space_group_symop_operation_xyz
x,y,z
-x,y,-z
-x,-y,-z
x,-y,z
1/2+x,1/2+y,z
1/2-x,1/2+y,-z
1/2-x,1/2-y,-z
1/2+x,1/2-y,z
loop_
_atom_site_type_symbol
_atom_site_label
_atom_site_fract_x
_atom_site_fract_y
_atom_site_fract_z
Si Si1 0.323769 0.281611 0.137019
Si Si2 0.380006 0.866006 0.347085
Si Si3 0.161056 0.445889 0.457057
Si Si4 0.170696 0.949721 0.876228
Si Si5 0.154381 0.718804 0.467051
Si Si6 0.674842 0.824957 0.856448
Si Si7 0.707274 0.865398 0.065207
O O1 0.280500 0.297475 0.294821
O O2 0.263248 0.228020 0.165772
O O3 0.232524 0.314197 0.105578
O O4 0.500000 0.287305 0.000000
O O5 0.306817 0.912585 0.450836
O O6 0.405617 0.827242 0.430062
O O7 0.284585 0.843998 0.298471
O O8 0.537135 0.881536 0.192839
O O9 0.168266 0.500000 0.494920
O O10 0.287758 0.434374 0.281262
O O11 0.000000 0.433578 0.500000
O O12 0.193177 0.907363 0.950434
O O13 0.257668 0.000000 0.848789
O O14 0.000000 0.962153 0.000000
O O15 0.250000 0.750000 0.500000
O O16 0.000000 0.740387 0.500000
O O17 0.500000 0.822848 0.000000
O O18 0.751285 0.860095 0.901542
#
# Coordination Sequence:
#
# PCOD8092230 Si02
#       7
#     8   8   8   8   8   8   8
#     4  11  22  38  58  84 116 157 206 251 294 361
#     4  11  20  37  57  84 121 152 194 248 302 354
#     4  10  19  34  60  86 108 143 191 245 300 354
#     4  10  21  37  58  87 116 143 188 249 305 360
#     4  12  24  40  62  89 122 162 203 253 309 357
#     4   9  21  35  52  81 115 152 191 242 291 353
#     4  11  20  35  60  82 114 157 198 239 305 355
#
# _framework density 19.424909
#
# number of rings (size 3 to 8) (size 9 to 14) (size 15 to 20)
#    0.000    1.429    4.286    2.143    0.000    1.143 
#    0.000    0.714    0.000    2.571    0.000    3.000 
#    0.000    0.000    0.000    0.000    0.000    0.000 
#
# Total GULP energy -346894.651632 kJ/mol
# GULP energy per Si atom -12389.094701 kJ/mol
# Density = 1.938070 g / cm^3
# Si number density = 19.424909 Si / 1000 Ang^3
#
#
#
# Elastic Constant Matrix: (Units=GPa)
#
#
# Indices 1 2 3 4 5 6 
#
# 1 73.0269 48.1219 39.0445 0.0000 20.3351 0.0000
# 2 48.1219 129.5893 30.8975 0.0000 25.5145 0.0000
# 3 39.0445 30.8975 119.5797 0.0000 14.2141 0.0000
# 4 0.0000 0.0000 0.0000 25.4014 0.0000 3.0607
# 5 20.3351 25.5145 14.2141 0.0000 34.7119 0.0000
# 6 0.0000 0.0000 0.0000 3.0607 0.0000 13.0523
#
#
#
# Elastic Compliance Matrix: (Units=1/GPa)
#
#
# Indices 1 2 3 4 5 6 
#
# 1 0.021890 -0.005649 -0.004895 0.000000 -0.006667 0.000000
# 2 -0.005649 0.010790 -0.000414 0.000000 -0.004452 0.000000
# 3 -0.004895 -0.000414 0.010187 0.000000 -0.000999 0.000000
# 4 0.000000 0.000000 0.000000 0.040513 0.000000 -0.009500
# 5 -0.006667 -0.004452 -0.000999 0.000000 0.036396 0.000000
# 6 0.000000 0.000000 0.000000 -0.009500 0.000000 0.078842
#
#
# Mechanical properties :
#
#
# Convention : Reuss Voigt Hill
#
# Bulk Modulus (GPa) = 47.73389 62.03597 54.88493
# Shear Modulus (GPa) = 21.97643 28.24192 25.10918
#
# Velocity S-wave (km/s) = 3.36721 3.81714 3.59921
# Velocity P-wave (km/s) = 6.30431 7.17169 6.75194
#
# Compressibility (1/GPa) = 0.02094948
#
# Stress axis : x y z
#
# Youngs Moduli (GPa) = 45.68366 92.68171 98.16630
#
# Poissons Ratio (x) = 0.52354 0.48055
# Poissons Ratio (y) = 0.25806 0.04067
# Poissons Ratio (z) = 0.22363 0.03840
#
# Static dielectric constant tensor:
#      x y z
#    x 3.475110 0.000000 0.240950 
#    y 0.000000 3.640320 0.000000 
#    z 0.240950 0.000000 3.819070 
# 
# 
# High freq. dielectric constant tensor:
#      x y z
#    x 1.717730 0.000000 0.008950 
#    y 0.000000 1.757220 0.000000 
#    z 0.008950 0.000000 1.771770 
# 
# From -- ./inp_files/136945.got.cif
#   From: 2010.06.25/outbox.cif.g09.slc.cpg/sg12_69_cif.got.tgz:136945.got - 2010.06.28 00:19:55.
