data_PCOD8092296
_publ_section_title
;
Structure prediction by ZEFSAII (Michael W. Deem and Ramdas Pophale) SiO2 
 PCOD8092296
Probable space group: C 2/M
;
_chemical_formula_sum "Si O2"
_cell_formula_units_Z 56
_cell_length_a 15.470877
_cell_length_b 17.436961
_cell_length_c 15.854338
_cell_angle_alpha 90.000000
_cell_angle_beta 38.354475
_cell_angle_gamma 90.000000
_cell_volume 2653.951914
_symmetry_space_group_name_H-M "C 2/M"
_symmetry_group_IT_number 12
_symmetry_cell_setting 'monoclinic'
loop_
_space_group_symop_operation_xyz
x,y,z
-x,y,-z
-x,-y,-z
x,-y,z
1/2+x,1/2+y,z
1/2-x,1/2+y,-z
1/2-x,1/2-y,-z
1/2+x,1/2-y,z
loop_
_atom_site_type_symbol
_atom_site_label
_atom_site_fract_x
_atom_site_fract_y
_atom_site_fract_z
Si Si1 0.523417 0.590554 0.577371
Si Si2 0.661996 0.091414 0.658560
Si Si3 0.008412 0.842482 0.091702
Si Si4 0.826612 0.909274 0.880812
Si Si5 0.728610 0.087515 0.313812
Si Si6 0.532559 0.164157 0.068812
Si Si7 0.503136 0.086816 0.368155
O O1 0.500000 0.623935 0.500000
O O2 0.503586 0.500000 0.588950
O O3 0.679681 0.614077 0.484347
O O4 0.418937 0.622776 0.730345
O O5 0.609194 0.132752 0.781911
O O6 0.557189 0.127124 0.668540
O O7 0.650757 0.000000 0.675925
O O8 0.853048 0.856917 0.244975
O O9 0.111562 0.888854 0.074249
O O10 0.050407 0.754562 0.066626
O O11 0.000000 0.871288 0.000000
O O12 0.816980 0.000000 0.881847
O O13 0.672107 0.875264 0.995771
O O14 0.648455 0.121901 0.291973
O O15 0.618175 0.088809 0.471641
O O16 0.781755 0.000000 0.259212
O O17 0.500000 0.140107 0.000000
O O18 0.539251 0.000000 0.317709
#
# Coordination Sequence:
#
# PCOD8092296 Si02
#       7
#     8   8   8   8   8   8   8
#     4   9  18  34  60  92 123 152 196 260 314 353
#     4  10  19  34  61  91 117 149 201 257 302 353
#     4  11  25  41  59  84 130 170 202 247 306 370
#     4  11  23  41  67  94 119 159 210 258 309 364
#     4   9  17  34  59  86 120 157 198 243 295 359
#     4  11  25  43  60  83 125 168 208 247 307 368
#     4   8  16  31  57  91 120 149 190 251 306 349
#
# _framework density 21.100607
#
# number of rings (size 3 to 8) (size 9 to 14) (size 15 to 20)
#    0.000    2.143    0.000    3.857    2.000    5.714 
#    0.000    2.857    9.429    0.000    0.000    0.000 
#    0.000    0.000    0.000    0.000    0.000    0.000 
#
# Total GULP energy -346914.709918 kJ/mol
# GULP energy per Si atom -12389.811068 kJ/mol
# Density = 2.105258 g / cm^3
# Si number density = 21.100607 Si / 1000 Ang^3
#
#
#
# Elastic Constant Matrix: (Units=GPa)
#
#
# Indices 1 2 3 4 5 6 
#
# 1 131.2019 36.8496 21.6176 0.0016 -3.8630 -0.0005
# 2 36.8496 44.0303 24.9301 0.0016 -0.0003 -0.0007
# 3 21.6176 24.9301 69.2386 0.0043 -4.0057 -0.0020
# 4 0.0016 0.0016 0.0043 -13.2549 -0.0016 4.9906
# 5 -3.8630 -0.0003 -4.0057 -0.0016 34.5671 0.0006
# 6 -0.0005 -0.0007 -0.0020 4.9906 0.0006 24.2193
#
#
#
# Elastic Compliance Matrix: (Units=1/GPa)
#
#
# Indices 1 2 3 4 5 6 
#
# 1 0.010007 -0.008343 -0.000056 0.000000 0.001112 0.000000
# 2 -0.008343 0.035533 -0.010312 0.000000 -0.002127 0.000000
# 3 -0.000056 -0.010312 0.018296 0.000004 0.002114 0.000000
# 4 0.000000 0.000000 0.000004 -0.070012 -0.000003 0.014427
# 5 0.001112 -0.002127 0.002114 -0.000003 0.029298 0.000000
# 6 0.000000 0.000000 0.000000 0.014427 0.000000 0.038317
#
#
# Mechanical properties :
#
#
# Convention : Reuss Voigt Hill
#
# Bulk Modulus (GPa) = 37.86053 45.69616 41.77835
# Shear Modulus (GPa) = 46.43986 19.84454 33.14220
#
# Velocity S-wave (km/s) = 4.69644 3.07004 3.96747
# Velocity P-wave (km/s) = 6.88408 5.85407 6.38987
#
# Compressibility (1/GPa) = 0.02641273
#
# Stress axis : x y z
#
# Youngs Moduli (GPa) = 99.92855 28.14272 54.65799
#
# Poissons Ratio (x) = 0.23481 0.00306
# Poissons Ratio (y) = 0.83375 0.56364
# Poissons Ratio (z) = 0.00559 0.29021
#
# Static dielectric constant tensor:
#      x y z
#    x 3.810550 0.000000 -0.163130 
#    y 0.000000 3.392500 0.000000 
#    z -0.163130 0.000000 3.806170 
# 
# 
# High freq. dielectric constant tensor:
#      x y z
#    x 1.851590 0.000000 -0.000880 
#    y 0.000000 1.780070 0.000000 
#    z -0.000880 0.000000 1.834180 
# 
# From -- ./inp_files/217686.got.cif
#   From: 2010.06.25/outbox.cif.g09.slc.cpg/sg12_109_cif.got.tgz:217686.got - 2010.06.28 00:19:55.
