data_PCOD8092277
_publ_section_title
;
Structure prediction by ZEFSAII (Michael W. Deem and Ramdas Pophale) SiO2 
 PCOD8092277
Probable space group: C 2/M
;
_chemical_formula_sum "Si O2"
_cell_formula_units_Z 48
_cell_length_a 21.757426
_cell_length_b 8.997659
_cell_length_c 12.309551
_cell_angle_alpha 90.000000
_cell_angle_beta 78.888524
_cell_angle_gamma 90.000000
_cell_volume 2364.616600
_symmetry_space_group_name_H-M "C 2/M"
_symmetry_group_IT_number 12
_symmetry_cell_setting 'monoclinic'
loop_
_space_group_symop_operation_xyz
x,y,z
-x,y,-z
-x,-y,-z
x,-y,z
1/2+x,1/2+y,z
1/2-x,1/2+y,-z
1/2-x,1/2-y,-z
1/2+x,1/2-y,z
loop_
_atom_site_type_symbol
_atom_site_label
_atom_site_fract_x
_atom_site_fract_y
_atom_site_fract_z
Si Si1 0.187558 0.177210 0.069727
Si Si2 0.479057 0.334587 0.624016
Si Si3 0.684821 0.173214 0.513273
Si Si4 0.428927 0.323805 0.039185
Si Si5 0.603420 0.334835 0.712387
Si Si6 0.139969 0.326041 0.291512
O O1 0.183835 0.234732 0.194577
O O2 0.194527 0.000000 0.063471
O O3 0.250000 0.250000 0.000000
O O4 0.122998 0.229470 0.031436
O O5 0.500000 0.269636 0.500000
O O6 0.449531 0.500000 0.616983
O O7 0.534611 0.346696 0.688940
O O8 0.431634 0.222956 0.698943
O O9 0.750000 0.250000 0.500000
O O10 0.642753 0.221569 0.628116
O O11 0.655497 0.221060 0.408975
O O12 0.694616 0.000000 0.516665
O O13 0.434358 0.500000 0.033644
O O14 0.401404 0.271485 0.164254
O O15 0.500000 0.257756 0.000000
O O16 0.634512 0.500000 0.700917
O O17 0.148584 0.500000 0.266071
#
# Coordination Sequence:
#
# PCOD8092277 Si02
#       6
#     8   8   8   8   8   8
#     4  11  24  42  65  92 125 162 210 262 313 374
#     4  10  19  34  60  93 123 155 198 244 299 366
#     4  11  25  41  59  86 120 159 203 251 307 367
#     4   9  19  38  64  91 120 160 207 253 303 360
#     4  10  20  37  63  92 123 157 199 249 304 368
#     4  11  24  41  62  88 123 162 203 250 307 369
#
# _framework density 20.299272999999999
#
# number of rings (size 3 to 8) (size 9 to 14) (size 15 to 20)
#    0.000    1.667    1.667    2.500    2.333    5.667 
#    0.000    0.833    0.000    3.500    0.000    0.000 
#    0.000    0.000    0.000    0.000    0.000    0.000 
#
# Total GULP energy -297569.259165 kJ/mol
# GULP energy per Si atom -12398.719132 kJ/mol
# Density = 2.025307 g / cm^3
# Si number density = 20.299273 Si / 1000 Ang^3
#
#
#
# Elastic Constant Matrix: (Units=GPa)
#
#
# Indices 1 2 3 4 5 6 
#
# 1 106.4831 40.7555 41.1996 0.0000 -17.9352 0.0000
# 2 40.7555 64.7665 45.8049 0.0000 -6.3429 0.0000
# 3 41.1996 45.8049 140.4400 0.0000 -14.3478 0.0000
# 4 0.0000 0.0000 0.0000 30.2490 0.0000 -3.4630
# 5 -17.9352 -6.3429 -14.3478 0.0000 31.1086 0.0000
# 6 0.0000 0.0000 0.0000 -3.4630 0.0000 23.1556
#
#
#
# Elastic Compliance Matrix: (Units=1/GPa)
#
#
# Indices 1 2 3 4 5 6 
#
# 1 0.013537 -0.007226 -0.001015 0.000000 0.005863 0.000000
# 2 -0.007226 0.023964 -0.005901 0.000000 -0.002001 0.000000
# 3 -0.001015 -0.005901 0.009613 0.000000 0.002645 0.000000
# 4 0.000000 0.000000 0.000000 0.033635 0.000000 0.005030
# 5 0.005863 -0.002001 0.002645 0.000000 0.036338 0.000000
# 6 0.000000 0.000000 0.000000 0.005030 0.000000 0.043938
#
#
# Mechanical properties :
#
#
# Convention : Reuss Voigt Hill
#
# Bulk Modulus (GPa) = 53.10628 63.02330 58.06479
# Shear Modulus (GPa) = 25.56403 29.16461 27.36432
#
# Velocity S-wave (km/s) = 3.55259 3.79454 3.67556
# Velocity P-wave (km/s) = 6.56097 7.09313 6.83223
#
# Compressibility (1/GPa) = 0.01883016
#
# Stress axis : x y z
#
# Youngs Moduli (GPa) = 73.86953 41.72845 104.02442
#
# Poissons Ratio (x) = 0.30154 0.10564
# Poissons Ratio (y) = 0.53380 0.61381
# Poissons Ratio (z) = 0.07501 0.24622
#
# Static dielectric constant tensor:
#      x y z
#    x 3.722950 0.000000 0.102190 
#    y 0.000000 3.716650 0.000000 
#    z 0.102190 0.000000 3.822380 
# 
# 
# High freq. dielectric constant tensor:
#      x y z
#    x 1.795610 0.000000 -0.000760 
#    y 0.000000 1.771820 0.000000 
#    z -0.000760 0.000000 1.809780 
# 
# From -- ./inp_files/172956.got.cif
#   From: 2010.06.25/outbox.cif.g09.slc.cpg/sg12_87_cif.got.tgz:172956.got - 2010.06.28 00:19:55.
