data_PCOD8092348
_publ_section_title
;
Structure prediction by ZEFSAII (Michael W. Deem and Ramdas Pophale) SiO2 
 PCOD8092348
Probable space group: C 2/M
;
_chemical_formula_sum "Si O2"
_cell_formula_units_Z 64
_cell_length_a 19.936275
_cell_length_b 21.560494
_cell_length_c 11.604046
_cell_angle_alpha 90.000000
_cell_angle_beta 134.017639
_cell_angle_gamma 90.000000
_cell_volume 3586.882095
_symmetry_space_group_name_H-M "C 2/M"
_symmetry_group_IT_number 12
_symmetry_cell_setting 'monoclinic'
loop_
_space_group_symop_operation_xyz
x,y,z
-x,y,-z
-x,-y,-z
x,-y,z
1/2+x,1/2+y,z
1/2-x,1/2+y,-z
1/2-x,1/2-y,-z
1/2+x,1/2-y,z
loop_
_atom_site_type_symbol
_atom_site_label
_atom_site_fract_x
_atom_site_fract_y
_atom_site_fract_z
Si Si1 0.405607 0.428944 0.330468
Si Si2 0.917270 0.299868 0.988811
Si Si3 0.947575 0.928659 0.117967
Si Si4 0.644443 0.216672 0.660996
Si Si5 0.665859 0.329186 0.147795
Si Si6 0.994706 0.273092 0.306538
Si Si7 0.389318 0.340815 0.661664
Si Si8 0.772272 0.845411 0.307431
O O1 0.500000 0.400339 0.500000
O O2 0.397303 0.500000 0.359465
O O3 0.403815 0.421162 0.191929
O O4 0.316689 0.393386 0.272013
O O5 0.881081 0.230031 0.968925
O O6 0.839063 0.347306 0.847734
O O7 0.000000 0.299437 0.000000
O O8 0.960898 0.319308 0.164692
O O9 0.052507 0.902957 0.243997
O O10 0.950482 0.000000 0.082455
O O11 0.885646 0.891673 0.951805
O O12 0.726173 0.164948 0.765866
O O13 0.596909 0.237760 0.723789
O O14 0.570003 0.192683 0.477581
O O15 0.696525 0.276126 0.676034
O O16 0.656612 0.317482 0.274315
O O17 0.040120 0.209749 0.310260
O O18 0.303757 0.360231 0.475760
#
# Coordination Sequence:
#
# PCOD8092348 Si02
#       8
#     8   8   8   8   8   8   8   8
#     4  10  20  36  55  78 108 140 174 220 269 317
#     4  11  21  33  53  79 111 141 177 219 265 317
#     4  11  22  35  55  78 107 142 179 216 264 322
#     4   9  22  33  52  77 106 145 177 218 264 318
#     4  11  22  35  51  77 110 144 177 221 269 312
#     4  10  19  35  51  74 106 142 176 212 263 315
#     4  11  20  35  52  73 112 143 174 216 265 323
#     4  10  22  31  54  80 105 143 179 216 263 323
#
# _framework density 17.842794999999999
#
# number of rings (size 3 to 8) (size 9 to 14) (size 15 to 20)
#    0.000    1.625    3.750    1.125    5.250    3.500 
#    0.000    0.000    0.000    0.375    0.000    2.625 
#    0.000    0.000    0.000    0.000    0.000    0.000 
#
# Total GULP energy -396668.536337 kJ/mol
# GULP energy per Si atom -12395.891761 kJ/mol
# Density = 1.780218 g / cm^3
# Si number density = 17.842795 Si / 1000 Ang^3
#
#
#
# Elastic Constant Matrix: (Units=GPa)
#
#
# Indices 1 2 3 4 5 6 
#
# 1 86.4852 19.2819 57.2926 0.0000 5.8634 0.0000
# 2 19.2819 50.3786 28.4111 0.0000 9.3807 0.0000
# 3 57.2926 28.4111 115.2966 0.0000 4.4587 0.0000
# 4 0.0000 0.0000 0.0000 18.0133 0.0000 0.9033
# 5 5.8634 9.3807 4.4587 0.0000 33.6145 0.0000
# 6 0.0000 0.0000 0.0000 0.9033 0.0000 10.3088
#
#
#
# Elastic Compliance Matrix: (Units=1/GPa)
#
#
# Indices 1 2 3 4 5 6 
#
# 1 0.017489 -0.001803 -0.008190 0.000000 -0.001461 0.000000
# 2 -0.001803 0.024383 -0.004887 0.000000 -0.005842 0.000000
# 3 -0.008190 -0.004887 0.013910 0.000000 0.000947 0.000000
# 4 0.000000 0.000000 0.000000 0.055760 0.000000 -0.004886
# 5 -0.001461 -0.005842 0.000947 0.000000 0.031509 0.000000
# 6 0.000000 0.000000 0.000000 -0.004886 0.000000 0.097433
#
#
# Mechanical properties :
#
#
# Convention : Reuss Voigt Hill
#
# Bulk Modulus (GPa) = 38.42607 51.34795 44.88701
# Shear Modulus (GPa) = 17.92647 22.19897 20.06272
#
# Velocity S-wave (km/s) = 3.17312 3.53107 3.35687
# Velocity P-wave (km/s) = 5.91672 6.74278 6.34321
#
# Compressibility (1/GPa) = 0.02602400
#
# Stress axis : x y z
#
# Youngs Moduli (GPa) = 57.17846 41.01152 71.88857
#
# Poissons Ratio (x) = 0.07395 0.58875
# Poissons Ratio (y) = 0.10310 0.35129
# Poissons Ratio (z) = 0.46828 0.20041
#
# Static dielectric constant tensor:
#      x y z
#    x 3.421700 0.000000 0.047810 
#    y 0.000000 3.028890 0.000000 
#    z 0.047810 0.000000 3.855070 
# 
# 
# High freq. dielectric constant tensor:
#      x y z
#    x 1.695120 0.000000 -0.009690 
#    y 0.000000 1.636090 0.000000 
#    z -0.009690 0.000000 1.707050 
# 
# From -- ./inp_files/159599.got.cif
#   From: 2010.06.25/outbox.cif.g09.slc.cpg/sg12_80_cif.got.tgz:159599.got - 2010.06.28 00:19:55.
