data_PCOD8092377
_publ_section_title
;
Structure prediction by ZEFSAII (Michael W. Deem and Ramdas Pophale) SiO2 
 PCOD8092377
Probable space group: C 2/M
;
_chemical_formula_sum "Si O2"
_cell_formula_units_Z 64
_cell_length_a 26.045551
_cell_length_b 14.105302
_cell_length_c 19.994015
_cell_angle_alpha 90.000000
_cell_angle_beta 153.936810
_cell_angle_gamma 90.000000
_cell_volume 3227.294361
_symmetry_space_group_name_H-M "C 2/M"
_symmetry_group_IT_number 12
_symmetry_cell_setting 'monoclinic'
loop_
_space_group_symop_operation_xyz
x,y,z
-x,y,-z
-x,-y,-z
x,-y,z
1/2+x,1/2+y,z
1/2-x,1/2+y,-z
1/2-x,1/2-y,-z
1/2+x,1/2-y,z
loop_
_atom_site_type_symbol
_atom_site_label
_atom_site_fract_x
_atom_site_fract_y
_atom_site_fract_z
Si Si1 0.431975 0.104642 0.858269
Si Si2 0.756402 0.802671 0.093215
Si Si3 0.294400 0.100245 0.468615
Si Si4 0.327283 0.392397 0.045249
Si Si5 0.502094 0.147311 0.202098
Si Si6 0.080798 0.849903 0.312099
Si Si7 0.803315 0.798776 0.419522
Si Si8 0.863003 0.109155 0.349592
O O1 0.512924 0.096952 0.887416
O O2 0.326097 0.170377 0.714417
O O3 0.389012 0.000000 0.829906
O O4 0.500000 0.151724 0.000000
O O5 0.753341 0.686359 0.087908
O O6 0.796224 0.836903 0.212244
O O7 0.841018 0.850629 0.136989
O O8 0.627822 0.839790 0.921304
O O9 0.415422 0.089739 0.651396
O O10 0.184174 0.103849 0.390311
O O11 0.304406 0.184488 0.426798
O O12 0.281275 0.000000 0.414149
O O13 0.273258 0.500000 0.980899
O O14 0.455791 0.402548 0.162127
O O15 0.567103 0.246250 0.265990
O O16 0.112793 0.846787 0.428043
O O17 0.837000 0.832156 0.385590
O O18 0.000000 0.112109 0.500000
O O19 0.819395 0.000000 0.303714
#
# Coordination Sequence:
#
# PCOD8092377 Si02
#       8
#     8   8   8   8   8   8   8   8
#     4  11  21  31  49  78 108 145 184 225 286 346
#     4  10  22  39  59  87 122 155 188 240 291 344
#     4  11  21  35  59  86 115 154 196 242 292 343
#     4  10  21  37  62  90 116 153 198 240 287 341
#     4  10  19  35  53  80 118 150 183 233 293 342
#     4  10  19  36  59  84 114 151 196 246 287 335
#     4  11  21  37  55  83 116 148 190 242 288 342
#     4  11  24  41  62  86 115 154 195 236 288 348
#
# _framework density 19.830853000000001
#
# number of rings (size 3 to 8) (size 9 to 14) (size 15 to 20)
#    0.000    1.500    2.500    3.750    0.000    6.500 
#    0.000    0.625    0.000    1.125    0.000    0.000 
#    0.000    0.000    0.000    0.000    0.000    0.000 
#
# Total GULP energy -396542.151882 kJ/mol
# GULP energy per Si atom -12391.942246 kJ/mol
# Density = 1.978572 g / cm^3
# Si number density = 19.830853 Si / 1000 Ang^3
#
#
#
# Elastic Constant Matrix: (Units=GPa)
#
#
# Indices 1 2 3 4 5 6 
#
# 1 94.9224 42.9349 26.6550 0.0000 -14.5876 0.0000
# 2 42.9349 161.5972 40.1853 0.0000 -15.2528 0.0000
# 3 26.6550 40.1853 78.1036 -0.0001 -5.2885 -0.0001
# 4 0.0000 0.0000 -0.0001 20.6352 -0.0001 -4.2778
# 5 -14.5876 -15.2528 -5.2885 -0.0001 32.9691 -0.0001
# 6 0.0000 0.0000 -0.0001 -4.2778 -0.0001 33.9871
#
#
#
# Elastic Compliance Matrix: (Units=1/GPa)
#
#
# Indices 1 2 3 4 5 6 
#
# 1 0.013076 -0.002335 -0.002975 0.000000 0.004228 0.000000
# 2 -0.002335 0.007764 -0.003058 0.000000 0.002068 0.000000
# 3 -0.002975 -0.003058 0.015374 0.000000 -0.000265 0.000000
# 4 0.000000 0.000000 0.000000 0.049759 0.000000 0.006263
# 5 0.004228 0.002068 -0.000265 0.000000 0.033117 0.000000
# 6 0.000000 0.000000 0.000000 0.006263 0.000000 0.030211
#
#
# Mechanical properties :
#
#
# Convention : Reuss Voigt Hill
#
# Bulk Modulus (GPa) = 51.33774 61.57485 56.45630
# Shear Modulus (GPa) = 28.98030 32.50813 30.74421
#
# Velocity S-wave (km/s) = 3.82694 4.05318 3.94168
# Velocity P-wave (km/s) = 6.74324 7.28161 7.01759
#
# Compressibility (1/GPa) = 0.01947885
#
# Stress axis : x y z
#
# Youngs Moduli (GPa) = 76.47359 128.79387 65.04464
#
# Poissons Ratio (x) = 0.30079 0.19349
# Poissons Ratio (y) = 0.17860 0.19889
# Poissons Ratio (z) = 0.22749 0.39382
#
# Static dielectric constant tensor:
#      x y z
#    x 3.587830 0.000000 0.103840 
#    y 0.000000 3.790430 0.000000 
#    z 0.103840 0.000000 3.631370 
# 
# 
# High freq. dielectric constant tensor:
#      x y z
#    x 1.766560 0.000000 0.017510 
#    y 0.000000 1.778870 0.000000 
#    z 0.017510 0.000000 1.761130 
# 
# From -- ./inp_files/290158.got.cif
#   From: 2010.06.25/outbox.cif.g09.slc.cpg/sg12_146_cif.got.tgz:290158.got - 2010.06.28 00:19:55.
