data_PCOD8092931
_publ_section_title
;
Structure prediction by ZEFSAII (Michael W. Deem and Ramdas Pophale) SiO2 
 PCOD8092931
Probable space group: C 2/M
;
_chemical_formula_sum "Si O2"
_cell_formula_units_Z 64
_cell_length_a 31.619228
_cell_length_b 18.381877
_cell_length_c 8.932383
_cell_angle_alpha 90.000000
_cell_angle_beta 142.609710
_cell_angle_gamma 90.000000
_cell_volume 3152.605903
_symmetry_space_group_name_H-M "C 2/M"
_symmetry_group_IT_number 12
_symmetry_cell_setting 'monoclinic'
loop_
_space_group_symop_operation_xyz
x,y,z
-x,y,-z
-x,-y,-z
x,-y,z
1/2+x,1/2+y,z
1/2-x,1/2+y,-z
1/2-x,1/2-y,-z
1/2+x,1/2-y,z
loop_
_atom_site_type_symbol
_atom_site_label
_atom_site_fract_x
_atom_site_fract_y
_atom_site_fract_z
Si Si1 0.509037 0.305080 0.858421
Si Si2 0.146192 0.582513 0.839090
Si Si3 0.780260 0.338435 0.443099
Si Si4 0.022121 0.333692 0.392189
Si Si5 0.836743 0.819852 0.651216
Si Si6 0.391620 0.415418 0.538111
Si Si7 0.892304 0.415005 0.939346
Si Si8 0.771890 0.918385 0.986991
O O1 0.472741 0.250066 0.641145
O O2 0.468831 0.382150 0.733202
O O3 0.500000 0.273357 0.000000
O O4 0.591017 0.311628 0.052687
O O5 0.118535 0.500000 0.752520
O O6 0.098008 0.630197 0.592674
O O7 0.224379 0.590458 0.000998
O O8 0.144054 0.608526 0.005910
O O9 0.808298 0.256576 0.508632
O O10 0.719729 0.351156 0.393807
O O11 0.844093 0.390360 0.666801
O O12 0.748939 0.359982 0.195194
O O13 0.000000 0.341953 0.500000
O O14 0.966530 0.375164 0.131424
O O15 0.849702 0.875022 0.552010
O O16 0.399142 0.500000 0.602168
O O17 0.350258 0.405282 0.265770
O O18 0.905550 0.500000 0.965712
O O19 0.764170 0.000000 0.898924
#
# Coordination Sequence:
#
# PCOD8092931 Si02
#       8
#     8   8   8   8   8   8   8   8
#     4  10  22  40  61  87 116 151 195 254 303 354
#     4   9  19  34  55  85 120 160 201 236 282 352
#     4  11  22  38  59  90 125 155 199 241 302 362
#     4  10  20  34  56  85 120 158 199 242 291 353
#     4  10  23  40  61  86 120 157 195 251 299 364
#     4  10  23  44  65  88 115 156 208 256 305 360
#     4  10  19  35  58  84 119 162 198 238 290 354
#     4  10  22  39  59  88 123 155 197 247 294 353
#
# _framework density 20.300668000000002
#
# number of rings (size 3 to 8) (size 9 to 14) (size 15 to 20)
#    0.000    2.000    1.250    1.500    3.500    7.250 
#    2.250    0.000    0.000    4.875    0.000    0.000 
#    0.000    0.000    0.000    0.000    0.000    0.000 
#
# Total GULP energy -396842.414807 kJ/mol
# GULP energy per Si atom -12401.325463 kJ/mol
# Density = 2.025446 g / cm^3
# Si number density = 20.300668 Si / 1000 Ang^3
#
#
#
# Elastic Constant Matrix: (Units=GPa)
#
#
# Indices 1 2 3 4 5 6 
#
# 1 29.0654 22.0512 12.3661 0.0000 7.3800 0.0000
# 2 22.0512 105.6779 34.9113 0.0000 0.2889 0.0000
# 3 12.3661 34.9113 89.3651 0.0000 2.1432 0.0000
# 4 0.0000 0.0000 0.0000 38.5917 0.0000 -1.0053
# 5 7.3800 0.2889 2.1432 0.0000 26.0609 0.0000
# 6 0.0000 0.0000 0.0000 -1.0053 0.0000 28.6952
#
#
#
# Elastic Compliance Matrix: (Units=1/GPa)
#
#
# Indices 1 2 3 4 5 6 
#
# 1 0.045154 -0.008522 -0.002620 0.000000 -0.012477 0.000000
# 2 -0.008522 0.012475 -0.003756 0.000000 0.002584 0.000000
# 3 -0.002620 -0.003756 0.013027 0.000000 -0.000288 0.000000
# 4 0.000000 0.000000 0.000000 0.025936 0.000000 0.000909
# 5 -0.012477 0.002584 -0.000288 0.000000 0.041900 0.000000
# 6 0.000000 0.000000 0.000000 0.000909 0.000000 0.034881
#
#
# Mechanical properties :
#
#
# Convention : Reuss Voigt Hill
#
# Bulk Modulus (GPa) = 24.47447 40.30728 32.39088
# Shear Modulus (GPa) = 23.06404 28.98821 26.02612
#
# Velocity S-wave (km/s) = 3.37430 3.78291 3.58443
# Velocity P-wave (km/s) = 5.22143 6.24330 5.75509
#
# Compressibility (1/GPa) = 0.04085891
#
# Stress axis : x y z
#
# Youngs Moduli (GPa) = 22.14667 80.16155 76.76488
#
# Poissons Ratio (x) = 0.68317 0.20110
# Poissons Ratio (y) = 0.18874 0.28833
# Poissons Ratio (z) = 0.05802 0.30109
#
# Static dielectric constant tensor:
#      x y z
#    x 3.489850 0.000000 0.157400 
#    y 0.000000 3.608740 0.000000 
#    z 0.157400 0.000000 3.830570 
# 
# 
# High freq. dielectric constant tensor:
#      x y z
#    x 1.774360 0.000000 0.009380 
#    y 0.000000 1.791600 0.000000 
#    z 0.009380 0.000000 1.804220 
# 
# From -- ./inp_files/112816.got.cif
#   From: 2010.06.25/outbox.cif.g09.slc.cpg/sg12_57_cif.got.tgz:112816.got - 2010.06.28 00:19:55.
