data_PCOD8092524
_publ_section_title
;
Structure prediction by ZEFSAII (Michael W. Deem and Ramdas Pophale) SiO2 
 PCOD8092524
Probable space group: C 2/M
;
_chemical_formula_sum "Si O2"
_cell_formula_units_Z 56
_cell_length_a 15.244849
_cell_length_b 17.689681
_cell_length_c 12.678347
_cell_angle_alpha 90.000000
_cell_angle_beta 118.423045
_cell_angle_gamma 90.000000
_cell_volume 3006.910290
_symmetry_space_group_name_H-M "C 2/M"
_symmetry_group_IT_number 12
_symmetry_cell_setting 'monoclinic'
loop_
_space_group_symop_operation_xyz
x,y,z
-x,y,-z
-x,-y,-z
x,-y,z
1/2+x,1/2+y,z
1/2-x,1/2+y,-z
1/2-x,1/2-y,-z
1/2+x,1/2-y,z
loop_
_atom_site_type_symbol
_atom_site_label
_atom_site_fract_x
_atom_site_fract_y
_atom_site_fract_z
Si Si1 0.117087 0.288393 0.297537
Si Si2 0.447721 0.325609 0.576394
Si Si3 0.208629 0.229139 0.143289
Si Si4 0.064287 0.333374 0.939821
Si Si5 0.752828 0.414589 0.046870
Si Si6 0.773154 0.914320 0.380534
Si Si7 0.147411 0.861725 0.789850
O O1 0.110586 0.243324 0.403104
O O2 0.173802 0.236675 0.243937
O O3 0.177891 0.364288 0.356478
O O4 0.006293 0.308821 0.196129
O O5 0.500000 0.294574 0.500000
O O6 0.369863 0.390950 0.503074
O O7 0.529082 0.360148 0.702905
O O8 0.230944 0.141605 0.131725
O O9 0.309939 0.276186 0.180995
O O10 0.123898 0.259792 0.015249
O O11 0.140167 0.397435 0.944525
O O12 0.000000 0.367708 0.000000
O O13 0.752141 0.500000 0.089975
O O14 0.666831 0.405150 0.909827
O O15 0.795344 0.906688 0.269250
O O16 0.746063 0.000000 0.392701
#
# Coordination Sequence:
#
# PCOD8092524 Si02
#       7
#     8   8   8   8   8   8   8
#     4  10  19  35  56  72  97 135 169 204 246 297
#     4  10  20  34  55  76  94 127 173 214 247 292
#     4   9  18  33  51  74 102 134 171 201 237 298
#     4   9  18  32  53  76  98 132 174 209 237 284
#     4  11  20  30  49  78 110 135 159 199 251 304
#     4  10  21  34  50  76 103 127 163 212 256 289
#     4   9  18  33  53  72  98 135 170 205 243 287
#
# _framework density 18.623767999999998
#
# number of rings (size 3 to 8) (size 9 to 14) (size 15 to 20)
#    0.000    2.286    0.000    5.143    0.000    4.000 
#    0.000    0.714    0.000    8.571    0.000    0.000 
#    0.000    0.000    0.000    0.000    0.000    0.000 
#
# Total GULP energy -347275.337135 kJ/mol
# GULP energy per Si atom -12402.690612 kJ/mol
# Density = 1.858138 g / cm^3
# Si number density = 18.623768 Si / 1000 Ang^3
#
#
#
# Elastic Constant Matrix: (Units=GPa)
#
#
# Indices 1 2 3 4 5 6 
#
# 1 82.1110 57.1713 33.9458 0.0000 4.2155 0.0000
# 2 57.1713 154.6706 45.0979 0.0000 -6.1645 0.0000
# 3 33.9458 45.0979 72.3418 0.0000 5.5256 0.0000
# 4 0.0000 0.0000 0.0000 15.4014 0.0000 -3.5620
# 5 4.2155 -6.1645 5.5256 0.0000 24.3276 0.0000
# 6 0.0000 0.0000 0.0000 -3.5620 0.0000 19.1764
#
#
#
# Elastic Compliance Matrix: (Units=1/GPa)
#
#
# Indices 1 2 3 4 5 6 
#
# 1 0.018143 -0.005421 -0.004873 0.000000 -0.003411 0.000000
# 2 -0.005421 0.009770 -0.003875 0.000000 0.004295 0.000000
# 3 -0.004873 -0.003875 0.018863 0.000000 -0.004422 0.000000
# 4 0.000000 0.000000 0.000000 0.067844 0.000000 0.012602
# 5 -0.003411 0.004295 -0.004422 0.000000 0.043789 0.000000
# 6 0.000000 0.000000 0.000000 0.012602 0.000000 0.054488
#
#
# Mechanical properties :
#
#
# Convention : Reuss Voigt Hill
#
# Bulk Modulus (GPa) = 54.23697 64.61705 59.42701
# Shear Modulus (GPa) = 20.21154 23.30829 21.75991
#
# Velocity S-wave (km/s) = 3.29789 3.54154 3.42189
# Velocity P-wave (km/s) = 6.60963 7.17598 6.89862
#
# Compressibility (1/GPa) = 0.01843761
#
# Stress axis : x y z
#
# Youngs Moduli (GPa) = 55.11734 102.35127 53.01246
#
# Poissons Ratio (x) = 0.55487 0.25835
# Poissons Ratio (y) = 0.29881 0.20542
# Poissons Ratio (z) = 0.26861 0.39661
#
# Static dielectric constant tensor:
#      x y z
#    x 3.450890 0.000000 0.151810 
#    y 0.000000 3.108470 0.000000 
#    z 0.151810 0.000000 3.458810 
# 
# 
# High freq. dielectric constant tensor:
#      x y z
#    x 1.719430 0.000000 0.015580 
#    y 0.000000 1.694840 0.000000 
#    z 0.015580 0.000000 1.722750 
# 
# From -- ./inp_files/145488.got.cif
#   From: 2010.06.25/outbox.cif.g09.slc.cpg/sg12_73_cif.got.tgz:145488.got - 2010.06.28 00:19:55.
