data_PCOD8092023
_publ_section_title
;
Structure prediction by ZEFSAII (Michael W. Deem and Ramdas Pophale) SiO2 
 PCOD8092023
Probable space group: C 2/M
;
_chemical_formula_sum "Si O2"
_cell_formula_units_Z 56
_cell_length_a 23.256812
_cell_length_b 9.097204
_cell_length_c 29.269417
_cell_angle_alpha 90.000000
_cell_angle_beta 26.666402
_cell_angle_gamma 90.000000
_cell_volume 2779.202862
_symmetry_space_group_name_H-M "C 2/M"
_symmetry_group_IT_number 12
_symmetry_cell_setting 'monoclinic'
loop_
_space_group_symop_operation_xyz
x,y,z
-x,y,-z
-x,-y,-z
x,-y,z
1/2+x,1/2+y,z
1/2-x,1/2+y,-z
1/2-x,1/2-y,-z
1/2+x,1/2-y,z
loop_
_atom_site_type_symbol
_atom_site_label
_atom_site_fract_x
_atom_site_fract_y
_atom_site_fract_z
Si Si1 0.790120 0.827116 0.365330
Si Si2 0.635467 0.671478 0.228085
Si Si3 0.482464 0.839538 0.761196
Si Si4 0.416525 0.332151 0.181627
Si Si5 0.861514 0.169237 0.117703
Si Si6 0.650595 0.326878 0.536104
Si Si7 0.136273 0.341700 0.060330
O O1 0.820575 0.783744 0.290898
O O2 0.667828 0.739010 0.472137
O O3 0.901294 0.776690 0.321958
O O4 0.768669 0.000000 0.385866
O O5 0.654889 0.500000 0.205517
O O6 0.638568 0.761058 0.177927
O O7 0.751168 0.727693 0.176680
O O8 0.496835 0.709373 0.347638
O O9 0.456247 0.871816 0.832031
O O10 0.514900 0.000000 0.715563
O O11 0.456223 0.500000 0.161984
O O12 0.349727 0.309300 0.180538
O O13 0.551058 0.244325 0.083814
O O14 0.836679 0.000000 0.121603
O O15 0.000000 0.218801 0.000000
O O16 0.677152 0.500000 0.516964
O O17 0.750000 0.250000 0.500000
O O18 0.181993 0.500000 0.007652
O O19 0.250000 0.250000 0.000000
#
# Coordination Sequence:
#
# PCOD8092023 Si02
#       7
#     8   8   8   8   8   8   8
#     4  10  19  34  58  87 119 154 191 238 295 352
#     4  11  24  39  58  87 121 154 198 249 298 352
#     4  10  20  34  54  81 116 155 193 235 290 354
#     4   9  20  39  59  82 115 153 196 245 295 354
#     4  10  23  43  65  86 114 157 205 250 298 355
#     4  11  22  36  58  89 124 160 196 240 301 361
#     4  10  21  34  53  82 113 149 191 240 298 356
#
# _framework density 20.149663
#
# number of rings (size 3 to 8) (size 9 to 14) (size 15 to 20)
#    0.000    1.857    1.429    2.143    2.000    4.857 
#    0.000    0.714    0.000    4.286    0.000    0.000 
#    0.000    0.000    0.000    0.000    0.000    0.000 
#
# Total GULP energy -346974.314352 kJ/mol
# GULP energy per Si atom -12391.939798 kJ/mol
# Density = 2.010380 g / cm^3
# Si number density = 20.149663 Si / 1000 Ang^3
#
#
#
# Elastic Constant Matrix: (Units=GPa)
#
#
# Indices 1 2 3 4 5 6 
#
# 1 90.5303 38.6561 30.5486 0.1141 -2.7110 -0.2442
# 2 38.6561 116.3692 34.3642 0.1682 -8.6111 -0.3332
# 3 30.5486 34.3642 74.0453 0.0452 -8.7689 -0.1153
# 4 0.1141 0.1682 0.0452 32.9684 -0.1003 -6.1648
# 5 -2.7110 -8.6111 -8.7689 -0.1003 26.7165 0.2425
# 6 -0.2442 -0.3332 -0.1153 -6.1648 0.2425 28.1040
#
#
#
# Elastic Compliance Matrix: (Units=1/GPa)
#
#
# Indices 1 2 3 4 5 6 
#
# 1 0.013928 -0.003445 -0.004278 -0.000015 -0.001102 0.000069
# 2 -0.003445 0.010891 -0.003391 -0.000021 0.002047 0.000063
# 3 -0.004278 -0.003391 0.017337 0.000014 0.004164 -0.000039
# 4 -0.000015 -0.000021 0.000014 0.031630 0.000052 0.006937
# 5 -0.001102 0.002047 0.004164 0.000052 0.039348 -0.000296
# 6 0.000069 0.000063 -0.000039 0.006937 -0.000296 0.037108
#
#
# Mechanical properties :
#
#
# Convention : Reuss Voigt Hill
#
# Bulk Modulus (GPa) = 50.17844 54.23139 52.20492
# Shear Modulus (GPa) = 27.91605 29.38284 28.64944
#
# Velocity S-wave (km/s) = 3.72618 3.82282 3.77481
# Velocity P-wave (km/s) = 6.59314 6.81601 6.70550
#
# Compressibility (1/GPa) = 0.01992888
#
# Stress axis : x y z
#
# Youngs Moduli (GPa) = 71.80012 91.82293 57.68113
#
# Poissons Ratio (x) = 0.31629 0.24675
# Poissons Ratio (y) = 0.24732 0.19557
# Poissons Ratio (z) = 0.30714 0.31133
#
# Static dielectric constant tensor:
#      x y z
#    x 3.585420 -0.000030 0.339060 
#    y -0.000030 3.893250 0.000000 
#    z 0.339060 0.000000 3.938490 
# 
# 
# High freq. dielectric constant tensor:
#      x y z
#    x 1.768750 0.000000 0.018040 
#    y 0.000000 1.800170 0.000000 
#    z 0.018040 0.000000 1.781850 
# 
# From -- ./inp_files/329700.got.cif
#   From: 2010.06.25/outbox.cif.g09.slc.cpg/sg12_165_cif.got.tgz:329700.got - 2010.06.28 00:19:55.
