data_PCOD8092574
_publ_section_title
;
Structure prediction by ZEFSAII (Michael W. Deem and Ramdas Pophale) SiO2 
 PCOD8092574
Probable space group: C 2/M
;
_chemical_formula_sum "Si O2"
_cell_formula_units_Z 44
_cell_length_a 8.582192
_cell_length_b 23.145376
_cell_length_c 13.948487
_cell_angle_alpha 90.000000
_cell_angle_beta 124.920496
_cell_angle_gamma 90.000000
_cell_volume 2271.827914
_symmetry_space_group_name_H-M "C 2/M"
_symmetry_group_IT_number 12
_symmetry_cell_setting 'monoclinic'
loop_
_space_group_symop_operation_xyz
x,y,z
-x,y,-z
-x,-y,-z
x,-y,z
1/2+x,1/2+y,z
1/2-x,1/2+y,-z
1/2-x,1/2-y,-z
1/2+x,1/2-y,z
loop_
_atom_site_type_symbol
_atom_site_label
_atom_site_fract_x
_atom_site_fract_y
_atom_site_fract_z
Si Si1 0.206727 0.285460 0.885862
Si Si2 0.303190 0.881324 0.983597
Si Si3 0.544806 0.689811 0.206833
Si Si4 0.591855 0.000000 0.710953
Si Si5 0.707947 0.904406 0.611839
Si Si6 0.175007 0.000000 0.489062
Si Si7 0.794179 0.000000 0.972940
O O1 0.376847 0.292334 0.870382
O O2 0.029841 0.250888 0.773726
O O3 0.250000 0.250000 0.000000
O O4 0.158473 0.350837 0.899977
O O5 0.139316 0.850411 0.865771
O O6 0.500000 0.879449 0.000000
O O7 0.229368 0.945671 0.967651
O O8 0.693455 0.656701 0.327383
O O9 0.687653 0.943058 0.699625
O O10 0.367206 0.000000 0.617624
O O11 0.628637 0.000000 0.836135
O O12 0.500000 0.888858 0.500000
O O13 0.828020 0.941761 0.576724
O O14 0.000000 0.000000 0.500000
O O15 0.000000 0.000000 0.000000
#
# Coordination Sequence:
#
# PCOD8092574 Si02
#       7
#     8   8   8   4   8   4   4
#     4  10  19  35  56  79 108 149 191 225 275 342
#     4  11  22  35  52  81 115 147 184 228 278 345
#     4  11  21  37  59  80 110 152 191 237 282 334
#     4   9  18  34  55  79 109 147 181 217 278 352
#     4   9  19  37  58  81 109 146 189 230 283 344
#     4   9  19  36  60  85 111 145 190 237 284 342
#     4  12  22  34  54  84 115 146 181 230 290 342
#
# _framework density 19.367664000000001
#
# number of rings (size 3 to 8) (size 9 to 14) (size 15 to 20)
#    0.000    1.818    0.000    9.000    0.000    2.182 
#    0.000    4.545    0.000    0.000    0.000    0.000 
#    0.000    0.000    0.000    0.000    0.000    0.000 
#
# Total GULP energy -272619.384405 kJ/mol
# GULP energy per Si atom -12391.790200 kJ/mol
# Density = 1.932358 g / cm^3
# Si number density = 19.367664 Si / 1000 Ang^3
#
#
#
# Elastic Constant Matrix: (Units=GPa)
#
#
# Indices 1 2 3 4 5 6 
#
# 1 150.6308 36.4036 18.8059 0.0000 4.3242 0.0000
# 2 36.4036 107.1522 18.2399 0.0000 14.0963 0.0000
# 3 18.8059 18.2399 53.5341 0.0000 9.4998 0.0000
# 4 0.0000 0.0000 0.0000 27.1686 0.0000 1.1743
# 5 4.3242 14.0963 9.4998 0.0000 21.1232 0.0000
# 6 0.0000 0.0000 0.0000 1.1743 0.0000 29.1450
#
#
#
# Elastic Compliance Matrix: (Units=1/GPa)
#
#
# Indices 1 2 3 4 5 6 
#
# 1 0.007416 -0.002302 -0.001982 0.000000 0.000909 0.000000
# 2 -0.002302 0.011255 -0.001931 0.000000 -0.006171 0.000000
# 3 -0.001982 -0.001931 0.021445 0.000000 -0.007950 0.000000
# 4 0.000000 0.000000 0.000000 0.036871 0.000000 -0.001486
# 5 0.000909 -0.006171 -0.007950 0.000000 0.054849 0.000000
# 6 0.000000 0.000000 0.000000 -0.001486 0.000000 0.034371
#
#
# Mechanical properties :
#
#
# Convention : Reuss Voigt Hill
#
# Bulk Modulus (GPa) = 36.11977 50.91288 43.51633
# Shear Modulus (GPa) = 26.61460 31.34520 28.97990
#
# Velocity S-wave (km/s) = 3.71101 4.02734 3.87240
# Velocity P-wave (km/s) = 6.08705 6.92608 6.52007
#
# Compressibility (1/GPa) = 0.02768567
#
# Stress axis : x y z
#
# Youngs Moduli (GPa) = 134.83570 88.84851 46.63143
#
# Poissons Ratio (x) = 0.20451 0.09244
# Poissons Ratio (y) = 0.31037 0.09005
# Poissons Ratio (z) = 0.26730 0.17157
#
# Static dielectric constant tensor:
#      x y z
#    x 3.585900 0.000000 0.120210 
#    y 0.000000 4.024740 0.000000 
#    z 0.120210 0.000000 3.347900 
# 
# 
# High freq. dielectric constant tensor:
#      x y z
#    x 1.761190 0.000000 0.010450 
#    y 0.000000 1.764060 0.000000 
#    z 0.010450 0.000000 1.719850 
# 
# From -- ./inp_files/120882.got.cif
#   From: 2010.06.25/outbox.cif.g09.slc.cpg/sg12_61_cif.got.tgz:120882.got - 2010.06.28 00:19:55.
