data_PCOD8092669
_publ_section_title
;
Structure prediction by ZEFSAII (Michael W. Deem and Ramdas Pophale) SiO2 
 PCOD8092669
Probable space group: C 2/M
;
_chemical_formula_sum "Si O2"
_cell_formula_units_Z 64
_cell_length_a 30.547541
_cell_length_b 9.055773
_cell_length_c 25.075073
_cell_angle_alpha 90.000000
_cell_angle_beta 27.770576
_cell_angle_gamma 90.000000
_cell_volume 3231.966227
_symmetry_space_group_name_H-M "C 2/M"
_symmetry_group_IT_number 12
_symmetry_cell_setting 'monoclinic'
loop_
_space_group_symop_operation_xyz
x,y,z
-x,y,-z
-x,-y,-z
x,-y,z
1/2+x,1/2+y,z
1/2-x,1/2+y,-z
1/2-x,1/2-y,-z
1/2+x,1/2-y,z
loop_
_atom_site_type_symbol
_atom_site_label
_atom_site_fract_x
_atom_site_fract_y
_atom_site_fract_z
Si Si1 0.196290 0.670124 0.419776
Si Si2 0.492013 0.825464 0.662626
Si Si3 0.060336 0.675486 0.984160
Si Si4 0.349102 0.173256 0.904208
Si Si5 0.011861 0.673692 0.154095
Si Si6 0.916525 0.666301 0.631481
Si Si7 0.322142 0.328466 0.383044
Si Si8 0.763764 0.826170 0.733330
O O1 0.182932 0.500000 0.417251
O O2 0.283696 0.692325 0.364644
O O3 0.214598 0.760879 0.347288
O O4 0.100269 0.727800 0.551694
O O5 0.426066 0.760391 0.780057
O O6 0.453062 0.770892 0.647995
O O7 0.489317 0.000000 0.669725
O O8 0.055221 0.500000 0.990496
O O9 0.024511 0.734192 0.080152
O O10 0.164844 0.732629 0.861538
O O11 0.000000 0.739845 0.000000
O O12 0.391726 0.205882 0.917094
O O13 0.333158 0.000000 0.912833
O O14 0.250000 0.250000 0.000000
O O15 0.989188 0.500000 0.179814
O O16 0.924705 0.755648 0.275940
O O17 0.876297 0.500000 0.680400
O O18 0.837065 0.777501 0.698631
O O19 0.000000 0.667929 0.500000
O O20 0.329097 0.500000 0.391141
O O21 0.250000 0.250000 0.500000
O O22 0.764838 0.000000 0.726016
#
# Coordination Sequence:
#
# PCOD8092669 Si02
#       8
#     8   8   8   8   8   8   8   8
#     4  10  20  38  60  83 113 152 192 229 280 354
#     4   9  18  35  57  78 106 148 195 232 279 346
#     4   9  19  36  57  81 114 156 193 230 287 353
#     4  10  22  39  60  84 112 153 199 246 297 348
#     4  10  21  40  62  83 116 159 201 243 293 352
#     4  10  19  35  57  78 108 154 193 229 284 354
#     4  11  23  38  62  91 119 150 190 241 293 349
#     4  11  22  34  55  87 117 145 187 242 294 342
#
# _framework density 19.802188000000001
#
# number of rings (size 3 to 8) (size 9 to 14) (size 15 to 20)
#    0.000    2.000    1.250    2.250    1.750    4.750 
#    0.000    1.875    0.000    3.375    0.000    0.000 
#    0.000    0.000    0.000    0.000    0.000    0.000 
#
# Total GULP energy -396790.149055 kJ/mol
# GULP energy per Si atom -12399.692158 kJ/mol
# Density = 1.975712 g / cm^3
# Si number density = 19.802188 Si / 1000 Ang^3
#
#
#
# Elastic Constant Matrix: (Units=GPa)
#
#
# Indices 1 2 3 4 5 6 
#
# 1 109.8582 33.4302 47.9971 -0.0042 -3.5005 0.0023
# 2 33.4302 55.6185 40.1951 -0.0114 -9.6777 0.0129
# 3 47.9971 40.1951 132.9391 -0.0054 -8.3136 0.0052
# 4 -0.0042 -0.0114 -0.0054 37.3925 0.0041 -3.2430
# 5 -3.5005 -9.6777 -8.3136 0.0041 37.4803 -0.0029
# 6 0.0023 0.0129 0.0052 -3.2430 -0.0029 26.8755
#
#
#
# Elastic Compliance Matrix: (Units=1/GPa)
#
#
# Indices 1 2 3 4 5 6 
#
# 1 0.011890 -0.005319 -0.002739 0.000000 -0.000870 0.000002
# 2 -0.005319 0.026145 -0.005673 0.000005 0.004996 -0.000010
# 3 -0.002739 -0.005673 0.010261 -0.000001 0.000556 0.000001
# 4 0.000000 0.000005 -0.000001 0.027026 -0.000002 0.003261
# 5 -0.000870 0.004996 0.000556 -0.000002 0.028013 0.000000
# 6 0.000002 -0.000010 0.000001 0.003261 0.000000 0.037602
#
#
# Mechanical properties :
#
#
# Convention : Reuss Voigt Hill
#
# Bulk Modulus (GPa) = 47.99414 60.18449 54.08932
# Shear Modulus (GPa) = 28.51550 32.13588 30.32569
#
# Velocity S-wave (km/s) = 3.79887 4.03283 3.91760
# Velocity P-wave (km/s) = 6.59783 7.22106 6.91647
#
# Compressibility (1/GPa) = 0.02083588
#
# Stress axis : x y z
#
# Youngs Moduli (GPa) = 84.10340 38.24790 97.45558
#
# Poissons Ratio (x) = 0.20342 0.26695
# Poissons Ratio (y) = 0.44731 0.55282
# Poissons Ratio (z) = 0.23038 0.21696
#
# Static dielectric constant tensor:
#      x y z
#    x 3.841670 -0.000020 -0.008710 
#    y -0.000020 3.329490 0.000020 
#    z -0.008710 0.000020 3.786000 
# 
# 
# High freq. dielectric constant tensor:
#      x y z
#    x 1.788410 0.000000 -0.000710 
#    y 0.000000 1.739110 0.000000 
#    z -0.000710 0.000000 1.780690 
# 
# From -- ./inp_files/353361.got.cif
#   From: 2010.06.25/outbox.cif.g09.slc.cpg/sg12_177_cif.got.tgz:353361.got - 2010.06.28 00:19:55.
