data_PCOD8092886
_publ_section_title
;
Structure prediction by ZEFSAII (Michael W. Deem and Ramdas Pophale) SiO2 
 PCOD8092886
Probable space group: C 2/M
;
_chemical_formula_sum "Si O2"
_cell_formula_units_Z 56
_cell_length_a 20.176461
_cell_length_b 10.735139
_cell_length_c 18.890627
_cell_angle_alpha 90.000000
_cell_angle_beta 130.844004
_cell_angle_gamma 90.000000
_cell_volume 3095.308559
_symmetry_space_group_name_H-M "C 2/M"
_symmetry_group_IT_number 12
_symmetry_cell_setting 'monoclinic'
loop_
_space_group_symop_operation_xyz
x,y,z
-x,y,-z
-x,-y,-z
x,-y,z
1/2+x,1/2+y,z
1/2-x,1/2+y,-z
1/2-x,1/2-y,-z
1/2+x,1/2-y,z
loop_
_atom_site_type_symbol
_atom_site_label
_atom_site_fract_x
_atom_site_fract_y
_atom_site_fract_z
Si Si1 0.524788 0.640939 0.441873
Si Si2 0.606673 0.000000 0.506659
Si Si3 0.257338 0.148113 0.943067
Si Si4 0.703329 0.751127 0.541448
Si Si5 0.728273 0.145859 0.276372
Si Si6 0.364654 0.735346 0.264439
Si Si7 0.402407 0.146407 0.932283
Si Si8 0.591881 0.000000 0.663434
O O1 0.500000 0.707831 0.500000
O O2 0.494978 0.500000 0.426252
O O3 0.626806 0.648391 0.493754
O O4 0.467830 0.703913 0.339952
O O5 0.660207 0.883396 0.518588
O O6 0.605986 0.000000 0.590081
O O7 0.513265 0.000000 0.401255
O O8 0.176430 0.177623 0.834938
O O9 0.349374 0.175531 0.967399
O O10 0.252866 0.000000 0.963153
O O11 0.250000 0.250000 0.000000
O O12 0.750000 0.750000 0.500000
O O13 0.774701 0.721164 0.652145
O O14 0.820166 0.171317 0.301613
O O15 0.650509 0.199286 0.172249
O O16 0.717438 0.000000 0.283793
O O17 0.359019 0.884849 0.264318
O O18 0.409759 0.000000 0.927573
O O19 0.500000 0.206371 0.000000
#
# Coordination Sequence:
#
# PCOD8092886 Si02
#       8
#     8   4   8   8   8   8   8   4
#     4  11  20  35  60  83 107 146 196 237 275 335
#     4  11  22  40  54  82 121 149 193 245 288 338
#     4  10  22  39  62  91 121 150 190 245 299 352
#     4  12  25  37  52  80 119 156 187 233 289 347
#     4  10  19  35  58  83 110 148 197 238 278 339
#     4  11  20  36  60  89 112 150 197 239 288 337
#     4   8  16  35  62  87 110 142 191 243 284 336
#     4  11  20  36  62  86 112 153 199 247 284 340
#
# _framework density 18.091896999999999
#
# number of rings (size 3 to 8) (size 9 to 14) (size 15 to 20)
#    0.000    1.571    4.286    2.571    3.000    0.000 
#    2.571    0.000    0.000    0.429    0.000    0.000 
#    0.000    0.000    0.000    0.000    0.000    0.000 
#
# Total GULP energy -347063.454006 kJ/mol
# GULP energy per Si atom -12395.123357 kJ/mol
# Density = 1.805072 g / cm^3
# Si number density = 18.091897 Si / 1000 Ang^3
#
#
#
# Elastic Constant Matrix: (Units=GPa)
#
#
# Indices 1 2 3 4 5 6 
#
# 1 105.9219 34.3114 62.5774 0.0000 -3.4500 0.0000
# 2 34.3114 92.7256 36.0760 0.0000 -7.9701 0.0000
# 3 62.5774 36.0760 107.2634 0.0000 -3.3043 0.0000
# 4 0.0000 0.0000 0.0000 32.1923 0.0000 -4.8368
# 5 -3.4500 -7.9701 -3.3043 0.0000 31.1229 0.0000
# 6 0.0000 0.0000 0.0000 -4.8368 0.0000 21.7916
#
#
#
# Elastic Compliance Matrix: (Units=1/GPa)
#
#
# Indices 1 2 3 4 5 6 
#
# 1 0.014875 -0.002432 -0.007854 0.000000 0.000192 0.000000
# 2 -0.002432 0.013044 -0.002883 0.000000 0.002765 0.000000
# 3 -0.007854 -0.002883 0.014874 0.000000 -0.000030 0.000000
# 4 0.000000 0.000000 0.000000 0.032135 0.000000 0.007133
# 5 0.000192 0.002765 -0.000030 0.000000 0.032857 0.000000
# 6 0.000000 0.000000 0.000000 0.007133 0.000000 0.047472
#
#
# Mechanical properties :
#
#
# Convention : Reuss Voigt Hill
#
# Bulk Modulus (GPa) = 60.77521 63.53785 62.15653
# Shear Modulus (GPa) = 26.72650 28.55111 27.63880
#
# Velocity S-wave (km/s) = 3.84769 3.97686 3.91281
# Velocity P-wave (km/s) = 7.30787 7.50220 7.40567
#
# Compressibility (1/GPa) = 0.01645408
#
# Stress axis : x y z
#
# Youngs Moduli (GPa) = 67.22591 76.66525 67.23230
#
# Poissons Ratio (x) = 0.18645 0.52807
# Poissons Ratio (y) = 0.16349 0.19383
# Poissons Ratio (z) = 0.52801 0.22103
#
# Static dielectric constant tensor:
#      x y z
#    x 3.228800 0.000000 0.140470 
#    y 0.000000 3.304120 0.000000 
#    z 0.140470 0.000000 3.477780 
# 
# 
# High freq. dielectric constant tensor:
#      x y z
#    x 1.677810 0.000000 0.010880 
#    y 0.000000 1.699440 0.000000 
#    z 0.010880 0.000000 1.701490 
# 
# From -- ./inp_files/282980.got.cif
#   From: 2010.06.25/outbox.cif.g09.slc.cpg/sg12_142_cif.got.tgz:282980.got - 2010.06.28 00:19:55.
