data_PCOD8092771
_publ_section_title
;
Structure prediction by ZEFSAII (Michael W. Deem and Ramdas Pophale) SiO2 
 PCOD8092771
Probable space group: C 2/M
;
_chemical_formula_sum "Si O2"
_cell_formula_units_Z 64
_cell_length_a 23.611457
_cell_length_b 8.843742
_cell_length_c 28.671738
_cell_angle_alpha 90.000000
_cell_angle_beta 31.193322
_cell_angle_gamma 90.000000
_cell_volume 3100.856603
_symmetry_space_group_name_H-M "C 2/M"
_symmetry_group_IT_number 12
_symmetry_cell_setting 'monoclinic'
loop_
_space_group_symop_operation_xyz
x,y,z
-x,y,-z
-x,-y,-z
x,-y,z
1/2+x,1/2+y,z
1/2-x,1/2+y,-z
1/2-x,1/2-y,-z
1/2+x,1/2-y,z
loop_
_atom_site_type_symbol
_atom_site_label
_atom_site_fract_x
_atom_site_fract_y
_atom_site_fract_z
Si Si1 0.849489 0.172300 0.820623
Si Si2 0.313433 0.178584 0.498468
Si Si3 0.635964 0.175674 0.024539
Si Si4 0.050545 0.323436 0.917390
Si Si5 0.709696 0.823711 0.660996
Si Si6 0.275350 0.321744 0.717669
Si Si7 0.438629 0.822438 0.668905
Si Si8 0.984285 0.171956 0.814179
O O1 0.867669 0.276902 0.763490
O O2 0.953302 0.182764 0.781652
O O3 0.831188 0.000000 0.816470
O O4 0.741769 0.233167 0.922333
O O5 0.250000 0.250000 0.500000
O O6 0.258928 0.223432 0.585406
O O7 0.438044 0.238164 0.411443
O O8 0.307958 0.000000 0.496416
O O9 0.529605 0.207458 0.068693
O O10 0.621117 0.274797 0.081684
O O11 0.649185 0.000000 0.028484
O O12 0.065974 0.500000 0.915740
O O13 0.169252 0.255422 0.820017
O O14 0.000000 0.248260 0.000000
O O15 0.769543 0.781471 0.667032
O O16 0.582179 0.785906 0.756125
O O17 0.722187 0.000000 0.640135
O O18 0.280660 0.500000 0.720620
O O19 0.385775 0.249098 0.659878
O O20 0.438013 0.000000 0.663058
O O21 0.015923 0.000000 0.804805
#
# Coordination Sequence:
#
# PCOD8092771 Si02
#       8
#     8   8   8   8   8   8   8   8
#     4  10  22  38  59  86 119 164 209 251 304 366
#     4  11  25  45  68  96 126 160 202 250 309 371
#     4  10  19  35  57  83 118 161 209 255 301 359
#     4   9  16  30  55  83 113 156 208 254 293 344
#     4  11  23  41  66  93 122 163 209 255 308 364
#     4  10  21  39  62  89 121 161 209 252 298 365
#     4  11  25  42  62  90 124 158 195 250 314 366
#     4  11  22  36  57  89 126 162 203 254 310 368
#
# _framework density 20.639458000000001
#
# number of rings (size 3 to 8) (size 9 to 14) (size 15 to 20)
#    0.000    1.625    1.250    3.375    0.000    9.000 
#    0.000    2.500    0.000    1.500    0.000    0.000 
#    0.000    0.000    0.000    0.000    0.000    0.000 
#
# Total GULP energy -396911.950413 kJ/mol
# GULP energy per Si atom -12403.498450 kJ/mol
# Density = 2.059248 g / cm^3
# Si number density = 20.639458 Si / 1000 Ang^3
#
#
#
# Elastic Constant Matrix: (Units=GPa)
#
#
# Indices 1 2 3 4 5 6 
#
# 1 122.1875 39.8196 56.6848 -0.0095 -3.7507 0.0169
# 2 39.8196 44.6777 28.8988 -0.0023 -0.7545 0.0204
# 3 56.6848 28.8988 106.9889 -0.0069 -3.3837 0.0208
# 4 -0.0095 -0.0023 -0.0069 33.8866 -0.0025 1.7609
# 5 -3.7507 -0.7545 -3.3837 -0.0025 37.7222 0.0041
# 6 0.0169 0.0204 0.0208 1.7609 0.0041 29.9355
#
#
#
# Elastic Compliance Matrix: (Units=1/GPa)
#
#
# Indices 1 2 3 4 5 6 
#
# 1 0.013201 -0.008778 -0.004600 0.000002 0.000724 0.000002
# 2 -0.008778 0.032958 -0.004270 0.000000 -0.000597 -0.000014
# 3 -0.004600 -0.004270 0.012957 0.000001 0.000619 -0.000004
# 4 0.000002 0.000000 0.000001 0.029601 0.000002 -0.001741
# 5 0.000724 -0.000597 0.000619 0.000002 0.026625 -0.000004
# 6 0.000002 -0.000014 -0.000004 -0.001741 -0.000004 0.033508
#
#
# Mechanical properties :
#
#
# Convention : Reuss Voigt Hill
#
# Bulk Modulus (GPa) = 41.98313 58.29561 50.13937
# Shear Modulus (GPa) = 26.02985 30.20558 28.11772
#
# Velocity S-wave (km/s) = 3.55515 3.82971 3.69498
# Velocity P-wave (km/s) = 6.10225 6.91821 6.52300
#
# Compressibility (1/GPa) = 0.02381909
#
# Stress axis : x y z
#
# Youngs Moduli (GPa) = 75.75084 30.34154 77.17709
#
# Poissons Ratio (x) = 0.26633 0.35504
# Poissons Ratio (y) = 0.66493 0.32958
# Poissons Ratio (z) = 0.34848 0.12957
#
# Static dielectric constant tensor:
#      x y z
#    x 3.825460 -0.000010 -0.056820 
#    y -0.000010 3.465320 0.000000 
#    z -0.056820 0.000000 3.902030 
# 
# 
# High freq. dielectric constant tensor:
#      x y z
#    x 1.820560 0.000000 0.000070 
#    y 0.000000 1.785320 0.000000 
#    z 0.000070 0.000000 1.813450 
# 
# From -- ./inp_files/382362.got.cif
#   From: 2010.06.25/outbox.cif.g09.slc.cpg/sg12_192_cif.got.tgz:382362.got - 2010.06.28 00:19:55.
