data_PCOD8092208
_publ_section_title
;
Structure prediction by ZEFSAII (Michael W. Deem and Ramdas Pophale) SiO2 
 PCOD8092208
Probable space group: C 2/M
;
_chemical_formula_sum "Si O2"
_cell_formula_units_Z 48
_cell_length_a 13.051588
_cell_length_b 21.278084
_cell_length_c 8.490910
_cell_angle_alpha 90.000000
_cell_angle_beta 67.901049
_cell_angle_gamma 90.000000
_cell_volume 2184.802506
_symmetry_space_group_name_H-M "C 2/M"
_symmetry_group_IT_number 12
_symmetry_cell_setting 'monoclinic'
loop_
_space_group_symop_operation_xyz
x,y,z
-x,y,-z
-x,-y,-z
x,-y,z
1/2+x,1/2+y,z
1/2-x,1/2+y,-z
1/2-x,1/2-y,-z
1/2+x,1/2-y,z
loop_
_atom_site_type_symbol
_atom_site_label
_atom_site_fract_x
_atom_site_fract_y
_atom_site_fract_z
Si Si1 0.215151 0.070519 0.373119
Si Si2 0.361437 0.656902 0.848370
Si Si3 0.972231 0.739626 0.197260
Si Si4 0.401612 0.869557 0.458183
Si Si5 0.434221 0.570707 0.255996
Si Si6 0.283107 0.669635 0.222407
O O1 0.211649 0.127992 0.250551
O O2 0.323597 0.079575 0.418835
O O3 0.102406 0.074792 0.539280
O O4 0.222483 0.000000 0.293582
O O5 0.431037 0.720231 0.769558
O O6 0.449931 0.604197 0.846636
O O7 0.276232 0.676592 0.036989
O O8 0.956695 0.675057 0.296757
O O9 0.858423 0.778671 0.265169
O O10 0.000000 0.725692 0.000000
O O11 0.500000 0.903574 0.500000
O O12 0.334740 0.827572 0.624417
O O13 0.448770 0.500000 0.191065
O O14 0.337183 0.601095 0.210476
#
# Coordination Sequence:
#
# PCOD8092208 Si02
#       6
#     8   8   8   8   8   8
#     4  10  22  39  60  87 119 157 198 240 288 343
#     4  10  19  34  59  91 121 147 185 240 301 355
#     4   9  20  38  61  90 121 150 186 238 299 357
#     4  11  24  40  59  80 113 161 206 243 283 336
#     4   9  17  31  54  86 121 153 187 233 292 354
#     4   9  20  36  55  86 122 154 188 234 292 353
#
# _framework density 21.969950000000001
#
# number of rings (size 3 to 8) (size 9 to 14) (size 15 to 20)
#    0.000    2.333    0.000    3.000    0.000   10.333 
#    0.000    3.333    0.000    3.500    0.000    0.000 
#    0.000    0.000    0.000    0.000    0.000    0.000 
#
# Total GULP energy -297433.919672 kJ/mol
# GULP energy per Si atom -12393.079986 kJ/mol
# Density = 2.191994 g / cm^3
# Si number density = 21.969950 Si / 1000 Ang^3
#
#
#
# Elastic Constant Matrix: (Units=GPa)
#
#
# Indices 1 2 3 4 5 6 
#
# 1 86.2464 -1.0328 25.4767 0.0000 9.1477 0.0000
# 2 -1.0328 69.0451 14.2874 0.0000 4.2665 0.0000
# 3 25.4767 14.2874 73.1794 0.0000 1.8878 0.0000
# 4 0.0000 0.0000 0.0000 16.9638 0.0000 -1.8735
# 5 9.1477 4.2665 1.8878 0.0000 22.3359 0.0000
# 6 0.0000 0.0000 0.0000 -1.8735 0.0000 14.1722
#
#
#
# Elastic Compliance Matrix: (Units=1/GPa)
#
#
# Indices 1 2 3 4 5 6 
#
# 1 0.013645 0.001559 -0.004914 0.000000 -0.005471 0.000000
# 2 0.001559 0.015428 -0.003470 0.000000 -0.003292 0.000000
# 3 -0.004914 -0.003470 0.016019 0.000000 0.001321 0.000000
# 4 0.000000 0.000000 0.000000 0.059822 0.000000 0.007908
# 5 -0.005471 -0.003292 0.001321 0.000000 0.047529 0.000000
# 6 0.000000 0.000000 0.000000 0.007908 0.000000 0.071606
#
#
# Mechanical properties :
#
#
# Convention : Reuss Voigt Hill
#
# Bulk Modulus (GPa) = 31.80365 33.99260 32.89813
# Shear Modulus (GPa) = 20.14670 23.34370 21.74520
#
# Velocity S-wave (km/s) = 3.03151 3.26318 3.14947
# Velocity P-wave (km/s) = 5.17308 5.45011 5.31340
#
# Compressibility (1/GPa) = 0.03144293
#
# Stress axis : x y z
#
# Youngs Moduli (GPa) = 73.28653 64.81696 62.42561
#
# Poissons Ratio (x) = -0.10105 0.30674
# Poissons Ratio (y) = -0.11425 0.21661
# Poissons Ratio (z) = 0.36010 0.22491
#
# Static dielectric constant tensor:
#      x y z
#    x 3.875240 0.000000 -0.056680 
#    y 0.000000 3.739030 0.000000 
#    z -0.056680 0.000000 3.980280 
# 
# 
# High freq. dielectric constant tensor:
#      x y z
#    x 1.853080 0.000000 -0.002020 
#    y 0.000000 1.848680 0.000000 
#    z -0.002020 0.000000 1.863120 
# 
# From -- ./inp_files/63324.got.cif
#   From: 2010.06.25/outbox.cif.g09.slc.cpg/sg12_32_cif.got.tgz:63324.got - 2010.06.28 00:19:55.
