data_PCOD8092525
_publ_section_title
;
Structure prediction by ZEFSAII (Michael W. Deem and Ramdas Pophale) SiO2 
 PCOD8092525
Probable space group: C 2/M
;
_chemical_formula_sum "Si O2"
_cell_formula_units_Z 40
_cell_length_a 20.684721
_cell_length_b 9.103221
_cell_length_c 21.681082
_cell_angle_alpha 90.000000
_cell_angle_beta 145.619803
_cell_angle_gamma 90.000000
_cell_volume 2305.310809
_symmetry_space_group_name_H-M "C 2/M"
_symmetry_group_IT_number 12
_symmetry_cell_setting 'monoclinic'
loop_
_space_group_symop_operation_xyz
x,y,z
-x,y,-z
-x,-y,-z
x,-y,z
1/2+x,1/2+y,z
1/2-x,1/2+y,-z
1/2-x,1/2-y,-z
1/2+x,1/2-y,z
loop_
_atom_site_type_symbol
_atom_site_label
_atom_site_fract_x
_atom_site_fract_y
_atom_site_fract_z
Si Si1 0.510138 0.172166 0.579394
Si Si2 0.262287 0.326136 0.218559
Si Si3 0.135491 0.827905 0.229379
Si Si4 0.726546 0.170960 0.544873
Si Si5 0.917094 0.837715 0.993062
O O1 0.500000 0.215907 0.500000
O O2 0.610763 0.263789 0.690857
O O3 0.394339 0.220321 0.522130
O O4 0.536044 0.000000 0.606858
O O5 0.264756 0.500000 0.222757
O O6 0.211359 0.264693 0.241846
O O7 0.185649 0.276222 0.099300
O O8 0.173051 0.786878 0.327984
O O9 0.159421 0.000000 0.234039
O O10 0.999648 0.791227 0.115288
O O11 0.750000 0.250000 0.500000
O O12 0.726344 0.000000 0.530988
O O13 0.864579 0.000000 0.962884
O O14 0.000000 0.841210 0.000000
#
# Coordination Sequence:
#
# PCOD8092525 Si02
#       5
#     8   8   8   8   8
#     4  10  19  35  56  73  99 139 178 209 246 307
#     4  11  20  28  46  78 110 131 161 216 267 298
#     4   9  17  33  52  71  99 139 178 206 244 307
#     4  10  21  36  55  77 103 136 171 212 256 304
#     4   8  15  28  48  70  97 134 173 207 246 305
#
# _framework density 17.351240000000001
#
# number of rings (size 3 to 8) (size 9 to 14) (size 15 to 20)
#    0.000    2.400    2.000    3.000    0.000    5.600 
#    0.000    0.000    0.000    1.200    0.000    0.000 
#    0.000    0.000    0.000    0.000    0.000    0.000 
#
# Total GULP energy -247942.999438 kJ/mol
# GULP energy per Si atom -12397.149972 kJ/mol
# Density = 1.731175 g / cm^3
# Si number density = 17.351240 Si / 1000 Ang^3
#
#
#
# Elastic Constant Matrix: (Units=GPa)
#
#
# Indices 1 2 3 4 5 6 
#
# 1 89.2565 39.4999 63.8822 0.0000 -4.9777 0.0000
# 2 39.4999 83.5723 70.7956 0.0000 2.3552 0.0000
# 3 63.8822 70.7956 179.3012 0.0000 -4.0060 0.0000
# 4 0.0000 0.0000 0.0000 15.7372 0.0000 -1.6956
# 5 -4.9777 2.3552 -4.0060 0.0000 17.6256 0.0000
# 6 0.0000 0.0000 0.0000 -1.6956 0.0000 23.7463
#
#
#
# Elastic Compliance Matrix: (Units=1/GPa)
#
#
# Indices 1 2 3 4 5 6 
#
# 1 0.016227 -0.004469 -0.003921 0.000000 0.004289 0.000000
# 2 -0.004469 0.019500 -0.006225 0.000000 -0.005283 0.000000
# 3 -0.003921 -0.006225 0.009474 0.000000 0.001878 0.000000
# 4 0.000000 0.000000 0.000000 0.064036 0.000000 0.004573
# 5 0.004289 -0.005283 0.001878 0.000000 0.059080 0.000000
# 6 0.000000 0.000000 0.000000 0.004573 0.000000 0.042438
#
#
# Mechanical properties :
#
#
# Convention : Reuss Voigt Hill
#
# Bulk Modulus (GPa) = 62.61390 77.83171 70.22280
# Shear Modulus (GPa) = 20.38239 23.28531 21.83385
#
# Velocity S-wave (km/s) = 3.43110 3.66730 3.55116
# Velocity P-wave (km/s) = 7.20146 7.93007 7.57453
#
# Compressibility (1/GPa) = 0.01597089
#
# Stress axis : x y z
#
# Youngs Moduli (GPa) = 61.62637 51.28118 105.54917
#
# Poissons Ratio (x) = 0.22916 0.41387
# Poissons Ratio (y) = 0.27539 0.65709
# Poissons Ratio (z) = 0.24164 0.31925
#
# Static dielectric constant tensor:
#      x y z
#    x 2.801350 0.000000 0.007160 
#    y 0.000000 3.095610 0.000000 
#    z 0.007160 0.000000 3.857140 
# 
# 
# High freq. dielectric constant tensor:
#      x y z
#    x 1.615530 0.000000 0.002690 
#    y 0.000000 1.660530 0.000000 
#    z 0.002690 0.000000 1.695410 
# 
# From -- ./inp_files/162506.got.cif
#   From: 2010.06.25/outbox.cif.g09.slc.cpg/sg12_82_cif.got.tgz:162506.got - 2010.06.28 00:19:55.
