data_PCOD8092540
_publ_section_title
;
Structure prediction by ZEFSAII (Michael W. Deem and Ramdas Pophale) SiO2 
 PCOD8092540
Probable space group: C 2/M
;
_chemical_formula_sum "Si O2"
_cell_formula_units_Z 64
_cell_length_a 31.292732
_cell_length_b 10.019810
_cell_length_c 16.143598
_cell_angle_alpha 90.000000
_cell_angle_beta 42.693406
_cell_angle_gamma 90.000000
_cell_volume 3432.267194
_symmetry_space_group_name_H-M "C 2/M"
_symmetry_group_IT_number 12
_symmetry_cell_setting 'monoclinic'
loop_
_space_group_symop_operation_xyz
x,y,z
-x,y,-z
-x,-y,-z
x,-y,z
1/2+x,1/2+y,z
1/2-x,1/2+y,-z
1/2-x,1/2-y,-z
1/2+x,1/2-y,z
loop_
_atom_site_type_symbol
_atom_site_label
_atom_site_fract_x
_atom_site_fract_y
_atom_site_fract_z
Si Si1 0.128798 0.847895 0.806478
Si Si2 0.799008 0.274562 0.049539
Si Si3 0.672532 0.850801 0.171727
Si Si4 0.558613 0.340311 0.742865
Si Si5 0.078001 0.149104 0.058361
Si Si6 0.367388 0.657831 0.518563
Si Si7 0.925892 0.157838 0.606031
Si Si8 0.272872 0.149039 0.266419
O O1 0.088054 0.793622 0.787883
O O2 0.186990 0.749375 0.735573
O O3 0.152811 0.000000 0.757546
O O4 0.086695 0.840490 0.947906
O O5 0.736387 0.183945 0.130826
O O6 0.790635 0.362788 0.143917
O O7 0.809204 0.357913 0.951503
O O8 0.863494 0.194898 0.970529
O O9 0.615663 0.745056 0.269683
O O10 0.651082 0.000000 0.228559
O O11 0.555942 0.500000 0.746051
O O12 0.488676 0.277125 0.829453
O O13 0.600587 0.281393 0.608784
O O14 0.068027 0.000000 0.102137
O O15 0.368763 0.500000 0.512265
O O16 0.404300 0.705336 0.546721
O O17 0.296535 0.709319 0.625258
O O18 0.000000 0.190707 0.500000
O O19 0.913545 0.000000 0.641568
O O20 0.279140 0.000000 0.294545
#
# Coordination Sequence:
#
# PCOD8092540 Si02
#       8
#     8   8   8   8   8   8   8   8
#     4   9  18  32  52  82 111 136 171 221 275 321
#     4  10  21  35  54  81 109 144 185 226 268 328
#     4  11  23  37  57  83 115 147 182 229 284 331
#     4   9  17  30  52  79 108 138 176 225 270 316
#     4   9  17  30  52  80 109 138 176 223 271 316
#     4   9  18  33  52  78 105 139 181 220 264 316
#     4  10  22  39  60  83 110 146 188 228 270 328
#     4  10  19  35  56  76 106 144 179 218 265 321
#
# _framework density 18.646567000000001
#
# number of rings (size 3 to 8) (size 9 to 14) (size 15 to 20)
#    0.000    2.375    1.250    1.125    1.750    5.250 
#    0.000    0.000    0.000    7.500    0.000    0.000 
#    0.000    0.000    0.000    0.000    0.000    0.000 
#
# Total GULP energy -396530.254281 kJ/mol
# GULP energy per Si atom -12391.570446 kJ/mol
# Density = 1.860413 g / cm^3
# Si number density = 18.646567 Si / 1000 Ang^3
#
#
#
# Elastic Constant Matrix: (Units=GPa)
#
#
# Indices 1 2 3 4 5 6 
#
# 1 99.4267 31.8273 60.3712 0.0000 -30.3607 -0.0001
# 2 31.8273 68.0872 34.0568 0.0001 -14.8669 0.0001
# 3 60.3712 34.0568 94.5259 0.0001 -25.8761 0.0000
# 4 0.0000 0.0001 0.0001 19.7207 0.0000 -3.7595
# 5 -30.3607 -14.8669 -25.8761 0.0000 34.1169 0.0000
# 6 -0.0001 0.0001 0.0000 -3.7595 0.0000 14.9210
#
#
#
# Elastic Compliance Matrix: (Units=1/GPa)
#
#
# Indices 1 2 3 4 5 6 
#
# 1 0.018928 -0.002506 -0.008675 0.000000 0.009173 0.000000
# 2 -0.002506 0.018620 -0.004414 0.000000 0.002536 0.000000
# 3 -0.008675 -0.004414 0.019019 0.000000 0.004782 0.000000
# 4 0.000000 0.000000 0.000000 0.053267 0.000000 0.013421
# 5 0.009173 0.002536 0.004782 0.000000 0.042205 0.000000
# 6 0.000000 0.000000 0.000000 0.013421 0.000000 0.070401
#
#
# Mechanical properties :
#
#
# Convention : Reuss Voigt Hill
#
# Bulk Modulus (GPa) = 39.40537 57.17227 48.28882
# Shear Modulus (GPa) = 19.07747 22.80402 20.94074
#
# Velocity S-wave (km/s) = 3.20208 3.50088 3.35481
# Velocity P-wave (km/s) = 5.90336 6.86069 6.39995
#
# Compressibility (1/GPa) = 0.02537725
#
# Stress axis : x y z
#
# Youngs Moduli (GPa) = 52.83119 53.70571 52.57936
#
# Poissons Ratio (x) = 0.13458 0.45613
# Poissons Ratio (y) = 0.13239 0.23208
# Poissons Ratio (z) = 0.45832 0.23705
#
# Static dielectric constant tensor:
#      x y z
#    x 3.573410 0.000000 -0.071350 
#    y 0.000000 3.044560 0.000000 
#    z -0.071350 0.000000 3.602400 
# 
# 
# High freq. dielectric constant tensor:
#      x y z
#    x 1.735310 0.000000 -0.004930 
#    y 0.000000 1.679990 0.000000 
#    z -0.004930 0.000000 1.729650 
# 
# From -- ./inp_files/250824.got.cif
#   From: 2010.06.25/outbox.cif.g09.slc.cpg/sg12_126_cif.got.tgz:250824.got - 2010.06.28 00:19:55.
