data_PCOD8092340
_publ_section_title
;
Structure prediction by ZEFSAII (Michael W. Deem and Ramdas Pophale) SiO2 
 PCOD8092340
Probable space group: C 2/M
;
_chemical_formula_sum "Si O2"
_cell_formula_units_Z 56
_cell_length_a 26.819794
_cell_length_b 25.854307
_cell_length_c 11.195489
_cell_angle_alpha 90.000000
_cell_angle_beta 22.259934
_cell_angle_gamma 90.000000
_cell_volume 2940.707237
_symmetry_space_group_name_H-M "C 2/M"
_symmetry_group_IT_number 12
_symmetry_cell_setting 'monoclinic'
loop_
_space_group_symop_operation_xyz
x,y,z
-x,y,-z
-x,-y,-z
x,-y,z
1/2+x,1/2+y,z
1/2-x,1/2+y,-z
1/2-x,1/2-y,-z
1/2+x,1/2-y,z
loop_
_atom_site_type_symbol
_atom_site_label
_atom_site_fract_x
_atom_site_fract_y
_atom_site_fract_z
Si Si1 0.139160 0.885070 0.733271
Si Si2 0.633999 0.059679 0.632621
Si Si3 0.355930 0.237553 0.364288
Si Si4 0.444736 0.678234 0.859027
Si Si5 0.525368 0.789035 0.310352
Si Si6 0.179458 0.349268 0.381877
Si Si7 0.211560 0.169102 0.338605
O O1 0.233946 0.926740 0.585382
O O2 0.220029 0.865244 0.438732
O O3 0.101255 0.836623 0.903549
O O4 0.000000 0.910950 0.000000
O O5 0.634747 0.091846 0.506210
O O6 0.640183 0.000000 0.583205
O O7 0.500000 0.072369 0.000000
O O8 0.250000 0.250000 0.500000
O O9 0.344671 0.178848 0.436196
O O10 0.330439 0.272624 0.536167
O O11 0.500000 0.249152 0.000000
O O12 0.445705 0.740698 0.840583
O O13 0.590871 0.652972 0.516233
O O14 0.337354 0.654357 0.004691
O O15 0.500000 0.768557 0.500000
O O16 0.400137 0.822694 0.547866
O O17 0.648080 0.829180 0.037588
#
# Coordination Sequence:
#
# PCOD8092340 Si02
#       7
#     8   8   8   8   8   8   8
#     4   9  19  33  54  82 111 139 176 216 263 323
#     4  10  20  35  53  78 110 141 173 217 274 326
#     4  12  19  27  49  75 104 134 166 206 252 311
#     4  10  19  35  49  75 105 141 174 214 259 313
#     4  12  24  36  49  71 109 152 189 217 261 313
#     4  11  21  35  51  76 105 140 182 219 258 315
#     4  11  20  32  49  74 110 144 176 213 253 316
#
# _framework density 19.043039
#
# number of rings (size 3 to 8) (size 9 to 14) (size 15 to 20)
#    0.000    1.286    2.857    6.000    0.000    2.571 
#    0.000    0.000    0.000    0.429    0.000    0.000 
#    0.000   46.857    0.000    0.000    0.000    0.000 
#
# Total GULP energy -346933.045201 kJ/mol
# GULP energy per Si atom -12390.465900 kJ/mol
# Density = 1.899970 g / cm^3
# Si number density = 19.043039 Si / 1000 Ang^3
#
#
#
# Elastic Constant Matrix: (Units=GPa)
#
#
# Indices 1 2 3 4 5 6 
#
# 1 82.1888 25.1786 46.7034 0.0003 -23.1536 0.0020
# 2 25.1786 72.0037 2.0251 -0.0059 -2.8557 -0.0019
# 3 46.7034 2.0251 70.8051 -0.0195 -25.0770 -0.0047
# 4 0.0003 -0.0059 -0.0195 16.8518 0.0015 -7.4934
# 5 -23.1536 -2.8557 -25.0770 0.0015 33.7740 -0.0009
# 6 0.0020 -0.0019 -0.0047 -7.4934 -0.0009 12.2068
#
#
#
# Elastic Compliance Matrix: (Units=1/GPa)
#
#
# Indices 1 2 3 4 5 6 
#
# 1 0.023766 -0.007708 -0.013454 -0.000032 0.005651 -0.000030
# 2 -0.007708 0.016435 0.004389 0.000018 -0.000636 0.000017
# 3 -0.013454 0.004389 0.026779 0.000052 0.011031 0.000046
# 4 -0.000032 0.000018 0.000052 0.081621 0.000016 0.050105
# 5 0.005651 -0.000636 0.011031 0.000016 0.041619 0.000016
# 6 -0.000030 0.000017 0.000046 0.050105 0.000016 0.112680
#
#
# Mechanical properties :
#
#
# Convention : Reuss Voigt Hill
#
# Bulk Modulus (GPa) = 29.91014 41.42355 35.66684
# Shear Modulus (GPa) = 14.38477 22.63921 18.51199
#
# Velocity S-wave (km/s) = 2.75140 3.45170 3.12126
# Velocity P-wave (km/s) = 5.08275 6.13885 5.63559
#
# Compressibility (1/GPa) = 0.03343348
#
# Stress axis : x y z
#
# Youngs Moduli (GPa) = 42.07748 60.84610 37.34280
#
# Poissons Ratio (x) = 0.46900 0.50241
# Poissons Ratio (y) = 0.32433 -0.16390
# Poissons Ratio (z) = 0.56611 -0.26706
#
# Static dielectric constant tensor:
#      x y z
#    x 3.517940 0.000000 -0.648470 
#    y 0.000000 3.165000 0.000010 
#    z -0.648470 0.000010 3.798050 
# 
# 
# High freq. dielectric constant tensor:
#      x y z
#    x 1.729400 0.000000 -0.046670 
#    y 0.000000 1.686510 0.000000 
#    z -0.046670 0.000000 1.747580 
# 
# From -- ./inp_files/190430.got.cif
#   From: 2010.06.25/outbox.cif.g09.slc.cpg/sg12_96_cif.got.tgz:190430.got - 2010.06.28 00:19:55.
