data_PCOD8092865
_publ_section_title
;
Structure prediction by ZEFSAII (Michael W. Deem and Ramdas Pophale) SiO2 
 PCOD8092865
Probable space group: C 2/M
;
_chemical_formula_sum "Si O2"
_cell_formula_units_Z 40
_cell_length_a 12.672519
_cell_length_b 31.550240
_cell_length_c 4.980997
_cell_angle_alpha 90.000000
_cell_angle_beta 102.065192
_cell_angle_gamma 90.000000
_cell_volume 1947.515686
_symmetry_space_group_name_H-M "C 2/M"
_symmetry_group_IT_number 12
_symmetry_cell_setting 'monoclinic'
loop_
_space_group_symop_operation_xyz
x,y,z
-x,y,-z
-x,-y,-z
x,-y,z
1/2+x,1/2+y,z
1/2-x,1/2+y,-z
1/2-x,1/2-y,-z
1/2+x,1/2-y,z
loop_
_atom_site_type_symbol
_atom_site_label
_atom_site_fract_x
_atom_site_fract_y
_atom_site_fract_z
Si Si1 0.882585 0.451687 0.433756
Si Si2 0.753447 0.951626 0.153473
Si Si3 0.611877 0.245749 0.186985
Si Si4 0.571553 0.615431 0.781366
Si Si5 0.326261 0.703160 0.284045
O O1 0.897465 0.500000 0.540767
O O2 0.796166 0.432086 0.597566
O O3 0.000000 0.428904 0.500000
O O4 0.841242 0.448633 0.111726
O O5 0.851376 0.923235 0.098452
O O6 0.795108 0.000000 0.208961
O O7 0.599468 0.271108 0.461843
O O8 0.698009 0.207800 0.282919
O O9 0.500000 0.227822 0.000000
O O10 0.658549 0.279750 0.006126
O O11 0.500000 0.598293 0.500000
O O12 0.640618 0.654441 0.701675
O O13 0.500000 0.628838 0.000000
#
# Coordination Sequence:
#
# PCOD8092865 Si02
#       5
#     8   8   8   8   8
#     4   9  17  33  57  81 106 139 181 230 284 340
#     4  10  21  36  55  82 113 147 193 238 277 330
#     4  10  19  35  58  82 110 140 174 222 277 332
#     4  12  24  38  57  79 111 152 194 238 282 330
#     4  10  21  35  56  83 108 141 183 221 269 336
#
# _framework density 20.538986000000001
#
# number of rings (size 3 to 8) (size 9 to 14) (size 15 to 20)
#    0.000    1.800    0.000    5.400    0.000    3.200 
#    0.000    2.000    0.000    0.000    0.000    0.000 
#    0.000    0.000    0.000    0.000    0.000    0.000 
#
# Total GULP energy -247946.159382 kJ/mol
# GULP energy per Si atom -12397.307969 kJ/mol
# Density = 2.049224 g / cm^3
# Si number density = 20.538986 Si / 1000 Ang^3
#
#
#
# Elastic Constant Matrix: (Units=GPa)
#
#
# Indices 1 2 3 4 5 6 
#
# 1 115.5655 53.3328 27.7815 0.0000 12.8851 0.0000
# 2 53.3328 75.5924 19.1664 0.0000 0.9067 0.0000
# 3 27.7815 19.1664 96.3425 0.0000 2.8359 0.0000
# 4 0.0000 0.0000 0.0000 19.4652 0.0000 -2.3021
# 5 12.8851 0.9067 2.8359 0.0000 39.0272 0.0000
# 6 0.0000 0.0000 0.0000 -2.3021 0.0000 20.9578
#
#
#
# Elastic Compliance Matrix: (Units=1/GPa)
#
#
# Indices 1 2 3 4 5 6 
#
# 1 0.013867 -0.009215 -0.002041 0.000000 -0.004216 0.000000
# 2 -0.009215 0.020056 -0.001412 0.000000 0.002679 0.000000
# 3 -0.002041 -0.001412 0.011252 0.000000 -0.000111 0.000000
# 4 0.000000 0.000000 0.000000 0.052050 0.000000 0.005717
# 5 -0.004216 0.002679 -0.000111 0.000000 0.026961 0.000000
# 6 0.000000 0.000000 0.000000 0.005717 0.000000 0.048343
#
#
# Mechanical properties :
#
#
# Convention : Reuss Voigt Hill
#
# Bulk Modulus (GPa) = 50.40525 54.22910 52.31717
# Shear Modulus (GPa) = 24.45253 28.37136 26.41195
#
# Velocity S-wave (km/s) = 3.45417 3.72067 3.58989
# Velocity P-wave (km/s) = 6.36419 6.70210 6.53533
#
# Compressibility (1/GPa) = 0.01983920
#
# Stress axis : x y z
#
# Youngs Moduli (GPa) = 72.11573 49.85991 88.87053
#
# Poissons Ratio (x) = 0.45947 0.18141
# Poissons Ratio (y) = 0.66456 0.12544
# Poissons Ratio (z) = 0.14721 0.07038
#
# Static dielectric constant tensor:
#      x y z
#    x 3.962290 0.000000 0.014280 
#    y 0.000000 3.283650 0.000000 
#    z 0.014280 0.000000 3.797140 
# 
# 
# High freq. dielectric constant tensor:
#      x y z
#    x 1.811310 0.000000 0.000020 
#    y 0.000000 1.753480 0.000000 
#    z 0.000020 0.000000 1.824110 
# 
# From -- ./inp_files/8183.got.cif
#   From: 2010.06.25/outbox.cif.g09.slc.cpg/sg12_5_cif.got.tgz:8183.got - 2010.06.28 00:19:55.
