data_PCOD8092465
_publ_section_title
;
Structure prediction by ZEFSAII (Michael W. Deem and Ramdas Pophale) SiO2 
 PCOD8092465
Probable space group: C 2/M
;
_chemical_formula_sum "Si O2"
_cell_formula_units_Z 56
_cell_length_a 21.500884
_cell_length_b 8.804276
_cell_length_c 16.474192
_cell_angle_alpha 90.000000
_cell_angle_beta 59.671010
_cell_angle_gamma 90.000000
_cell_volume 2691.754288
_symmetry_space_group_name_H-M "C 2/M"
_symmetry_group_IT_number 12
_symmetry_cell_setting 'monoclinic'
loop_
_space_group_symop_operation_xyz
x,y,z
-x,y,-z
-x,-y,-z
x,-y,z
1/2+x,1/2+y,z
1/2-x,1/2+y,-z
1/2-x,1/2-y,-z
1/2+x,1/2-y,z
loop_
_atom_site_type_symbol
_atom_site_label
_atom_site_fract_x
_atom_site_fract_y
_atom_site_fract_z
Si Si1 0.838797 0.669881 0.613448
Si Si2 0.216142 0.318700 0.102141
Si Si3 0.050549 0.678576 0.221372
Si Si4 0.201258 0.174207 0.795556
Si Si5 0.580533 0.319211 0.762415
Si Si6 0.538403 0.676047 0.393565
Si Si7 0.172911 0.324757 0.560795
O O1 0.858486 0.500000 0.632252
O O2 0.753572 0.695977 0.683113
O O3 0.877414 0.792221 0.645584
O O4 0.862716 0.688453 0.504824
O O5 0.218220 0.500000 0.098573
O O6 0.132908 0.263614 0.161401
O O7 0.263010 0.251831 0.147234
O O8 0.250000 0.250000 0.000000
O O9 0.044833 0.500000 0.216821
O O10 0.014722 0.731317 0.329844
O O11 0.000713 0.752121 0.183352
O O12 0.123948 0.238857 0.814953
O O13 0.190003 0.000000 0.825013
O O14 0.577240 0.500000 0.763288
O O15 0.622210 0.264573 0.655157
O O16 0.500000 0.738525 0.500000
O O17 0.522467 0.500000 0.388741
O O18 0.180676 0.500000 0.582830
O O19 0.250000 0.250000 0.500000
#
# Coordination Sequence:
#
# PCOD8092465 Si02
#       7
#     8   8   8   8   8   8   8
#     4  10  19  35  55  77 111 158 206 248 296 353
#     4  10  22  43  70  94 118 151 199 254 311 375
#     4  11  23  41  63  89 124 164 202 248 309 374
#     4   9  18  38  62  85 115 156 197 240 297 362
#     4  11  22  38  60  87 124 164 206 254 300 357
#     4  11  23  36  53  83 121 160 205 256 301 348
#     4  11  21  33  52  81 120 167 214 255 300 356
#
# _framework density 20.804276000000002
#
# number of rings (size 3 to 8) (size 9 to 14) (size 15 to 20)
#    0.000    1.571    2.857    2.571    0.000    5.714 
#    0.000    2.143    0.000    4.286    0.000    0.000 
#    0.000    0.000    0.000    0.000    0.000    0.000 
#
# Total GULP energy -347020.927865 kJ/mol
# GULP energy per Si atom -12393.604567 kJ/mol
# Density = 2.075692 g / cm^3
# Si number density = 20.804276 Si / 1000 Ang^3
#
#
#
# Elastic Constant Matrix: (Units=GPa)
#
#
# Indices 1 2 3 4 5 6 
#
# 1 184.9042 38.4508 54.7697 0.0000 6.0650 0.0000
# 2 38.4508 56.3585 20.6649 0.0000 -0.2320 0.0001
# 3 54.7697 20.6649 92.3041 0.0000 7.5160 0.0000
# 4 0.0000 0.0000 0.0000 28.4061 0.0000 -1.7290
# 5 6.0650 -0.2320 7.5160 0.0000 21.1713 0.0000
# 6 0.0000 0.0001 0.0000 -1.7290 0.0000 34.4151
#
#
#
# Elastic Compliance Matrix: (Units=1/GPa)
#
#
# Indices 1 2 3 4 5 6 
#
# 1 0.007203 -0.003680 -0.003377 0.000000 -0.000905 0.000000
# 2 -0.003680 0.021277 -0.002765 0.000000 0.002269 0.000000
# 3 -0.003377 -0.002765 0.013778 0.000000 -0.003954 0.000000
# 4 0.000000 0.000000 0.000000 0.035312 0.000000 0.001774
# 5 -0.000905 0.002269 -0.003954 0.000000 0.048922 0.000000
# 6 0.000000 0.000000 0.000000 0.001774 0.000000 0.029146
#
#
# Mechanical properties :
#
#
# Convention : Reuss Voigt Hill
#
# Bulk Modulus (GPa) = 44.21605 62.37085 53.29345
# Shear Modulus (GPa) = 27.34931 31.44393 29.39662
#
# Velocity S-wave (km/s) = 3.62968 3.89191 3.76308
# Velocity P-wave (km/s) = 6.23422 7.08808 6.67482
#
# Compressibility (1/GPa) = 0.02261622
#
# Stress axis : x y z
#
# Youngs Moduli (GPa) = 138.82437 46.99825 72.57830
#
# Poissons Ratio (x) = 0.17296 0.24507
# Poissons Ratio (y) = 0.51089 0.20065
# Poissons Ratio (z) = 0.46875 0.12993
#
# Static dielectric constant tensor:
#      x y z
#    x 4.216840 0.000000 0.111600 
#    y 0.000000 3.549070 0.000000 
#    z 0.111600 0.000000 3.581450 
# 
# 
# High freq. dielectric constant tensor:
#      x y z
#    x 1.836830 0.000000 0.002700 
#    y 0.000000 1.793930 0.000000 
#    z 0.002700 0.000000 1.782980 
# 
# From -- ./inp_files/280867.got.cif
#   From: 2010.06.25/outbox.cif.g09.slc.cpg/sg12_141_cif.got.tgz:280867.got - 2010.06.28 00:19:55.
