data_PCOD8092679
_publ_section_title
;
Structure prediction by ZEFSAII (Michael W. Deem and Ramdas Pophale) SiO2 
 PCOD8092679
Probable space group: C 2/M
;
_chemical_formula_sum "Si O2"
_cell_formula_units_Z 56
_cell_length_a 21.087941
_cell_length_b 9.370219
_cell_length_c 19.282878
_cell_angle_alpha 90.000000
_cell_angle_beta 53.079278
_cell_angle_gamma 90.000000
_cell_volume 3046.187005
_symmetry_space_group_name_H-M "C 2/M"
_symmetry_group_IT_number 12
_symmetry_cell_setting 'monoclinic'
loop_
_space_group_symop_operation_xyz
x,y,z
-x,y,-z
-x,-y,-z
x,-y,z
1/2+x,1/2+y,z
1/2-x,1/2+y,-z
1/2-x,1/2-y,-z
1/2+x,1/2-y,z
loop_
_atom_site_type_symbol
_atom_site_label
_atom_site_fract_x
_atom_site_fract_y
_atom_site_fract_z
Si Si1 0.326342 0.335432 0.534270
Si Si2 0.147522 0.660756 0.611672
Si Si3 0.546721 0.332654 0.037951
Si Si4 0.585376 0.832024 0.412090
Si Si5 0.273517 0.333017 0.053970
Si Si6 0.999208 0.665119 0.799938
Si Si7 0.120855 0.332655 0.235275
O O1 0.351001 0.500000 0.523615
O O2 0.233122 0.312570 0.587516
O O3 0.371402 0.267278 0.438877
O O4 0.348718 0.252377 0.588733
O O5 0.139006 0.500000 0.587685
O O6 0.086757 0.688010 0.713159
O O7 0.537281 0.500000 0.056187
O O8 0.503757 0.252808 0.128101
O O9 0.500000 0.283810 0.000000
O O10 0.639738 0.289148 0.974722
O O11 0.500000 0.794019 0.500000
O O12 0.594736 0.772918 0.327452
O O13 0.602921 0.000000 0.405206
O O14 0.269256 0.500000 0.038598
O O15 0.211662 0.294396 0.156140
O O16 0.250000 0.250000 0.000000
O O17 0.980527 0.500000 0.828109
O O18 0.936115 0.730639 0.786853
O O19 0.106140 0.500000 0.247212
#
# Coordination Sequence:
#
# PCOD8092679 Si02
#       7
#     8   8   8   8   8   8   8
#     4  10  20  34  52  78 110 142 178 223 273 321
#     4   9  19  35  55  77 105 143 182 220 268 330
#     4  10  22  37  53  79 115 147 175 222 286 340
#     4  10  20  35  55  78 108 145 184 224 270 326
#     4  10  19  35  57  79 107 142 185 230 272 326
#     4  10  19  35  58  80 103 136 184 230 267 322
#     4   9  18  32  54  80 102 137 186 228 268 321
#
# _framework density 18.383638999999999
#
# number of rings (size 3 to 8) (size 9 to 14) (size 15 to 20)
#    0.000    2.286    1.429    1.286    0.000    5.143 
#    0.000    2.857    0.000    0.000    0.000    0.000 
#    0.000    0.000    0.000    0.000    0.000    0.000 
#
# Total GULP energy -347216.178148 kJ/mol
# GULP energy per Si atom -12400.577791 kJ/mol
# Density = 1.834180 g / cm^3
# Si number density = 18.383639 Si / 1000 Ang^3
#
#
#
# Elastic Constant Matrix: (Units=GPa)
#
#
# Indices 1 2 3 4 5 6 
#
# 1 117.9929 45.8393 73.4749 0.0000 14.4430 0.0000
# 2 45.8393 50.5553 46.5338 0.0000 8.8141 0.0001
# 3 73.4749 46.5338 147.2574 0.0000 12.6939 0.0000
# 4 0.0000 0.0000 0.0000 28.3155 0.0000 5.5849
# 5 14.4430 8.8141 12.6939 0.0000 33.9607 0.0000
# 6 0.0000 0.0001 0.0000 5.5849 0.0000 29.1269
#
#
#
# Elastic Compliance Matrix: (Units=1/GPa)
#
#
# Indices 1 2 3 4 5 6 
#
# 1 0.015092 -0.009204 -0.004417 0.000000 -0.002379 0.000000
# 2 -0.009204 0.034064 -0.005938 0.000000 -0.002707 0.000000
# 3 -0.004417 -0.005938 0.010929 0.000000 -0.000665 0.000000
# 4 0.000000 0.000000 0.000000 0.036704 0.000000 -0.007038
# 5 -0.002379 -0.002707 -0.000665 0.000000 0.031409 0.000000
# 6 0.000000 0.000000 0.000000 -0.007038 0.000000 0.035682
#
#
# Mechanical properties :
#
#
# Convention : Reuss Voigt Hill
#
# Bulk Modulus (GPa) = 47.69679 71.94461 59.82070
# Shear Modulus (GPa) = 23.81092 28.27781 26.04437
#
# Velocity S-wave (km/s) = 3.60283 3.92625 3.76801
# Velocity P-wave (km/s) = 6.58093 7.73137 7.17923
#
# Compressibility (1/GPa) = 0.02096577
#
# Stress axis : x y z
#
# Youngs Moduli (GPa) = 66.25832 29.35653 91.50360
#
# Poissons Ratio (x) = 0.27021 0.40415
# Poissons Ratio (y) = 0.60986 0.54339
# Poissons Ratio (z) = 0.29265 0.17433
#
# Static dielectric constant tensor:
#      x y z
#    x 3.510770 0.000000 -0.056700 
#    y 0.000000 3.254560 0.000000 
#    z -0.056700 0.000000 3.473850 
# 
# 
# High freq. dielectric constant tensor:
#      x y z
#    x 1.718730 0.000000 -0.005180 
#    y 0.000000 1.694040 0.000000 
#    z -0.005180 0.000000 1.718130 
# 
# From -- ./inp_files/280857.got.cif
#   From: 2010.06.25/outbox.cif.g09.slc.cpg/sg12_141_cif.got.tgz:280857.got - 2010.06.28 00:19:55.
