data_PCOD8092384
_publ_section_title
;
Structure prediction by ZEFSAII (Michael W. Deem and Ramdas Pophale) SiO2 
 PCOD8092384
Probable space group: C 2/M
;
_chemical_formula_sum "Si O2"
_cell_formula_units_Z 36
_cell_length_a 13.594019
_cell_length_b 13.151818
_cell_length_c 11.279187
_cell_angle_alpha 90.000000
_cell_angle_beta 95.997344
_cell_angle_gamma 90.000000
_cell_volume 2005.524281
_symmetry_space_group_name_H-M "C 2/M"
_symmetry_group_IT_number 12
_symmetry_cell_setting 'monoclinic'
loop_
_space_group_symop_operation_xyz
x,y,z
-x,y,-z
-x,-y,-z
x,-y,z
1/2+x,1/2+y,z
1/2-x,1/2+y,-z
1/2-x,1/2-y,-z
1/2+x,1/2-y,z
loop_
_atom_site_type_symbol
_atom_site_label
_atom_site_fract_x
_atom_site_fract_y
_atom_site_fract_z
Si Si1 0.218451 0.390191 0.215290
Si Si2 0.104066 0.000000 0.364443
Si Si3 0.175467 0.383772 0.945158
Si Si4 0.150968 0.179804 0.200130
Si Si5 0.500000 0.253047 0.000000
Si Si6 0.627227 0.500000 0.636619
O O1 0.161979 0.500000 0.227242
O O2 0.156378 0.294228 0.256596
O O3 0.324169 0.399364 0.296093
O O4 0.234723 0.373211 0.076668
O O5 0.139714 0.100849 0.303779
O O6 0.151594 0.000000 0.500343
O O7 0.987190 0.000000 0.353726
O O8 0.147345 0.500000 0.913793
O O9 0.245938 0.341462 0.852076
O O10 0.075018 0.318703 0.936525
O O11 0.058468 0.173657 0.098262
#
# Coordination Sequence:
#
# PCOD8092384 Si02
#       6
#     8   4   8   8   4   4
#     4   8  18  36  59  73 108 145 178 217 272 330
#     4  11  24  36  55  86 104 143 193 234 270 317
#     4  10  19  35  53  88 111 145 181 218 277 337
#     4  11  22  34  56  87 113 140 185 224 277 325
#     4  10  21  31  56  82 120 150 170 214 276 340
#     4   9  22  41  58  75 103 151 194 223 281 315
#
# _framework density 17.950417999999999
#
# number of rings (size 3 to 8) (size 9 to 14) (size 15 to 20)
#    0.667    1.556    1.111    3.000    6.222    2.222 
#    0.000    0.000    0.000    0.000    0.000    7.778 
#    0.000    0.000    0.000    0.000    0.000    0.000 
#
# Total GULP energy -223049.222221 kJ/mol
# GULP energy per Si atom -12391.623457 kJ/mol
# Density = 1.790956 g / cm^3
# Si number density = 17.950418 Si / 1000 Ang^3
#
#
#
# Elastic Constant Matrix: (Units=GPa)
#
#
# Indices 1 2 3 4 5 6 
#
# 1 75.7197 9.9262 40.8041 0.0000 -8.0595 0.0000
# 2 9.9262 104.9159 39.1287 0.0000 -15.6564 0.0000
# 3 40.8041 39.1287 76.8804 0.0000 -10.7327 0.0000
# 4 0.0000 0.0000 0.0000 20.7631 0.0000 5.8297
# 5 -8.0595 -15.6564 -10.7327 0.0000 22.2933 0.0000
# 6 0.0000 0.0000 0.0000 5.8297 0.0000 27.6148
#
#
#
# Elastic Compliance Matrix: (Units=1/GPa)
#
#
# Indices 1 2 3 4 5 6 
#
# 1 0.019233 0.002885 -0.011173 0.000000 0.003600 0.000000
# 2 0.002885 0.012932 -0.007182 0.000000 0.006667 0.000000
# 3 -0.011173 -0.007182 0.022861 0.000000 0.001923 0.000000
# 4 0.000000 0.000000 0.000000 0.051197 0.000000 -0.010808
# 5 0.003600 0.006667 0.001923 0.000000 0.051766 0.000000
# 6 0.000000 0.000000 0.000000 -0.010808 0.000000 0.038494
#
#
# Mechanical properties :
#
#
# Convention : Reuss Voigt Hill
#
# Bulk Modulus (GPa) = 41.52057 48.58156 45.05107
# Shear Modulus (GPa) = 21.23567 25.31137 23.27352
#
# Velocity S-wave (km/s) = 3.44323 3.75917 3.60466
# Velocity P-wave (km/s) = 6.24410 6.77974 6.51742
#
# Compressibility (1/GPa) = 0.02408445
#
# Stress axis : x y z
#
# Youngs Moduli (GPa) = 51.99463 77.32719 43.74208
#
# Poissons Ratio (x) = -0.22307 0.48875
# Poissons Ratio (y) = -0.14999 0.31416
# Poissons Ratio (z) = 0.58096 0.55537
#
# Static dielectric constant tensor:
#      x y z
#    x 3.174740 0.000000 0.098680 
#    y 0.000000 3.674350 0.000000 
#    z 0.098680 0.000000 3.159150 
# 
# 
# High freq. dielectric constant tensor:
#      x y z
#    x 1.682860 0.000000 0.007620 
#    y 0.000000 1.709580 0.000000 
#    z 0.007620 0.000000 1.664060 
# 
# From -- ./inp_files/128586.got.cif
#   From: 2010.06.25/outbox.cif.g09.slc.cpg/sg12_65_cif.got.tgz:128586.got - 2010.06.28 00:19:55.
