data_PCOD8092551
_publ_section_title
;
Structure prediction by ZEFSAII (Michael W. Deem and Ramdas Pophale) SiO2 
 PCOD8092551
Probable space group: C 2/M
;
_chemical_formula_sum "Si O2"
_cell_formula_units_Z 48
_cell_length_a 9.816163
_cell_length_b 15.066605
_cell_length_c 16.536916
_cell_angle_alpha 90.000000
_cell_angle_beta 76.154149
_cell_angle_gamma 90.000000
_cell_volume 2374.681977
_symmetry_space_group_name_H-M "C 2/M"
_symmetry_group_IT_number 12
_symmetry_cell_setting 'monoclinic'
loop_
_space_group_symop_operation_xyz
x,y,z
-x,y,-z
-x,-y,-z
x,-y,z
1/2+x,1/2+y,z
1/2-x,1/2+y,-z
1/2-x,1/2-y,-z
1/2+x,1/2-y,z
loop_
_atom_site_type_symbol
_atom_site_label
_atom_site_fract_x
_atom_site_fract_y
_atom_site_fract_z
Si Si1 0.795259 0.000000 0.874491
Si Si2 0.938588 0.000000 0.695251
Si Si3 0.488773 0.809009 0.168004
Si Si4 0.505311 0.000000 0.823505
Si Si5 0.015799 0.835100 0.407189
Si Si6 0.166981 0.310360 0.638210
Si Si7 0.144763 0.500000 0.646676
Si Si8 0.236810 0.195217 0.083634
O O1 0.660727 0.000000 0.837304
O O2 0.794210 0.090204 0.928424
O O3 0.929336 0.000000 0.794373
O O4 0.785768 0.000000 0.678803
O O5 0.018438 0.912343 0.652482
O O6 0.407268 0.809969 0.264057
O O7 0.379893 0.789692 0.111809
O O8 0.607093 0.733934 0.153667
O O9 0.564062 0.905994 0.140071
O O10 0.511693 0.000000 0.725368
O O11 0.897742 0.760677 0.412779
O O12 0.000000 0.873182 0.500000
O O13 0.168673 0.791769 0.371356
O O14 0.144984 0.407292 0.597455
O O15 0.250000 0.250000 0.000000
#
# Coordination Sequence:
#
# PCOD8092551 Si02
#       8
#     4   4   8   4   8   8   4   8
#     4   9  18  36  56  77 107 147 183 216 266 329
#     4   9  17  34  57  77 101 145 191 222 255 323
#     4  10  19  36  57  79 104 144 189 223 267 330
#     4   7  14  29  54  76  95 129 185 228 247 300
#     4  11  21  34  54  84 112 139 179 232 281 322
#     4  10  19  35  56  77 107 147 184 222 269 331
#     4   7  14  29  51  74  98 135 179 216 259 312
#     4  11  22  36  56  83 112 142 181 234 280 318
#
# _framework density 20.213232999999999
#
# number of rings (size 3 to 8) (size 9 to 14) (size 15 to 20)
#    0.000    2.333    0.000    6.250    0.000    0.667 
#    0.000    6.250    0.000    2.000    0.000    0.000 
#    0.000    0.000    0.000    0.000    0.000    0.000 
#
# Total GULP energy -297361.454554 kJ/mol
# GULP energy per Si atom -12390.060606 kJ/mol
# Density = 2.016723 g / cm^3
# Si number density = 20.213233 Si / 1000 Ang^3
#
#
#
# Elastic Constant Matrix: (Units=GPa)
#
#
# Indices 1 2 3 4 5 6 
#
# 1 49.5516 32.7662 -5.9064 0.0000 -8.0613 0.0000
# 2 32.7662 141.2179 13.5244 0.0000 0.0320 0.0000
# 3 -5.9064 13.5244 65.2633 0.0000 -2.2284 0.0000
# 4 0.0000 0.0000 0.0000 27.7848 0.0000 2.1375
# 5 -8.0613 0.0320 -2.2284 0.0000 23.9710 0.0000
# 6 0.0000 0.0000 0.0000 2.1375 0.0000 25.0226
#
#
#
# Elastic Compliance Matrix: (Units=1/GPa)
#
#
# Indices 1 2 3 4 5 6 
#
# 1 0.026505 -0.006542 0.004072 0.000000 0.009301 0.000000
# 2 -0.006542 0.008840 -0.002507 0.000000 -0.002445 0.000000
# 3 0.004072 -0.002507 0.016309 0.000000 0.002889 0.000000
# 4 0.000000 0.000000 0.000000 0.036229 0.000000 -0.003095
# 5 0.009301 -0.002445 0.002889 0.000000 0.045117 0.000000
# 6 0.000000 0.000000 0.000000 -0.003095 0.000000 0.040228
#
#
# Mechanical properties :
#
#
# Convention : Reuss Voigt Hill
#
# Bulk Modulus (GPa) = 23.98094 37.42236 30.70165
# Shear Modulus (GPa) = 25.36996 29.73223 27.55109
#
# Velocity S-wave (km/s) = 3.54661 3.83943 3.69592
# Velocity P-wave (km/s) = 5.35359 6.18134 5.78230
#
# Compressibility (1/GPa) = 0.04169979
#
# Stress axis : x y z
#
# Youngs Moduli (GPa) = 37.72814 113.12393 61.31466
#
# Poissons Ratio (x) = 0.74006 -0.24968
# Poissons Ratio (y) = 0.24682 0.15374
# Poissons Ratio (z) = -0.15363 0.28365
#
# Static dielectric constant tensor:
#      x y z
#    x 3.349680 0.000000 -0.190270 
#    y 0.000000 4.414250 0.000000 
#    z -0.190270 0.000000 3.500400 
# 
# 
# High freq. dielectric constant tensor:
#      x y z
#    x 1.745720 0.000000 -0.017330 
#    y 0.000000 1.809560 0.000000 
#    z -0.017330 0.000000 1.776730 
# 
# From -- ./inp_files/262149.got.cif
#   From: 2010.06.25/outbox.cif.g09.slc.cpg/sg12_132_cif.got.tgz:262149.got - 2010.06.28 00:19:55.
