data_PCOD8092570
_publ_section_title
;
Structure prediction by ZEFSAII (Michael W. Deem and Ramdas Pophale) SiO2 
 PCOD8092570
Probable space group: C 2/M
;
_chemical_formula_sum "Si O2"
_cell_formula_units_Z 64
_cell_length_a 33.063523
_cell_length_b 8.888070
_cell_length_c 15.313227
_cell_angle_alpha 90.000000
_cell_angle_beta 132.012224
_cell_angle_gamma 90.000000
_cell_volume 3343.592372
_symmetry_space_group_name_H-M "C 2/M"
_symmetry_group_IT_number 12
_symmetry_cell_setting 'monoclinic'
loop_
_space_group_symop_operation_xyz
x,y,z
-x,y,-z
-x,-y,-z
x,-y,z
1/2+x,1/2+y,z
1/2-x,1/2+y,-z
1/2-x,1/2-y,-z
1/2+x,1/2-y,z
loop_
_atom_site_type_symbol
_atom_site_label
_atom_site_fract_x
_atom_site_fract_y
_atom_site_fract_z
Si Si1 0.344654 0.332346 0.191021
Si Si2 0.180037 0.677300 0.666969
Si Si3 0.805794 0.673195 0.604717
Si Si4 0.531396 0.665483 0.629554
Si Si5 0.211546 0.326343 0.225768
Si Si6 0.013973 0.672268 0.770241
Si Si7 0.866638 0.678717 0.042647
Si Si8 0.105830 0.679602 0.401565
O O1 0.319177 0.500000 0.144258
O O2 0.316448 0.249153 0.231489
O O3 0.406556 0.342568 0.308128
O O4 0.339353 0.247372 0.090533
O O5 0.178227 0.500000 0.676632
O O6 0.234953 0.724215 0.696615
O O7 0.129643 0.730167 0.531322
O O8 0.799183 0.500000 0.570226
O O9 0.750000 0.750000 0.500000
O O10 0.818997 0.695597 0.726019
O O11 0.855118 0.741683 0.618725
O O12 0.500000 0.713433 0.500000
O O13 0.513371 0.500000 0.640261
O O14 0.519179 0.803987 0.674774
O O15 0.228431 0.500000 0.235962
O O16 0.170057 0.271882 0.091378
O O17 0.012097 0.500000 0.794699
O O18 0.954999 0.746141 0.708603
O O19 0.071531 0.741749 0.889270
O O20 0.869556 0.500000 0.059825
O O21 0.102120 0.500000 0.395280
#
# Coordination Sequence:
#
# PCOD8092570 Si02
#       8
#     8   8   8   8   8   8   8   8
#     4  10  20  33  50  74 104 139 176 215 258 303
#     4  11  21  33  52  78 107 138 173 215 262 310
#     4  10  19  35  56  79 107 135 167 210 260 311
#     4   9  17  29  45  68 100 134 169 211 255 300
#     4  10  21  36  55  77 103 136 174 217 259 304
#     4   9  17  31  51  72  99 135 170 207 250 302
#     4   9  19  36  54  74 102 139 180 213 250 303
#     4   9  18  32  52  80 109 133 165 212 262 310
#
# _framework density 19.141089000000001
#
# number of rings (size 3 to 8) (size 9 to 14) (size 15 to 20)
#    0.000    2.375    1.250    1.500    0.000    1.750 
#    0.000    1.875    0.000    3.750    0.000    0.000 
#    0.000    6.000    0.000    0.000    0.000    0.000 
#
# Total GULP energy -396419.951317 kJ/mol
# GULP energy per Si atom -12388.123479 kJ/mol
# Density = 1.909752 g / cm^3
# Si number density = 19.141089 Si / 1000 Ang^3
#
#
#
# Elastic Constant Matrix: (Units=GPa)
#
#
# Indices 1 2 3 4 5 6 
#
# 1 99.1523 18.8887 27.3694 0.0000 -0.0370 0.0000
# 2 18.8887 36.1045 15.2695 0.0000 -4.8012 0.0000
# 3 27.3694 15.2695 82.4123 0.0000 -10.1485 0.0000
# 4 0.0000 0.0000 0.0000 13.7522 0.0000 0.9179
# 5 -0.0370 -4.8012 -10.1485 0.0000 27.9986 0.0000
# 6 0.0000 0.0000 0.0000 0.9179 0.0000 22.5982
#
#
#
# Elastic Compliance Matrix: (Units=1/GPa)
#
#
# Indices 1 2 3 4 5 6 
#
# 1 0.011970 -0.005151 -0.003274 0.000000 -0.002054 0.000000
# 2 -0.005151 0.032560 -0.003805 0.000000 0.004197 0.000000
# 3 -0.003274 -0.003805 0.014492 0.000000 0.004596 0.000000
# 4 0.000000 0.000000 0.000000 0.072913 0.000000 -0.002962
# 5 -0.002054 0.004197 0.004596 0.000000 0.038099 0.000000
# 6 0.000000 0.000000 0.000000 -0.002962 0.000000 0.044372
#
#
# Mechanical properties :
#
#
# Convention : Reuss Voigt Hill
#
# Bulk Modulus (GPa) = 28.93345 37.85825 33.39585
# Shear Modulus (GPa) = 19.96919 23.27924 21.62421
#
# Velocity S-wave (km/s) = 3.23346 3.49118 3.36479
# Velocity P-wave (km/s) = 5.39343 6.00604 5.70796
#
# Compressibility (1/GPa) = 0.03456207
#
# Stress axis : x y z
#
# Youngs Moduli (GPa) = 83.54482 30.71295 69.00191
#
# Poissons Ratio (x) = 0.15819 0.22590
# Poissons Ratio (y) = 0.43032 0.26257
# Poissons Ratio (z) = 0.27351 0.11687
#
# Static dielectric constant tensor:
#      x y z
#    x 3.694300 0.000000 0.147720 
#    y 0.000000 3.391670 0.000000 
#    z 0.147720 0.000000 3.595960 
# 
# 
# High freq. dielectric constant tensor:
#      x y z
#    x 1.740960 0.000000 0.008280 
#    y 0.000000 1.722110 0.000000 
#    z 0.008280 0.000000 1.743060 
# 
# From -- ./inp_files/243858.got.cif
#   From: 2010.06.25/outbox.cif.g09.slc.cpg/sg12_122_cif.got.tgz:243858.got - 2010.06.28 00:19:55.
