data_PCOD8092239
_publ_section_title
;
Structure prediction by ZEFSAII (Michael W. Deem and Ramdas Pophale) SiO2 
 PCOD8092239
Probable space group: C 2/M
;
_chemical_formula_sum "Si O2"
_cell_formula_units_Z 52
_cell_length_a 12.264658
_cell_length_b 18.397948
_cell_length_c 12.592332
_cell_angle_alpha 90.000000
_cell_angle_beta 68.464109
_cell_angle_gamma 90.000000
_cell_volume 2643.027218
_symmetry_space_group_name_H-M "C 2/M"
_symmetry_group_IT_number 12
_symmetry_cell_setting 'monoclinic'
loop_
_space_group_symop_operation_xyz
x,y,z
-x,y,-z
-x,-y,-z
x,-y,z
1/2+x,1/2+y,z
1/2-x,1/2+y,-z
1/2-x,1/2-y,-z
1/2+x,1/2-y,z
loop_
_atom_site_type_symbol
_atom_site_label
_atom_site_fract_x
_atom_site_fract_y
_atom_site_fract_z
Si Si1 0.037876 0.585388 0.263048
Si Si2 0.311404 0.158350 0.295755
Si Si3 0.500000 0.899441 0.500000
Si Si4 0.344685 0.682879 0.847004
Si Si5 0.248110 0.159019 0.898756
Si Si6 0.883773 0.821150 0.263515
Si Si7 0.247165 0.078605 0.525389
O O1 0.024040 0.500000 0.297753
O O2 0.160576 0.594854 0.159673
O O3 0.929670 0.612273 0.229578
O O4 0.033848 0.636895 0.373393
O O5 0.233056 0.150642 0.219485
O O6 0.340667 0.241521 0.312561
O O7 0.240618 0.125863 0.420609
O O8 0.619546 0.940454 0.488229
O O9 0.324698 0.767896 0.873552
O O10 0.478592 0.669703 0.769175
O O11 0.310643 0.641186 0.967426
O O12 0.145395 0.163874 0.849026
O O13 0.819486 0.879755 0.358385
O O14 0.186591 0.000000 0.528247
#
# Coordination Sequence:
#
# PCOD8092239 Si02
#       7
#     8   8   4   8   8   8   8
#     4  11  20  37  62  91 122 153 203 254 302 349
#     4  10  22  38  58  91 120 159 202 246 303 360
#     4  10  19  34  60  86 118 154 193 250 299 348
#     4  10  22  40  59  84 125 161 200 248 299 361
#     4  10  21  38  62  89 116 158 206 253 298 348
#     4  11  21  38  63  91 118 159 204 251 298 360
#     4  11  22  37  59  88 122 158 197 247 307 359
#
# _framework density 19.674409000000001
#
# number of rings (size 3 to 8) (size 9 to 14) (size 15 to 20)
#    0.000    1.538    3.077    3.692    0.000    1.231 
#    0.000    5.385    0.000    1.846    0.000    0.000 
#    0.000    0.000    0.000    0.000    0.000    0.000 
#
# Total GULP energy -322125.013152 kJ/mol
# GULP energy per Si atom -12389.423583 kJ/mol
# Density = 1.962963 g / cm^3
# Si number density = 19.674409 Si / 1000 Ang^3
#
#
#
# Elastic Constant Matrix: (Units=GPa)
#
#
# Indices 1 2 3 4 5 6 
#
# 1 106.2363 40.8532 54.6674 0.0000 11.2032 0.0000
# 2 40.8532 87.5600 59.8579 0.0000 2.7649 0.0000
# 3 54.6674 59.8579 139.1534 0.0000 10.5190 0.0000
# 4 0.0000 0.0000 0.0000 16.4409 0.0000 -9.2178
# 5 11.2032 2.7649 10.5190 0.0000 28.8223 0.0000
# 6 0.0000 0.0000 0.0000 -9.2178 0.0000 8.5437
#
#
#
# Elastic Compliance Matrix: (Units=1/GPa)
#
#
# Indices 1 2 3 4 5 6 
#
# 1 0.012845 -0.003702 -0.003191 0.000000 -0.003473 0.000000
# 2 -0.003702 0.017274 -0.006129 0.000000 0.002019 0.000000
# 3 -0.003191 -0.006129 0.011249 0.000000 -0.002277 0.000000
# 4 0.000000 0.000000 0.000000 0.153948 0.000000 0.166096
# 5 -0.003473 0.002019 -0.002277 0.000000 0.036683 0.000000
# 6 0.000000 0.000000 0.000000 0.166096 0.000000 0.296247
#
#
# Mechanical properties :
#
#
# Convention : Reuss Voigt Hill
#
# Bulk Modulus (GPa) = 65.25919 71.52296 68.39107
# Shear Modulus (GPa) = 8.93820 22.59945 15.76883
#
# Velocity S-wave (km/s) = 2.13376 3.39288 2.83413
# Velocity P-wave (km/s) = 6.26994 7.19591 6.74882
#
# Compressibility (1/GPa) = 0.01532351
#
# Stress axis : x y z
#
# Youngs Moduli (GPa) = 77.85156 57.89063 88.90030
#
# Poissons Ratio (x) = 0.21430 0.28371
# Poissons Ratio (y) = 0.28819 0.54486
# Poissons Ratio (z) = 0.24845 0.35480
#
# Static dielectric constant tensor:
#      x y z
#    x 3.591680 0.000000 0.060740 
#    y 0.000000 3.318070 0.000000 
#    z 0.060740 0.000000 3.704100 
# 
# 
# High freq. dielectric constant tensor:
#      x y z
#    x 1.768880 0.000000 0.000990 
#    y 0.000000 1.740570 0.000000 
#    z 0.000990 0.000000 1.775000 
# 
# From -- ./inp_files/133074.got.cif
#   From: 2010.06.25/outbox.cif.g09.slc.cpg/sg12_67_cif.got.tgz:133074.got - 2010.06.28 00:19:55.
