data_PCOD8092115
_publ_section_title
;
Structure prediction by ZEFSAII (Michael W. Deem and Ramdas Pophale) SiO2 
 PCOD8092115
Probable space group: C 2/M
;
_chemical_formula_sum "Si O2"
_cell_formula_units_Z 48
_cell_length_a 25.180470
_cell_length_b 8.606646
_cell_length_c 24.111098
_cell_angle_alpha 90.000000
_cell_angle_beta 29.388823
_cell_angle_gamma 90.000000
_cell_volume 2564.252131
_symmetry_space_group_name_H-M "C 2/M"
_symmetry_group_IT_number 12
_symmetry_cell_setting 'monoclinic'
loop_
_space_group_symop_operation_xyz
x,y,z
-x,y,-z
-x,-y,-z
x,-y,z
1/2+x,1/2+y,z
1/2-x,1/2+y,-z
1/2-x,1/2-y,-z
1/2+x,1/2-y,z
loop_
_atom_site_type_symbol
_atom_site_label
_atom_site_fract_x
_atom_site_fract_y
_atom_site_fract_z
Si Si1 0.368640 0.683608 0.882411
Si Si2 0.511242 0.315913 0.118408
Si Si3 0.310252 0.315761 0.126814
Si Si4 0.211586 0.815991 0.728001
Si Si5 0.908990 0.316829 0.729047
Si Si6 0.058846 0.182198 0.502584
O O1 0.359462 0.500000 0.891712
O O2 0.447571 0.743871 0.859541
O O3 0.422135 0.739459 0.776926
O O4 0.250000 0.750000 0.000000
O O5 0.517976 0.500000 0.108791
O O6 0.387701 0.263839 0.220910
O O7 0.588749 0.246916 0.999583
O O8 0.309916 0.500000 0.123985
O O9 0.318546 0.261340 0.182593
O O10 0.199624 0.251339 0.200810
O O11 0.315322 0.722823 0.613268
O O12 0.234580 0.000000 0.704623
O O13 0.904246 0.500000 0.741366
O O14 0.010380 0.271720 0.599109
O O15 0.000000 0.240688 0.500000
O O16 0.041678 0.000000 0.526377
#
# Coordination Sequence:
#
# PCOD8092115 Si02
#       6
#     8   8   8   8   8   8
#     4  11  21  36  57  84 117 152 189 230 277 330
#     4   9  18  33  55  85 116 146 185 230 278 330
#     4   9  16  29  54  86 114 138 176 230 279 327
#     4  10  19  34  59  85 111 147 188 231 278 333
#     4  11  21  36  59  86 111 144 193 236 275 329
#     4  11  23  38  56  81 116 150 183 229 284 338
#
# _framework density 18.718909
#
# number of rings (size 3 to 8) (size 9 to 14) (size 15 to 20)
#    0.000    1.833    3.333    2.000    0.000    2.667 
#    0.000    2.500    0.000    1.000    0.000    0.000 
#    0.000    0.000    0.000    0.000    0.000    0.000 
#
# Total GULP energy -297640.527785 kJ/mol
# GULP energy per Si atom -12401.688658 kJ/mol
# Density = 1.867630 g / cm^3
# Si number density = 18.718909 Si / 1000 Ang^3
#
#
#
# Elastic Constant Matrix: (Units=GPa)
#
#
# Indices 1 2 3 4 5 6 
#
# 1 153.9797 22.6305 72.0424 0.0055 -4.4698 -0.0030
# 2 22.6305 35.8690 15.3180 0.0085 -0.5272 -0.0051
# 3 72.0424 15.3180 124.3341 0.0135 -3.3956 -0.0071
# 4 0.0055 0.0085 0.0135 24.2774 -0.0034 2.5977
# 5 -4.4698 -0.5272 -3.3956 -0.0034 37.2552 0.0016
# 6 -0.0030 -0.0051 -0.0071 2.5977 0.0016 22.0899
#
#
#
# Elastic Compliance Matrix: (Units=1/GPa)
#
#
# Indices 1 2 3 4 5 6 
#
# 1 0.009389 -0.003798 -0.004955 0.000002 0.000621 -0.000002
# 2 -0.003798 0.030964 -0.001618 -0.000010 -0.000165 0.000007
# 3 -0.004955 -0.001618 0.011124 -0.000005 0.000396 0.000003
# 4 0.000002 -0.000010 -0.000005 0.041716 0.000004 -0.004906
# 5 0.000621 -0.000165 0.000396 0.000004 0.026950 -0.000002
# 6 -0.000002 0.000007 0.000003 -0.004906 -0.000002 0.045846
#
#
# Mechanical properties :
#
#
# Convention : Reuss Voigt Hill
#
# Bulk Modulus (GPa) = 32.53782 59.35162 45.94472
# Shear Modulus (GPa) = 25.38342 30.33729 27.86035
#
# Velocity S-wave (km/s) = 3.68643 4.03013 3.86210
# Velocity P-wave (km/s) = 5.96152 7.30969 6.66975
#
# Compressibility (1/GPa) = 0.03073346
#
# Stress axis : x y z
#
# Youngs Moduli (GPa) = 106.50628 32.29509 89.89299
#
# Poissons Ratio (x) = 0.12267 0.44545
# Poissons Ratio (y) = 0.40456 0.14548
# Poissons Ratio (z) = 0.52778 0.05227
#
# Static dielectric constant tensor:
#      x y z
#    x 3.699050 -0.000010 0.002260 
#    y -0.000010 3.133630 0.000010 
#    z 0.002260 0.000010 3.492520 
# 
# 
# High freq. dielectric constant tensor:
#      x y z
#    x 1.730700 0.000000 0.002480 
#    y 0.000000 1.698770 0.000000 
#    z 0.002480 0.000000 1.730140 
# 
# From -- ./inp_files/173040.got.cif
#   From: 2010.06.25/outbox.cif.g09.slc.cpg/sg12_87_cif.got.tgz:173040.got - 2010.06.28 00:19:55.
