data_PCOD8092698
_publ_section_title
;
Structure prediction by ZEFSAII (Michael W. Deem and Ramdas Pophale) SiO2 
 PCOD8092698
Probable space group: C 2/M
;
_chemical_formula_sum "Si O2"
_cell_formula_units_Z 48
_cell_length_a 20.488512
_cell_length_b 9.223897
_cell_length_c 18.987539
_cell_angle_alpha 90.000000
_cell_angle_beta 130.971004
_cell_angle_gamma 90.000000
_cell_volume 2709.345337
_symmetry_space_group_name_H-M "C 2/M"
_symmetry_group_IT_number 12
_symmetry_cell_setting 'monoclinic'
loop_
_space_group_symop_operation_xyz
x,y,z
-x,y,-z
-x,-y,-z
x,-y,z
1/2+x,1/2+y,z
1/2-x,1/2+y,-z
1/2-x,1/2-y,-z
1/2+x,1/2-y,z
loop_
_atom_site_type_symbol
_atom_site_label
_atom_site_fract_x
_atom_site_fract_y
_atom_site_fract_z
Si Si1 0.722519 0.330244 0.763499
Si Si2 0.099941 0.329469 0.578935
Si Si3 0.520709 0.168847 0.934202
Si Si4 0.285816 0.832905 0.959302
Si Si5 0.363343 0.332403 0.775277
Si Si6 0.763178 0.664566 0.438179
O O1 0.724574 0.500000 0.746000
O O2 0.635762 0.257085 0.671734
O O3 0.724322 0.305210 0.848555
O O4 0.807215 0.256471 0.791428
O O5 0.114377 0.500000 0.602727
O O6 0.153275 0.280430 0.547187
O O7 0.000000 0.288956 0.500000
O O8 0.458667 0.263881 0.840351
O O9 0.506506 0.000000 0.907108
O O10 0.500000 0.203730 0.000000
O O11 0.617615 0.221023 0.988302
O O12 0.287507 0.000000 0.980490
O O13 0.250000 0.750000 0.000000
O O14 0.366470 0.500000 0.800798
O O15 0.322754 0.317030 0.669124
O O16 0.778878 0.500000 0.471328
O O17 0.750000 0.750000 0.500000
#
# Coordination Sequence:
#
# PCOD8092698 Si02
#       6
#     8   8   8   8   8   8
#     4  10  19  35  57  80 108 143 182 223 268 319
#     4   9  19  37  58  80 107 138 180 227 267 317
#     4  10  19  36  58  80 108 140 181 224 264 316
#     4  10  22  38  55  78 111 146 178 222 271 318
#     4  10  20  34  55  84 110 139 181 224 267 316
#     4   9  19  35  54  78 108 139 172 216 268 317
#
# _framework density 17.716456999999998
#
# number of rings (size 3 to 8) (size 9 to 14) (size 15 to 20)
#    0.000    2.333    1.667    2.000    0.000    6.000 
#    3.000    0.000    0.000    0.000    0.000    0.000 
#    0.000    0.000    0.000    0.000    0.000    0.000 
#
# Total GULP energy -297619.294202 kJ/mol
# GULP energy per Si atom -12400.803925 kJ/mol
# Density = 1.767613 g / cm^3
# Si number density = 17.716457 Si / 1000 Ang^3
#
#
#
# Elastic Constant Matrix: (Units=GPa)
#
#
# Indices 1 2 3 4 5 6 
#
# 1 121.7425 55.1818 78.6802 0.0000 4.2190 0.0000
# 2 55.1818 84.2654 67.7726 0.0000 0.9137 0.0000
# 3 78.6802 67.7726 122.2882 0.0000 10.4500 0.0000
# 4 0.0000 0.0000 0.0000 37.5164 0.0000 -0.4857
# 5 4.2190 0.9137 10.4500 0.0000 32.8113 0.0000
# 6 0.0000 0.0000 0.0000 -0.4857 0.0000 32.6293
#
#
#
# Elastic Compliance Matrix: (Units=1/GPa)
#
#
# Indices 1 2 3 4 5 6 
#
# 1 0.014663 -0.003571 -0.007507 0.000000 0.000605 0.000000
# 2 -0.003571 0.022628 -0.010514 0.000000 0.003178 0.000000
# 3 -0.007507 -0.010514 0.019251 0.000000 -0.004873 0.000000
# 4 0.000000 0.000000 0.000000 0.026660 0.000000 0.000397
# 5 0.000605 0.003178 -0.004873 0.000000 0.031863 0.000000
# 6 0.000000 0.000000 0.000000 0.000397 0.000000 0.030653
#
#
# Mechanical properties :
#
#
# Convention : Reuss Voigt Hill
#
# Bulk Modulus (GPa) = 74.86613 81.28504 78.07558
# Shear Modulus (GPa) = 25.85909 29.03550 27.44729
#
# Velocity S-wave (km/s) = 3.82463 4.05272 3.94033
# Velocity P-wave (km/s) = 7.86469 8.23894 8.05399
#
# Compressibility (1/GPa) = 0.01335718
#
# Stress axis : x y z
#
# Youngs Moduli (GPa) = 68.19673 44.19332 51.94624
#
# Poissons Ratio (x) = 0.15784 0.38995
# Poissons Ratio (y) = 0.24356 0.54617
# Poissons Ratio (z) = 0.51194 0.46465
#
# Static dielectric constant tensor:
#      x y z
#    x 3.230610 0.000000 0.202820 
#    y 0.000000 3.306260 0.000000 
#    z 0.202820 0.000000 3.454350 
# 
# 
# High freq. dielectric constant tensor:
#      x y z
#    x 1.670780 0.000000 0.007960 
#    y 0.000000 1.688630 0.000000 
#    z 0.007960 0.000000 1.690700 
# 
# From -- ./inp_files/274042.got.cif
#   From: 2010.06.25/outbox.cif.g09.slc.cpg/sg12_138_cif.got.tgz:274042.got - 2010.06.28 00:19:55.
