data_PCOD8092376
_publ_section_title
;
Structure prediction by ZEFSAII (Michael W. Deem and Ramdas Pophale) SiO2 
 PCOD8092376
Probable space group: C 2/M
;
_chemical_formula_sum "Si O2"
_cell_formula_units_Z 48
_cell_length_a 18.418439
_cell_length_b 13.539758
_cell_length_c 23.818563
_cell_angle_alpha 90.000000
_cell_angle_beta 23.737099
_cell_angle_gamma 90.000000
_cell_volume 2391.051612
_symmetry_space_group_name_H-M "C 2/M"
_symmetry_group_IT_number 12
_symmetry_cell_setting 'monoclinic'
loop_
_space_group_symop_operation_xyz
x,y,z
-x,y,-z
-x,-y,-z
x,-y,z
1/2+x,1/2+y,z
1/2-x,1/2+y,-z
1/2-x,1/2-y,-z
1/2+x,1/2-y,z
loop_
_atom_site_type_symbol
_atom_site_label
_atom_site_fract_x
_atom_site_fract_y
_atom_site_fract_z
Si Si1 0.253227 0.612883 0.414244
Si Si2 0.607933 0.611853 0.226963
Si Si3 0.304218 0.191902 0.893275
Si Si4 0.948542 0.754039 0.190188
Si Si5 0.366047 0.888991 0.733359
Si Si6 0.828362 0.297436 0.159551
O O1 0.248128 0.500000 0.396701
O O2 0.394789 0.624107 0.365622
O O3 0.299623 0.681337 0.328096
O O4 0.060715 0.646496 0.573960
O O5 0.670841 0.500000 0.168176
O O6 0.708788 0.692683 0.117226
O O7 0.659028 0.637909 0.255875
O O8 0.451383 0.179022 0.838101
O O9 0.363818 0.118158 0.802352
O O10 0.100746 0.169999 0.058191
O O11 0.859790 0.686848 0.203750
O O12 0.212042 0.819344 0.817245
O O13 0.323399 0.000000 0.744687
O O14 0.000000 0.326420 0.000000
#
# Coordination Sequence:
#
# PCOD8092376 Si02
#       6
#     8   8   8   8   8   8
#     4   9  20  37  59  83 107 144 193 229 268 326
#     4   9  18  35  58  81 107 143 185 230 273 322
#     4   9  19  36  57  80 111 145 189 224 269 325
#     4  10  19  35  53  80 116 140 179 235 270 322
#     4  10  21  38  58  82 112 150 187 222 271 333
#     4  11  21  36  53  83 118 144 182 224 280 332
#
# _framework density 20.074850000000001
#
# number of rings (size 3 to 8) (size 9 to 14) (size 15 to 20)
#    0.000    2.333    3.333    0.000    0.000    8.667 
#    0.000    5.000    0.000    0.000    0.000   17.500 
#    0.000    0.000    0.000    0.000    0.000    0.000 
#
# Total GULP energy -297416.885585 kJ/mol
# GULP energy per Si atom -12392.370233 kJ/mol
# Density = 2.002916 g / cm^3
# Si number density = 20.074850 Si / 1000 Ang^3
#
#
#
# Elastic Constant Matrix: (Units=GPa)
#
#
# Indices 1 2 3 4 5 6 
#
# 1 120.4298 -0.8595 -6.8758 -0.0218 -0.3589 -0.0132
# 2 -0.8595 54.5317 -5.7628 -0.0051 -4.0045 -0.0040
# 3 -6.8758 -5.7628 58.1285 0.0550 17.5727 0.0257
# 4 -0.0218 -0.0051 0.0550 20.7633 0.0106 -5.1949
# 5 -0.3589 -4.0045 17.5727 0.0106 22.9950 0.0047
# 6 -0.0132 -0.0040 0.0257 -5.1949 0.0047 18.1442
#
#
#
# Elastic Compliance Matrix: (Units=1/GPa)
#
#
# Indices 1 2 3 4 5 6 
#
# 1 0.008374 0.000206 0.001249 0.000008 -0.000788 0.000007
# 2 0.000206 0.018637 0.001157 0.000001 0.002364 0.000002
# 3 0.001249 0.001157 0.022626 -0.000061 -0.017070 -0.000044
# 4 0.000008 0.000001 -0.000061 0.051878 0.000020 0.014854
# 5 -0.000788 0.002364 -0.017070 0.000020 0.056932 0.000015
# 6 0.000007 0.000002 -0.000044 0.014854 0.000015 0.059367
#
#
# Mechanical properties :
#
#
# Convention : Reuss Voigt Hill
#
# Bulk Modulus (GPa) = 18.22739 22.89930 20.56335
# Shear Modulus (GPa) = 21.65657 28.81971 25.23814
#
# Velocity S-wave (km/s) = 3.28806 3.79306 3.54955
# Velocity P-wave (km/s) = 4.84918 5.53306 5.20237
#
# Compressibility (1/GPa) = 0.05486249
#
# Stress axis : x y z
#
# Youngs Moduli (GPa) = 119.41665 53.65627 44.19661
#
# Poissons Ratio (x) = -0.01106 -0.05521
# Poissons Ratio (y) = -0.02462 -0.05115
# Poissons Ratio (z) = -0.14917 -0.06209
#
# Static dielectric constant tensor:
#      x y z
#    x 3.912950 0.000000 -0.107830 
#    y 0.000000 3.370060 0.000070 
#    z -0.107830 0.000070 3.556210 
# 
# 
# High freq. dielectric constant tensor:
#      x y z
#    x 1.791690 0.000000 -0.010580 
#    y 0.000000 1.749360 0.000010 
#    z -0.010580 0.000010 1.772690 
# 
# From -- ./inp_files/366369.got.cif
#   From: 2010.06.25/outbox.cif.g09.slc.cpg/sg12_184_cif.got.tgz:366369.got - 2010.06.28 00:19:55.
