data_PCOD8092933
_publ_section_title
;
Structure prediction by ZEFSAII (Michael W. Deem and Ramdas Pophale) SiO2 
 PCOD8092933
Probable space group: C 2/M
;
_chemical_formula_sum "Si O2"
_cell_formula_units_Z 56
_cell_length_a 32.212191
_cell_length_b 13.846049
_cell_length_c 6.872029
_cell_angle_alpha 90.000000
_cell_angle_beta 81.913290
_cell_angle_gamma 90.000000
_cell_volume 3034.527035
_symmetry_space_group_name_H-M "C 2/M"
_symmetry_group_IT_number 12
_symmetry_cell_setting 'monoclinic'
loop_
_space_group_symop_operation_xyz
x,y,z
-x,y,-z
-x,-y,-z
x,-y,z
1/2+x,1/2+y,z
1/2-x,1/2+y,-z
1/2-x,1/2-y,-z
1/2+x,1/2-y,z
loop_
_atom_site_type_symbol
_atom_site_label
_atom_site_fract_x
_atom_site_fract_y
_atom_site_fract_z
Si Si1 0.242012 0.887888 0.348149
Si Si2 0.089541 0.889901 0.305511
Si Si3 0.455196 0.112588 0.617278
Si Si4 0.177792 0.891404 0.056406
Si Si5 0.096458 0.738572 0.616089
Si Si6 0.811685 0.234447 0.323541
Si Si7 0.546694 0.257270 0.040515
O O1 0.219222 0.875339 0.156793
O O2 0.214327 0.843966 0.538942
O O3 0.285927 0.832312 0.304626
O O4 0.250441 0.000000 0.390306
O O5 0.138068 0.875924 0.220974
O O6 0.080568 0.833152 0.510950
O O7 0.060517 0.851496 0.150728
O O8 0.077485 0.000000 0.352096
O O9 0.500000 0.142089 0.500000
O O10 0.419168 0.144467 0.490312
O O11 0.449776 0.162537 0.828923
O O12 0.451106 0.000000 0.657286
O O13 0.177061 0.000000 0.969349
O O14 0.176201 0.813317 0.888392
O O15 0.146618 0.734894 0.590282
O O16 0.077810 0.740468 0.842470
O O17 0.500000 0.275228 0.000000
#
# Coordination Sequence:
#
# PCOD8092933 Si02
#       7
#     8   8   8   8   8   8   8
#     4  10  22  38  56  84 117 149 192 240 290 349
#     4  10  22  37  58  86 118 156 197 243 288 342
#     4  10  22  40  62  88 117 152 195 241 290 345
#     4  10  19  35  58  85 113 147 197 238 281 346
#     4  11  22  38  60  87 120 152 195 243 289 345
#     4  11  21  36  61  84 114 155 191 239 294 344
#     4  11  22  39  61  88 120 154 194 243 289 344
#
# _framework density 18.454277999999999
#
# number of rings (size 3 to 8) (size 9 to 14) (size 15 to 20)
#    0.000    1.571    4.286    0.857    0.000    2.857 
#    0.000    0.714    0.000    0.000    0.000    0.000 
#    0.000    0.000    0.000    0.000    0.000    0.000 
#
# Total GULP energy -347327.983692 kJ/mol
# GULP energy per Si atom -12404.570846 kJ/mol
# Density = 1.841227 g / cm^3
# Si number density = 18.454278 Si / 1000 Ang^3
#
#
#
# Elastic Constant Matrix: (Units=GPa)
#
#
# Indices 1 2 3 4 5 6 
#
# 1 83.0734 50.0902 31.1838 0.0000 17.6966 0.0000
# 2 50.0902 111.1024 45.1429 0.0000 4.7365 0.0000
# 3 31.1838 45.1429 99.9291 0.0000 3.2857 0.0000
# 4 0.0000 0.0000 0.0000 22.3327 0.0000 -1.3632
# 5 17.6966 4.7365 3.2857 0.0000 30.6611 0.0000
# 6 0.0000 0.0000 0.0000 -1.3632 0.0000 27.6399
#
#
#
# Elastic Compliance Matrix: (Units=1/GPa)
#
#
# Indices 1 2 3 4 5 6 
#
# 1 0.019501 -0.007387 -0.002424 0.000000 -0.009854 0.000000
# 2 -0.007387 0.013864 -0.004042 0.000000 0.002555 0.000000
# 3 -0.002424 -0.004042 0.012567 0.000000 0.000677 0.000000
# 4 0.000000 0.000000 0.000000 0.044913 0.000000 0.002215
# 5 -0.009854 0.002555 0.000677 0.000000 0.037835 0.000000
# 6 0.000000 0.000000 0.000000 0.002215 0.000000 0.036289
#
#
# Mechanical properties :
#
#
# Convention : Reuss Voigt Hill
#
# Bulk Modulus (GPa) = 54.86647 60.77096 57.81871
# Shear Modulus (GPa) = 25.15713 27.30595 26.23154
#
# Velocity S-wave (km/s) = 3.69618 3.85080 3.77428
# Velocity P-wave (km/s) = 6.92901 7.26454 7.09876
#
# Compressibility (1/GPa) = 0.01822607
#
# Stress axis : x y z
#
# Youngs Moduli (GPa) = 51.28024 72.12695 79.57051
#
# Poissons Ratio (x) = 0.53277 0.19291
# Poissons Ratio (y) = 0.37879 0.32164
# Poissons Ratio (z) = 0.12433 0.29155
#
# Static dielectric constant tensor:
#      x y z
#    x 3.499540 0.000000 0.081050 
#    y 0.000000 3.370680 0.000000 
#    z 0.081050 0.000000 3.382410 
# 
# 
# High freq. dielectric constant tensor:
#      x y z
#    x 1.721350 0.000000 0.007280 
#    y 0.000000 1.714360 0.000000 
#    z 0.007280 0.000000 1.723890 
# 
# From -- ./inp_files/31514.got.cif
#   From: 2010.06.25/outbox.cif.g09.slc.cpg/sg12_16_cif.got.tgz:31514.got - 2010.06.28 00:19:55.
