data_PCOD8092791
_publ_section_title
;
Structure prediction by ZEFSAII (Michael W. Deem and Ramdas Pophale) SiO2 
 PCOD8092791
Probable space group: C 2/M
;
_chemical_formula_sum "Si O2"
_cell_formula_units_Z 60
_cell_length_a 22.577909
_cell_length_b 17.295158
_cell_length_c 14.498426
_cell_angle_alpha 90.000000
_cell_angle_beta 146.913219
_cell_angle_gamma 90.000000
_cell_volume 3090.644845
_symmetry_space_group_name_H-M "C 2/M"
_symmetry_group_IT_number 12
_symmetry_cell_setting 'monoclinic'
loop_
_space_group_symop_operation_xyz
x,y,z
-x,y,-z
-x,-y,-z
x,-y,z
1/2+x,1/2+y,z
1/2-x,1/2+y,-z
1/2-x,1/2-y,-z
1/2+x,1/2-y,z
loop_
_atom_site_type_symbol
_atom_site_label
_atom_site_fract_x
_atom_site_fract_y
_atom_site_fract_z
Si Si1 0.793217 0.828849 0.020711
Si Si2 0.836899 0.912193 0.603625
Si Si3 0.216515 0.408789 0.266962
Si Si4 0.783409 0.910874 0.736926
Si Si5 0.376918 0.653094 0.322395
Si Si6 0.542066 0.678848 0.925524
Si Si7 0.500000 0.812478 0.000000
Si Si8 0.123500 0.662559 0.661457
O O1 0.844804 0.873397 0.175698
O O2 0.877847 0.804192 0.053367
O O3 0.750000 0.750000 0.000000
O O4 0.691754 0.872763 0.837942
O O5 0.770219 0.877665 0.431300
O O6 0.767922 0.904023 0.607175
O O7 0.950331 0.870979 0.759305
O O8 0.865200 0.000000 0.618154
O O9 0.194069 0.500000 0.239139
O O10 0.294061 0.388666 0.282763
O O11 0.102758 0.365552 0.113676
O O12 0.677645 0.869440 0.639378
O O13 0.791145 0.000000 0.779346
O O14 0.894654 0.867689 0.911102
O O15 0.500000 0.624321 0.500000
O O16 0.369633 0.744813 0.328575
O O17 0.490217 0.757636 0.897355
O O18 0.000000 0.633135 0.500000
#
# Coordination Sequence:
#
# PCOD8092791 Si02
#       8
#     8   8   8   8   8   8   4   8
#     4   9  18  34  55  82 115 146 187 239 295 345
#     4  10  21  38  58  87 120 153 192 241 300 354
#     4  11  25  43  60  84 123 165 205 247 295 362
#     4  10  19  35  57  84 123 154 187 242 301 358
#     4  10  20  39  61  84 113 153 202 256 298 342
#     4  11  20  36  62  93 114 148 195 249 302 354
#     4  12  23  40  61  88 122 162 200 246 303 356
#     4   9  19  35  55  83 118 152 195 244 294 356
#
# _framework density 19.413425
#
# number of rings (size 3 to 8) (size 9 to 14) (size 15 to 20)
#    0.000    1.867    1.333    3.800    0.000    2.133 
#    9.600    3.333    0.000    0.000    0.000    0.000 
#    0.000    0.000    0.000    0.000    0.000    0.000 
#
# Total GULP energy -371874.080788 kJ/mol
# GULP energy per Si atom -12395.802693 kJ/mol
# Density = 1.936924 g / cm^3
# Si number density = 19.413425 Si / 1000 Ang^3
#
#
#
# Elastic Constant Matrix: (Units=GPa)
#
#
# Indices 1 2 3 4 5 6 
#
# 1 117.9482 30.8134 60.0376 0.0000 -0.6705 0.0000
# 2 30.8134 42.9039 17.3788 0.0000 5.1689 0.0000
# 3 60.0376 17.3788 114.1028 0.0000 4.5794 0.0000
# 4 0.0000 0.0000 0.0000 -68.5345 0.0000 72.1557
# 5 -0.6705 5.1689 4.5794 0.0000 42.0832 0.0000
# 6 0.0000 0.0000 0.0000 72.1557 0.0000 -27.0868
#
#
#
# Elastic Compliance Matrix: (Units=1/GPa)
#
#
# Indices 1 2 3 4 5 6 
#
# 1 0.013520 -0.007476 -0.006047 0.000000 0.001792 0.000000
# 2 -0.007476 0.029273 -0.000377 0.000000 -0.003673 0.000000
# 3 -0.006047 -0.000377 0.012058 0.000000 -0.001362 0.000000
# 4 0.000000 0.000000 0.000000 0.008085 0.000000 0.021539
# 5 0.001792 -0.003673 -0.001362 0.000000 0.024390 0.000000
# 6 0.000000 0.000000 0.000000 0.021539 0.000000 0.020458
#
#
# Mechanical properties :
#
#
# Convention : Reuss Voigt Hill
#
# Bulk Modulus (GPa) = 36.96936 54.60160 45.78548
# Shear Modulus (GPa) = 34.57805 0.40739 17.49272
#
# Velocity S-wave (km/s) = 4.22494 0.45859 3.00503
# Velocity P-wave (km/s) = 6.54864 5.33546 5.97293
#
# Compressibility (1/GPa) = 0.02704943
#
# Stress axis : x y z
#
# Youngs Moduli (GPa) = 73.96717 34.16163 82.93383
#
# Poissons Ratio (x) = 0.25540 0.50148
# Poissons Ratio (y) = 0.55299 0.03129
# Poissons Ratio (z) = 0.44726 0.01289
#
# Static dielectric constant tensor:
#      x y z
#    x 3.928820 0.000000 -0.419040 
#    y 0.000000 3.399980 0.000000 
#    z -0.419040 0.000000 4.213440 
# 
# 
# High freq. dielectric constant tensor:
#      x y z
#    x 1.772290 0.000000 -0.000190 
#    y 0.000000 1.736750 0.000000 
#    z -0.000190 0.000000 1.759620 
# 
# From -- ./inp_files/241310.got.cif
#   From: 2010.06.25/outbox.cif.g09.slc.cpg/sg12_121_cif.got.tgz:241310.got - 2010.06.28 00:19:55.
