data_PCOD8092063
_publ_section_title
;
Structure prediction by ZEFSAII (Michael W. Deem and Ramdas Pophale) SiO2 
 PCOD8092063
Probable space group: C 2/M
;
_chemical_formula_sum "Si O2"
_cell_formula_units_Z 48
_cell_length_a 10.472019
_cell_length_b 20.072358
_cell_length_c 14.445692
_cell_angle_alpha 90.000000
_cell_angle_beta 127.517491
_cell_angle_gamma 90.000000
_cell_volume 2408.419070
_symmetry_space_group_name_H-M "C 2/M"
_symmetry_group_IT_number 12
_symmetry_cell_setting 'monoclinic'
loop_
_space_group_symop_operation_xyz
x,y,z
-x,y,-z
-x,-y,-z
x,-y,z
1/2+x,1/2+y,z
1/2-x,1/2+y,-z
1/2-x,1/2-y,-z
1/2+x,1/2-y,z
loop_
_atom_site_type_symbol
_atom_site_label
_atom_site_fract_x
_atom_site_fract_y
_atom_site_fract_z
Si Si1 0.222394 0.649515 0.177438
Si Si2 0.012055 0.237637 0.133518
Si Si3 0.257605 0.850043 0.022979
Si Si4 0.997299 0.577411 0.769845
Si Si5 0.408743 0.839837 0.552070
Si Si6 0.064762 0.196887 0.357113
O O1 0.146775 0.724641 0.132367
O O2 0.118333 0.604023 0.199257
O O3 0.402389 0.653777 0.297386
O O4 0.220611 0.622217 0.072266
O O5 0.098389 0.214108 0.265110
O O6 0.872431 0.288594 0.100772
O O7 0.927610 0.174377 0.044354
O O8 0.315777 0.908970 0.117480
O O9 0.967012 0.500000 0.743064
O O10 0.962405 0.612838 0.658394
O O11 0.500000 0.863770 0.500000
O O12 0.215541 0.846989 0.457501
O O13 0.454059 0.763301 0.590669
#
# Coordination Sequence:
#
# PCOD8092063 Si02
#       6
#     8   8   8   8   8   8
#     4  10  19  34  58  91 120 146 179 245 303 348
#     4   9  15  31  51  84 122 139 176 230 296 349
#     4   9  18  31  54  87 117 147 181 230 297 348
#     4  11  23  40  57  82 119 159 202 230 281 355
#     4  11  23  37  56  84 113 161 193 243 285 334
#     4  10  20  35  58  87 122 141 191 245 304 345
#
# _framework density 19.930087
#
# number of rings (size 3 to 8) (size 9 to 14) (size 15 to 20)
#    0.000    2.000    3.333    3.000    2.333    1.667 
#    3.000    1.667    0.000    1.000    0.000   11.667 
#    0.000    0.000    0.000    0.000    0.000    0.000 
#
# Total GULP energy -297449.382462 kJ/mol
# GULP energy per Si atom -12393.724269 kJ/mol
# Density = 1.988473 g / cm^3
# Si number density = 19.930087 Si / 1000 Ang^3
#
#
#
# Elastic Constant Matrix: (Units=GPa)
#
#
# Indices 1 2 3 4 5 6 
#
# 1 67.8199 35.5447 45.8915 0.0000 -3.5702 0.0000
# 2 35.5447 69.4746 44.2489 0.0000 -7.0039 0.0000
# 3 45.8915 44.2489 144.7770 0.0000 0.8551 0.0000
# 4 0.0000 0.0000 0.0000 10.1704 0.0000 -0.4780
# 5 -3.5702 -7.0039 0.8551 0.0000 28.3165 0.0000
# 6 0.0000 0.0000 0.0000 -0.4780 0.0000 10.5052
#
#
#
# Elastic Compliance Matrix: (Units=1/GPa)
#
#
# Indices 1 2 3 4 5 6 
#
# 1 0.022243 -0.008444 -0.004475 0.000000 0.000851 0.000000
# 2 -0.008444 0.021695 -0.003980 0.000000 0.004422 0.000000
# 3 -0.004475 -0.003980 0.009553 0.000000 -0.001837 0.000000
# 4 0.000000 0.000000 0.000000 0.098536 0.000000 0.004484
# 5 0.000851 0.004422 -0.001837 0.000000 0.036572 0.000000
# 6 0.000000 0.000000 0.000000 0.004484 0.000000 0.095395
#
#
# Mechanical properties :
#
#
# Convention : Reuss Voigt Hill
#
# Bulk Modulus (GPa) = 50.78078 59.27131 55.02605
# Shear Modulus (GPa) = 15.41515 20.22417 17.81966
#
# Velocity S-wave (km/s) = 2.78413 3.18898 2.99341
# Velocity P-wave (km/s) = 5.98915 6.58511 6.29419
#
# Compressibility (1/GPa) = 0.01969249
#
# Stress axis : x y z
#
# Youngs Moduli (GPa) = 44.95705 46.09410 104.67993
#
# Poissons Ratio (x) = 0.38923 0.46843
# Poissons Ratio (y) = 0.37963 0.41664
# Poissons Ratio (z) = 0.20118 0.18346
#
# Static dielectric constant tensor:
#      x y z
#    x 3.628910 0.000000 0.242050 
#    y 0.000000 3.282520 0.000000 
#    z 0.242050 0.000000 4.038520 
# 
# 
# High freq. dielectric constant tensor:
#      x y z
#    x 1.770070 0.000000 0.000900 
#    y 0.000000 1.712680 0.000000 
#    z 0.000900 0.000000 1.807140 
# 
# From -- ./inp_files/207357.got.cif
#   From: 2010.06.25/outbox.cif.g09.slc.cpg/sg12_104_cif.got.tgz:207357.got - 2010.06.28 00:19:55.
