data_PCOD8092985
_publ_section_title
;
Structure prediction by ZEFSAII (Michael W. Deem and Ramdas Pophale) SiO2 
 PCOD8092985
Probable space group: C 2/M
;
_chemical_formula_sum "Si O2"
_cell_formula_units_Z 56
_cell_length_a 19.960346
_cell_length_b 18.851478
_cell_length_c 9.103689
_cell_angle_alpha 90.000000
_cell_angle_beta 56.688109
_cell_angle_gamma 90.000000
_cell_volume 2862.713305
_symmetry_space_group_name_H-M "C 2/M"
_symmetry_group_IT_number 12
_symmetry_cell_setting 'monoclinic'
loop_
_space_group_symop_operation_xyz
x,y,z
-x,y,-z
-x,-y,-z
x,-y,z
1/2+x,1/2+y,z
1/2-x,1/2+y,-z
1/2-x,1/2-y,-z
1/2+x,1/2-y,z
loop_
_atom_site_type_symbol
_atom_site_label
_atom_site_fract_x
_atom_site_fract_y
_atom_site_fract_z
Si Si1 0.078526 0.366315 0.484271
Si Si2 0.172234 0.323842 0.954101
Si Si3 0.981978 0.582439 0.852377
Si Si4 0.251557 0.580817 0.295273
Si Si5 0.773541 0.175728 0.545761
Si Si6 0.682448 0.674223 0.018190
Si Si7 0.910757 0.201189 0.587703
O O1 0.159578 0.408929 0.354087
O O2 0.091884 0.286558 0.410611
O O3 0.000000 0.400431 0.500000
O O4 0.055089 0.375662 0.684486
O O5 0.216487 0.345573 0.750789
O O6 0.226271 0.319788 0.035400
O O7 0.101040 0.377194 0.080476
O O8 0.147385 0.241225 0.967946
O O9 0.975786 0.500000 0.810792
O O10 0.000000 0.588811 0.000000
O O11 0.272156 0.500000 0.290425
O O12 0.265083 0.615520 0.436477
O O13 0.315592 0.609690 0.099326
O O14 0.750000 0.250000 0.500000
O O15 0.865313 0.177255 0.494095
O O16 0.629480 0.662925 0.225268
O O17 0.000000 0.172642 0.500000
#
# Coordination Sequence:
#
# PCOD8092985 Si02
#       7
#     8   8   8   8   8   8   8
#     4  11  21  36  57  88 128 165 199 234 287 365
#     4  10  19  35  59  78 117 165 205 240 281 340
#     4  11  24  36  50  84 130 166 194 229 283 361
#     4  12  24  38  60  91 124 161 202 250 311 366
#     4  11  20  38  62  89 121 160 204 256 300 344
#     4  10  20  38  59  85 111 149 208 258 287 347
#     4  10  21  39  65  92 117 153 207 253 302 359
#
# _framework density 19.561861
#
# number of rings (size 3 to 8) (size 9 to 14) (size 15 to 20)
#    0.000    1.286    2.857    5.571    0.000    4.571 
#    0.000    2.857    0.000    2.571    0.000    0.000 
#    0.000    0.000    0.000    0.000    0.000    0.000 
#
# Total GULP energy -346973.480068 kJ/mol
# GULP energy per Si atom -12391.910002 kJ/mol
# Density = 1.951734 g / cm^3
# Si number density = 19.561861 Si / 1000 Ang^3
#
#
#
# Elastic Constant Matrix: (Units=GPa)
#
#
# Indices 1 2 3 4 5 6 
#
# 1 100.6004 31.7610 24.1441 0.0000 -1.5632 0.0000
# 2 31.7610 107.4090 48.1761 0.0000 2.6042 0.0000
# 3 24.1441 48.1761 106.4385 0.0000 4.7024 0.0000
# 4 0.0000 0.0000 0.0000 24.7078 0.0000 1.5255
# 5 -1.5632 2.6042 4.7024 0.0000 31.4916 0.0000
# 6 0.0000 0.0000 0.0000 1.5255 0.0000 27.2045
#
#
#
# Elastic Compliance Matrix: (Units=1/GPa)
#
#
# Indices 1 2 3 4 5 6 
#
# 1 0.011134 -0.002715 -0.001340 0.000000 0.000977 0.000000
# 2 -0.002715 0.012345 -0.004953 0.000000 -0.000416 0.000000
# 3 -0.001340 -0.004953 0.012005 0.000000 -0.001450 0.000000
# 4 0.000000 0.000000 0.000000 0.040614 0.000000 -0.002277
# 5 0.000977 -0.000416 -0.001450 0.000000 0.032054 0.000000
# 6 0.000000 0.000000 0.000000 -0.002277 0.000000 0.036886
#
#
# Mechanical properties :
#
#
# Convention : Reuss Voigt Hill
#
# Bulk Modulus (GPa) = 57.24896 58.06780 57.65838
# Shear Modulus (GPa) = 29.60735 30.70524 30.15629
#
# Velocity S-wave (km/s) = 3.89462 3.96618 3.93056
# Velocity P-wave (km/s) = 7.03941 7.12199 7.08082
#
# Compressibility (1/GPa) = 0.01746757
#
# Stress axis : x y z
#
# Youngs Moduli (GPa) = 89.81258 81.00557 83.29860
#
# Poissons Ratio (x) = 0.21994 0.11161
# Poissons Ratio (y) = 0.24385 0.41260
# Poissons Ratio (z) = 0.12034 0.40124
#
# Static dielectric constant tensor:
#      x y z
#    x 3.878050 0.000000 0.111840 
#    y 0.000000 3.408320 0.000000 
#    z 0.111840 0.000000 3.892330 
# 
# 
# High freq. dielectric constant tensor:
#      x y z
#    x 1.754930 0.000000 0.011660 
#    y 0.000000 1.733260 0.000000 
#    z 0.011660 0.000000 1.780270 
# 
# From -- ./inp_files/87842.got.cif
#   From: 2010.06.25/outbox.cif.g09.slc.cpg/sg12_44_cif.got.tgz:87842.got - 2010.06.28 00:19:55.
