data_PCOD8092084
_publ_section_title
;
Structure prediction by ZEFSAII (Michael W. Deem and Ramdas Pophale) SiO2 
 PCOD8092084
Probable space group: C 2/M
;
_chemical_formula_sum "Si O2"
_cell_formula_units_Z 56
_cell_length_a 25.205118
_cell_length_b 9.117286
_cell_length_c 13.687522
_cell_angle_alpha 90.000000
_cell_angle_beta 66.946579
_cell_angle_gamma 90.000000
_cell_volume 2894.230550
_symmetry_space_group_name_H-M "C 2/M"
_symmetry_group_IT_number 12
_symmetry_cell_setting 'monoclinic'
loop_
_space_group_symop_operation_xyz
x,y,z
-x,y,-z
-x,-y,-z
x,-y,z
1/2+x,1/2+y,z
1/2-x,1/2+y,-z
1/2-x,1/2-y,-z
1/2+x,1/2-y,z
loop_
_atom_site_type_symbol
_atom_site_label
_atom_site_fract_x
_atom_site_fract_y
_atom_site_fract_z
Si Si1 0.921066 0.827074 0.803180
Si Si2 0.291768 0.328167 0.895954
Si Si3 0.982427 0.174415 0.120448
Si Si4 0.845030 0.672978 0.512931
Si Si5 0.368369 0.830084 0.274421
Si Si6 0.434660 0.665317 0.577405
Si Si7 0.244479 0.829380 0.292760
O O1 0.856406 0.785743 0.882455
O O2 0.931076 0.764432 0.687643
O O3 0.968194 0.760842 0.843299
O O4 0.929560 0.000000 0.794207
O O5 0.280320 0.500000 0.911084
O O6 0.280048 0.274908 0.793688
O O7 0.250000 0.250000 0.000000
O O8 0.920682 0.236637 0.194497
O O9 0.978483 0.000000 0.129061
O O10 0.000000 0.227092 0.000000
O O11 0.840693 0.500000 0.527998
O O12 0.852355 0.719679 0.395312
O O13 0.900727 0.731273 0.528850
O O14 0.786901 0.742620 0.597906
O O15 0.312770 0.798481 0.247046
O O16 0.386181 0.000000 0.259089
O O17 0.500000 0.660066 0.500000
O O18 0.408054 0.500000 0.594951
O O19 0.231507 0.000000 0.319019
#
# Coordination Sequence:
#
# PCOD8092084 Si02
#       7
#     8   8   8   8   8   8   8
#     4   9  18  36  57  82 114 145 185 232 276 330
#     4  10  21  37  59  84 113 146 187 237 282 333
#     4  10  22  39  61  87 113 148 194 240 282 331
#     4  11  22  36  56  87 121 147 184 239 291 335
#     4  10  23  40  58  84 118 153 189 233 285 342
#     4  10  19  34  59  83 110 153 194 227 274 341
#     4  10  21  40  62  83 113 154 194 229 279 347
#
# _framework density 19.348838000000001
#
# number of rings (size 3 to 8) (size 9 to 14) (size 15 to 20)
#    0.000    2.000    1.429    1.714    2.000    4.000 
#    0.000    1.429    0.000    0.000    0.000    0.000 
#    0.000    0.000    0.000    0.000    0.000    0.000 
#
# Total GULP energy -347246.292657 kJ/mol
# GULP energy per Si atom -12401.653309 kJ/mol
# Density = 1.930480 g / cm^3
# Si number density = 19.348838 Si / 1000 Ang^3
#
#
#
# Elastic Constant Matrix: (Units=GPa)
#
#
# Indices 1 2 3 4 5 6 
#
# 1 129.6814 31.4204 46.9308 0.0000 -0.2682 0.0000
# 2 31.4204 43.4484 44.0154 0.0000 -4.8637 0.0000
# 3 46.9308 44.0154 112.2033 0.0000 -9.4435 0.0000
# 4 0.0000 0.0000 0.0000 29.7826 0.0000 -6.8236
# 5 -0.2682 -4.8637 -9.4435 0.0000 35.8945 0.0000
# 6 0.0000 0.0000 0.0000 -6.8236 0.0000 29.6464
#
#
#
# Elastic Compliance Matrix: (Units=1/GPa)
#
#
# Indices 1 2 3 4 5 6 
#
# 1 0.009702 -0.004873 -0.002246 0.000000 -0.001179 0.000000
# 2 -0.004873 0.040698 -0.013771 0.000000 0.001855 0.000000
# 3 -0.002246 -0.013771 0.015437 0.000000 0.002179 0.000000
# 4 0.000000 0.000000 0.000000 0.035446 0.000000 0.008158
# 5 -0.001179 0.001855 0.002179 0.000000 0.028675 0.000000
# 6 0.000000 0.000000 0.000000 0.008158 0.000000 0.035609
#
#
# Mechanical properties :
#
#
# Convention : Reuss Voigt Hill
#
# Bulk Modulus (GPa) = 41.56603 58.89626 50.23114
# Shear Modulus (GPa) = 23.21637 29.92914 26.57276
#
# Velocity S-wave (km/s) = 3.46769 3.93723 3.70990
# Velocity P-wave (km/s) = 6.12881 7.15362 6.66095
#
# Compressibility (1/GPa) = 0.02405810
#
# Stress axis : x y z
#
# Youngs Moduli (GPa) = 103.06964 24.57122 64.77959
#
# Poissons Ratio (x) = 0.11974 0.14547
# Poissons Ratio (y) = 0.50230 0.89205
# Poissons Ratio (z) = 0.23145 0.33836
#
# Static dielectric constant tensor:
#      x y z
#    x 3.741340 0.000000 0.178500 
#    y 0.000000 3.296750 0.000000 
#    z 0.178500 0.000000 3.682200 
# 
# 
# High freq. dielectric constant tensor:
#      x y z
#    x 1.771200 0.000000 0.000120 
#    y 0.000000 1.725540 0.000000 
#    z 0.000120 0.000000 1.762100 
# 
# From -- ./inp_files/180679.got.cif
#   From: 2010.06.25/outbox.cif.g09.slc.cpg/sg12_91_cif.got.tgz:180679.got - 2010.06.28 00:19:55.
