data_PCOD8092430
_publ_section_title
;
Structure prediction by ZEFSAII (Michael W. Deem and Ramdas Pophale) SiO2 
 PCOD8092430
Probable space group: C 2/M
;
_chemical_formula_sum "Si O2"
_cell_formula_units_Z 64
_cell_length_a 25.429497
_cell_length_b 9.517102
_cell_length_c 16.104821
_cell_angle_alpha 90.000000
_cell_angle_beta 111.893647
_cell_angle_gamma 90.000000
_cell_volume 3616.505158
_symmetry_space_group_name_H-M "C 2/M"
_symmetry_group_IT_number 12
_symmetry_cell_setting 'monoclinic'
loop_
_space_group_symop_operation_xyz
x,y,z
-x,y,-z
-x,-y,-z
x,-y,z
1/2+x,1/2+y,z
1/2-x,1/2+y,-z
1/2-x,1/2-y,-z
1/2+x,1/2-y,z
loop_
_atom_site_type_symbol
_atom_site_label
_atom_site_fract_x
_atom_site_fract_y
_atom_site_fract_z
Si Si1 0.302224 0.165615 0.261227
Si Si2 0.674913 0.334782 0.201804
Si Si3 0.707195 0.154466 0.927861
Si Si4 0.917370 0.666529 0.403333
Si Si5 0.376993 0.156405 0.977361
Si Si6 0.477348 0.349251 0.076151
Si Si7 0.966875 0.666432 0.606445
Si Si8 0.574455 0.336628 0.261065
O O1 0.240287 0.206520 0.261956
O O2 0.307157 0.221639 0.169861
O O3 0.355785 0.232051 0.342565
O O4 0.310108 0.000000 0.268229
O O5 0.669198 0.500000 0.177250
O O6 0.656148 0.251118 0.108577
O O7 0.635764 0.296375 0.257709
O O8 0.734425 0.000000 0.929692
O O9 0.750000 0.250000 0.000000
O O10 0.652663 0.143357 0.951939
O O11 0.915521 0.500000 0.401221
O O12 0.932217 0.715887 0.504801
O O13 0.967184 0.712315 0.367996
O O14 0.386075 0.000000 0.944762
O O15 0.435019 0.222043 0.041938
O O16 0.451650 0.500000 0.093709
O O17 0.527852 0.298715 0.165061
O O18 0.500000 0.383613 0.000000
O O19 0.962095 0.500000 0.618288
O O20 0.937750 0.744477 0.665716
O O21 0.573134 0.500000 0.285115
#
# Coordination Sequence:
#
# PCOD8092430 Si02
#       8
#     8   8   8   8   8   8   8   8
#     4   9  17  31  54  76  98 134 179 214 246 300
#     4  10  19  35  55  71  98 145 182 208 251 307
#     4  10  20  32  49  74 103 137 173 214 254 302
#     4   8  16  33  56  82 104 129 169 211 256 316
#     4  11  22  32  47  76 108 134 170 223 267 299
#     4  10  20  36  53  69  99 143 183 211 243 305
#     4   9  18  34  58  81 105 133 162 209 267 312
#     4  10  21  35  52  76 103 134 177 214 248 305
#
# _framework density 17.696642000000001
#
# number of rings (size 3 to 8) (size 9 to 14) (size 15 to 20)
#    0.000    2.375    2.500    1.125    1.750    1.750 
#    0.000    1.875    0.000    2.250    0.000    0.000 
#    0.000    0.000    0.000    0.000    0.000    0.000 
#
# Total GULP energy -396492.306784 kJ/mol
# GULP energy per Si atom -12390.384587 kJ/mol
# Density = 1.765636 g / cm^3
# Si number density = 17.696642 Si / 1000 Ang^3
#
#
#
# Elastic Constant Matrix: (Units=GPa)
#
#
# Indices 1 2 3 4 5 6 
#
# 1 137.3946 45.1049 76.5973 0.0000 9.1801 0.0000
# 2 45.1049 56.7557 34.3472 0.0000 3.0212 0.0000
# 3 76.5973 34.3472 117.7637 0.0000 4.8852 0.0000
# 4 0.0000 0.0000 0.0000 29.4679 0.0000 -3.2766
# 5 9.1801 3.0212 4.8852 0.0000 35.2330 0.0000
# 6 0.0000 0.0000 0.0000 -3.2766 0.0000 21.8144
#
#
#
# Elastic Compliance Matrix: (Units=1/GPa)
#
#
# Indices 1 2 3 4 5 6 
#
# 1 0.013209 -0.006366 -0.006653 0.000000 -0.001973 0.000000
# 2 -0.006366 0.024498 -0.003003 0.000000 -0.000026 0.000000
# 3 -0.006653 -0.003003 0.013691 0.000000 0.000093 0.000000
# 4 0.000000 0.000000 0.000000 0.034512 0.000000 0.005184
# 5 -0.001973 -0.000026 0.000093 0.000000 0.028886 0.000000
# 6 0.000000 0.000000 0.000000 0.005184 0.000000 0.046620
#
#
# Mechanical properties :
#
#
# Convention : Reuss Voigt Hill
#
# Bulk Modulus (GPa) = 51.67189 69.33475 60.50332
# Shear Modulus (GPa) = 25.01113 27.69403 26.35258
#
# Velocity S-wave (km/s) = 3.76350 3.96021 3.86311
# Velocity P-wave (km/s) = 6.93883 7.75730 7.35945
#
# Compressibility (1/GPa) = 0.01935288
#
# Stress axis : x y z
#
# Youngs Moduli (GPa) = 75.70496 40.82033 73.04084
#
# Poissons Ratio (x) = 0.25987 0.48594
# Poissons Ratio (y) = 0.48196 0.21935
# Poissons Ratio (z) = 0.50367 0.12259
#
# Static dielectric constant tensor:
#      x y z
#    x 3.430830 0.000000 0.293750 
#    y 0.000000 3.260010 0.000000 
#    z 0.293750 0.000000 3.114650 
# 
# 
# High freq. dielectric constant tensor:
#      x y z
#    x 1.690540 0.000000 0.001620 
#    y 0.000000 1.660510 0.000000 
#    z 0.001620 0.000000 1.674840 
# 
# From -- ./inp_files/244249.got.cif
#   From: 2010.06.25/outbox.cif.g09.slc.cpg/sg12_123_cif.got.tgz:244249.got - 2010.06.28 00:19:55.
