data_PCOD8092042
_publ_section_title
;
Structure prediction by ZEFSAII (Michael W. Deem and Ramdas Pophale) SiO2 
 PCOD8092042
Probable space group: C 2/M
;
_chemical_formula_sum "Si O2"
_cell_formula_units_Z 40
_cell_length_a 22.167841
_cell_length_b 8.814958
_cell_length_c 15.729539
_cell_angle_alpha 90.000000
_cell_angle_beta 138.682881
_cell_angle_gamma 90.000000
_cell_volume 2029.328388
_symmetry_space_group_name_H-M "C 2/M"
_symmetry_group_IT_number 12
_symmetry_cell_setting 'monoclinic'
loop_
_space_group_symop_operation_xyz
x,y,z
-x,y,-z
-x,-y,-z
x,-y,z
1/2+x,1/2+y,z
1/2-x,1/2+y,-z
1/2-x,1/2-y,-z
1/2+x,1/2-y,z
loop_
_atom_site_type_symbol
_atom_site_label
_atom_site_fract_x
_atom_site_fract_y
_atom_site_fract_z
Si Si1 0.824580 0.172482 0.667846
Si Si2 0.172763 0.677804 0.975617
Si Si3 0.653998 0.678786 0.547912
Si Si4 0.471215 0.178547 0.707185
Si Si5 0.224531 0.169885 0.200705
O O1 0.729148 0.268490 0.555034
O O2 0.911634 0.253459 0.720425
O O3 0.843306 0.167592 0.789822
O O4 0.813354 0.000000 0.620849
O O5 0.187304 0.500000 0.993052
O O6 0.075700 0.722818 0.833385
O O7 0.250000 0.750000 0.000000
O O8 0.177168 0.737873 0.075984
O O9 0.649086 0.500000 0.550732
O O10 0.557773 0.745644 0.413350
O O11 0.680614 0.749632 0.667846
O O12 0.455818 0.000000 0.686425
O O13 0.247759 0.000000 0.193755
#
# Coordination Sequence:
#
# PCOD8092042 Si02
#       5
#     8   8   8   8   8
#     4   9  19  34  57  88 121 154 185 228 283 340
#     4  11  25  43  62  82 111 151 195 242 288 336
#     4  10  19  34  58  88 121 153 187 230 281 341
#     4  11  22  36  57  87 119 153 191 233 283 338
#     4   9  20  38  60  85 118 152 187 233 286 339
#
# _framework density 19.710954999999998
#
# number of rings (size 3 to 8) (size 9 to 14) (size 15 to 20)
#    1.200    0.800    0.000    4.200    0.000    4.000 
#    0.000    5.000    0.000    6.000    0.000    0.000 
#    0.000    0.000    0.000    0.000    0.000    0.000 
#
# Total GULP energy -247907.962404 kJ/mol
# GULP energy per Si atom -12395.398120 kJ/mol
# Density = 1.966609 g / cm^3
# Si number density = 19.710955 Si / 1000 Ang^3
#
#
#
# Elastic Constant Matrix: (Units=GPa)
#
#
# Indices 1 2 3 4 5 6 
#
# 1 35.2844 37.4213 25.7860 0.0000 19.1132 0.0000
# 2 37.4213 137.2415 99.2128 0.0000 16.2715 0.0000
# 3 25.7860 99.2128 124.6557 0.0000 17.1986 0.0000
# 4 0.0000 0.0000 0.0000 38.0580 0.0000 -2.9168
# 5 19.1132 16.2715 17.1986 0.0000 20.9189 0.0000
# 6 0.0000 0.0000 0.0000 -2.9168 0.0000 28.8707
#
#
#
# Elastic Compliance Matrix: (Units=1/GPa)
#
#
# Indices 1 2 3 4 5 6 
#
# 1 0.076011 -0.019333 0.008088 0.000000 -0.061061 0.000000
# 2 -0.019333 0.022183 -0.015467 0.000000 0.013126 0.000000
# 3 0.008088 -0.015467 0.020324 0.000000 -0.012069 0.000000
# 4 0.000000 0.000000 0.000000 0.026481 0.000000 0.002675
# 5 -0.061061 0.013126 -0.012069 0.000000 0.103307 0.000000
# 6 0.000000 0.000000 0.000000 0.002675 0.000000 0.034907
#
#
# Mechanical properties :
#
#
# Convention : Reuss Voigt Hill
#
# Bulk Modulus (GPa) = 15.36242 69.11353 42.23797
# Shear Modulus (GPa) = 13.95344 26.55362 20.25353
#
# Velocity S-wave (km/s) = 2.66353 3.67434 3.20898
# Velocity P-wave (km/s) = 4.15571 7.28976 5.93340
#
# Compressibility (1/GPa) = 0.06509392
#
# Stress axis : x y z
#
# Youngs Moduli (GPa) = 13.15606 45.07958 49.20231
#
# Poissons Ratio (x) = 0.87154 -0.39797
# Poissons Ratio (y) = 0.25435 0.76102
# Poissons Ratio (z) = -0.10641 0.69725
#
# Static dielectric constant tensor:
#      x y z
#    x 3.240210 0.000000 -0.121220 
#    y 0.000000 3.683550 0.000000 
#    z -0.121220 0.000000 3.664330 
# 
# 
# High freq. dielectric constant tensor:
#      x y z
#    x 1.736060 0.000000 -0.016210 
#    y 0.000000 1.787500 0.000000 
#    z -0.016210 0.000000 1.771680 
# 
# From -- ./inp_files/162390.got.cif
#   From: 2010.06.25/outbox.cif.g09.slc.cpg/sg12_82_cif.got.tgz:162390.got - 2010.06.28 00:19:55.
