data_PCOD8092632
_publ_section_title
;
Structure prediction by ZEFSAII (Michael W. Deem and Ramdas Pophale) SiO2 
 PCOD8092632
Probable space group: C 2/M
;
_chemical_formula_sum "Si O2"
_cell_formula_units_Z 44
_cell_length_a 27.894092
_cell_length_b 12.467222
_cell_length_c 17.125719
_cell_angle_alpha 90.000000
_cell_angle_beta 21.016925
_cell_angle_gamma 90.000000
_cell_volume 2135.964129
_symmetry_space_group_name_H-M "C 2/M"
_symmetry_group_IT_number 12
_symmetry_cell_setting 'monoclinic'
loop_
_space_group_symop_operation_xyz
x,y,z
-x,y,-z
-x,-y,-z
x,-y,z
1/2+x,1/2+y,z
1/2-x,1/2+y,-z
1/2-x,1/2-y,-z
1/2+x,1/2-y,z
loop_
_atom_site_type_symbol
_atom_site_label
_atom_site_fract_x
_atom_site_fract_y
_atom_site_fract_z
Si Si1 0.140745 0.379003 0.890423
Si Si2 0.000000 0.271175 0.500000
Si Si3 0.258998 0.621222 0.873951
Si Si4 0.428838 0.700741 0.179426
Si Si5 0.011565 0.621683 0.640588
Si Si6 0.838376 0.786408 0.477280
O O1 0.087971 0.500000 0.975586
O O2 0.189716 0.337645 0.899799
O O3 0.270187 0.374099 0.636575
O O4 0.016735 0.309833 0.048526
O O5 0.119039 0.196635 0.287427
O O6 0.051873 0.344924 0.491794
O O7 0.312702 0.500000 0.780960
O O8 0.149183 0.625678 0.109249
O O9 0.276237 0.715170 0.387764
O O10 0.424221 0.655739 0.276130
O O11 0.500000 0.631578 0.000000
O O12 0.063005 0.500000 0.578497
O O13 0.071803 0.703534 0.611403
#
# Coordination Sequence:
#
# PCOD8092632 Si02
#       6
#     8   4   8   8   8   8
#     4  10  19  35  60  88 115 150 196 240 285 346
#     4  12  22  40  62  88 116 154 194 250 296 344
#     4  10  21  37  60  89 116 149 194 242 297 346
#     4   9  19  33  57  84 114 150 190 232 283 341
#     4  11  23  39  60  86 116 157 200 238 287 353
#     4  10  19  35  56  86 118 149 188 240 289 338
#
# _framework density 20.599596999999999
#
# number of rings (size 3 to 8) (size 9 to 14) (size 15 to 20)
#    0.000    1.818    3.636    1.091    0.000    3.273 
#    0.000    4.545    0.000   15.273    0.000    0.000 
#    0.000    0.000    0.000    0.000    0.000    0.000 
#
# Total GULP energy -272554.488940 kJ/mol
# GULP energy per Si atom -12388.840406 kJ/mol
# Density = 2.055271 g / cm^3
# Si number density = 20.599597 Si / 1000 Ang^3
#
#
#
# Elastic Constant Matrix: (Units=GPa)
#
#
# Indices 1 2 3 4 5 6 
#
# 1 82.4835 16.4934 21.4157 0.0000 17.7985 0.0000
# 2 16.4934 40.9338 16.9477 0.0000 -8.1591 0.0000
# 3 21.4157 16.9477 86.3317 0.0000 14.9920 0.0000
# 4 0.0000 0.0000 0.0000 27.1193 0.0000 1.0050
# 5 17.7985 -8.1591 14.9920 0.0000 45.0265 0.0000
# 6 0.0000 0.0000 0.0000 1.0050 0.0000 5.6453
#
#
#
# Elastic Compliance Matrix: (Units=1/GPa)
#
#
# Indices 1 2 3 4 5 6 
#
# 1 0.015350 -0.007066 -0.001215 0.000000 -0.006944 0.000000
# 2 -0.007066 0.032070 -0.006408 0.000000 0.010738 0.000000
# 3 -0.001215 -0.006408 0.014074 0.000000 -0.005367 0.000000
# 4 0.000000 0.000000 0.000000 0.037119 0.000000 -0.006608
# 5 -0.006944 0.010738 -0.005367 0.000000 0.028687 0.000000
# 6 0.000000 0.000000 0.000000 -0.006608 0.000000 0.178316
#
#
# Mechanical properties :
#
#
# Convention : Reuss Voigt Hill
#
# Bulk Modulus (GPa) = 31.13537 35.49584 33.31560
# Shear Modulus (GPa) = 14.46341 25.88435 20.17388
#
# Velocity S-wave (km/s) = 2.65263 3.54863 3.13283
# Velocity P-wave (km/s) = 4.95271 5.83601 5.41241
#
# Compressibility (1/GPa) = 0.03211782
#
# Stress axis : x y z
#
# Youngs Moduli (GPa) = 65.14496 31.18165 71.05059
#
# Poissons Ratio (x) = 0.22034 0.08632
# Poissons Ratio (y) = 0.46033 0.45526
# Poissons Ratio (z) = 0.07914 0.19980
#
# Static dielectric constant tensor:
#      x y z
#    x 3.952820 0.000000 0.448320 
#    y 0.000000 3.284500 0.000000 
#    z 0.448320 0.000000 4.037450 
# 
# 
# High freq. dielectric constant tensor:
#      x y z
#    x 1.817520 0.000000 0.018890 
#    y 0.000000 1.758920 0.000000 
#    z 0.018890 0.000000 1.814310 
# 
# From -- ./inp_files/296390.got.cif
#   From: 2010.06.25/outbox.cif.g09.slc.cpg/sg12_149_cif.got.tgz:296390.got - 2010.06.28 00:19:55.
