data_PCOD8092671
_publ_section_title
;
Structure prediction by ZEFSAII (Michael W. Deem and Ramdas Pophale) SiO2 
 PCOD8092671
Probable space group: C 2/M
;
_chemical_formula_sum "Si O2"
_cell_formula_units_Z 56
_cell_length_a 21.470913
_cell_length_b 8.965891
_cell_length_c 18.375238
_cell_angle_alpha 90.000000
_cell_angle_beta 123.925720
_cell_angle_gamma 90.000000
_cell_volume 2935.150624
_symmetry_space_group_name_H-M "C 2/M"
_symmetry_group_IT_number 12
_symmetry_cell_setting 'monoclinic'
loop_
_space_group_symop_operation_xyz
x,y,z
-x,y,-z
-x,-y,-z
x,-y,z
1/2+x,1/2+y,z
1/2-x,1/2+y,-z
1/2-x,1/2-y,-z
1/2+x,1/2-y,z
loop_
_atom_site_type_symbol
_atom_site_label
_atom_site_fract_x
_atom_site_fract_y
_atom_site_fract_z
Si Si1 0.603082 0.323648 0.721851
Si Si2 0.235085 0.176217 0.912878
Si Si3 0.468305 0.171740 0.705160
Si Si4 0.981311 0.677379 0.874513
Si Si5 0.412956 0.822505 0.436604
Si Si6 0.885160 0.676657 0.941043
Si Si7 0.175727 0.669708 0.478940
O O1 0.606316 0.500000 0.714470
O O2 0.658753 0.271607 0.823470
O O3 0.519959 0.269599 0.686565
O O4 0.625443 0.249672 0.659645
O O5 0.301221 0.230259 0.901951
O O6 0.236588 0.000000 0.925909
O O7 0.250000 0.250000 0.000000
O O8 0.472759 0.242740 0.788440
O O9 0.382989 0.184874 0.624751
O O10 0.495959 0.000000 0.719410
O O11 0.978435 0.500000 0.868130
O O12 0.913253 0.737146 0.881089
O O13 0.059837 0.734907 0.959137
O O14 0.500000 0.769856 0.500000
O O15 0.363354 0.765841 0.473082
O O16 0.410511 0.000000 0.428902
O O17 0.891057 0.500000 0.943993
O O18 0.198067 0.500000 0.508159
O O19 0.250000 0.750000 0.500000
#
# Coordination Sequence:
#
# PCOD8092671 Si02
#       7
#     8   8   8   8   8   8   8
#     4  11  23  35  54  86 115 146 189 240 293 339
#     4  10  21  35  52  78 113 146 181 228 280 334
#     4  10  19  35  57  79 104 144 191 229 277 344
#     4   8  14  25  49  76  97 130 178 223 265 316
#     4  10  20  40  63  82 110 150 198 241 280 344
#     4   8  14  27  45  72 104 133 171 221 268 317
#     4  10  22  38  58  84 113 146 186 238 292 344
#
# _framework density 19.079089
#
# number of rings (size 3 to 8) (size 9 to 14) (size 15 to 20)
#    0.000    2.429    1.429    2.143    0.000    4.857 
#    0.000    2.857    0.000    0.857    0.000    4.000 
#    0.000    0.000    0.000    0.000    0.000    0.000 
#
# Total GULP energy -347076.232526 kJ/mol
# GULP energy per Si atom -12395.579733 kJ/mol
# Density = 1.903566 g / cm^3
# Si number density = 19.079089 Si / 1000 Ang^3
#
#
#
# Elastic Constant Matrix: (Units=GPa)
#
#
# Indices 1 2 3 4 5 6 
#
# 1 133.7439 31.1627 48.5099 0.0000 -5.5608 0.0000
# 2 31.1627 30.8200 30.0130 0.0000 -0.9264 0.0000
# 3 48.5099 30.0130 113.5140 0.0000 -18.4705 0.0000
# 4 0.0000 0.0000 0.0000 23.9794 0.0000 -2.4318
# 5 -5.5608 -0.9264 -18.4705 0.0000 34.8970 0.0000
# 6 0.0000 0.0000 0.0000 -2.4318 0.0000 24.6125
#
#
#
# Elastic Compliance Matrix: (Units=1/GPa)
#
#
# Indices 1 2 3 4 5 6 
#
# 1 0.010173 -0.008199 -0.002135 0.000000 0.000273 0.000000
# 2 -0.008199 0.051263 -0.010988 0.000000 -0.005761 0.000000
# 3 -0.002135 -0.010988 0.013705 0.000000 0.006622 0.000000
# 4 0.000000 0.000000 0.000000 0.042125 0.000000 0.004162
# 5 0.000273 -0.005761 0.006622 0.000000 0.032051 0.000000
# 6 0.000000 0.000000 0.000000 0.004162 0.000000 0.041041
#
#
# Mechanical properties :
#
#
# Convention : Reuss Voigt Hill
#
# Bulk Modulus (GPa) = 30.77155 55.27213 43.02184
# Shear Modulus (GPa) = 20.50581 27.92392 24.21487
#
# Velocity S-wave (km/s) = 3.28194 3.82984 3.56643
# Velocity P-wave (km/s) = 5.52494 6.97064 6.28946
#
# Compressibility (1/GPa) = 0.03249755
#
# Stress axis : x y z
#
# Youngs Moduli (GPa) = 98.29808 19.50722 72.96839
#
# Poissons Ratio (x) = 0.15993 0.15581
# Poissons Ratio (y) = 0.80592 0.80175
# Poissons Ratio (z) = 0.20989 0.21434
#
# Static dielectric constant tensor:
#      x y z
#    x 3.806210 0.000000 -0.153740 
#    y 0.000000 3.091070 0.000000 
#    z -0.153740 0.000000 3.701220 
# 
# 
# High freq. dielectric constant tensor:
#      x y z
#    x 1.749390 0.000000 -0.009410 
#    y 0.000000 1.698980 0.000000 
#    z -0.009410 0.000000 1.750050 
# 
# From -- ./inp_files/281731.got.cif
#   From: 2010.06.25/outbox.cif.g09.slc.cpg/sg12_141_cif.got.tgz:281731.got - 2010.06.28 00:19:55.
