data_PCOD8092903
_publ_section_title
;
Structure prediction by ZEFSAII (Michael W. Deem and Ramdas Pophale) SiO2 
 PCOD8092903
Probable space group: C 2/M
;
_chemical_formula_sum "Si O2"
_cell_formula_units_Z 40
_cell_length_a 30.174491
_cell_length_b 8.683926
_cell_length_c 7.928902
_cell_angle_alpha 90.000000
_cell_angle_beta 105.715983
_cell_angle_gamma 90.000000
_cell_volume 1999.964531
_symmetry_space_group_name_H-M "C 2/M"
_symmetry_group_IT_number 12
_symmetry_cell_setting 'monoclinic'
loop_
_space_group_symop_operation_xyz
x,y,z
-x,y,-z
-x,-y,-z
x,-y,z
1/2+x,1/2+y,z
1/2-x,1/2+y,-z
1/2-x,1/2-y,-z
1/2+x,1/2-y,z
loop_
_atom_site_type_symbol
_atom_site_label
_atom_site_fract_x
_atom_site_fract_y
_atom_site_fract_z
Si Si1 0.392215 0.319856 0.212806
Si Si2 0.448293 0.316355 0.955670
Si Si3 0.203583 0.181422 0.024123
Si Si4 0.797053 0.318402 0.615798
Si Si5 0.113066 0.818161 0.420241
O O1 0.395641 0.500000 0.186178
O O2 0.408984 0.276945 0.419099
O O3 0.424386 0.245883 0.099883
O O4 0.338867 0.270282 0.139214
O O5 0.448985 0.500000 0.959732
O O6 0.421115 0.259670 0.761160
O O7 0.500000 0.250568 0.000000
O O8 0.191291 0.249532 0.191529
O O9 0.209576 0.000000 0.045665
O O10 0.250000 0.250000 0.000000
O O11 0.792071 0.500000 0.620876
O O12 0.750000 0.250000 0.500000
O O13 0.838626 0.270611 0.536996
O O14 0.122691 0.000000 0.415187
#
# Coordination Sequence:
#
# PCOD8092903 Si02
#       5
#     8   8   8   8   8
#     4   9  18  32  53  82 115 151 189 236 290 344
#     4   9  17  31  54  86 120 152 190 240 296 350
#     4  11  21  36  56  83 120 157 198 244 293 352
#     4  12  24  38  57  83 115 154 199 245 299 360
#     4  10  19  35  58  83 117 154 191 241 294 350
#
# _framework density 20.000357000000001
#
# number of rings (size 3 to 8) (size 9 to 14) (size 15 to 20)
#    0.000    1.800    2.000    3.600    0.000    2.400 
#    0.000    5.000    0.000    0.600    0.000    1.400 
#    0.000    0.000    0.000    0.000    0.000    0.000 
#
# Total GULP energy -247968.285336 kJ/mol
# GULP energy per Si atom -12398.414267 kJ/mol
# Density = 1.995484 g / cm^3
# Si number density = 20.000357 Si / 1000 Ang^3
#
#
#
# Elastic Constant Matrix: (Units=GPa)
#
#
# Indices 1 2 3 4 5 6 
#
# 1 159.7438 27.3401 78.7482 0.0000 -3.6209 0.0000
# 2 27.3401 61.3664 17.2146 0.0000 4.1604 0.0000
# 3 78.7482 17.2146 150.2060 0.0000 -6.2343 0.0000
# 4 0.0000 0.0000 0.0000 18.5211 0.0000 -2.8923
# 5 -3.6209 4.1604 -6.2343 0.0000 34.0327 0.0000
# 6 0.0000 0.0000 0.0000 -2.8923 0.0000 21.8149
#
#
#
# Elastic Compliance Matrix: (Units=1/GPa)
#
#
# Indices 1 2 3 4 5 6 
#
# 1 0.008873 -0.002776 -0.004313 0.000000 0.000493 0.000000
# 2 -0.002776 0.017908 -0.000705 0.000000 -0.002614 0.000000
# 3 -0.004313 -0.000705 0.009053 0.000000 0.001286 0.000000
# 4 0.000000 0.000000 0.000000 0.055134 0.000000 0.007310
# 5 0.000493 -0.002614 0.001286 0.000000 0.029991 0.000000
# 6 0.000000 0.000000 0.000000 0.007310 0.000000 0.046809
#
#
# Mechanical properties :
#
#
# Convention : Reuss Voigt Hill
#
# Bulk Modulus (GPa) = 49.39790 68.65799 59.02794
# Shear Modulus (GPa) = 26.30132 31.40796 28.85464
#
# Velocity S-wave (km/s) = 3.63029 3.96709 3.80242
# Velocity P-wave (km/s) = 6.50570 7.44222 6.98966
#
# Compressibility (1/GPa) = 0.02024377
#
# Stress axis : x y z
#
# Youngs Moduli (GPa) = 112.70771 55.84229 110.46284
#
# Poissons Ratio (x) = 0.15505 0.47641
# Poissons Ratio (y) = 0.31293 0.07790
# Poissons Ratio (z) = 0.48610 0.03938
#
# Static dielectric constant tensor:
#      x y z
#    x 3.858210 0.000000 -0.074940 
#    y 0.000000 3.409580 0.000000 
#    z -0.074940 0.000000 3.940140 
# 
# 
# High freq. dielectric constant tensor:
#      x y z
#    x 1.783430 0.000000 -0.006020 
#    y 0.000000 1.735190 0.000000 
#    z -0.006020 0.000000 1.798110 
# 
# From -- ./inp_files/101019.got.cif
#   From: 2010.06.25/outbox.cif.g09.slc.cpg/sg12_51_cif.got.tgz:101019.got - 2010.06.28 00:19:55.
