data_PCOD8092752
_publ_section_title
;
Structure prediction by ZEFSAII (Michael W. Deem and Ramdas Pophale) SiO2 
 PCOD8092752
Probable space group: C 2/M
;
_chemical_formula_sum "Si O2"
_cell_formula_units_Z 40
_cell_length_a 23.884652
_cell_length_b 14.021998
_cell_length_c 18.743651
_cell_angle_alpha 90.000000
_cell_angle_beta 20.521609
_cell_angle_gamma 90.000000
_cell_volume 2200.625480
_symmetry_space_group_name_H-M "C 2/M"
_symmetry_group_IT_number 12
_symmetry_cell_setting 'monoclinic'
loop_
_space_group_symop_operation_xyz
x,y,z
-x,y,-z
-x,-y,-z
x,-y,z
1/2+x,1/2+y,z
1/2-x,1/2+y,-z
1/2-x,1/2-y,-z
1/2+x,1/2-y,z
loop_
_atom_site_type_symbol
_atom_site_label
_atom_site_fract_x
_atom_site_fract_y
_atom_site_fract_z
Si Si1 0.375007 0.603787 0.211536
Si Si2 0.148599 0.746556 0.278566
Si Si3 0.094309 0.110232 0.082217
Si Si4 0.019991 0.890027 0.625777
Si Si5 0.687127 0.206659 0.778455
O O1 0.286243 0.500000 0.327874
O O2 0.464681 0.635196 0.176559
O O3 0.264813 0.691925 0.317509
O O4 0.500000 0.589091 0.000000
O O5 0.088329 0.828595 0.297845
O O6 0.270606 0.793361 0.188726
O O7 0.000000 0.701703 0.500000
O O8 0.239157 0.665249 0.126583
O O9 0.017594 0.140064 0.248675
O O10 0.140053 0.000000 0.024650
O O11 0.208478 0.872749 0.386693
O O12 0.979648 0.000000 0.659998
O O13 0.500000 0.182636 0.000000
#
# Coordination Sequence:
#
# PCOD8092752 Si02
#       5
#     8   8   8   8   8
#     4   9  16  30  55  81 110 138 166 213 272 325
#     4  10  20  35  57  81 108 141 178 221 266 317
#     4  10  19  35  58  82 110 141 174 216 274 328
#     4  10  23  38  54  77 109 148 182 220 268 310
#     4  10  19  35  57  83 105 141 184 220 262 316
#
# _framework density 18.176651
#
# number of rings (size 3 to 8) (size 9 to 14) (size 15 to 20)
#    0.000    2.200    4.000    0.600    0.000    5.200 
#    0.000    3.000    0.000    1.200    0.000    0.000 
#    0.000    0.000    0.000    0.000    0.000    0.000 
#
# Total GULP energy -247861.971689 kJ/mol
# GULP energy per Si atom -12393.098584 kJ/mol
# Density = 1.813528 g / cm^3
# Si number density = 18.176651 Si / 1000 Ang^3
#
#
#
# Elastic Constant Matrix: (Units=GPa)
#
#
# Indices 1 2 3 4 5 6 
#
# 1 137.9517 46.7298 58.1714 -0.0010 6.6177 0.0009
# 2 46.7298 68.4493 28.8500 -0.0032 11.8108 0.0037
# 3 58.1714 28.8500 98.3884 -0.0006 13.0028 0.0011
# 4 -0.0010 -0.0032 -0.0006 34.5518 0.0013 -4.2996
# 5 6.6177 11.8108 13.0028 0.0013 26.0447 -0.0017
# 6 0.0009 0.0037 0.0011 -4.2996 -0.0017 30.5143
#
#
#
# Elastic Compliance Matrix: (Units=1/GPa)
#
#
# Indices 1 2 3 4 5 6 
#
# 1 0.011390 -0.005962 -0.005311 0.000000 0.002461 0.000001
# 2 -0.005962 0.020554 -0.001574 0.000002 -0.007020 -0.000002
# 3 -0.005311 -0.001574 0.014446 0.000000 -0.005149 0.000000
# 4 0.000000 0.000002 0.000000 0.029459 -0.000002 0.004151
# 5 0.002461 -0.007020 -0.005149 -0.000002 0.043524 0.000003
# 6 0.000001 -0.000002 0.000000 0.004151 0.000003 0.033356
#
#
# Mechanical properties :
#
#
# Convention : Reuss Voigt Hill
#
# Bulk Modulus (GPa) = 48.32005 63.58798 55.95402
# Shear Modulus (GPa) = 26.97982 29.62471 28.30227
#
# Velocity S-wave (km/s) = 3.85686 4.04149 3.95025
# Velocity P-wave (km/s) = 6.81726 7.53906 7.18723
#
# Compressibility (1/GPa) = 0.02069534
#
# Stress axis : x y z
#
# Youngs Moduli (GPa) = 87.79549 48.65135 69.22242
#
# Poissons Ratio (x) = 0.29006 0.36767
# Poissons Ratio (y) = 0.52343 0.10898
# Poissons Ratio (z) = 0.46632 0.07659
#
# Static dielectric constant tensor:
#      x y z
#    x 3.638510 0.000000 0.145650 
#    y 0.000000 3.618380 0.000000 
#    z 0.145650 0.000000 3.237940 
# 
# 
# High freq. dielectric constant tensor:
#      x y z
#    x 1.718350 0.000000 0.010470 
#    y 0.000000 1.699710 0.000000 
#    z 0.010470 0.000000 1.681850 
# 
# From -- ./inp_files/72329.got.cif
#   From: 2010.06.25/outbox.cif.g09.slc.cpg/sg12_37_cif.got.tgz:72329.got - 2010.06.28 00:19:55.
