data_PCOD8092253
_publ_section_title
;
Structure prediction by ZEFSAII (Michael W. Deem and Ramdas Pophale) SiO2 
 PCOD8092253
Probable space group: C 2/M
;
_chemical_formula_sum "Si O2"
_cell_formula_units_Z 64
_cell_length_a 15.164215
_cell_length_b 28.595516
_cell_length_c 8.867347
_cell_angle_alpha 90.000000
_cell_angle_beta 124.353177
_cell_angle_gamma 90.000000
_cell_volume 3174.446902
_symmetry_space_group_name_H-M "C 2/M"
_symmetry_group_IT_number 12
_symmetry_cell_setting 'monoclinic'
loop_
_space_group_symop_operation_xyz
x,y,z
-x,y,-z
-x,-y,-z
x,-y,z
1/2+x,1/2+y,z
1/2-x,1/2+y,-z
1/2-x,1/2-y,-z
1/2+x,1/2-y,z
loop_
_atom_site_type_symbol
_atom_site_label
_atom_site_fract_x
_atom_site_fract_y
_atom_site_fract_z
Si Si1 0.991805 0.846426 0.312271
Si Si2 0.870051 0.634678 0.528033
Si Si3 0.601628 0.946492 0.998334
Si Si4 0.031104 0.051492 0.356930
Si Si5 0.779513 0.447834 0.602192
Si Si6 0.789646 0.201739 0.470634
Si Si7 0.775498 0.201515 0.103083
Si Si8 0.612119 0.135864 0.795712
O O1 0.983391 0.900336 0.239417
O O2 0.886791 0.820130 0.149699
O O3 0.000000 0.850242 0.500000
O O4 0.094607 0.816074 0.357151
O O5 0.855454 0.581269 0.564136
O O6 0.794593 0.663031 0.565394
O O7 0.836122 0.639100 0.320358
O O8 0.989961 0.653019 0.668558
O O9 0.703457 0.936479 0.203889
O O10 0.593324 0.000000 0.938498
O O11 0.500000 0.930956 0.000000
O O12 0.614542 0.916994 0.858647
O O13 0.000000 0.048438 0.500000
O O14 0.156031 0.059306 0.451493
O O15 0.997777 0.000000 0.252709
O O16 0.819274 0.500000 0.609028
O O17 0.750000 0.250000 0.500000
O O18 0.789376 0.209057 0.292724
O O19 0.750000 0.250000 0.000000
O O20 0.676610 0.167789 0.973839
#
# Coordination Sequence:
#
# PCOD8092253 Si02
#       8
#     8   8   8   8   8   8   8   8
#     4   9  20  38  62  91 125 157 198 257 308 365
#     4  11  23  41  58  89 122 165 214 250 311 369
#     4  10  20  35  57  90 122 157 205 256 306 361
#     4   9  17  31  57  92 121 155 199 246 304 365
#     4  10  19  34  60  88 122 160 205 255 304 374
#     4  11  23  41  68  90 120 161 205 256 316 378
#     4  11  25  44  63  92 125 160 206 258 320 366
#     4  11  25  39  61  85 127 167 204 259 305 372
#
# _framework density 20.160990999999999
#
# number of rings (size 3 to 8) (size 9 to 14) (size 15 to 20)
#    0.000    1.750    2.500    1.500    5.250    0.500 
#    0.000    3.125    0.000    0.000    0.000    1.750 
#    0.000    0.000    0.000    0.000    0.000    0.000 
#
# Total GULP energy -396599.104107 kJ/mol
# GULP energy per Si atom -12393.722003 kJ/mol
# Density = 2.011510 g / cm^3
# Si number density = 20.160991 Si / 1000 Ang^3
#
#
#
# Elastic Constant Matrix: (Units=GPa)
#
#
# Indices 1 2 3 4 5 6 
#
# 1 83.1658 48.2295 27.9375 0.0000 11.5189 0.0000
# 2 48.2295 150.1652 46.2415 0.0000 13.1080 0.0000
# 3 27.9375 46.2415 71.8735 0.0000 10.7122 0.0000
# 4 0.0000 0.0000 0.0000 41.1688 0.0000 -4.0415
# 5 11.5189 13.1080 10.7122 0.0000 23.3785 0.0000
# 6 0.0000 0.0000 0.0000 -4.0415 0.0000 37.4992
#
#
#
# Elastic Compliance Matrix: (Units=1/GPa)
#
#
# Indices 1 2 3 4 5 6 
#
# 1 0.015838 -0.003759 -0.003101 0.000000 -0.004275 0.000000
# 2 -0.003759 0.009321 -0.004328 0.000000 -0.001391 0.000000
# 3 -0.003101 -0.004328 0.018583 0.000000 -0.004560 0.000000
# 4 0.000000 0.000000 0.000000 0.024550 0.000000 0.002646
# 5 -0.004275 -0.001391 -0.004560 0.000000 0.047750 0.000000
# 6 0.000000 0.000000 0.000000 0.002646 0.000000 0.026952
#
#
# Mechanical properties :
#
#
# Convention : Reuss Voigt Hill
#
# Bulk Modulus (GPa) = 46.80376 61.11349 53.95862
# Shear Modulus (GPa) = 28.98689 32.59570 30.79129
#
# Velocity S-wave (km/s) = 3.79591 4.02527 3.91227
# Velocity P-wave (km/s) = 6.51746 7.20987 6.87239
#
# Compressibility (1/GPa) = 0.02136581
#
# Stress axis : x y z
#
# Youngs Moduli (GPa) = 63.14068 107.28657 53.81235
#
# Poissons Ratio (x) = 0.40325 0.16686
# Poissons Ratio (y) = 0.23732 0.23293
# Poissons Ratio (z) = 0.19578 0.46439
#
# Static dielectric constant tensor:
#      x y z
#    x 3.643400 0.000000 0.096040 
#    y 0.000000 4.151480 0.000000 
#    z 0.096040 0.000000 3.489660 
# 
# 
# High freq. dielectric constant tensor:
#      x y z
#    x 1.785000 0.000000 0.019110 
#    y 0.000000 1.803690 0.000000 
#    z 0.019110 0.000000 1.761330 
# 
# From -- ./inp_files/68643.got.cif
#   From: 2010.06.25/outbox.cif.g09.slc.cpg/sg12_35_cif.got.tgz:68643.got - 2010.06.28 00:19:55.
