data_PCOD8092105
_publ_section_title
;
Structure prediction by ZEFSAII (Michael W. Deem and Ramdas Pophale) SiO2 
 PCOD8092105
Probable space group: C 2/M
;
_chemical_formula_sum "Si O2"
_cell_formula_units_Z 64
_cell_length_a 17.806188
_cell_length_b 14.239434
_cell_length_c 13.787535
_cell_angle_alpha 90.000000
_cell_angle_beta 68.125887
_cell_angle_gamma 90.000000
_cell_volume 3244.146633
_symmetry_space_group_name_H-M "C 2/M"
_symmetry_group_IT_number 12
_symmetry_cell_setting 'monoclinic'
loop_
_space_group_symop_operation_xyz
x,y,z
-x,y,-z
-x,-y,-z
x,-y,z
1/2+x,1/2+y,z
1/2-x,1/2+y,-z
1/2-x,1/2-y,-z
1/2+x,1/2-y,z
loop_
_atom_site_type_symbol
_atom_site_label
_atom_site_fract_x
_atom_site_fract_y
_atom_site_fract_z
Si Si1 0.575130 0.608573 0.266872
Si Si2 0.936977 0.606343 0.108522
Si Si3 0.094002 0.207627 0.637489
Si Si4 0.701878 0.226743 0.749387
Si Si5 0.970370 0.393764 0.410196
Si Si6 0.833912 0.107600 0.581995
Si Si7 0.696335 0.747023 0.120959
Si Si8 0.070736 0.600995 0.189768
O O1 0.561473 0.500000 0.243642
O O2 0.494252 0.669398 0.288938
O O3 0.596720 0.617325 0.369971
O O4 0.649157 0.649127 0.165482
O O5 0.915022 0.500000 0.089279
O O6 0.854171 0.662972 0.154302
O O7 0.979998 0.613760 0.191702
O O8 0.000000 0.649158 0.000000
O O9 0.149856 0.202509 0.707441
O O10 0.091527 0.315452 0.600508
O O11 0.131989 0.142670 0.536698
O O12 0.754851 0.164927 0.650628
O O13 0.756575 0.279977 0.803682
O O14 0.932052 0.500000 0.427267
O O15 0.000000 0.361287 0.500000
O O16 0.055468 0.392875 0.311568
O O17 0.807535 0.000000 0.582330
O O18 0.630860 0.822920 0.122121
O O19 0.750000 0.750000 0.000000
O O20 0.106144 0.500000 0.140926
#
# Coordination Sequence:
#
# PCOD8092105 Si02
#       8
#     8   8   8   8   8   8   8   8
#     4  10  21  39  64  88 113 152 202 245 279 337
#     4  10  19  34  59  85 107 140 188 244 297 336
#     4  12  21  37  60  86 118 154 195 239 289 345
#     4  11  23  36  56  85 123 150 187 240 297 344
#     4  10  20  33  57  87 113 148 190 229 277 338
#     4  10  22  38  58  87 119 156 194 237 292 345
#     4  11  23  40  60  84 116 154 194 239 293 346
#     4  10  20  38  59  82 112 148 192 234 278 343
#
# _framework density 19.727837000000001
#
# number of rings (size 3 to 8) (size 9 to 14) (size 15 to 20)
#    0.000    1.500    2.500    3.000    1.750    2.500 
#    0.000    1.250    0.000    0.750    0.000    0.000 
#    0.000    0.000    0.000    0.000    0.000    0.000 
#
# Total GULP energy -396671.367919 kJ/mol
# GULP energy per Si atom -12395.980247 kJ/mol
# Density = 1.968294 g / cm^3
# Si number density = 19.727837 Si / 1000 Ang^3
#
#
#
# Elastic Constant Matrix: (Units=GPa)
#
#
# Indices 1 2 3 4 5 6 
#
# 1 71.9063 25.4074 21.6960 0.0000 0.6024 0.0000
# 2 25.4074 70.2004 9.7542 0.0000 6.6098 0.0000
# 3 21.6960 9.7542 106.1594 0.0000 -1.6531 0.0000
# 4 0.0000 0.0000 0.0000 25.4145 0.0000 -0.1496
# 5 0.6024 6.6098 -1.6531 0.0000 29.7161 0.0000
# 6 0.0000 0.0000 0.0000 -0.1496 0.0000 18.8394
#
#
#
# Elastic Compliance Matrix: (Units=1/GPa)
#
#
# Indices 1 2 3 4 5 6 
#
# 1 0.016807 -0.005754 -0.002894 0.000000 0.000778 0.000000
# 2 -0.005754 0.016727 -0.000417 0.000000 -0.003627 0.000000
# 3 -0.002894 -0.000417 0.010061 0.000000 0.000711 0.000000
# 4 0.000000 0.000000 0.000000 0.039349 0.000000 0.000312
# 5 0.000778 -0.003627 0.000711 0.000000 0.034482 0.000000
# 6 0.000000 0.000000 0.000000 0.000312 0.000000 0.053083
#
#
# Mechanical properties :
#
#
# Convention : Reuss Voigt Hill
#
# Bulk Modulus (GPa) = 39.27184 40.22016 39.74600
# Shear Modulus (GPa) = 25.36427 27.55457 26.45942
#
# Velocity S-wave (km/s) = 3.58957 3.74135 3.66624
# Velocity P-wave (km/s) = 6.09344 6.25263 6.17355
#
# Compressibility (1/GPa) = 0.02546354
#
# Stress axis : x y z
#
# Youngs Moduli (GPa) = 59.49975 59.78370 99.39678
#
# Poissons Ratio (x) = 0.34399 0.28766
# Poissons Ratio (y) = 0.34236 0.04149
# Poissons Ratio (z) = 0.17219 0.02496
#
# Static dielectric constant tensor:
#      x y z
#    x 3.622410 0.000000 -0.004910 
#    y 0.000000 3.620430 0.000000 
#    z -0.004910 0.000000 3.629490 
# 
# 
# High freq. dielectric constant tensor:
#      x y z
#    x 1.760320 0.000000 0.000100 
#    y 0.000000 1.758480 0.000000 
#    z 0.000100 0.000000 1.777830 
# 
# From -- ./inp_files/225282.got.cif
#   From: 2010.06.25/outbox.cif.g09.slc.cpg/sg12_113_cif.got.tgz:225282.got - 2010.06.28 00:19:55.
