data_PCOD8092625
_publ_section_title
;
Structure prediction by ZEFSAII (Michael W. Deem and Ramdas Pophale) SiO2 
 PCOD8092625
Probable space group: C 2/M
;
_chemical_formula_sum "Si O2"
_cell_formula_units_Z 52
_cell_length_a 25.034841
_cell_length_b 12.061461
_cell_length_c 13.613332
_cell_angle_alpha 90.000000
_cell_angle_beta 43.659867
_cell_angle_gamma 90.000000
_cell_volume 2837.884875
_symmetry_space_group_name_H-M "C 2/M"
_symmetry_group_IT_number 12
_symmetry_cell_setting 'monoclinic'
loop_
_space_group_symop_operation_xyz
x,y,z
-x,y,-z
-x,-y,-z
x,-y,z
1/2+x,1/2+y,z
1/2-x,1/2+y,-z
1/2-x,1/2-y,-z
1/2+x,1/2-y,z
loop_
_atom_site_type_symbol
_atom_site_label
_atom_site_fract_x
_atom_site_fract_y
_atom_site_fract_z
Si Si1 0.845419 0.500000 0.034352
Si Si2 0.261026 0.627516 0.268031
Si Si3 0.325907 0.767097 0.338448
Si Si4 0.988001 0.500000 0.249730
Si Si5 0.413565 0.626137 0.577330
Si Si6 0.761889 0.208730 0.873745
Si Si7 0.874282 0.500000 0.218331
Si Si8 0.101989 0.298806 0.569203
O O1 0.794022 0.607983 0.081496
O O2 0.888590 0.500000 0.082672
O O3 0.919656 0.500000 0.865696
O O4 0.281134 0.500000 0.223286
O O5 0.329938 0.682581 0.241405
O O6 0.257845 0.686315 0.167329
O O7 0.181242 0.640405 0.433208
O O8 0.250000 0.750000 0.500000
O O9 0.396175 0.750679 0.321490
O O10 0.322218 0.892909 0.306108
O O11 0.949985 0.500000 0.189524
O O12 0.963922 0.392044 0.344758
O O13 0.500000 0.635383 0.500000
O O14 0.391109 0.500000 0.582275
O O15 0.351406 0.673202 0.738223
O O16 0.413894 0.694911 0.477396
O O17 0.750000 0.250000 0.000000
#
# Coordination Sequence:
#
# PCOD8092625 Si02
#       8
#     4   8   8   4   8   8   4   8
#     4  12  23  40  62  84 116 160 202 236 295 352
#     4  10  19  35  56  83 117 149 187 240 293 334
#     4   9  18  29  54  83 116 149 176 235 287 345
#     4  10  21  36  62  91 122 149 188 243 299 355
#     4  10  22  41  62  82 113 156 198 244 291 346
#     4  11  25  40  58  85 115 153 203 246 286 349
#     4  10  19  38  54  88 121 150 197 234 291 355
#     4   9  19  36  55  88 117 146 189 237 291 347
#
# _framework density 18.323505999999998
#
# number of rings (size 3 to 8) (size 9 to 14) (size 15 to 20)
#    0.000    2.000    3.077    0.231    6.462    0.615 
#    0.000    0.385    0.000    0.000    0.000    2.154 
#    0.000    0.000    0.000    0.000    0.000    0.000 
#
# Total GULP energy -322185.943647 kJ/mol
# GULP energy per Si atom -12391.767063 kJ/mol
# Density = 1.828180 g / cm^3
# Si number density = 18.323506 Si / 1000 Ang^3
#
#
#
# Elastic Constant Matrix: (Units=GPa)
#
#
# Indices 1 2 3 4 5 6 
#
# 1 71.0572 65.9854 52.3273 0.0000 8.9329 0.0000
# 2 65.9854 168.1731 59.7449 0.0000 10.1633 0.0000
# 3 52.3273 59.7449 97.9921 0.0000 8.4532 0.0000
# 4 0.0000 0.0000 0.0000 25.4742 0.0000 5.1667
# 5 8.9329 10.1633 8.4532 0.0000 32.7897 0.0000
# 6 0.0000 0.0000 0.0000 5.1667 0.0000 21.7623
#
#
#
# Elastic Compliance Matrix: (Units=1/GPa)
#
#
# Indices 1 2 3 4 5 6 
#
# 1 0.029419 -0.007501 -0.010888 0.000000 -0.002883 0.000000
# 2 -0.007501 0.009548 -0.001776 0.000000 -0.000458 0.000000
# 3 -0.010888 -0.001776 0.017181 0.000000 -0.000912 0.000000
# 4 0.000000 0.000000 0.000000 0.041241 0.000000 -0.009791
# 5 -0.002883 -0.000458 -0.000912 0.000000 0.031660 0.000000
# 6 0.000000 0.000000 0.000000 -0.009791 0.000000 0.048276
#
#
# Mechanical properties :
#
#
# Convention : Reuss Voigt Hill
#
# Bulk Modulus (GPa) = 63.22022 77.03750 70.12886
# Shear Modulus (GPa) = 22.42890 26.61624 24.52257
#
# Velocity S-wave (km/s) = 3.50244 3.81540 3.66226
# Velocity P-wave (km/s) = 7.13675 7.84500 7.49924
#
# Compressibility (1/GPa) = 0.01581772
#
# Stress axis : x y z
#
# Youngs Moduli (GPa) = 33.99188 104.73277 58.20497
#
# Poissons Ratio (x) = 0.78558 0.63371
# Poissons Ratio (y) = 0.25497 0.10340
# Poissons Ratio (z) = 0.37009 0.18606
#
# Static dielectric constant tensor:
#      x y z
#    x 3.532200 0.000000 0.126080 
#    y 0.000000 3.630340 0.000000 
#    z 0.126080 0.000000 3.251060 
# 
# 
# High freq. dielectric constant tensor:
#      x y z
#    x 1.705260 0.000000 0.013250 
#    y 0.000000 1.720710 0.000000 
#    z 0.013250 0.000000 1.696650 
# 
# From -- ./inp_files/175209.got.cif
#   From: 2010.06.25/outbox.cif.g09.slc.cpg/sg12_88_cif.got.tgz:175209.got - 2010.06.28 00:19:55.
