data_PCOD8092279
_publ_section_title
;
Structure prediction by ZEFSAII (Michael W. Deem and Ramdas Pophale) SiO2 
 PCOD8092279
Probable space group: C 2/M
;
_chemical_formula_sum "Si O2"
_cell_formula_units_Z 64
_cell_length_a 21.276001
_cell_length_b 13.137130
_cell_length_c 19.417524
_cell_angle_alpha 90.000000
_cell_angle_beta 32.083744
_cell_angle_gamma 90.000000
_cell_volume 2882.758429
_symmetry_space_group_name_H-M "C 2/M"
_symmetry_group_IT_number 12
_symmetry_cell_setting 'monoclinic'
loop_
_space_group_symop_operation_xyz
x,y,z
-x,y,-z
-x,-y,-z
x,-y,z
1/2+x,1/2+y,z
1/2-x,1/2+y,-z
1/2-x,1/2-y,-z
1/2+x,1/2-y,z
loop_
_atom_site_type_symbol
_atom_site_label
_atom_site_fract_x
_atom_site_fract_y
_atom_site_fract_z
Si Si1 0.339718 0.880747 0.289331
Si Si2 0.024451 0.882420 0.223750
Si Si3 0.682836 0.884528 0.395179
Si Si4 0.628802 0.684402 0.387505
Si Si5 0.739814 0.381927 0.524037
Si Si6 0.420464 0.765263 0.946905
Si Si7 0.205503 0.884215 0.175020
Si Si8 0.633357 0.391796 0.890413
O O1 0.220368 0.868294 0.355297
O O2 0.314758 0.837290 0.390143
O O3 0.450472 0.814739 0.157543
O O4 0.374844 0.000000 0.256856
O O5 0.084523 0.811873 0.111424
O O6 0.092992 0.869220 0.231060
O O7 0.892946 0.840141 0.357263
O O8 0.026160 0.000000 0.196492
O O9 0.596996 0.799664 0.442495
O O10 0.702122 0.855808 0.456874
O O11 0.805922 0.868903 0.239814
O O12 0.632789 0.000000 0.434178
O O13 0.500000 0.628391 0.500000
O O14 0.688651 0.686227 0.257341
O O15 0.733556 0.500000 0.517028
O O16 0.325696 0.855271 0.022487
O O17 0.362204 0.704614 0.064388
O O18 0.216666 0.000000 0.189779
O O19 0.687372 0.500000 0.869988
O O20 0.500000 0.415940 0.000000
#
# Coordination Sequence:
#
# PCOD8092279 Si02
#       8
#     8   8   8   8   8   8   8   8
#     4  11  25  42  64  95 130 171 218 267 323 382
#     4  10  21  39  64  93 126 165 214 266 317 378
#     4  10  21  40  65  97 132 163 205 268 330 381
#     4  12  25  42  66  92 125 171 221 262 316 384
#     4   9  19  39  65  93 124 162 209 265 322 373
#     4  12  23  39  66  93 130 164 213 264 328 384
#     4  11  25  43  61  88 130 175 217 263 311 374
#     4  10  19  34  60  93 127 160 202 255 316 384
#
# _framework density 22.200956999999999
#
# number of rings (size 3 to 8) (size 9 to 14) (size 15 to 20)
#    0.000    1.375    1.250    4.500    0.000    7.250 
#    0.000    1.250    0.000    0.750    0.000    0.000 
#    0.000    0.000    0.000    0.000    0.000    0.000 
#
# Total GULP energy -396529.446361 kJ/mol
# GULP energy per Si atom -12391.545199 kJ/mol
# Density = 2.215043 g / cm^3
# Si number density = 22.200957 Si / 1000 Ang^3
#
#
#
# Elastic Constant Matrix: (Units=GPa)
#
#
# Indices 1 2 3 4 5 6 
#
# 1 82.3391 50.6893 16.3952 0.0000 5.5548 0.0001
# 2 50.6893 102.9023 33.1377 0.0000 9.6631 -0.0001
# 3 16.3952 33.1377 66.6620 0.0000 1.9050 0.0000
# 4 0.0000 0.0000 0.0000 -4.1047 -0.0001 -6.6858
# 5 5.5548 9.6631 1.9050 -0.0001 31.1469 0.0001
# 6 0.0001 -0.0001 0.0000 -6.6858 0.0001 25.3506
#
#
#
# Elastic Compliance Matrix: (Units=1/GPa)
#
#
# Indices 1 2 3 4 5 6 
#
# 1 0.017437 -0.008536 -0.000032 0.000000 -0.000460 0.000000
# 2 -0.008536 0.016085 -0.005808 0.000000 -0.003113 0.000000
# 3 -0.000032 -0.005808 0.017876 0.000000 0.000714 0.000000
# 4 0.000000 0.000000 0.000000 -0.170418 0.000000 -0.044944
# 5 -0.000460 -0.003113 0.000714 0.000000 0.033110 0.000000
# 6 0.000000 0.000000 0.000000 -0.044944 0.000000 0.027593
#
#
# Mechanical properties :
#
#
# Convention : Reuss Voigt Hill
#
# Bulk Modulus (GPa) = 44.15729 50.26088 47.20909
# Shear Modulus (GPa) = -227.10946 20.59064 -103.25941
#
# Velocity S-wave (km/s) = -10.12518 3.04874 -6.82731
# Velocity P-wave (km/s) = 10.80552 5.92294 6.39054
#
# Compressibility (1/GPa) = 0.02264632
#
# Stress axis : x y z
#
# Youngs Moduli (GPa) = 57.34863 62.16849 55.94231
#
# Poissons Ratio (x) = 0.53067 0.00180
# Poissons Ratio (y) = 0.48953 0.32490
# Poissons Ratio (z) = 0.00185 0.36106
#
# Static dielectric constant tensor:
#      x y z
#    x 3.854190 0.000000 0.182350 
#    y 0.000000 4.452960 0.000000 
#    z 0.182350 0.000000 4.039730 
# 
# 
# High freq. dielectric constant tensor:
#      x y z
#    x 1.859030 0.000000 0.009380 
#    y 0.000000 1.895220 0.000000 
#    z 0.009380 0.000000 1.873370 
# 
# From -- ./inp_files/278154.got.cif
#   From: 2010.06.25/outbox.cif.g09.slc.cpg/sg12_140_cif.got.tgz:278154.got - 2010.06.28 00:19:55.
