data_PCOD8092740
_publ_section_title
;
Structure prediction by ZEFSAII (Michael W. Deem and Ramdas Pophale) SiO2 
 PCOD8092740
Probable space group: C 2/M
;
_chemical_formula_sum "Si O2"
_cell_formula_units_Z 56
_cell_length_a 25.947275
_cell_length_b 12.829383
_cell_length_c 10.866143
_cell_angle_alpha 90.000000
_cell_angle_beta 52.154171
_cell_angle_gamma 90.000000
_cell_volume 2856.377242
_symmetry_space_group_name_H-M "C 2/M"
_symmetry_group_IT_number 12
_symmetry_cell_setting 'monoclinic'
loop_
_space_group_symop_operation_xyz
x,y,z
-x,y,-z
-x,-y,-z
x,-y,z
1/2+x,1/2+y,z
1/2-x,1/2+y,-z
1/2-x,1/2-y,-z
1/2+x,1/2-y,z
loop_
_atom_site_type_symbol
_atom_site_label
_atom_site_fract_x
_atom_site_fract_y
_atom_site_fract_z
Si Si1 0.379484 0.879845 0.535276
Si Si2 0.723877 0.271282 0.382948
Si Si3 0.726629 0.617174 0.132025
Si Si4 0.035195 0.879325 0.826440
Si Si5 0.495645 0.248205 0.647911
Si Si6 0.850319 0.696588 0.843942
Si Si7 0.684518 0.380815 0.670261
O O1 0.337348 0.807471 0.505861
O O2 0.455637 0.849712 0.417084
O O3 0.350044 0.859408 0.712926
O O4 0.372014 0.000000 0.508929
O O5 0.709822 0.349450 0.293851
O O6 0.731396 0.348308 0.488044
O O7 0.789327 0.199587 0.262940
O O8 0.702740 0.500000 0.145679
O O9 0.683413 0.689229 0.105921
O O10 0.804725 0.625520 0.996933
O O11 0.014382 0.830387 0.726309
O O12 0.111034 0.861058 0.738397
O O13 0.016686 0.000000 0.841363
O O14 0.000000 0.831980 0.000000
O O15 0.500000 0.295019 0.500000
O O16 0.423676 0.206819 0.786420
O O17 0.696350 0.500000 0.693991
#
# Coordination Sequence:
#
# PCOD8092740 Si02
#       7
#     8   8   8   8   8   8   8
#     4  10  19  35  57  82 113 148 190 237 285 341
#     4  10  20  34  55  84 108 146 190 235 282 337
#     4  10  20  36  55  80 114 149 185 234 289 339
#     4  10  22  39  60  85 115 153 190 233 292 348
#     4  10  21  38  59  87 114 147 192 239 285 339
#     4   9  21  35  54  83 114 147 188 235 284 341
#     4  10  20  36  57  79 109 148 190 235 283 339
#
# _framework density 19.605253999999999
#
# number of rings (size 3 to 8) (size 9 to 14) (size 15 to 20)
#    0.000    2.143    1.429    1.286    2.000    4.000 
#    0.000    0.714    0.000    0.429    0.000    0.000 
#    0.000    0.000    0.000    0.000    0.000    0.000 
#
# Total GULP energy -346995.121847 kJ/mol
# GULP energy per Si atom -12392.682923 kJ/mol
# Density = 1.956063 g / cm^3
# Si number density = 19.605254 Si / 1000 Ang^3
#
#
#
# Elastic Constant Matrix: (Units=GPa)
#
#
# Indices 1 2 3 4 5 6 
#
# 1 71.3511 18.7535 16.4953 0.0000 -10.7390 0.0000
# 2 18.7535 97.1766 27.3804 0.0000 -0.0293 0.0000
# 3 16.4953 27.3804 67.0548 0.0000 -10.3907 0.0000
# 4 0.0000 0.0000 0.0000 21.1354 0.0000 -0.7269
# 5 -10.7390 -0.0293 -10.3907 0.0000 31.3421 0.0000
# 6 0.0000 0.0000 0.0000 -0.7269 0.0000 27.2382
#
#
#
# Elastic Compliance Matrix: (Units=1/GPa)
#
#
# Indices 1 2 3 4 5 6 
#
# 1 0.015871 -0.002449 -0.002174 0.000000 0.004715 0.000000
# 2 -0.002449 0.012088 -0.004703 0.000000 -0.002387 0.000000
# 3 -0.002174 -0.004703 0.018186 0.000000 0.005280 0.000000
# 4 0.000000 0.000000 0.000000 0.047357 0.000000 0.001264
# 5 0.004715 -0.002387 0.005280 0.000000 0.035270 0.000000
# 6 0.000000 0.000000 0.000000 0.001264 0.000000 0.036747
#
#
# Mechanical properties :
#
#
# Convention : Reuss Voigt Hill
#
# Bulk Modulus (GPa) = 36.37200 40.09342 38.23271
# Shear Modulus (GPa) = 25.86181 27.47337 26.66759
#
# Velocity S-wave (km/s) = 3.63592 3.74749 3.69213
# Velocity P-wave (km/s) = 6.01822 6.26256 6.14161
#
# Compressibility (1/GPa) = 0.02749367
#
# Stress axis : x y z
#
# Youngs Moduli (GPa) = 63.00782 82.72941 54.98586
#
# Poissons Ratio (x) = 0.20260 0.11952
# Poissons Ratio (y) = 0.15431 0.25861
# Poissons Ratio (z) = 0.13695 0.38909
#
# Static dielectric constant tensor:
#      x y z
#    x 3.697640 0.000000 -0.118510 
#    y 0.000000 3.485440 0.000000 
#    z -0.118510 0.000000 3.562960 
# 
# 
# High freq. dielectric constant tensor:
#      x y z
#    x 1.767050 0.000000 -0.011060 
#    y 0.000000 1.754460 0.000000 
#    z -0.011060 0.000000 1.754450 
# 
# From -- ./inp_files/182436.got.cif
#   From: 2010.06.25/outbox.cif.g09.slc.cpg/sg12_92_cif.got.tgz:182436.got - 2010.06.28 00:19:55.
