data_PCOD8092046
_publ_section_title
;
Structure prediction by ZEFSAII (Michael W. Deem and Ramdas Pophale) SiO2 
 PCOD8092046
Probable space group: C 2/M
;
_chemical_formula_sum "Si O2"
_cell_formula_units_Z 48
_cell_length_a 28.072312
_cell_length_b 8.623122
_cell_length_c 17.261573
_cell_angle_alpha 90.000000
_cell_angle_beta 35.587530
_cell_angle_gamma 90.000000
_cell_volume 2431.676303
_symmetry_space_group_name_H-M "C 2/M"
_symmetry_group_IT_number 12
_symmetry_cell_setting 'monoclinic'
loop_
_space_group_symop_operation_xyz
x,y,z
-x,y,-z
-x,-y,-z
x,-y,z
1/2+x,1/2+y,z
1/2-x,1/2+y,-z
1/2-x,1/2-y,-z
1/2+x,1/2-y,z
loop_
_atom_site_type_symbol
_atom_site_label
_atom_site_fract_x
_atom_site_fract_y
_atom_site_fract_z
Si Si1 0.620090 0.819441 0.854817
Si Si2 0.528555 0.181252 0.227047
Si Si3 0.276170 0.679164 0.743578
Si Si4 0.962052 0.180070 0.468794
Si Si5 0.521749 0.681684 0.856444
Si Si6 0.705265 0.681600 0.985600
O O1 0.712082 0.781318 0.760226
O O2 0.602620 0.728280 0.797936
O O3 0.607563 0.000000 0.855530
O O4 0.557293 0.767183 0.004145
O O5 0.505814 0.222917 0.344434
O O6 0.467923 0.266636 0.246499
O O7 0.619945 0.232917 0.086678
O O8 0.520394 0.000000 0.225125
O O9 0.268235 0.500000 0.780206
O O10 0.365857 0.715323 0.592633
O O11 0.261277 0.787940 0.836894
O O12 0.000000 0.235009 0.500000
O O13 0.981471 0.000000 0.429166
O O14 0.507211 0.500000 0.881410
O O15 0.690358 0.500000 0.016561
O O16 0.750000 0.750000 0.000000
#
# Coordination Sequence:
#
# PCOD8092046 Si02
#       6
#     8   8   8   8   8   8
#     4  10  19  34  58  88 123 158 195 244 303 364
#     4  12  24  40  61  88 121 158 203 250 301 357
#     4  10  21  38  61  89 122 158 198 245 302 363
#     4  10  22  41  63  87 120 162 202 244 300 363
#     4  11  21  35  58  88 120 156 200 248 302 360
#     4  12  24  38  60  88 120 154 198 251 300 355
#
# _framework density 19.739470000000001
#
# number of rings (size 3 to 8) (size 9 to 14) (size 15 to 20)
#    0.000    1.167    1.667    7.000    0.000    3.000 
#    0.000    0.833    0.000    0.000    0.000    0.000 
#    0.000    0.000    0.000    0.000    0.000    0.000 
#
# Total GULP energy -297730.076310 kJ/mol
# GULP energy per Si atom -12405.419846 kJ/mol
# Density = 1.969454 g / cm^3
# Si number density = 19.739470 Si / 1000 Ang^3
#
#
#
# Elastic Constant Matrix: (Units=GPa)
#
#
# Indices 1 2 3 4 5 6 
#
# 1 133.3452 31.0814 18.1501 0.0000 1.3171 0.0032
# 2 31.0814 51.6417 8.9959 0.0148 2.9909 -0.0093
# 3 18.1501 8.9959 41.8892 0.0005 0.2100 0.0008
# 4 0.0000 0.0148 0.0005 25.0012 -0.0036 7.9373
# 5 1.3171 2.9909 0.2100 -0.0036 34.6074 0.0012
# 6 0.0032 -0.0093 0.0008 7.9373 0.0012 32.8973
#
#
#
# Elastic Compliance Matrix: (Units=1/GPa)
#
#
# Indices 1 2 3 4 5 6 
#
# 1 0.009041 -0.004950 -0.002855 0.000004 0.000101 -0.000003
# 2 -0.004950 0.022929 -0.002770 -0.000017 -0.001776 0.000011
# 3 -0.002855 -0.002770 0.025703 0.000002 0.000192 -0.000002
# 4 0.000004 -0.000017 0.000002 0.043316 0.000006 -0.010451
# 5 0.000101 -0.001776 0.000192 0.000006 0.029044 -0.000003
# 6 -0.000003 0.000011 -0.000002 -0.010451 -0.000003 0.032919
#
#
# Mechanical properties :
#
#
# Convention : Reuss Voigt Hill
#
# Bulk Modulus (GPa) = 27.38010 38.14788 32.76399
# Shear Modulus (GPa) = 25.47423 29.74441 27.60932
#
# Velocity S-wave (km/s) = 3.59628 3.88603 3.74396
# Velocity P-wave (km/s) = 5.58079 6.28511 5.94339
#
# Compressibility (1/GPa) = 0.03652288
#
# Stress axis : x y z
#
# Youngs Moduli (GPa) = 110.61142 43.61317 38.90537
#
# Poissons Ratio (x) = 0.21588 0.11106
# Poissons Ratio (y) = 0.54751 0.10779
# Poissons Ratio (z) = 0.31576 0.12083
#
# Static dielectric constant tensor:
#      x y z
#    x 3.933290 -0.000010 -0.079340 
#    y -0.000010 3.605810 0.000020 
#    z -0.079340 0.000020 3.360260 
# 
# 
# High freq. dielectric constant tensor:
#      x y z
#    x 1.791930 0.000000 -0.001590 
#    y 0.000000 1.776360 0.000000 
#    z -0.001590 0.000000 1.743220 
# 
# From -- ./inp_files/244858.got.cif
#   From: 2010.06.25/outbox.cif.g09.slc.cpg/sg12_123_cif.got.tgz:244858.got - 2010.06.28 00:19:55.
