data_PCOD8092564
_publ_section_title
;
Structure prediction by ZEFSAII (Michael W. Deem and Ramdas Pophale) SiO2 
 PCOD8092564
Probable space group: C 2/M
;
_chemical_formula_sum "Si O2"
_cell_formula_units_Z 64
_cell_length_a 31.708749
_cell_length_b 8.992782
_cell_length_c 17.887782
_cell_angle_alpha 90.000000
_cell_angle_beta 138.767699
_cell_angle_gamma 90.000000
_cell_volume 3361.939531
_symmetry_space_group_name_H-M "C 2/M"
_symmetry_group_IT_number 12
_symmetry_cell_setting 'monoclinic'
loop_
_space_group_symop_operation_xyz
x,y,z
-x,y,-z
-x,-y,-z
x,-y,z
1/2+x,1/2+y,z
1/2-x,1/2+y,-z
1/2-x,1/2-y,-z
1/2+x,1/2-y,z
loop_
_atom_site_type_symbol
_atom_site_label
_atom_site_fract_x
_atom_site_fract_y
_atom_site_fract_z
Si Si1 0.034488 0.325332 0.319783
Si Si2 0.338756 0.673263 0.566536
Si Si3 0.815828 0.676027 0.109531
Si Si4 0.283571 0.326871 0.653112
Si Si5 0.461037 0.328936 0.520929
Si Si6 0.601067 0.825890 0.915377
Si Si7 0.190559 0.675481 0.165080
Si Si8 0.825462 0.169947 0.274146
O O1 0.048971 0.500000 0.340860
O O2 0.092837 0.238395 0.361789
O O3 0.018513 0.272079 0.382214
O O4 0.974035 0.287659 0.185910
O O5 0.337859 0.500000 0.546052
O O6 0.325589 0.705335 0.635865
O O7 0.285350 0.749597 0.444287
O O8 0.808120 0.500000 0.098205
O O9 0.867296 0.735511 0.118274
O O10 0.839115 0.727046 0.221556
O O11 0.750000 0.750000 0.000000
O O12 0.271910 0.500000 0.650015
O O13 0.322066 0.258058 0.773715
O O14 0.500000 0.274118 0.500000
O O15 0.478733 0.500000 0.561639
O O16 0.384853 0.310526 0.409208
O O17 0.613177 0.000000 0.932997
O O18 0.636714 0.761509 0.036212
O O19 0.184833 0.500000 0.170649
O O20 0.260639 0.720293 0.228506
O O21 0.819079 0.000000 0.238187
#
# Coordination Sequence:
#
# PCOD8092564 Si02
#       8
#     8   8   8   8   8   8   8   8
#     4  11  22  37  59  83 110 147 195 238 275 329
#     4  10  21  39  61  85 115 148 178 221 284 342
#     4  11  20  34  54  77 108 145 187 231 275 323
#     4  10  21  37  60  90 116 138 179 231 276 333
#     4  10  21  36  54  80 115 151 188 231 284 341
#     4   9  20  37  54  77 111 150 188 231 278 327
#     4  10  19  35  56  78 111 150 185 227 282 333
#     4  10  20  34  53  77 107 145 185 227 278 333
#
# _framework density 19.036629000000001
#
# number of rings (size 3 to 8) (size 9 to 14) (size 15 to 20)
#    0.000    1.875    1.250    3.000    0.000    3.750 
#    0.000    3.750    0.000    3.750    0.000    0.000 
#    0.000    0.000    0.000    0.000    0.000    0.000 
#
# Total GULP energy -396893.233716 kJ/mol
# GULP energy per Si atom -12402.913554 kJ/mol
# Density = 1.899330 g / cm^3
# Si number density = 19.036629 Si / 1000 Ang^3
#
#
#
# Elastic Constant Matrix: (Units=GPa)
#
#
# Indices 1 2 3 4 5 6 
#
# 1 93.8913 39.1792 48.1353 0.0000 -3.0513 0.0000
# 2 39.1792 66.9081 35.6966 0.0000 -8.5829 0.0000
# 3 48.1353 35.6966 107.3564 0.0000 -10.3871 0.0000
# 4 0.0000 0.0000 0.0000 26.8704 0.0000 -7.2363
# 5 -3.0513 -8.5829 -10.3871 0.0000 32.6260 0.0000
# 6 0.0000 0.0000 0.0000 -7.2363 0.0000 31.6098
#
#
#
# Elastic Compliance Matrix: (Units=1/GPa)
#
#
# Indices 1 2 3 4 5 6 
#
# 1 0.016104 -0.006962 -0.005094 0.000000 -0.001947 0.000000
# 2 -0.006962 0.021458 -0.003642 0.000000 0.003834 0.000000
# 3 -0.005094 -0.003642 0.013074 0.000000 0.002728 0.000000
# 4 0.000000 0.000000 0.000000 0.039661 0.000000 0.009079
# 5 -0.001947 0.003834 0.002728 0.000000 0.032345 0.000000
# 6 0.000000 0.000000 0.000000 0.009079 0.000000 0.033714
#
#
# Mechanical properties :
#
#
# Convention : Reuss Voigt Hill
#
# Bulk Modulus (GPa) = 51.97829 57.13089 54.55459
# Shear Modulus (GPa) = 25.75123 27.89755 26.82439
#
# Velocity S-wave (km/s) = 3.68192 3.83229 3.75786
# Velocity P-wave (km/s) = 6.74085 7.04685 6.89555
#
# Compressibility (1/GPa) = 0.01923880
#
# Stress axis : x y z
#
# Youngs Moduli (GPa) = 62.09621 46.60341 76.48904
#
# Poissons Ratio (x) = 0.32445 0.38964
# Poissons Ratio (y) = 0.43232 0.27859
# Poissons Ratio (z) = 0.31632 0.16974
#
# Static dielectric constant tensor:
#      x y z
#    x 3.534640 0.000000 -0.125480 
#    y 0.000000 3.488590 0.000000 
#    z -0.125480 0.000000 3.701590 
# 
# 
# High freq. dielectric constant tensor:
#      x y z
#    x 1.737540 0.000000 -0.002620 
#    y 0.000000 1.731620 0.000000 
#    z -0.002620 0.000000 1.746020 
# 
# From -- ./inp_files/295677.got.cif
#   From: 2010.06.25/outbox.cif.g09.slc.cpg/sg12_148_cif.got.tgz:295677.got - 2010.06.28 00:19:55.
