data_PCOD8092758
_publ_section_title
;
Structure prediction by ZEFSAII (Michael W. Deem and Ramdas Pophale) SiO2 
 PCOD8092758
Probable space group: C 2/M
;
_chemical_formula_sum "Si O2"
_cell_formula_units_Z 64
_cell_length_a 30.271126
_cell_length_b 9.220185
_cell_length_c 16.199201
_cell_angle_alpha 90.000000
_cell_angle_beta 46.812917
_cell_angle_gamma 90.000000
_cell_volume 3296.571997
_symmetry_space_group_name_H-M "C 2/M"
_symmetry_group_IT_number 12
_symmetry_cell_setting 'monoclinic'
loop_
_space_group_symop_operation_xyz
x,y,z
-x,y,-z
-x,-y,-z
x,-y,z
1/2+x,1/2+y,z
1/2-x,1/2+y,-z
1/2-x,1/2-y,-z
1/2+x,1/2-y,z
loop_
_atom_site_type_symbol
_atom_site_label
_atom_site_fract_x
_atom_site_fract_y
_atom_site_fract_z
Si Si1 0.793265 0.668173 0.597833
Si Si2 0.544705 0.670768 0.368817
Si Si3 0.272648 0.665381 0.049312
Si Si4 0.120189 0.328102 0.655712
Si Si5 0.168452 0.330134 0.766078
Si Si6 0.494350 0.168693 0.746416
Si Si7 0.153843 0.662856 0.300760
Si Si8 0.122480 0.334132 0.001279
O O1 0.774615 0.500000 0.618097
O O2 0.824286 0.721326 0.473514
O O3 0.733714 0.758951 0.692070
O O4 0.843817 0.693953 0.604393
O O5 0.500000 0.714610 0.500000
O O6 0.547015 0.500000 0.351579
O O7 0.523131 0.744947 0.312879
O O8 0.611623 0.724516 0.307135
O O9 0.284649 0.500000 0.008996
O O10 0.222984 0.679942 0.183954
O O11 0.335373 0.731340 0.999050
O O12 0.250000 0.750000 0.000000
O O13 0.114551 0.500000 0.663979
O O14 0.133475 0.268014 0.730528
O O15 0.056915 0.265946 0.702127
O O16 0.179779 0.500000 0.741420
O O17 0.127220 0.294520 0.898393
O O18 0.499981 0.000000 0.714801
O O19 0.445769 0.191217 0.881401
O O20 0.129886 0.500000 0.313025
O O21 0.143028 0.500000 0.989872
#
# Coordination Sequence:
#
# PCOD8092758 Si02
#       8
#     8   8   8   8   8   8   8   8
#     4  10  19  35  57  83 113 145 188 234 280 341
#     4  11  24  39  56  83 116 147 183 232 288 338
#     4  11  22  36  55  80 110 145 185 229 278 331
#     4   9  19  35  58  84 110 146 191 237 282 330
#     4  10  20  35  56  85 117 147 183 233 289 335
#     4  10  21  39  60  81 110 152 196 234 274 333
#     4  10  21  36  56  81 108 146 190 226 271 334
#     4  10  21  36  56  83 115 149 188 232 281 335
#
# _framework density 19.414107000000001
#
# number of rings (size 3 to 8) (size 9 to 14) (size 15 to 20)
#    0.000    1.875    1.250    2.625    0.000    7.500 
#    0.000    3.750    0.000    0.000    0.000    2.625 
#    0.000    0.000    0.000    0.000    0.000    0.000 
#
# Total GULP energy -396880.211382 kJ/mol
# GULP energy per Si atom -12402.506606 kJ/mol
# Density = 1.936992 g / cm^3
# Si number density = 19.414107 Si / 1000 Ang^3
#
#
#
# Elastic Constant Matrix: (Units=GPa)
#
#
# Indices 1 2 3 4 5 6 
#
# 1 113.9919 41.3491 49.6323 0.0000 10.7768 0.0000
# 2 41.3491 64.7502 41.7620 -0.0010 5.1131 0.0008
# 3 49.6323 41.7620 113.9688 0.0000 13.5115 0.0000
# 4 0.0000 -0.0010 0.0000 24.7146 0.0000 -1.1908
# 5 10.7768 5.1131 13.5115 0.0000 36.9612 0.0000
# 6 0.0000 0.0008 0.0000 -1.1908 0.0000 23.4306
#
#
#
# Elastic Compliance Matrix: (Units=1/GPa)
#
#
# Indices 1 2 3 4 5 6 
#
# 1 0.012365 -0.005787 -0.003065 0.000000 -0.001684 0.000000
# 2 -0.005787 0.022932 -0.005965 0.000001 0.000696 -0.000001
# 3 -0.003065 -0.005965 0.012639 0.000000 -0.002901 0.000000
# 4 0.000000 0.000001 0.000000 0.040561 0.000000 0.002061
# 5 -0.001684 0.000696 -0.002901 0.000000 0.028511 0.000000
# 6 0.000000 -0.000001 0.000000 0.002061 0.000000 0.042784
#
#
# Mechanical properties :
#
#
# Convention : Reuss Voigt Hill
#
# Bulk Modulus (GPa) = 54.63808 62.02196 58.33002
# Shear Modulus (GPa) = 25.57193 27.68578 26.62885
#
# Velocity S-wave (km/s) = 3.63324 3.78042 3.70756
# Velocity P-wave (km/s) = 6.76795 7.14645 6.95977
#
# Compressibility (1/GPa) = 0.01830225
#
# Stress axis : x y z
#
# Youngs Moduli (GPa) = 80.87175 43.60738 79.12040
#
# Poissons Ratio (x) = 0.25234 0.24249
# Poissons Ratio (y) = 0.46797 0.47199
# Poissons Ratio (z) = 0.24786 0.26014
#
# Static dielectric constant tensor:
#      x y z
#    x 2.716090 0.000000 0.363790 
#    y 0.000000 3.353360 0.000000 
#    z 0.363790 0.000000 3.799700 
# 
# 
# High freq. dielectric constant tensor:
#      x y z
#    x 1.758950 0.000000 0.007670 
#    y 0.000000 1.736860 0.000000 
#    z 0.007670 0.000000 1.770100 
# 
# From -- ./inp_files/249750.got.cif
#   From: 2010.06.25/outbox.cif.g09.slc.cpg/sg12_125_cif.got.tgz:249750.got - 2010.06.28 00:19:55.
