data_PCOD8092164
_publ_section_title
;
Structure prediction by ZEFSAII (Michael W. Deem and Ramdas Pophale) SiO2 
 PCOD8092164
Probable space group: C 2/M
;
_chemical_formula_sum "Si O2"
_cell_formula_units_Z 64
_cell_length_a 34.145500
_cell_length_b 8.630656
_cell_length_c 18.298159
_cell_angle_alpha 90.000000
_cell_angle_beta 142.768723
_cell_angle_gamma 90.000000
_cell_volume 3262.603863
_symmetry_space_group_name_H-M "C 2/M"
_symmetry_group_IT_number 12
_symmetry_cell_setting 'monoclinic'
loop_
_space_group_symop_operation_xyz
x,y,z
-x,y,-z
-x,-y,-z
x,-y,z
1/2+x,1/2+y,z
1/2-x,1/2+y,-z
1/2-x,1/2-y,-z
1/2+x,1/2-y,z
loop_
_atom_site_type_symbol
_atom_site_label
_atom_site_fract_x
_atom_site_fract_y
_atom_site_fract_z
Si Si1 0.779424 0.679924 0.818628
Si Si2 0.843338 0.321345 0.292997
Si Si3 0.768140 0.319813 0.634224
Si Si4 0.449922 0.321890 0.550726
Si Si5 0.147259 0.180103 0.357133
Si Si6 0.965247 0.319877 0.728398
Si Si7 0.901075 0.177605 0.241321
Si Si8 0.900056 0.180559 0.073979
O O1 0.796531 0.500000 0.852369
O O2 0.717670 0.718181 0.775817
O O3 0.763555 0.725462 0.711953
O O4 0.840360 0.780382 0.933810
O O5 0.824447 0.500000 0.273135
O O6 0.904374 0.284603 0.434408
O O7 0.860496 0.286652 0.234501
O O8 0.782720 0.500000 0.643875
O O9 0.826345 0.224322 0.683694
O O10 0.700242 0.273157 0.496726
O O11 0.428310 0.500000 0.509596
O O12 0.443228 0.277800 0.625333
O O13 0.522852 0.296328 0.631741
O O14 0.082590 0.277640 0.276476
O O15 0.130137 0.000000 0.333934
O O16 0.961641 0.500000 0.704215
O O17 0.037714 0.276089 0.860540
O O18 0.882683 0.225487 0.131583
O O19 0.882674 0.000000 0.230024
O O20 0.917517 0.000000 0.095518
#
# Coordination Sequence:
#
# PCOD8092164 Si02
#       8
#     8   8   8   8   8   8   8   8
#     4  11  23  40  60  80 110 150 189 231 281 334
#     4  12  24  35  54  84 114 146 187 233 280 336
#     4   9  20  37  57  84 116 148 181 223 276 330
#     4  10  20  36  57  82 115 150 185 229 282 335
#     4  10  19  34  59  88 118 150 182 221 273 331
#     4  11  21  35  58  86 115 148 188 229 274 332
#     4   9  20  38  58  79 108 147 185 229 285 336
#     4  10  22  41  61  81 109 145 189 237 282 330
#
# _framework density 19.616232
#
# number of rings (size 3 to 8) (size 9 to 14) (size 15 to 20)
#    0.000    1.750    0.000    5.625    0.000    7.500 
#    0.000    0.625    0.000    3.750    0.000    0.000 
#    0.000    0.000    0.000    0.000    0.000    0.000 
#
# Total GULP energy -397004.099852 kJ/mol
# GULP energy per Si atom -12406.378120 kJ/mol
# Density = 1.957158 g / cm^3
# Si number density = 19.616232 Si / 1000 Ang^3
#
#
#
# Elastic Constant Matrix: (Units=GPa)
#
#
# Indices 1 2 3 4 5 6 
#
# 1 105.8060 37.7327 28.2715 0.0000 20.0560 0.0000
# 2 37.7327 66.1125 21.3740 0.0000 0.2682 0.0000
# 3 28.2715 21.3740 67.7497 0.0000 7.1044 0.0000
# 4 0.0000 0.0000 0.0000 32.1429 0.0000 1.8365
# 5 20.0560 0.2682 7.1044 0.0000 11.9183 0.0000
# 6 0.0000 0.0000 0.0000 1.8365 0.0000 32.7071
#
#
#
# Elastic Compliance Matrix: (Units=1/GPa)
#
#
# Indices 1 2 3 4 5 6 
#
# 1 0.019725 -0.010638 -0.001514 0.000000 -0.032051 0.000000
# 2 -0.010638 0.022681 -0.004843 0.000000 0.020278 0.000000
# 3 -0.001514 -0.004843 0.017751 0.000000 -0.007924 0.000000
# 4 0.000000 0.000000 0.000000 0.031211 0.000000 -0.001752
# 5 -0.032051 0.020278 -0.007924 0.000000 0.142107 0.000000
# 6 0.000000 0.000000 0.000000 -0.001752 0.000000 0.030673
#
#
# Mechanical properties :
#
#
# Convention : Reuss Voigt Hill
#
# Bulk Modulus (GPa) = 38.21631 46.04718 42.13174
# Shear Modulus (GPa) = 16.29413 25.50634 20.90024
#
# Velocity S-wave (km/s) = 2.88522 3.60983 3.26767
# Velocity P-wave (km/s) = 5.53386 6.39527 5.98010
#
# Compressibility (1/GPa) = 0.02616684
#
# Stress axis : x y z
#
# Youngs Moduli (GPa) = 50.69691 44.09036 56.33591
#
# Poissons Ratio (x) = 0.46905 0.08529
# Poissons Ratio (y) = 0.53933 0.27281
# Poissons Ratio (z) = 0.07675 0.21351
#
# Static dielectric constant tensor:
#      x y z
#    x 3.582610 0.000000 0.026160 
#    y 0.000000 3.521690 0.000000 
#    z 0.026160 0.000000 3.444940 
# 
# 
# High freq. dielectric constant tensor:
#      x y z
#    x 1.768560 0.000000 0.005720 
#    y 0.000000 1.769600 0.000000 
#    z 0.005720 0.000000 1.750420 
# 
# From -- ./inp_files/295698.got.cif
#   From: 2010.06.25/outbox.cif.g09.slc.cpg/sg12_148_cif.got.tgz:295698.got - 2010.06.28 00:19:55.
