data_PCOD8092420
_publ_section_title
;
Structure prediction by ZEFSAII (Michael W. Deem and Ramdas Pophale) SiO2 
 PCOD8092420
Probable space group: C 2/M
;
_chemical_formula_sum "Si O2"
_cell_formula_units_Z 44
_cell_length_a 12.838456
_cell_length_b 18.440088
_cell_length_c 11.443122
_cell_angle_alpha 90.000000
_cell_angle_beta 57.852534
_cell_angle_gamma 90.000000
_cell_volume 2293.719642
_symmetry_space_group_name_H-M "C 2/M"
_symmetry_group_IT_number 12
_symmetry_cell_setting 'monoclinic'
loop_
_space_group_symop_operation_xyz
x,y,z
-x,y,-z
-x,-y,-z
x,-y,z
1/2+x,1/2+y,z
1/2-x,1/2+y,-z
1/2-x,1/2-y,-z
1/2+x,1/2-y,z
loop_
_atom_site_type_symbol
_atom_site_label
_atom_site_fract_x
_atom_site_fract_y
_atom_site_fract_z
Si Si1 0.724506 0.084190 0.132134
Si Si2 0.510217 0.811811 0.250097
Si Si3 0.000000 0.232267 0.500000
Si Si4 0.058173 0.171234 0.091757
Si Si5 0.242750 0.175883 0.435388
Si Si6 0.841771 0.916698 0.312063
O O1 0.587710 0.114479 0.196415
O O2 0.762035 0.096510 0.243929
O O3 0.728173 0.000000 0.095481
O O4 0.814428 0.127673 0.991370
O O5 0.504227 0.784205 0.386121
O O6 0.576804 0.751920 0.129759
O O7 0.371495 0.830577 0.287142
O O8 0.121701 0.180445 0.425390
O O9 0.967265 0.129186 0.233762
O O10 0.000000 0.175579 0.000000
O O11 0.250000 0.250000 0.500000
O O12 0.235072 0.108744 0.529696
O O13 0.878149 0.000000 0.303895
#
# Coordination Sequence:
#
# PCOD8092420 Si02
#       6
#     8   8   4   8   8   8
#     4  10  21  35  55  85 116 147 183 232 285 328
#     4  11  21  35  59  85 113 144 189 232 278 330
#     4  10  20  34  60  82 112 146 184 230 278 328
#     4  10  20  35  57  83 111 148 188 228 274 329
#     4  10  19  35  54  82 111 146 180 229 275 330
#     4  10  19  35  57  84 115 144 184 234 284 330
#
# _framework density 19.182814
#
# number of rings (size 3 to 8) (size 9 to 14) (size 15 to 20)
#    0.000    1.818    3.636    3.273    2.545    2.909 
#    0.000    2.727    0.000    0.545    0.000    0.000 
#    0.000    0.000    0.000    0.000    0.000    0.000 
#
# Total GULP energy -272774.782118 kJ/mol
# GULP energy per Si atom -12398.853733 kJ/mol
# Density = 1.913915 g / cm^3
# Si number density = 19.182814 Si / 1000 Ang^3
#
#
#
# Elastic Constant Matrix: (Units=GPa)
#
#
# Indices 1 2 3 4 5 6 
#
# 1 106.1157 36.2243 31.4200 0.0000 -38.3079 0.0000
# 2 36.2243 79.8200 32.8219 0.0000 -16.1423 0.0000
# 3 31.4200 32.8219 69.7318 0.0000 -24.1284 0.0000
# 4 0.0000 0.0000 0.0000 35.0057 0.0000 -0.2936
# 5 -38.3079 -16.1423 -24.1284 0.0000 27.1850 0.0000
# 6 0.0000 0.0000 0.0000 -0.2936 0.0000 26.9529
#
#
#
# Elastic Compliance Matrix: (Units=1/GPa)
#
#
# Indices 1 2 3 4 5 6 
#
# 1 0.020541 -0.004705 0.002898 0.000000 0.028724 0.000000
# 2 -0.004705 0.016912 -0.006725 0.000000 -0.002556 0.000000
# 3 0.002898 -0.006725 0.023426 0.000000 0.020883 0.000000
# 4 0.000000 0.000000 0.000000 0.028569 0.000000 0.000311
# 5 0.028724 -0.002556 0.020883 0.000000 0.094279 0.000000
# 6 0.000000 0.000000 0.000000 0.000311 0.000000 0.037105
#
#
# Mechanical properties :
#
#
# Convention : Reuss Voigt Hill
#
# Bulk Modulus (GPa) = 22.82291 50.73332 36.77812
# Shear Modulus (GPa) = 19.80201 28.17547 23.98874
#
# Velocity S-wave (km/s) = 3.21639 3.83663 3.54012
# Velocity P-wave (km/s) = 5.07119 6.79198 5.99366
#
# Compressibility (1/GPa) = 0.04381562
#
# Stress axis : x y z
#
# Youngs Moduli (GPa) = 48.68280 59.13121 42.68793
#
# Poissons Ratio (x) = 0.27820 -0.12371
# Poissons Ratio (y) = 0.22904 0.28706
# Poissons Ratio (z) = -0.14108 0.39764
#
# Static dielectric constant tensor:
#      x y z
#    x 3.892470 0.000000 -0.640210 
#    y 0.000000 2.805980 0.000000 
#    z -0.640210 0.000000 4.607490 
# 
# 
# High freq. dielectric constant tensor:
#      x y z
#    x 1.737700 0.000000 -0.022430 
#    y 0.000000 1.735430 0.000000 
#    z -0.022430 0.000000 1.737140 
# 
# From -- ./inp_files/131587.got.cif
#   From: 2010.06.25/outbox.cif.g09.slc.cpg/sg12_66_cif.got.tgz:131587.got - 2010.06.28 00:19:55.
