data_PCOD8092365
_publ_section_title
;
Structure prediction by ZEFSAII (Michael W. Deem and Ramdas Pophale) SiO2 
 PCOD8092365
Probable space group: C 2/M
;
_chemical_formula_sum "Si O2"
_cell_formula_units_Z 56
_cell_length_a 14.028463
_cell_length_b 29.398762
_cell_length_c 16.120042
_cell_angle_alpha 90.000000
_cell_angle_beta 153.800797
_cell_angle_gamma 90.000000
_cell_volume 2935.144522
_symmetry_space_group_name_H-M "C 2/M"
_symmetry_group_IT_number 12
_symmetry_cell_setting 'monoclinic'
loop_
_space_group_symop_operation_xyz
x,y,z
-x,y,-z
-x,-y,-z
x,-y,z
1/2+x,1/2+y,z
1/2-x,1/2+y,-z
1/2-x,1/2-y,-z
1/2+x,1/2-y,z
loop_
_atom_site_type_symbol
_atom_site_label
_atom_site_fract_x
_atom_site_fract_y
_atom_site_fract_z
Si Si1 0.308102 0.051176 0.798309
Si Si2 0.673560 0.772824 0.746812
Si Si3 0.846637 0.142872 0.568974
Si Si4 0.806191 0.210717 0.676404
Si Si5 0.802583 0.325872 0.896587
Si Si6 0.666675 0.551508 0.510748
Si Si7 0.971338 0.300235 0.200419
O O1 0.274034 0.071147 0.679266
O O2 0.090045 0.051035 0.680510
O O3 0.383590 0.000000 0.839837
O O4 0.500000 0.076238 0.000000
O O5 0.422072 0.768129 0.528485
O O6 0.807273 0.797270 0.776946
O O7 0.772466 0.723317 0.832758
O O8 0.689719 0.801206 0.845518
O O9 0.848077 0.162529 0.663807
O O10 0.773488 0.089610 0.512108
O O11 0.692178 0.173538 0.391665
O O12 0.085641 0.144881 0.714721
O O13 0.985462 0.247109 0.787530
O O14 0.000000 0.348954 0.000000
O O15 0.851334 0.324821 0.032159
O O16 0.744348 0.500000 0.547249
#
# Coordination Sequence:
#
# PCOD8092365 Si02
#       7
#     8   8   8   8   8   8   8
#     4   8  15  31  53  73  96 131 172 211 262 321
#     4  10  19  35  53  74 101 143 174 208 257 315
#     4  11  23  37  49  77 109 136 182 221 254 316
#     4  10  19  36  57  71 105 143 172 217 265 301
#     4  12  23  32  53  78 107 143 176 212 259 309
#     4   9  19  34  52  72 101 138 174 220 268 311
#     4  11  21  36  54  74 106 138 174 218 263 311
#
# _framework density 19.079128000000001
#
# number of rings (size 3 to 8) (size 9 to 14) (size 15 to 20)
#    0.000    1.857    4.286    2.143    0.000    4.571 
#    0.000    0.000    0.000    0.000    0.000    8.000 
#    0.000    1.143    0.000    0.000    0.000    3.714 
#
# Total GULP energy -347021.704514 kJ/mol
# GULP energy per Si atom -12393.632304 kJ/mol
# Density = 1.903570 g / cm^3
# Si number density = 19.079128 Si / 1000 Ang^3
#
#
#
# Elastic Constant Matrix: (Units=GPa)
#
#
# Indices 1 2 3 4 5 6 
#
# 1 94.6345 42.9119 31.7858 -0.0004 -12.7179 -0.0010
# 2 42.9119 105.8229 23.8959 0.0000 -16.0816 -0.0002
# 3 31.7858 23.8959 73.1687 -0.0010 -7.5673 -0.0005
# 4 -0.0004 0.0000 -0.0010 5.6189 -0.0008 -8.5492
# 5 -12.7179 -16.0816 -7.5673 -0.0008 31.0988 -0.0010
# 6 -0.0010 -0.0002 -0.0005 -8.5492 -0.0010 17.2942
#
#
#
# Elastic Compliance Matrix: (Units=1/GPa)
#
#
# Indices 1 2 3 4 5 6 
#
# 1 0.014455 -0.004450 -0.004568 0.000007 0.002499 0.000004
# 2 -0.004450 0.012251 -0.001642 0.000000 0.004115 0.000000
# 3 -0.004568 -0.001642 0.016317 0.000013 0.001253 0.000007
# 4 0.000007 0.000000 0.000013 0.718031 0.000036 0.354952
# 5 0.002499 0.004115 0.001253 0.000036 0.035611 0.000020
# 6 0.000004 0.000000 0.000007 0.354952 0.000020 0.233290
#
#
# Mechanical properties :
#
#
# Convention : Reuss Voigt Hill
#
# Bulk Modulus (GPa) = 46.07709 52.31258 49.19484
# Shear Modulus (GPa) = 4.72363 22.47122 13.59742
#
# Velocity S-wave (km/s) = 1.57518 3.43562 2.67251
# Velocity P-wave (km/s) = 5.24511 6.57391 5.94674
#
# Compressibility (1/GPa) = 0.02170276
#
# Stress axis : x y z
#
# Youngs Moduli (GPa) = 69.18024 81.62855 61.28519
#
# Poissons Ratio (x) = 0.36329 0.27993
# Poissons Ratio (y) = 0.30789 0.10062
# Poissons Ratio (z) = 0.31599 0.13403
#
# Static dielectric constant tensor:
#      x y z
#    x 4.085690 -0.000010 -0.511620 
#    y -0.000010 3.307460 0.000000 
#    z -0.511620 0.000000 4.261020 
# 
# 
# High freq. dielectric constant tensor:
#      x y z
#    x 1.713520 0.000000 0.001110 
#    y 0.000000 1.708340 0.000000 
#    z 0.001110 0.000000 1.764440 
# 
# From -- ./inp_files/219156.got.cif
#   From: 2010.06.25/outbox.cif.g09.slc.cpg/sg12_110_cif.got.tgz:219156.got - 2010.06.28 00:19:55.
