data_PCOD8092975
_publ_section_title
;
Structure prediction by ZEFSAII (Michael W. Deem and Ramdas Pophale) SiO2 
 PCOD8092975
Probable space group: C 2/M
;
_chemical_formula_sum "Si O2"
_cell_formula_units_Z 56
_cell_length_a 19.981592
_cell_length_b 18.175378
_cell_length_c 22.218013
_cell_angle_alpha 90.000000
_cell_angle_beta 20.598159
_cell_angle_gamma 90.000000
_cell_volume 2838.761292
_symmetry_space_group_name_H-M "C 2/M"
_symmetry_group_IT_number 12
_symmetry_cell_setting 'monoclinic'
loop_
_space_group_symop_operation_xyz
x,y,z
-x,y,-z
-x,-y,-z
x,-y,z
1/2+x,1/2+y,z
1/2-x,1/2+y,-z
1/2-x,1/2-y,-z
1/2+x,1/2-y,z
loop_
_atom_site_type_symbol
_atom_site_label
_atom_site_fract_x
_atom_site_fract_y
_atom_site_fract_z
Si Si1 0.972719 0.145309 0.261891
Si Si2 0.795123 0.263314 0.702079
Si Si3 0.632581 0.917924 0.096544
Si Si4 0.375994 0.734056 0.764359
Si Si5 0.658776 0.077791 0.316376
Si Si6 0.001266 0.726604 0.146066
Si Si7 0.947160 0.386448 0.377801
O O1 0.940409 0.221803 0.252653
O O2 0.779298 0.098092 0.425883
O O3 0.026768 0.163470 0.286055
O O4 0.141470 0.098993 0.088818
O O5 0.808019 0.216836 0.753323
O O6 0.718013 0.347050 0.780955
O O7 0.654362 0.223385 0.775345
O O8 0.000000 0.268012 0.500000
O O9 0.527611 0.857815 0.143670
O O10 0.533631 0.918116 0.244353
O O11 0.607603 0.000000 0.090009
O O12 0.528425 0.799033 0.636142
O O13 0.197170 0.759200 0.955289
O O14 0.500000 0.079999 0.500000
O O15 0.555448 0.072943 0.339574
O O16 0.776540 0.000000 0.223816
#
# Coordination Sequence:
#
# PCOD8092975 Si02
#       7
#     8   8   8   8   8   8   8
#     4  11  21  37  64  87 117 156 200 246 291 347
#     4  10  21  33  57  87 114 153 204 243 294 343
#     4  11  24  39  57  89 124 152 194 247 304 360
#     4  10  19  35  58  89 115 149 197 251 286 341
#     4   9  18  33  51  80 120 154 188 227 282 354
#     4  11  20  39  60  88 117 155 199 253 293 343
#     4  11  20  35  63  88 117 155 196 239 296 344
#
# _framework density 19.726914000000001
#
# number of rings (size 3 to 8) (size 9 to 14) (size 15 to 20)
#    0.000    1.571    2.857    4.714    2.000    1.143 
#    0.000    0.714    0.000    9.000    0.000    0.000 
#    0.000    0.000    0.000    0.000    0.000    0.000 
#
# Total GULP energy -347053.634212 kJ/mol
# GULP energy per Si atom -12394.772650 kJ/mol
# Density = 1.968202 g / cm^3
# Si number density = 19.726914 Si / 1000 Ang^3
#
#
#
# Elastic Constant Matrix: (Units=GPa)
#
#
# Indices 1 2 3 4 5 6 
#
# 1 117.2018 39.8292 22.5047 0.0378 6.6844 0.0152
# 2 39.8292 96.5108 27.0475 -0.0030 0.3725 0.0003
# 3 22.5047 27.0475 88.7296 0.0206 3.2042 -0.0036
# 4 0.0378 -0.0030 0.0206 7.2585 -0.0044 -0.9403
# 5 6.6844 0.3725 3.2042 -0.0044 28.9874 -0.0025
# 6 0.0152 0.0003 -0.0036 -0.9403 -0.0025 11.2939
#
#
#
# Elastic Compliance Matrix: (Units=1/GPa)
#
#
# Indices 1 2 3 4 5 6 
#
# 1 0.010215 -0.003830 -0.001345 -0.000055 -0.002158 -0.000019
# 2 -0.003830 0.012767 -0.002958 0.000035 0.001046 0.000007
# 3 -0.001345 -0.002958 0.012551 -0.000030 -0.001039 0.000003
# 4 -0.000055 0.000035 -0.000030 0.139272 0.000038 0.011596
# 5 -0.002158 0.001046 -0.001039 0.000038 0.035097 0.000013
# 6 -0.000019 0.000007 0.000003 0.011596 0.000013 0.089509
#
#
# Mechanical properties :
#
#
# Convention : Reuss Voigt Hill
#
# Bulk Modulus (GPa) = 51.90625 53.46719 52.68672
# Shear Modulus (GPa) = 15.52309 23.71202 19.61755
#
# Velocity S-wave (km/s) = 2.80822 3.47077 3.15692
# Velocity P-wave (km/s) = 6.07324 6.57451 6.32884
#
# Compressibility (1/GPa) = 0.01926550
#
# Stress axis : x y z
#
# Youngs Moduli (GPa) = 97.89116 78.32499 79.67687
#
# Poissons Ratio (x) = 0.30002 0.10720
# Poissons Ratio (y) = 0.37497 0.23569
# Poissons Ratio (z) = 0.13170 0.23170
#
# Static dielectric constant tensor:
#      x y z
#    x 3.706550 -0.000040 0.084280 
#    y -0.000040 3.597880 0.000230 
#    z 0.084280 0.000230 3.570270 
# 
# 
# High freq. dielectric constant tensor:
#      x y z
#    x 1.769640 -0.000010 0.014260 
#    y -0.000010 1.742900 0.000030 
#    z 0.014260 0.000030 1.767940 
# 
# From -- ./inp_files/322732.got.cif
#   From: 2010.06.25/outbox.cif.g09.slc.cpg/sg12_162_cif.got.tgz:322732.got - 2010.06.28 00:19:55.
