data_PCOD8092753
_publ_section_title
;
Structure prediction by ZEFSAII (Michael W. Deem and Ramdas Pophale) SiO2 
 PCOD8092753
Probable space group: C 2/M
;
_chemical_formula_sum "Si O2"
_cell_formula_units_Z 56
_cell_length_a 30.323055
_cell_length_b 14.057407
_cell_length_c 9.057864
_cell_angle_alpha 90.000000
_cell_angle_beta 131.860282
_cell_angle_gamma 90.000000
_cell_volume 2875.601221
_symmetry_space_group_name_H-M "C 2/M"
_symmetry_group_IT_number 12
_symmetry_cell_setting 'monoclinic'
loop_
_space_group_symop_operation_xyz
x,y,z
-x,y,-z
-x,-y,-z
x,-y,z
1/2+x,1/2+y,z
1/2-x,1/2+y,-z
1/2-x,1/2-y,-z
1/2+x,1/2-y,z
loop_
_atom_site_type_symbol
_atom_site_label
_atom_site_fract_x
_atom_site_fract_y
_atom_site_fract_z
Si Si1 0.813461 0.256153 0.708682
Si Si2 0.909783 0.892485 0.870015
Si Si3 0.272690 0.108172 0.133024
Si Si4 0.960632 0.825559 0.276878
Si Si5 0.037222 0.266984 0.214377
Si Si6 0.142732 0.607417 0.420728
Si Si7 0.832916 0.242448 0.076272
O O1 0.750000 0.250000 0.500000
O O2 0.846370 0.155916 0.755878
O O3 0.849323 0.343996 0.720057
O O4 0.808022 0.280062 0.866774
O O5 0.943191 0.834826 0.814872
O O6 0.901361 0.000000 0.794834
O O7 0.943471 0.897030 0.104984
O O8 0.294967 0.110763 0.352228
O O9 0.322428 0.169645 0.161036
O O10 0.271522 0.000000 0.070821
O O11 0.206805 0.150876 0.965713
O O12 0.901939 0.783616 0.223273
O O13 0.000000 0.870034 0.500000
O O14 0.998580 0.744607 0.276920
O O15 0.091653 0.332071 0.388396
O O16 0.000000 0.318971 0.000000
O O17 0.120807 0.500000 0.350660
#
# Coordination Sequence:
#
# PCOD8092753 Si02
#       7
#     8   8   8   8   8   8   8
#     4  10  19  35  57  83 110 141 182 229 279 328
#     4   9  20  36  55  79 111 149 183 222 273 330
#     4  10  21  38  58  79 109 146 183 225 282 336
#     4  10  20  35  57  81 109 148 188 227 272 323
#     4   9  19  36  56  79 113 148 184 222 274 331
#     4  10  20  35  58  84 110 144 184 228 278 332
#     4  10  21  37  59  80 113 147 181 234 275 329
#
# _framework density 19.474188999999999
#
# number of rings (size 3 to 8) (size 9 to 14) (size 15 to 20)
#    0.000    2.286    1.429    1.714    0.000    6.571 
#    0.000    0.714    0.000    2.571    0.000    0.000 
#    0.000    0.000    0.000    0.000    0.000    0.000 
#
# Total GULP energy -346955.844652 kJ/mol
# GULP energy per Si atom -12391.280166 kJ/mol
# Density = 1.942987 g / cm^3
# Si number density = 19.474189 Si / 1000 Ang^3
#
#
#
# Elastic Constant Matrix: (Units=GPa)
#
#
# Indices 1 2 3 4 5 6 
#
# 1 101.6334 43.7636 21.0822 0.0000 9.9352 0.0000
# 2 43.7636 140.1761 30.7953 0.0000 4.3343 0.0000
# 3 21.0822 30.7953 90.8110 0.0000 12.2096 0.0000
# 4 0.0000 0.0000 0.0000 19.9803 0.0000 -2.3509
# 5 9.9352 4.3343 12.2096 0.0000 27.6810 0.0000
# 6 0.0000 0.0000 0.0000 -2.3509 0.0000 7.5434
#
#
#
# Elastic Compliance Matrix: (Units=1/GPa)
#
#
# Indices 1 2 3 4 5 6 
#
# 1 0.011834 -0.003335 -0.001186 0.000000 -0.003202 0.000000
# 2 -0.003335 0.008648 -0.002272 0.000000 0.000845 0.000000
# 3 -0.001186 -0.002272 0.012706 0.000000 -0.004823 0.000000
# 4 0.000000 0.000000 0.000000 0.051955 0.000000 0.016192
# 5 -0.003202 0.000845 -0.004823 0.000000 0.039270 0.000000
# 6 0.000000 0.000000 0.000000 0.016192 0.000000 0.137612
#
#
# Mechanical properties :
#
#
# Convention : Reuss Voigt Hill
#
# Bulk Modulus (GPa) = 51.01388 58.21140 54.61264
# Shear Modulus (GPa) = 17.72130 26.83956 22.28043
#
# Velocity S-wave (km/s) = 3.01988 3.71646 3.38613
# Velocity P-wave (km/s) = 6.19774 6.95503 6.58728
#
# Compressibility (1/GPa) = 0.01960251
#
# Stress axis : x y z
#
# Youngs Moduli (GPa) = 84.49889 115.63130 78.70216
#
# Poissons Ratio (x) = 0.38566 0.09333
# Poissons Ratio (y) = 0.28182 0.17882
# Poissons Ratio (z) = 0.10020 0.26272
#
# Static dielectric constant tensor:
#      x y z
#    x 3.893530 0.000000 -0.182120 
#    y 0.000000 3.289790 0.000000 
#    z -0.182120 0.000000 3.948570 
# 
# 
# High freq. dielectric constant tensor:
#      x y z
#    x 1.769220 0.000000 0.007980 
#    y 0.000000 1.729870 0.000000 
#    z 0.007980 0.000000 1.758400 
# 
# From -- ./inp_files/111722.got.cif
#   From: 2010.06.25/outbox.cif.g09.slc.cpg/sg12_56_cif.got.tgz:111722.got - 2010.06.28 00:19:55.
