data_PCOD8092301
_publ_section_title
;
Structure prediction by ZEFSAII (Michael W. Deem and Ramdas Pophale) SiO2 
 PCOD8092301
Probable space group: C 2/M
;
_chemical_formula_sum "Si O2"
_cell_formula_units_Z 60
_cell_length_a 14.349048
_cell_length_b 17.351282
_cell_length_c 12.821624
_cell_angle_alpha 90.000000
_cell_angle_beta 74.357008
_cell_angle_gamma 90.000000
_cell_volume 3074.016338
_symmetry_space_group_name_H-M "C 2/M"
_symmetry_group_IT_number 12
_symmetry_cell_setting 'monoclinic'
loop_
_space_group_symop_operation_xyz
x,y,z
-x,y,-z
-x,-y,-z
x,-y,z
1/2+x,1/2+y,z
1/2-x,1/2+y,-z
1/2-x,1/2-y,-z
1/2+x,1/2-y,z
loop_
_atom_site_type_symbol
_atom_site_label
_atom_site_fract_x
_atom_site_fract_y
_atom_site_fract_z
Si Si1 0.958282 0.412463 0.369097
Si Si2 0.669582 0.414591 0.219624
Si Si3 0.391221 0.342758 0.562676
Si Si4 0.609989 0.084524 0.836955
Si Si5 0.760939 0.409525 0.545975
Si Si6 0.355247 0.185671 0.677281
Si Si7 0.156476 0.236898 0.099719
Si Si8 0.000000 0.702442 0.000000
O O1 0.986189 0.500000 0.393262
O O2 0.953452 0.405637 0.246585
O O3 0.856639 0.388637 0.450710
O O4 0.041873 0.354433 0.379456
O O5 0.648849 0.500000 0.179755
O O6 0.605938 0.403199 0.342550
O O7 0.778827 0.406411 0.227574
O O8 0.649505 0.351679 0.137262
O O9 0.500000 0.325642 0.500000
O O10 0.332614 0.374454 0.481778
O O11 0.343457 0.264084 0.616874
O O12 0.591476 0.000000 0.892267
O O13 0.583537 0.149457 0.927014
O O14 0.745631 0.500000 0.563625
O O15 0.771895 0.371330 0.657822
O O16 0.339056 0.203118 0.804759
O O17 0.250000 0.250000 0.000000
O O18 0.055664 0.246825 0.068335
#
# Coordination Sequence:
#
# PCOD8092301 Si02
#       8
#     8   8   8   8   8   8   8   4
#     4  10  19  35  60  91 125 154 185 235 308 374
#     4  10  21  41  63  86 119 159 203 249 295 349
#     4  11  23  39  60  86 119 166 211 242 279 340
#     4  10  19  34  61  92 118 152 197 249 310 367
#     4  11  22  38  60  89 125 161 190 237 300 362
#     4  11  23  39  59  90 120 154 197 249 301 359
#     4  11  24  42  62  89 119 157 197 253 307 355
#     4  12  21  40  65  88 118 156 204 256 305 366
#
# _framework density 19.518439000000001
#
# number of rings (size 3 to 8) (size 9 to 14) (size 15 to 20)
#    0.000    1.333    4.000    2.600    0.000    2.133 
#    4.800    1.667    0.000    0.000    0.000    0.000 
#    0.000    0.000    0.000    0.000    0.000    0.000 
#
# Total GULP energy -372014.483243 kJ/mol
# GULP energy per Si atom -12400.482775 kJ/mol
# Density = 1.947401 g / cm^3
# Si number density = 19.518439 Si / 1000 Ang^3
#
#
#
# Elastic Constant Matrix: (Units=GPa)
#
#
# Indices 1 2 3 4 5 6 
#
# 1 87.9776 46.1865 38.9393 0.0000 22.7834 0.0000
# 2 46.1865 104.2683 32.2745 0.0000 23.0957 0.0000
# 3 38.9393 32.2745 82.6623 0.0000 15.0100 0.0000
# 4 0.0000 0.0000 0.0000 17.7701 0.0000 1.0579
# 5 22.7834 23.0957 15.0100 0.0000 34.1130 0.0000
# 6 0.0000 0.0000 0.0000 1.0579 0.0000 9.6254
#
#
#
# Elastic Compliance Matrix: (Units=1/GPa)
#
#
# Indices 1 2 3 4 5 6 
#
# 1 0.017957 -0.004883 -0.005407 0.000000 -0.006308 0.000000
# 2 -0.004883 0.013493 -0.002066 0.000000 -0.004965 0.000000
# 3 -0.005407 -0.002066 0.015804 0.000000 -0.001944 0.000000
# 4 0.000000 0.000000 0.000000 0.056645 0.000000 -0.006226
# 5 -0.006308 -0.004965 -0.001944 0.000000 0.037744 0.000000
# 6 0.000000 0.000000 0.000000 -0.006226 0.000000 0.104576
#
#
# Mechanical properties :
#
#
# Convention : Reuss Voigt Hill
#
# Bulk Modulus (GPa) = 44.36368 56.63430 50.49899
# Shear Modulus (GPa) = 17.95687 22.80224 20.37956
#
# Velocity S-wave (km/s) = 3.03643 3.42166 3.23479
# Velocity P-wave (km/s) = 5.92214 6.68499 6.31509
#
# Compressibility (1/GPa) = 0.02254096
#
# Stress axis : x y z
#
# Youngs Moduli (GPa) = 55.68935 74.11240 63.27473
#
# Poissons Ratio (x) = 0.36192 0.34211
# Poissons Ratio (y) = 0.27195 0.13075
# Poissons Ratio (z) = 0.30110 0.15314
#
# Static dielectric constant tensor:
#      x y z
#    x 3.473780 0.000000 0.100630 
#    y 0.000000 3.742640 0.000000 
#    z 0.100630 0.000000 3.532920 
# 
# 
# High freq. dielectric constant tensor:
#      x y z
#    x 1.753590 0.000000 0.009350 
#    y 0.000000 1.769010 0.000000 
#    z 0.009350 0.000000 1.752960 
# 
# From -- ./inp_files/146115.got.cif
#   From: 2010.06.25/outbox.cif.g09.slc.cpg/sg12_74_cif.got.tgz:146115.got - 2010.06.28 00:19:55.
