data_PCOD8092852
_publ_section_title
;
Structure prediction by ZEFSAII (Michael W. Deem and Ramdas Pophale) SiO2 
 PCOD8092852
Probable space group: C 2/M
;
_chemical_formula_sum "Si O2"
_cell_formula_units_Z 64
_cell_length_a 19.724663
_cell_length_b 8.680723
_cell_length_c 30.427576
_cell_angle_alpha 90.000000
_cell_angle_beta 141.824890
_cell_angle_gamma 90.000000
_cell_volume 3220.092651
_symmetry_space_group_name_H-M "C 2/M"
_symmetry_group_IT_number 12
_symmetry_cell_setting 'monoclinic'
loop_
_space_group_symop_operation_xyz
x,y,z
-x,y,-z
-x,-y,-z
x,-y,z
1/2+x,1/2+y,z
1/2-x,1/2+y,-z
1/2-x,1/2-y,-z
1/2+x,1/2-y,z
loop_
_atom_site_type_symbol
_atom_site_label
_atom_site_fract_x
_atom_site_fract_y
_atom_site_fract_z
Si Si1 0.327770 0.817306 0.124102
Si Si2 0.962507 0.181657 0.117021
Si Si3 0.548503 0.677188 0.476471
Si Si4 0.485378 0.183246 0.281238
Si Si5 0.420381 0.317139 0.997605
Si Si6 0.605560 0.819454 0.672532
Si Si7 0.811973 0.319428 0.738314
Si Si8 0.779208 0.682383 0.623325
O O1 0.363166 0.751187 0.094932
O O2 0.408765 0.752930 0.203117
O O3 0.333860 0.000000 0.123935
O O4 0.204954 0.763368 0.074100
O O5 0.957403 0.244107 0.064375
O O6 0.077546 0.228835 0.196193
O O7 0.949136 0.000000 0.110871
O O8 0.500000 0.692781 0.500000
O O9 0.540730 0.500000 0.456603
O O10 0.482984 0.784495 0.409946
O O11 0.674020 0.739816 0.542008
O O12 0.440702 0.240246 0.304883
O O13 0.608259 0.251316 0.338892
O O14 0.488276 0.000000 0.280155
O O15 0.428436 0.500000 0.000415
O O16 0.500000 0.248036 0.000000
O O17 0.718405 0.727348 0.724758
O O18 0.631383 0.000000 0.686110
O O19 0.837392 0.500000 0.753835
O O20 0.767669 0.268083 0.668121
O O21 0.780801 0.500000 0.621748
#
# Coordination Sequence:
#
# PCOD8092852 Si02
#       8
#     8   8   8   8   8   8   8   8
#     4  10  19  37  64  84 109 159 204 230 274 351
#     4  11  22  36  58  90 121 147 187 247 293 327
#     4  10  19  35  58  81 109 152 197 235 282 347
#     4   9  19  35  57  84 112 149 194 235 281 342
#     4   9  20  36  58  87 118 155 197 234 279 344
#     4  11  23  36  55  87 120 146 185 246 298 333
#     4  11  21  38  62  84 110 152 199 235 280 350
#     4   9  17  34  59  81 104 144 199 237 265 335
#
# _framework density 19.875204
#
# number of rings (size 3 to 8) (size 9 to 14) (size 15 to 20)
#    0.000    2.000    2.500    1.500    1.750    0.750 
#    0.000    1.875    0.000    1.875    0.000    0.000 
#    0.000    0.000    0.000    0.000    0.000    0.000 
#
# Total GULP energy -396791.659245 kJ/mol
# GULP energy per Si atom -12399.739351 kJ/mol
# Density = 1.982997 g / cm^3
# Si number density = 19.875204 Si / 1000 Ang^3
#
#
#
# Elastic Constant Matrix: (Units=GPa)
#
#
# Indices 1 2 3 4 5 6 
#
# 1 155.1567 20.6311 49.1176 0.0000 13.0902 0.0002
# 2 20.6311 18.1721 16.6389 -0.0001 -1.2014 0.0006
# 3 49.1176 16.6389 98.0636 0.0000 15.4115 0.0000
# 4 0.0000 -0.0001 0.0000 16.1707 0.0000 0.1886
# 5 13.0902 -1.2014 15.4115 0.0000 39.3353 0.0000
# 6 0.0002 0.0006 0.0000 0.1886 0.0000 24.5480
#
#
#
# Elastic Compliance Matrix: (Units=1/GPa)
#
#
# Indices 1 2 3 4 5 6 
#
# 1 0.008423 -0.007239 -0.002680 0.000000 -0.001974 0.000000
# 2 -0.007239 0.073092 -0.010129 0.000000 0.008610 -0.000002
# 3 -0.002680 -0.010129 0.014031 0.000000 -0.004915 0.000000
# 4 0.000000 0.000000 0.000000 0.061846 0.000000 -0.000475
# 5 -0.001974 0.008610 -0.004915 0.000000 0.028268 0.000000
# 6 0.000000 -0.000002 0.000000 -0.000475 0.000000 0.040740
#
#
# Mechanical properties :
#
#
# Convention : Reuss Voigt Hill
#
# Bulk Modulus (GPa) = 18.03464 49.35195 33.69330
# Shear Modulus (GPa) = 17.54518 28.34445 22.94481
#
# Velocity S-wave (km/s) = 2.97436 3.78050 3.40140
# Velocity P-wave (km/s) = 4.57049 6.62880 5.69344
#
# Compressibility (1/GPa) = 0.05544883
#
# Stress axis : x y z
#
# Youngs Moduli (GPa) = 118.72751 13.68146 71.27078
#
# Poissons Ratio (x) = 0.09904 0.19102
# Poissons Ratio (y) = 0.85944 0.72192
# Poissons Ratio (z) = 0.31822 0.13858
#
# Static dielectric constant tensor:
#      x y z
#    x 3.939730 0.000000 0.135970 
#    y 0.000000 3.210210 0.000000 
#    z 0.135970 0.000000 3.935820 
# 
# 
# High freq. dielectric constant tensor:
#      x y z
#    x 1.785810 0.000000 0.008930 
#    y 0.000000 1.733540 0.000000 
#    z 0.008930 0.000000 1.788120 
# 
# From -- ./inp_files/378283.got.cif
#   From: 2010.06.25/outbox.cif.g09.slc.cpg/sg12_190_cif.got.tgz:378283.got - 2010.06.28 00:19:55.
