data_PCOD8092282
_publ_section_title
;
Structure prediction by ZEFSAII (Michael W. Deem and Ramdas Pophale) SiO2 
 PCOD8092282
Probable space group: C 2/M
;
_chemical_formula_sum "Si O2"
_cell_formula_units_Z 64
_cell_length_a 31.750518
_cell_length_b 19.480976
_cell_length_c 10.189750
_cell_angle_alpha 90.000000
_cell_angle_beta 35.393016
_cell_angle_gamma 90.000000
_cell_volume 3650.395903
_symmetry_space_group_name_H-M "C 2/M"
_symmetry_group_IT_number 12
_symmetry_cell_setting 'monoclinic'
loop_
_space_group_symop_operation_xyz
x,y,z
-x,y,-z
-x,-y,-z
x,-y,z
1/2+x,1/2+y,z
1/2-x,1/2+y,-z
1/2-x,1/2-y,-z
1/2+x,1/2-y,z
loop_
_atom_site_type_symbol
_atom_site_label
_atom_site_fract_x
_atom_site_fract_y
_atom_site_fract_z
Si Si1 0.162307 0.922663 0.090125
Si Si2 0.181333 0.074372 0.539801
Si Si3 0.417653 0.391011 0.444783
Si Si4 0.720379 0.794105 0.696222
Si Si5 0.415081 0.237504 0.364484
Si Si6 0.418477 0.611346 0.968956
Si Si7 0.762855 0.706515 0.836481
Si Si8 0.075397 0.735513 0.966086
O O1 0.108089 0.912904 0.347567
O O2 0.113870 0.911971 0.085807
O O3 0.194903 0.000000 0.007601
O O4 0.228391 0.868828 0.932080
O O5 0.132511 0.073604 0.534767
O O6 0.240819 0.133638 0.385045
O O7 0.220874 0.000000 0.445938
O O8 0.130522 0.080374 0.793848
O O9 0.412019 0.309496 0.445589
O O10 0.500100 0.417016 0.218424
O O11 0.750000 0.750000 0.500000
O O12 0.727454 0.749873 0.809325
O O13 0.635798 0.812674 0.880630
O O14 0.348915 0.192896 0.590896
O O15 0.494476 0.202720 0.186900
O O16 0.404201 0.249826 0.237257
O O17 0.419875 0.693223 0.969659
O O18 0.750000 0.750000 0.000000
#
# Coordination Sequence:
#
# PCOD8092282 Si02
#       8
#     8   8   8   8   8   8   8   8
#     4  12  25  37  51  79 115 151 179 218 274 324
#     4  12  23  35  55  83 110 145 186 226 269 318
#     4  11  21  37  54  76 113 151 183 214 260 327
#     4  12  19  37  58  78 106 147 183 229 271 315
#     4  10  19  35  59  86 106 138 188 233 271 316
#     4  11  21  35  54  80 111 148 184 215 262 327
#     4  12  21  37  58  81 108 145 186 230 266 320
#     4  10  19  34  61  84 107 139 186 233 273 317
#
# _framework density 17.532344999999999
#
# number of rings (size 3 to 8) (size 9 to 14) (size 15 to 20)
#    0.000    0.750    7.500    1.500    0.000    3.000 
#    0.000    0.625    0.000    0.750    0.000    1.750 
#    0.000    4.000    0.000    0.000    0.000    0.000 
#
# Total GULP energy -396743.985878 kJ/mol
# GULP energy per Si atom -12398.249559 kJ/mol
# Density = 1.749244 g / cm^3
# Si number density = 17.532345 Si / 1000 Ang^3
#
#
#
# Elastic Constant Matrix: (Units=GPa)
#
#
# Indices 1 2 3 4 5 6 
#
# 1 130.5617 44.4657 58.1022 0.0000 -1.8985 0.0000
# 2 44.4657 103.6209 41.5141 0.0000 -13.7308 0.0000
# 3 58.1022 41.5141 103.9391 0.0000 -6.6068 0.0000
# 4 0.0000 0.0000 0.0000 19.1514 0.0000 -0.9807
# 5 -1.8985 -13.7308 -6.6068 0.0000 41.6166 0.0000
# 6 0.0000 0.0000 0.0000 -0.9807 0.0000 16.8717
#
#
#
# Elastic Compliance Matrix: (Units=1/GPa)
#
#
# Indices 1 2 3 4 5 6 
#
# 1 0.010825 -0.002800 -0.005011 0.000000 -0.001226 0.000000
# 2 -0.002800 0.012622 -0.003252 0.000000 0.003520 0.000000
# 3 -0.005011 -0.003252 0.013777 0.000000 0.000886 0.000000
# 4 0.000000 0.000000 0.000000 0.052371 0.000000 0.003044
# 5 -0.001226 0.003520 0.000886 0.000000 0.025275 0.000000
# 6 0.000000 0.000000 0.000000 0.003044 0.000000 0.059448
#
#
# Mechanical properties :
#
#
# Convention : Reuss Voigt Hill
#
# Bulk Modulus (GPa) = 66.23451 69.58729 67.91090
# Shear Modulus (GPa) = 24.81684 28.46392 26.64038
#
# Velocity S-wave (km/s) = 3.76638 4.03365 3.90230
# Velocity P-wave (km/s) = 7.53489 7.84033 7.68913
#
# Compressibility (1/GPa) = 0.01509787
#
# Stress axis : x y z
#
# Youngs Moduli (GPa) = 92.38001 79.22981 72.58380
#
# Poissons Ratio (x) = 0.22185 0.36369
# Poissons Ratio (y) = 0.25867 0.23605
# Poissons Ratio (z) = 0.46288 0.25766
#
# Static dielectric constant tensor:
#      x y z
#    x 3.540150 0.000000 -0.173200 
#    y 0.000000 3.115740 0.000000 
#    z -0.173200 0.000000 3.409360 
# 
# 
# High freq. dielectric constant tensor:
#      x y z
#    x 1.692330 0.000000 0.005710 
#    y 0.000000 1.648300 0.000000 
#    z 0.005710 0.000000 1.681880 
# 
# From -- ./inp_files/112822.got.cif
#   From: 2010.06.25/outbox.cif.g09.slc.cpg/sg12_57_cif.got.tgz:112822.got - 2010.06.28 00:19:55.
