data_PCOD8092131
_publ_section_title
;
Structure prediction by ZEFSAII (Michael W. Deem and Ramdas Pophale) SiO2 
 PCOD8092131
Probable space group: C 2/M
;
_chemical_formula_sum "Si O2"
_cell_formula_units_Z 56
_cell_length_a 21.650454
_cell_length_b 14.437342
_cell_length_c 9.494170
_cell_angle_alpha 90.000000
_cell_angle_beta 71.534305
_cell_angle_gamma 90.000000
_cell_volume 2814.846762
_symmetry_space_group_name_H-M "C 2/M"
_symmetry_group_IT_number 12
_symmetry_cell_setting 'monoclinic'
loop_
_space_group_symop_operation_xyz
x,y,z
-x,y,-z
-x,-y,-z
x,-y,z
1/2+x,1/2+y,z
1/2-x,1/2+y,-z
1/2-x,1/2-y,-z
1/2+x,1/2-y,z
loop_
_atom_site_type_symbol
_atom_site_label
_atom_site_fract_x
_atom_site_fract_y
_atom_site_fract_z
Si Si1 0.287212 0.775255 0.665847
Si Si2 0.575533 0.109138 0.932170
Si Si3 0.849651 0.739236 0.334519
Si Si4 0.562055 0.607172 0.772794
Si Si5 0.418499 0.392936 0.926910
Si Si6 0.825569 0.605583 0.903368
Si Si7 0.803037 0.106113 0.822905
O O1 0.208998 0.785211 0.713570
O O2 0.320528 0.807639 0.496443
O O3 0.317072 0.834403 0.770381
O O4 0.301836 0.666316 0.682043
O O5 0.609964 0.161787 0.778402
O O6 0.583252 0.000000 0.895994
O O7 0.500000 0.138338 0.000000
O O8 0.610203 0.135543 0.055213
O O9 0.895903 0.824062 0.353682
O O10 0.582632 0.500000 0.737890
O O11 0.485896 0.620148 0.793425
O O12 0.576208 0.647912 0.920040
O O13 0.403829 0.500000 0.960953
O O14 0.359251 0.350030 0.881985
O O15 0.831566 0.500000 0.848627
O O16 0.764704 0.618546 0.049581
O O17 0.817320 0.000000 0.770670
#
# Coordination Sequence:
#
# PCOD8092131 Si02
#       7
#     8   8   8   8   8   8   8
#     4  11  24  38  56  89 124 150 193 247 292 356
#     4  10  23  43  65  87 112 152 209 259 298 347
#     4  11  24  38  58  87 119 161 192 235 306 348
#     4   9  18  33  52  82 119 150 186 225 276 348
#     4   8  16  30  53  83 110 143 186 230 271 328
#     4  10  21  39  63  86 111 153 201 249 299 345
#     4  10  19  34  59  86 114 151 191 232 287 346
#
# _framework density 19.894511999999999
#
# number of rings (size 3 to 8) (size 9 to 14) (size 15 to 20)
#    0.000    2.143    1.429    2.143    4.000    2.857 
#    0.000    5.714    0.000    5.143    0.000    0.000 
#    0.000    0.000    0.000    0.000    0.000    0.000 
#
# Total GULP energy -347114.899164 kJ/mol
# GULP energy per Si atom -12396.960684 kJ/mol
# Density = 1.984923 g / cm^3
# Si number density = 19.894512 Si / 1000 Ang^3
#
#
#
# Elastic Constant Matrix: (Units=GPa)
#
#
# Indices 1 2 3 4 5 6 
#
# 1 142.2749 35.3814 42.5417 0.0000 -3.1206 0.0000
# 2 35.3814 70.9179 43.0323 0.0000 -3.5128 0.0000
# 3 42.5417 43.0323 84.5414 0.0000 -4.6857 0.0000
# 4 0.0000 0.0000 0.0000 20.3322 0.0000 1.1821
# 5 -3.1206 -3.5128 -4.6857 0.0000 26.0724 0.0000
# 6 0.0000 0.0000 0.0000 1.1821 0.0000 28.4308
#
#
#
# Elastic Compliance Matrix: (Units=1/GPa)
#
#
# Indices 1 2 3 4 5 6 
#
# 1 0.008546 -0.002390 -0.003076 0.000000 0.000148 0.000000
# 2 -0.002390 0.021091 -0.009486 0.000000 0.000851 0.000000
# 3 -0.003076 -0.009486 0.018296 0.000000 0.001642 0.000000
# 4 0.000000 0.000000 0.000000 0.049302 0.000000 -0.002050
# 5 0.000148 0.000851 0.001642 0.000000 0.038782 0.000000
# 6 0.000000 0.000000 0.000000 -0.002050 0.000000 0.035258
#
#
# Mechanical properties :
#
#
# Convention : Reuss Voigt Hill
#
# Bulk Modulus (GPa) = 55.46359 59.96055 57.71207
# Shear Modulus (GPa) = 24.13262 26.75231 25.44247
#
# Velocity S-wave (km/s) = 3.48664 3.67100 3.58001
# Velocity P-wave (km/s) = 6.64441 6.94068 6.79416
#
# Compressibility (1/GPa) = 0.01802985
#
# Stress axis : x y z
#
# Youngs Moduli (GPa) = 117.01535 47.41298 54.65815
#
# Poissons Ratio (x) = 0.11332 0.16811
# Poissons Ratio (y) = 0.27967 0.51848
# Poissons Ratio (z) = 0.35989 0.44975
#
# Static dielectric constant tensor:
#      x y z
#    x 3.981420 0.000000 0.095250 
#    y 0.000000 3.609530 0.000000 
#    z 0.095250 0.000000 3.312430 
# 
# 
# High freq. dielectric constant tensor:
#      x y z
#    x 1.791680 0.000000 -0.002160 
#    y 0.000000 1.777030 0.000000 
#    z -0.002160 0.000000 1.742030 
# 
# From -- ./inp_files/96234.got.cif
#   From: 2010.06.25/outbox.cif.g09.slc.cpg/sg12_49_cif.got.tgz:96234.got - 2010.06.28 00:19:55.
