data_PCOD8092103
_publ_section_title
;
Structure prediction by ZEFSAII (Michael W. Deem and Ramdas Pophale) SiO2 
 PCOD8092103
Probable space group: C 2/M
;
_chemical_formula_sum "Si O2"
_cell_formula_units_Z 56
_cell_length_a 17.149801
_cell_length_b 17.188424
_cell_length_c 26.239604
_cell_angle_alpha 90.000000
_cell_angle_beta 158.419353
_cell_angle_gamma 90.000000
_cell_volume 2844.962305
_symmetry_space_group_name_H-M "C 2/M"
_symmetry_group_IT_number 12
_symmetry_cell_setting 'monoclinic'
loop_
_space_group_symop_operation_xyz
x,y,z
-x,y,-z
-x,-y,-z
x,-y,z
1/2+x,1/2+y,z
1/2-x,1/2+y,-z
1/2-x,1/2-y,-z
1/2+x,1/2-y,z
loop_
_atom_site_type_symbol
_atom_site_label
_atom_site_fract_x
_atom_site_fract_y
_atom_site_fract_z
Si Si1 0.938457 0.911765 0.377460
Si Si2 0.169377 0.410011 0.645150
Si Si3 0.495738 0.092323 0.844681
Si Si4 0.600157 0.590797 0.847998
Si Si5 0.495851 0.173624 0.359638
Si Si6 0.482787 0.336793 0.672690
Si Si7 0.397830 0.908336 0.675082
O O1 0.725394 0.870734 0.269130
O O2 0.949153 0.907679 0.322565
O O3 0.156911 0.872881 0.531411
O O4 0.930068 0.000000 0.390913
O O5 0.125396 0.500000 0.632660
O O6 0.402880 0.397649 0.765317
O O7 0.156086 0.358882 0.688488
O O8 0.000000 0.382186 0.500000
O O9 0.522147 0.116898 0.801616
O O10 0.490526 0.000000 0.846889
O O11 0.693728 0.123176 0.997345
O O12 0.618835 0.500000 0.843278
O O13 0.581617 0.645970 0.787616
O O14 0.426214 0.259678 0.299766
O O15 0.731151 0.170947 0.525959
O O16 0.474879 0.121613 0.296261
O O17 0.378013 0.000000 0.657660
#
# Coordination Sequence:
#
# PCOD8092103 Si02
#       7
#     8   8   8   8   8   8   8
#     4   9  17  31  55  81 106 139 182 226 266 318
#     4  10  19  34  59  85 106 137 185 232 271 317
#     4   9  18  33  53  81 110 140 178 221 269 321
#     4  10  20  35  58  83 111 144 182 227 273 323
#     4  10  20  35  53  80 110 140 180 228 276 320
#     4  10  20  34  51  80 111 141 178 224 277 328
#     4   9  17  32  56  80 106 140 182 225 267 321
#
# _framework density 19.683916
#
# number of rings (size 3 to 8) (size 9 to 14) (size 15 to 20)
#    0.000    2.429    1.429    1.286    0.000    3.429 
#    2.571    3.571    3.143    3.429    0.000    0.000 
#    0.000    0.000    0.000    0.000    0.000    0.000 
#
# Total GULP energy -347067.280413 kJ/mol
# GULP energy per Si atom -12395.260015 kJ/mol
# Density = 1.963911 g / cm^3
# Si number density = 19.683916 Si / 1000 Ang^3
#
#
#
# Elastic Constant Matrix: (Units=GPa)
#
#
# Indices 1 2 3 4 5 6 
#
# 1 109.5880 35.8223 51.6636 -0.0129 -26.1548 0.0093
# 2 35.8223 45.8820 23.2418 -0.0039 -9.3310 0.0183
# 3 51.6636 23.2418 97.4925 0.0103 -27.6783 0.0493
# 4 -0.0129 -0.0039 0.0103 13.8419 0.0033 -4.5122
# 5 -26.1548 -9.3310 -27.6783 0.0033 31.7475 -0.0028
# 6 0.0093 0.0183 0.0493 -4.5122 -0.0028 26.9308
#
#
#
# Elastic Compliance Matrix: (Units=1/GPa)
#
#
# Indices 1 2 3 4 5 6 
#
# 1 0.015532 -0.008611 -0.004337 0.000018 0.006484 0.000012
# 2 -0.008611 0.029756 -0.002740 -0.000002 -0.000737 -0.000013
# 3 -0.004337 -0.002740 0.015902 -0.000028 0.009485 -0.000030
# 4 0.000018 -0.000002 -0.000028 0.076418 -0.000017 0.012804
# 5 0.006484 -0.000737 0.009485 -0.000017 0.044893 -0.000017
# 6 0.000012 -0.000013 -0.000030 0.012804 -0.000017 0.039278
#
#
# Mechanical properties :
#
#
# Convention : Reuss Voigt Hill
#
# Bulk Modulus (GPa) = 33.54172 52.71311 43.12741
# Shear Modulus (GPa) = 19.00477 23.98636 21.49557
#
# Velocity S-wave (km/s) = 3.11062 3.49460 3.30818
# Velocity P-wave (km/s) = 5.47525 6.56665 6.04563
#
# Compressibility (1/GPa) = 0.02981362
#
# Stress axis : x y z
#
# Youngs Moduli (GPa) = 64.38328 33.60670 62.88683
#
# Poissons Ratio (x) = 0.28939 0.27276
# Poissons Ratio (y) = 0.55440 0.17230
# Poissons Ratio (z) = 0.27925 0.09207
#
# Static dielectric constant tensor:
#      x y z
#    x 3.575460 0.000000 -0.024740 
#    y 0.000000 3.362150 -0.000070 
#    z -0.024740 -0.000070 3.581100 
# 
# 
# High freq. dielectric constant tensor:
#      x y z
#    x 1.775780 0.000000 -0.007550 
#    y 0.000000 1.737810 -0.000010 
#    z -0.007550 -0.000010 1.749090 
# 
# From -- ./inp_files/364496.got.cif
#   From: 2010.06.25/outbox.cif.g09.slc.cpg/sg12_183_cif.got.tgz:364496.got - 2010.06.28 00:19:55.
