data_PCOD8092334
_publ_section_title
;
Structure prediction by ZEFSAII (Michael W. Deem and Ramdas Pophale) SiO2 
 PCOD8092334
Probable space group: C 2/M
;
_chemical_formula_sum "Si O2"
_cell_formula_units_Z 36
_cell_length_a 9.438468
_cell_length_b 20.731765
_cell_length_c 16.278799
_cell_angle_alpha 90.000000
_cell_angle_beta 33.265043
_cell_angle_gamma 90.000000
_cell_volume 1747.217193
_symmetry_space_group_name_H-M "C 2/M"
_symmetry_group_IT_number 12
_symmetry_cell_setting 'monoclinic'
loop_
_space_group_symop_operation_xyz
x,y,z
-x,y,-z
-x,-y,-z
x,-y,z
1/2+x,1/2+y,z
1/2-x,1/2+y,-z
1/2-x,1/2-y,-z
1/2+x,1/2-y,z
loop_
_atom_site_type_symbol
_atom_site_label
_atom_site_fract_x
_atom_site_fract_y
_atom_site_fract_z
Si Si1 0.699463 0.428610 0.640075
Si Si2 0.000000 0.250690 0.000000
Si Si3 0.277180 0.576575 0.550541
Si Si4 0.396866 0.334442 0.898319
Si Si5 0.706158 0.072962 0.112339
O O1 0.568897 0.500000 0.714577
O O2 0.652176 0.396811 0.573715
O O3 0.605550 0.380371 0.755362
O O4 0.000000 0.439141 0.500000
O O5 0.745567 0.292928 0.103156
O O6 0.954033 0.207867 0.104475
O O7 0.500000 0.605393 0.500000
O O8 0.288464 0.500000 0.540192
O O9 0.993155 0.597018 0.720933
O O10 0.178946 0.379093 0.048038
O O11 0.636819 0.000000 0.119008
O O12 0.000000 0.077420 0.000000
#
# Coordination Sequence:
#
# PCOD8092334 Si02
#       5
#     8   4   8   8   8
#     4  10  21  38  64  97 126 153 191 250 322 381
#     4  10  26  42  62  80 120 166 220 254 298 334
#     4   9  19  34  54  89 131 155 181 239 317 377
#     4  11  22  43  63  85 119 162 211 261 292 363
#     4  10  19  34  64  96 120 156 199 247 316 382
#
# _framework density 20.604194
#
# number of rings (size 3 to 8) (size 9 to 14) (size 15 to 20)
#    0.000    2.000    1.111    2.000    3.111    3.556 
#    0.000    2.222    0.000    0.000    0.000    0.000 
#    0.000    0.000    0.000    0.000    0.000    0.000 
#
# Total GULP energy -223060.787414 kJ/mol
# GULP energy per Si atom -12392.265967 kJ/mol
# Density = 2.055730 g / cm^3
# Si number density = 20.604194 Si / 1000 Ang^3
#
#
#
# Elastic Constant Matrix: (Units=GPa)
#
#
# Indices 1 2 3 4 5 6 
#
# 1 129.1752 39.7543 40.6611 -0.0763 16.4910 0.0075
# 2 39.7543 101.0158 54.6777 0.0291 14.4492 0.0066
# 3 40.6611 54.6777 120.3051 -0.5115 12.6760 -0.0938
# 4 -0.0763 0.0291 -0.5115 21.6465 0.1242 -0.4992
# 5 16.4910 14.4492 12.6760 0.1242 30.3387 -0.0525
# 6 0.0075 0.0066 -0.0938 -0.4992 -0.0525 36.1497
#
#
#
# Elastic Compliance Matrix: (Units=1/GPa)
#
#
# Indices 1 2 3 4 5 6 
#
# 1 0.009427 -0.002258 -0.001813 0.000012 -0.003291 -0.000011
# 2 -0.002258 0.014135 -0.005316 -0.000134 -0.003283 -0.000023
# 3 -0.001813 -0.005316 0.011477 0.000280 -0.001279 0.000033
# 4 0.000012 -0.000134 0.000280 0.046220 -0.000248 0.000639
# 5 -0.003291 -0.003283 -0.001279 -0.000248 0.036850 0.000048
# 6 -0.000011 -0.000023 0.000033 0.000639 0.000048 0.027672
#
#
# Mechanical properties :
#
#
# Convention : Reuss Voigt Hill
#
# Bulk Modulus (GPa) = 61.47949 68.96471 65.22210
# Shear Modulus (GPa) = 29.41594 31.98716 30.70155
#
# Velocity S-wave (km/s) = 3.78255 3.94440 3.86432
# Velocity P-wave (km/s) = 6.99857 7.36806 7.18569
#
# Compressibility (1/GPa) = 0.01626559
#
# Stress axis : x y z
#
# Youngs Moduli (GPa) = 106.07558 70.74654 87.13051
#
# Poissons Ratio (x) = 0.15973 0.15799
# Poissons Ratio (y) = 0.23949 0.46317
# Poissons Ratio (z) = 0.19234 0.37607
#
# Static dielectric constant tensor:
#      x y z
#    x 5.097980 0.000240 0.899670 
#    y 0.000240 3.811040 0.000240 
#    z 0.899670 0.000240 4.002920 
# 
# 
# High freq. dielectric constant tensor:
#      x y z
#    x 1.807530 0.000000 0.014870 
#    y 0.000000 1.786910 0.000000 
#    z 0.014870 0.000000 1.796950 
# 
# From -- ./inp_files/38908.got.cif
#   From: 2010.06.25/outbox.cif.g09.slc.cpg/sg12_20_cif.got.tgz:38908.got - 2010.06.28 00:19:55.
