data_PCOD8092021
_publ_section_title
;
Structure prediction by ZEFSAII (Michael W. Deem and Ramdas Pophale) SiO2 
 PCOD8092021
Probable space group: C 2/M
;
_chemical_formula_sum "Si O2"
_cell_formula_units_Z 64
_cell_length_a 30.466216
_cell_length_b 9.157292
_cell_length_c 19.528438
_cell_angle_alpha 90.000000
_cell_angle_beta 37.295616
_cell_angle_gamma 90.000000
_cell_volume 3301.214726
_symmetry_space_group_name_H-M "C 2/M"
_symmetry_group_IT_number 12
_symmetry_cell_setting 'monoclinic'
loop_
_space_group_symop_operation_xyz
x,y,z
-x,y,-z
-x,-y,-z
x,-y,z
1/2+x,1/2+y,z
1/2-x,1/2+y,-z
1/2-x,1/2-y,-z
1/2+x,1/2-y,z
loop_
_atom_site_type_symbol
_atom_site_label
_atom_site_fract_x
_atom_site_fract_y
_atom_site_fract_z
Si Si1 0.050954 0.166862 0.001547
Si Si2 0.200992 0.167789 0.007139
Si Si3 0.797126 0.830818 0.248343
Si Si4 0.202797 0.665584 0.238340
Si Si5 0.965010 0.671812 0.222503
Si Si6 0.802743 0.327484 0.381825
Si Si7 0.458044 0.327937 0.758516
Si Si8 0.060387 0.827373 0.373510
O O1 0.130679 0.218357 0.880987
O O2 0.051666 0.000000 0.027415
O O3 0.000000 0.185737 0.000000
O O4 0.023443 0.268440 0.096415
O O5 0.228954 0.195699 0.895848
O O6 0.204408 0.000000 0.024687
O O7 0.250000 0.250000 0.000000
O O8 0.118329 0.221208 0.113780
O O9 0.728728 0.806528 0.283544
O O10 0.783995 0.729855 0.329811
O O11 0.804078 0.000000 0.262505
O O12 0.175513 0.500000 0.262857
O O13 0.138235 0.771828 0.299792
O O14 0.974525 0.500000 0.216965
O O15 0.884844 0.715369 0.298048
O O16 0.978663 0.744015 0.279670
O O17 0.790085 0.500000 0.400438
O O18 0.750000 0.250000 0.500000
O O19 0.471695 0.500000 0.748003
O O20 0.459732 0.275259 0.677745
O O21 0.000000 0.764851 0.500000
O O22 0.064349 0.000000 0.371802
#
# Coordination Sequence:
#
# PCOD8092021 Si02
#       8
#     8   8   8   8   8   8   8   8
#     4  10  19  35  63  91 119 159 194 228 287 358
#     4  10  19  34  58  87 118 152 190 235 287 346
#     4  10  21  39  62  90 122 156 195 238 287 350
#     4  10  21  36  58  87 119 151 188 236 289 347
#     4  11  24  39  59  89 122 152 193 249 297 345
#     4  11  25  43  62  86 117 155 200 249 297 347
#     4  10  21  38  60  85 117 155 194 238 291 356
#     4  10  22  40  60  83 112 149 197 246 288 341
#
# _framework density 19.386800999999998
#
# number of rings (size 3 to 8) (size 9 to 14) (size 15 to 20)
#    0.000    1.750    2.500    1.500    0.000    7.000 
#    0.000    3.750    0.000    0.000    0.000    0.000 
#    0.000    0.000    0.000    0.000    0.000    0.000 
#
# Total GULP energy -396933.178597 kJ/mol
# GULP energy per Si atom -12404.161831 kJ/mol
# Density = 1.934268 g / cm^3
# Si number density = 19.386801 Si / 1000 Ang^3
#
#
#
# Elastic Constant Matrix: (Units=GPa)
#
#
# Indices 1 2 3 4 5 6 
#
# 1 104.3566 39.8175 41.0298 -0.0048 26.2333 -0.0019
# 2 39.8175 54.4900 38.6239 0.0089 11.0797 0.0017
# 3 41.0298 38.6239 111.6454 0.0039 24.3736 -0.0077
# 4 -0.0048 0.0089 0.0039 23.1222 0.0006 0.5130
# 5 26.2333 11.0797 24.3736 0.0006 13.8803 0.0051
# 6 -0.0019 0.0017 -0.0077 0.5130 0.0051 36.2214
#
#
#
# Elastic Compliance Matrix: (Units=1/GPa)
#
#
# Indices 1 2 3 4 5 6 
#
# 1 0.022621 -0.011381 0.004823 0.000009 -0.042138 0.000009
# 2 -0.011381 0.030534 -0.009334 -0.000013 0.013526 -0.000006
# 3 0.004823 -0.009334 0.017477 0.000002 -0.032354 0.000009
# 4 0.000009 -0.000013 0.000002 0.043262 -0.000012 -0.000613
# 5 -0.042138 0.013526 -0.032354 -0.000012 0.197700 -0.000037
# 6 0.000009 -0.000006 0.000009 -0.000613 -0.000037 0.027617
#
#
# Mechanical properties :
#
#
# Convention : Reuss Voigt Hill
#
# Bulk Modulus (GPa) = 25.74036 56.60386 41.17211
# Shear Modulus (GPa) = 13.02276 24.71284 18.86780
#
# Velocity S-wave (km/s) = 2.59459 3.57420 3.12305
# Velocity P-wave (km/s) = 4.72038 6.80395 5.85558
#
# Compressibility (1/GPa) = 0.03884950
#
# Stress axis : x y z
#
# Youngs Moduli (GPa) = 44.20614 32.75047 57.21908
#
# Poissons Ratio (x) = 0.37272 -0.27597
# Poissons Ratio (y) = 0.50309 0.53406
# Poissons Ratio (z) = -0.21321 0.30568
#
# Static dielectric constant tensor:
#      x y z
#    x 3.718930 0.000000 0.096970 
#    y 0.000000 3.432300 0.000040 
#    z 0.096970 0.000040 3.675140 
# 
# 
# High freq. dielectric constant tensor:
#      x y z
#    x 1.767310 0.000000 0.004950 
#    y 0.000000 1.745090 0.000000 
#    z 0.004950 0.000000 1.755420 
# 
# From -- ./inp_files/295498.got.cif
#   From: 2010.06.25/outbox.cif.g09.slc.cpg/sg12_148_cif.got.tgz:295498.got - 2010.06.28 00:19:55.
