data_PCOD8092091
_publ_section_title
;
Structure prediction by ZEFSAII (Michael W. Deem and Ramdas Pophale) SiO2 
 PCOD8092091
Probable space group: C 2/M
;
_chemical_formula_sum "Si O2"
_cell_formula_units_Z 56
_cell_length_a 19.079607
_cell_length_b 8.846488
_cell_length_c 28.043860
_cell_angle_alpha 90.000000
_cell_angle_beta 39.481028
_cell_angle_gamma 90.000000
_cell_volume 3009.637051
_symmetry_space_group_name_H-M "C 2/M"
_symmetry_group_IT_number 12
_symmetry_cell_setting 'monoclinic'
loop_
_space_group_symop_operation_xyz
x,y,z
-x,y,-z
-x,-y,-z
x,-y,z
1/2+x,1/2+y,z
1/2-x,1/2+y,-z
1/2-x,1/2-y,-z
1/2+x,1/2-y,z
loop_
_atom_site_type_symbol
_atom_site_label
_atom_site_fract_x
_atom_site_fract_y
_atom_site_fract_z
Si Si1 0.282864 0.821812 0.260093
Si Si2 0.146066 0.822843 0.579489
Si Si3 0.560841 0.678957 0.895521
Si Si4 0.897534 0.326140 0.808477
Si Si5 0.420155 0.174116 0.685386
Si Si6 0.879772 0.824273 0.297046
Si Si7 0.342369 0.321955 0.056380
O O1 0.390401 0.765337 0.175205
O O2 0.171483 0.750093 0.299083
O O3 0.297629 0.770617 0.306985
O O4 0.273299 0.000000 0.261792
O O5 0.250000 0.750000 0.500000
O O6 0.152202 0.784228 0.632183
O O7 0.036470 0.753293 0.613891
O O8 0.145021 0.000000 0.570685
O O9 0.578062 0.500000 0.879213
O O10 0.621214 0.741700 0.911203
O O11 0.430626 0.721606 0.969056
O O12 0.923337 0.500000 0.808003
O O13 0.885364 0.306097 0.758281
O O14 0.781327 0.268487 0.892104
O O15 0.993630 0.222721 0.779261
O O16 0.430416 0.000000 0.665505
O O17 0.866921 0.000000 0.292173
O O18 0.342110 0.500000 0.063424
#
# Coordination Sequence:
#
# PCOD8092091 Si02
#       7
#     8   8   8   8   8   8   8
#     4  12  23  35  52  79 113 146 184 229 273 321
#     4  10  21  39  63  90 116 141 175 217 263 319
#     4   9  16  30  51  75 105 143 183 226 276 326
#     4   9  16  31  54  80 105 137 182 228 272 322
#     4  10  19  34  59  84 110 145 182 221 267 321
#     4  10  22  38  56  79 109 145 181 220 267 321
#     4   8  14  27  51  78 103 137 184 229 273 324
#
# _framework density 18.606895000000002
#
# number of rings (size 3 to 8) (size 9 to 14) (size 15 to 20)
#    0.000    2.286    1.429    3.429    0.000    2.286 
#    0.000    3.571    0.000    4.286    0.000    0.000 
#    0.000    0.000    0.000    0.000    0.000    0.000 
#
# Total GULP energy -347175.127566 kJ/mol
# GULP energy per Si atom -12399.111699 kJ/mol
# Density = 1.856455 g / cm^3
# Si number density = 18.606895 Si / 1000 Ang^3
#
#
#
# Elastic Constant Matrix: (Units=GPa)
#
#
# Indices 1 2 3 4 5 6 
#
# 1 99.1861 53.1101 48.3233 -0.0002 -13.3238 0.0007
# 2 53.1101 98.5913 50.8649 -0.0003 -7.1930 0.0014
# 3 48.3233 50.8649 128.2790 0.0000 -23.1593 -0.0001
# 4 -0.0002 -0.0003 0.0000 28.1477 0.0000 -5.8215
# 5 -13.3238 -7.1930 -23.1593 0.0000 21.7844 -0.0001
# 6 0.0007 0.0014 -0.0001 -5.8215 -0.0001 29.6161
#
#
#
# Elastic Compliance Matrix: (Units=1/GPa)
#
#
# Indices 1 2 3 4 5 6 
#
# 1 0.015483 -0.006825 -0.002257 0.000000 0.004817 0.000000
# 2 -0.006825 0.015796 -0.004337 0.000000 -0.003569 -0.000001
# 3 -0.002257 -0.004337 0.012199 0.000000 0.010157 0.000000
# 4 0.000000 0.000000 0.000000 0.037032 0.000000 0.007279
# 5 0.004817 -0.003569 0.010157 0.000000 0.058470 0.000000
# 6 0.000000 -0.000001 0.000000 0.007279 0.000000 0.035196
#
#
# Mechanical properties :
#
#
# Convention : Reuss Voigt Hill
#
# Bulk Modulus (GPa) = 60.09089 70.07254 65.08172
# Shear Modulus (GPa) = 24.20593 27.49353 25.84973
#
# Velocity S-wave (km/s) = 3.61073 3.84813 3.73132
# Velocity P-wave (km/s) = 7.05324 7.58191 7.32235
#
# Compressibility (1/GPa) = 0.01664146
#
# Stress axis : x y z
#
# Youngs Moduli (GPa) = 64.58696 63.30522 81.97411
#
# Poissons Ratio (x) = 0.43205 0.18499
# Poissons Ratio (y) = 0.44079 0.35552
# Poissons Ratio (z) = 0.14575 0.27456
#
# Static dielectric constant tensor:
#      x y z
#    x 3.348000 0.000000 -0.224620 
#    y 0.000000 3.314530 0.000000 
#    z -0.224620 0.000000 3.563440 
# 
# 
# High freq. dielectric constant tensor:
#      x y z
#    x 1.709120 0.000000 -0.016370 
#    y 0.000000 1.712490 0.000000 
#    z -0.016370 0.000000 1.718990 
# 
# From -- ./inp_files/377628.got.cif
#   From: 2010.06.25/outbox.cif.g09.slc.cpg/sg12_189_cif.got.tgz:377628.got - 2010.06.28 00:19:55.
