data_PCOD8092175
_publ_section_title
;
Structure prediction by ZEFSAII (Michael W. Deem and Ramdas Pophale) SiO2 
 PCOD8092175
Probable space group: C 2/M
;
_chemical_formula_sum "Si O2"
_cell_formula_units_Z 64
_cell_length_a 13.845061
_cell_length_b 12.608184
_cell_length_c 19.249364
_cell_angle_alpha 90.000000
_cell_angle_beta 85.267399
_cell_angle_gamma 90.000000
_cell_volume 3348.733482
_symmetry_space_group_name_H-M "C 2/M"
_symmetry_group_IT_number 12
_symmetry_cell_setting 'monoclinic'
loop_
_space_group_symop_operation_xyz
x,y,z
-x,y,-z
-x,-y,-z
x,-y,z
1/2+x,1/2+y,z
1/2-x,1/2+y,-z
1/2-x,1/2-y,-z
1/2+x,1/2-y,z
loop_
_atom_site_type_symbol
_atom_site_label
_atom_site_fract_x
_atom_site_fract_y
_atom_site_fract_z
Si Si1 0.335190 0.306219 0.159062
Si Si2 0.723903 0.877182 0.294220
Si Si3 0.288415 0.378502 0.881289
Si Si4 0.979504 0.120343 0.781388
Si Si5 0.656535 0.739905 0.597779
Si Si6 0.892517 0.878441 0.009039
Si Si7 0.674482 0.623670 0.458484
Si Si8 0.052964 0.760454 0.351572
O O1 0.254457 0.362409 0.212090
O O2 0.302604 0.186705 0.143034
O O3 0.439526 0.302633 0.190442
O O4 0.343690 0.370706 0.086980
O O5 0.799601 0.811013 0.335460
O O6 0.615823 0.833553 0.313762
O O7 0.726133 0.000000 0.314897
O O8 0.253505 0.500000 0.887636
O O9 0.378135 0.364130 0.824789
O O10 0.321270 0.330880 0.954236
O O11 0.962870 0.144941 0.701924
O O12 0.018062 0.000000 0.786408
O O13 0.652716 0.647708 0.540105
O O14 0.716713 0.840782 0.567041
O O15 0.550713 0.786549 0.620308
O O16 0.906781 0.000000 0.986136
O O17 0.000000 0.824303 0.000000
O O18 0.661704 0.500000 0.444502
O O19 0.601177 0.691335 0.416844
#
# Coordination Sequence:
#
# PCOD8092175 Si02
#       8
#     8   8   8   8   8   8   8   8
#     4  12  21  36  61  86 114 153 197 238 286 340
#     4  11  23  37  57  86 117 152 193 238 286 344
#     4  10  22  39  58  85 119 151 190 239 291 341
#     4  11  21  36  59  85 114 149 193 241 286 336
#     4  10  22  39  59  83 118 153 186 236 288 343
#     4  10  19  34  59  89 114 147 195 241 287 341
#     4  10  22  39  60  87 114 148 194 236 284 341
#     4  11  22  38  57  86 118 149 190 238 285 343
#
# _framework density 19.111702999999999
#
# number of rings (size 3 to 8) (size 9 to 14) (size 15 to 20)
#    0.000    1.375    3.750    2.625    0.000    2.500 
#    0.000    0.625    0.000    4.875    0.000    0.000 
#    0.000    0.000    0.000    0.000    0.000    0.000 
#
# Total GULP energy -396858.003072 kJ/mol
# GULP energy per Si atom -12401.812596 kJ/mol
# Density = 1.906820 g / cm^3
# Si number density = 19.111703 Si / 1000 Ang^3
#
#
#
# Elastic Constant Matrix: (Units=GPa)
#
#
# Indices 1 2 3 4 5 6 
#
# 1 106.6892 26.1950 33.2548 0.0000 -5.3018 0.0000
# 2 26.1950 55.2905 4.2581 0.0000 1.7100 0.0000
# 3 33.2548 4.2581 103.1262 0.0000 -6.1036 0.0000
# 4 0.0000 0.0000 0.0000 24.9694 0.0000 3.3955
# 5 -5.3018 1.7100 -6.1036 0.0000 34.4341 0.0000
# 6 0.0000 0.0000 0.0000 3.3955 0.0000 21.3643
#
#
#
# Elastic Compliance Matrix: (Units=1/GPa)
#
#
# Indices 1 2 3 4 5 6 
#
# 1 0.011868 -0.005397 -0.003517 0.000000 0.001472 0.000000
# 2 -0.005397 0.020636 0.000787 0.000000 -0.001716 0.000000
# 3 -0.003517 0.000787 0.010878 0.000000 0.001348 0.000000
# 4 0.000000 0.000000 0.000000 0.040934 0.000000 -0.006506
# 5 0.001472 -0.001716 0.001348 0.000000 0.029592 0.000000
# 6 0.000000 0.000000 0.000000 -0.006506 0.000000 0.047841
#
#
# Mechanical properties :
#
#
# Convention : Reuss Voigt Hill
#
# Bulk Modulus (GPa) = 36.86374 43.61351 40.23863
# Shear Modulus (GPa) = 26.73156 29.58009 28.15583
#
# Velocity S-wave (km/s) = 3.74398 3.93841 3.84242
# Velocity P-wave (km/s) = 6.16606 6.59934 6.38637
#
# Compressibility (1/GPa) = 0.02712692
#
# Stress axis : x y z
#
# Youngs Moduli (GPa) = 84.26355 48.45951 91.92676
#
# Poissons Ratio (x) = 0.26154 0.32330
# Poissons Ratio (y) = 0.45478 -0.07233
# Poissons Ratio (z) = 0.29635 -0.03813
#
# Static dielectric constant tensor:
#      x y z
#    x 3.578880 0.000000 -0.007690 
#    y 0.000000 3.229800 0.000000 
#    z -0.007690 0.000000 3.690200 
# 
# 
# High freq. dielectric constant tensor:
#      x y z
#    x 1.745600 0.000000 -0.002650 
#    y 0.000000 1.714020 0.000000 
#    z -0.002650 0.000000 1.765510 
# 
# From -- ./inp_files/269313.got.cif
#   From: 2010.06.25/outbox.cif.g09.slc.cpg/sg12_135_cif.got.tgz:269313.got - 2010.06.28 00:19:55.
