data_PCOD8092944
_publ_section_title
;
Structure prediction by ZEFSAII (Michael W. Deem and Ramdas Pophale) SiO2 
 PCOD8092944
Probable space group: C 2/M
;
_chemical_formula_sum "Si O2"
_cell_formula_units_Z 56
_cell_length_a 29.782133
_cell_length_b 8.921627
_cell_length_c 13.504535
_cell_angle_alpha 90.000000
_cell_angle_beta 49.996888
_cell_angle_gamma 90.000000
_cell_volume 2748.613454
_symmetry_space_group_name_H-M "C 2/M"
_symmetry_group_IT_number 12
_symmetry_cell_setting 'monoclinic'
loop_
_space_group_symop_operation_xyz
x,y,z
-x,y,-z
-x,-y,-z
x,-y,z
1/2+x,1/2+y,z
1/2-x,1/2+y,-z
1/2-x,1/2-y,-z
1/2+x,1/2-y,z
loop_
_atom_site_type_symbol
_atom_site_label
_atom_site_fract_x
_atom_site_fract_y
_atom_site_fract_z
Si Si1 0.872454 0.823843 0.925146
Si Si2 0.012788 0.330657 0.178063
Si Si3 0.136181 0.824400 0.288023
Si Si4 0.098801 0.177714 0.711306
Si Si5 0.735490 0.172146 0.823008
Si Si6 0.207355 0.673968 0.638229
Si Si7 0.583245 0.169465 0.540709
O O1 0.924212 0.746253 0.913261
O O2 0.874894 0.771337 0.807966
O O3 0.880436 0.000000 0.923109
O O4 0.810807 0.777934 0.057994
O O5 0.019321 0.500000 0.129143
O O6 0.966808 0.240749 0.172535
O O7 0.985433 0.328807 0.328722
O O8 0.201325 0.777359 0.227471
O O9 0.089396 0.740729 0.423864
O O10 0.126154 0.000000 0.314912
O O11 0.143863 0.246468 0.726465
O O12 0.118923 0.232677 0.572401
O O13 0.099648 0.000000 0.716231
O O14 0.734491 0.197345 0.707499
O O15 0.721937 0.000000 0.870139
O O16 0.200029 0.500000 0.622080
O O17 0.250000 0.750000 0.500000
O O18 0.607819 0.000000 0.505974
#
# Coordination Sequence:
#
# PCOD8092944 Si02
#       7
#     8   8   8   8   8   8   8
#     4  11  23  38  59  86 117 157 201 245 293 347
#     4   9  20  38  59  85 119 156 198 243 290 350
#     4  10  21  37  58  86 119 156 198 246 298 345
#     4  10  19  35  58  85 118 151 185 238 297 348
#     4  10  23  41  59  83 118 158 197 240 290 348
#     4  11  22  37  61  91 119 153 196 241 295 350
#     4   9  19  34  57  87 117 152 194 240 289 345
#
# _framework density 20.373911
#
# number of rings (size 3 to 8) (size 9 to 14) (size 15 to 20)
#    0.857    1.143    0.000    3.857    0.000    4.571 
#    0.000    3.571    0.000    4.286    0.000    0.000 
#    0.000    0.000    0.000    0.000    0.000    0.000 
#
# Total GULP energy -347155.626344 kJ/mol
# GULP energy per Si atom -12398.415227 kJ/mol
# Density = 2.032754 g / cm^3
# Si number density = 20.373911 Si / 1000 Ang^3
#
#
#
# Elastic Constant Matrix: (Units=GPa)
#
#
# Indices 1 2 3 4 5 6 
#
# 1 66.7406 23.0357 -16.7113 0.0000 -1.0563 0.0000
# 2 23.0357 112.9580 11.4238 0.0000 3.0910 0.0000
# 3 -16.7113 11.4238 21.3545 0.0000 -5.3019 0.0000
# 4 0.0000 0.0000 0.0000 33.1753 0.0000 -3.9915
# 5 -1.0563 3.0910 -5.3019 0.0000 19.0299 0.0000
# 6 0.0000 0.0000 0.0000 -3.9915 0.0000 30.6699
#
#
#
# Elastic Compliance Matrix: (Units=1/GPa)
#
#
# Indices 1 2 3 4 5 6 
#
# 1 0.024218 -0.007787 0.025531 0.000000 0.009722 0.000000
# 2 -0.007787 0.012040 -0.014103 0.000000 -0.006317 0.000000
# 3 0.025531 -0.014103 0.080867 0.000000 0.026238 0.000000
# 4 0.000000 0.000000 0.000000 0.030622 0.000000 0.003985
# 5 0.009722 -0.006317 0.026238 0.000000 0.061425 0.000000
# 6 0.000000 0.000000 0.000000 0.003985 0.000000 0.033124
#
#
# Mechanical properties :
#
#
# Convention : Reuss Voigt Hill
#
# Bulk Modulus (GPa) = 8.03806 26.28327 17.16066
# Shear Modulus (GPa) = 18.08433 28.79535 23.43984
#
# Velocity S-wave (km/s) = 2.98253 3.76353 3.39556
# Velocity P-wave (km/s) = 3.97674 5.64039 4.87998
#
# Compressibility (1/GPa) = 0.12440819
#
# Stress axis : x y z
#
# Youngs Moduli (GPa) = 41.29204 83.05665 12.36593
#
# Poissons Ratio (x) = 0.64675 -0.31572
# Poissons Ratio (y) = 0.32154 0.17440
# Poissons Ratio (z) = -1.05424 1.17135
#
# Static dielectric constant tensor:
#      x y z
#    x 3.648850 0.000000 0.009380 
#    y 0.000000 3.660170 0.000000 
#    z 0.009380 0.000000 3.451030 
# 
# 
# High freq. dielectric constant tensor:
#      x y z
#    x 1.792860 0.000000 -0.004740 
#    y 0.000000 1.803610 0.000000 
#    z -0.004740 0.000000 1.780190 
# 
# From -- ./inp_files/187192.got.cif
#   From: 2010.06.25/outbox.cif.g09.slc.cpg/sg12_94_cif.got.tgz:187192.got - 2010.06.28 00:19:55.
