data_PCOD8092969
_publ_section_title
;
Structure prediction by ZEFSAII (Michael W. Deem and Ramdas Pophale) SiO2 
 PCOD8092969
Probable space group: C 2/M
;
_chemical_formula_sum "Si O2"
_cell_formula_units_Z 56
_cell_length_a 9.744939
_cell_length_b 22.626782
_cell_length_c 15.103510
_cell_angle_alpha 90.000000
_cell_angle_beta 54.998653
_cell_angle_gamma 90.000000
_cell_volume 2727.954831
_symmetry_space_group_name_H-M "C 2/M"
_symmetry_group_IT_number 12
_symmetry_cell_setting 'monoclinic'
loop_
_space_group_symop_operation_xyz
x,y,z
-x,y,-z
-x,-y,-z
x,-y,z
1/2+x,1/2+y,z
1/2-x,1/2+y,-z
1/2-x,1/2-y,-z
1/2+x,1/2-y,z
loop_
_atom_site_type_symbol
_atom_site_label
_atom_site_fract_x
_atom_site_fract_y
_atom_site_fract_z
Si Si1 0.651934 0.856070 0.306964
Si Si2 0.725147 0.565770 0.578452
Si Si3 0.380372 0.931591 0.337640
Si Si4 0.337532 0.565884 0.751505
Si Si5 0.848269 0.190251 0.803007
Si Si6 0.947238 0.760031 0.425786
Si Si7 0.068744 0.782156 0.878170
O O1 0.695400 0.892542 0.377844
O O2 0.552917 0.895202 0.271760
O O3 0.541872 0.801224 0.377716
O O4 0.820428 0.837068 0.194999
O O5 0.795775 0.500000 0.569992
O O6 0.779945 0.589007 0.462032
O O7 0.526830 0.564089 0.650619
O O8 0.273781 0.916201 0.291079
O O9 0.425420 0.000000 0.323705
O O10 0.287868 0.500000 0.807528
O O11 0.312561 0.619840 0.830865
O O12 0.676122 0.221663 0.836695
O O13 0.994996 0.195937 0.674203
O O14 0.911820 0.222361 0.868834
O O15 0.750000 0.750000 0.500000
O O16 0.000000 0.788368 0.500000
O O17 0.000000 0.796174 0.000000
#
# Coordination Sequence:
#
# PCOD8092969 Si02
#       7
#     8   8   8   8   8   8   8
#     4  11  22  37  59  87 124 161 212 258 314 365
#     4  10  19  35  58  87 127 174 212 245 294 367
#     4  10  21  34  56  91 128 174 211 242 295 370
#     4  10  22  38  60  89 130 169 205 246 299 366
#     4  11  24  42  66  94 122 165 206 254 316 374
#     4  11  24  36  54  89 129 164 196 242 308 375
#     4  11  25  46  67  93 116 157 216 270 324 365
#
# _framework density 20.528199999999998
#
# number of rings (size 3 to 8) (size 9 to 14) (size 15 to 20)
#    0.000    1.429    1.429    4.286    8.000    2.857 
#    0.000    0.000    0.000    4.286    0.000    0.000 
#    0.000    0.000    0.000    0.000    0.000    0.000 
#
# Total GULP energy -347200.782033 kJ/mol
# GULP energy per Si atom -12400.027930 kJ/mol
# Density = 2.048148 g / cm^3
# Si number density = 20.528200 Si / 1000 Ang^3
#
#
#
# Elastic Constant Matrix: (Units=GPa)
#
#
# Indices 1 2 3 4 5 6 
#
# 1 110.5242 44.1443 13.3329 0.0000 14.4029 0.0000
# 2 44.1443 104.8258 25.3270 0.0000 6.6924 0.0000
# 3 13.3329 25.3270 71.9606 0.0000 13.9835 0.0000
# 4 0.0000 0.0000 0.0000 26.2832 0.0000 2.3581
# 5 14.4029 6.6924 13.9835 0.0000 24.4068 0.0000
# 6 0.0000 0.0000 0.0000 2.3581 0.0000 33.5158
#
#
#
# Elastic Compliance Matrix: (Units=1/GPa)
#
#
# Indices 1 2 3 4 5 6 
#
# 1 0.011607 -0.004665 0.000646 0.000000 -0.005940 0.000000
# 2 -0.004665 0.012317 -0.003769 0.000000 0.001535 0.000000
# 3 0.000646 -0.003769 0.016853 0.000000 -0.009003 0.000000
# 4 0.000000 0.000000 0.000000 0.038289 0.000000 -0.002694
# 5 -0.005940 0.001535 -0.009003 0.000000 0.049215 0.000000
# 6 0.000000 0.000000 0.000000 -0.002694 0.000000 0.030026
#
#
# Mechanical properties :
#
#
# Convention : Reuss Voigt Hill
#
# Bulk Modulus (GPa) = 39.68171 50.32434 45.00302
# Shear Modulus (GPa) = 27.42984 30.47491 28.95238
#
# Velocity S-wave (km/s) = 3.65938 3.85715 3.75956
# Velocity P-wave (km/s) = 6.10139 6.66369 6.38873
#
# Compressibility (1/GPa) = 0.02520053
#
# Stress axis : x y z
#
# Youngs Moduli (GPa) = 86.15365 81.19079 59.33711
#
# Poissons Ratio (x) = 0.37873 -0.03831
# Poissons Ratio (y) = 0.40188 0.22364
# Poissons Ratio (z) = -0.05562 0.30600
#
# Static dielectric constant tensor:
#      x y z
#    x 3.980120 0.000000 -0.058160 
#    y 0.000000 4.102150 0.000000 
#    z -0.058160 0.000000 3.412110 
# 
# 
# High freq. dielectric constant tensor:
#      x y z
#    x 1.824420 0.000000 -0.001070 
#    y 0.000000 1.814820 0.000000 
#    z -0.001070 0.000000 1.757870 
# 
# From -- ./inp_files/198780.got.cif
#   From: 2010.06.25/outbox.cif.g09.slc.cpg/sg12_100_cif.got.tgz:198780.got - 2010.06.28 00:19:55.
