data_PCOD8092691
_publ_section_title
;
Structure prediction by ZEFSAII (Michael W. Deem and Ramdas Pophale) SiO2 
 PCOD8092691
Probable space group: C 2/M
;
_chemical_formula_sum "Si O2"
_cell_formula_units_Z 64
_cell_length_a 24.236737
_cell_length_b 9.096716
_cell_length_c 19.931941
_cell_angle_alpha 90.000000
_cell_angle_beta 125.072571
_cell_angle_gamma 90.000000
_cell_volume 3596.559174
_symmetry_space_group_name_H-M "C 2/M"
_symmetry_group_IT_number 12
_symmetry_cell_setting 'monoclinic'
loop_
_space_group_symop_operation_xyz
x,y,z
-x,y,-z
-x,-y,-z
x,-y,z
1/2+x,1/2+y,z
1/2-x,1/2+y,-z
1/2-x,1/2-y,-z
1/2+x,1/2-y,z
loop_
_atom_site_type_symbol
_atom_site_label
_atom_site_fract_x
_atom_site_fract_y
_atom_site_fract_z
Si Si1 0.073210 0.827983 0.033459
Si Si2 0.589224 0.172222 0.256692
Si Si3 0.417397 0.668235 0.250175
Si Si4 0.177462 0.174581 0.215287
Si Si5 0.948971 0.671366 0.622132
Si Si6 0.545974 0.330697 0.869402
Si Si7 0.928027 0.828516 0.477028
Si Si8 0.315408 0.669243 0.289559
O O1 0.131167 0.762596 0.121933
O O2 0.071077 0.000000 0.046249
O O3 0.089394 0.793483 0.966418
O O4 0.000000 0.759677 0.000000
O O5 0.652203 0.254723 0.267186
O O6 0.591103 0.206702 0.337355
O O7 0.520135 0.230854 0.176580
O O8 0.594392 0.000000 0.245778
O O9 0.439516 0.500000 0.279067
O O10 0.475147 0.769197 0.321171
O O11 0.408174 0.699288 0.164156
O O12 0.347097 0.700310 0.238206
O O13 0.253162 0.223350 0.254525
O O14 0.175126 0.000000 0.219843
O O15 0.953303 0.500000 0.611561
O O16 0.909578 0.746630 0.533305
O O17 0.521436 0.500000 0.854545
O O18 0.870818 0.790042 0.383646
O O19 0.000000 0.771845 0.500000
O O20 0.931546 0.000000 0.495062
O O21 0.292376 0.500000 0.280383
#
# Coordination Sequence:
#
# PCOD8092691 Si02
#       8
#     8   8   8   8   8   8   8   8
#     4   9  16  30  52  80 107 132 174 226 264 300
#     4  10  20  34  51  77 111 140 170 216 271 313
#     4   9  17  32  54  77 104 142 180 212 258 316
#     4  11  22  36  55  77 105 143 181 216 261 320
#     4  10  20  32  52  82 111 135 169 222 268 306
#     4   9  16  30  55  80 103 136 180 221 256 307
#     4  10  19  35  57  80 106 138 178 218 258 310
#     4  10  21  37  54  76 109 141 173 217 264 311
#
# _framework density 17.794785000000001
#
# number of rings (size 3 to 8) (size 9 to 14) (size 15 to 20)
#    0.000    2.250    2.500    1.125    0.000    2.750 
#    0.000    3.125    0.000    0.000    0.000    0.000 
#    0.000    0.000    0.000    0.000    0.000    0.000 
#
# Total GULP energy -396774.237575 kJ/mol
# GULP energy per Si atom -12399.194924 kJ/mol
# Density = 1.775428 g / cm^3
# Si number density = 17.794785 Si / 1000 Ang^3
#
#
#
# Elastic Constant Matrix: (Units=GPa)
#
#
# Indices 1 2 3 4 5 6 
#
# 1 124.8015 50.4854 63.2969 0.0000 -9.5120 0.0000
# 2 50.4854 62.7171 41.0120 0.0000 -5.9297 0.0000
# 3 63.2969 41.0120 102.0838 0.0000 -10.8082 0.0000
# 4 0.0000 0.0000 0.0000 18.5304 0.0000 2.3649
# 5 -9.5120 -5.9297 -10.8082 0.0000 28.7886 0.0000
# 6 0.0000 0.0000 0.0000 2.3649 0.0000 29.0356
#
#
#
# Elastic Compliance Matrix: (Units=1/GPa)
#
#
# Indices 1 2 3 4 5 6 
#
# 1 0.013920 -0.007509 -0.005510 0.000000 0.000984 0.000000
# 2 -0.007509 0.025719 -0.005601 0.000000 0.000714 0.000000
# 3 -0.005510 -0.005601 0.015775 0.000000 0.002948 0.000000
# 4 0.000000 0.000000 0.000000 0.054532 0.000000 -0.004441
# 5 0.000984 0.000714 0.002948 0.000000 0.036315 0.000000
# 6 0.000000 0.000000 0.000000 -0.004441 0.000000 0.034802
#
#
# Mechanical properties :
#
#
# Convention : Reuss Voigt Hill
#
# Bulk Modulus (GPa) = 55.02524 66.57676 60.80100
# Shear Modulus (GPa) = 22.28543 24.25813 23.27178
#
# Velocity S-wave (km/s) = 3.54271 3.69618 3.62026
# Velocity P-wave (km/s) = 6.90823 7.46395 7.19146
#
# Compressibility (1/GPa) = 0.01817348
#
# Stress axis : x y z
#
# Youngs Moduli (GPa) = 71.83960 38.88132 63.39196
#
# Poissons Ratio (x) = 0.29195 0.34930
# Poissons Ratio (y) = 0.53943 0.35507
# Poissons Ratio (z) = 0.39585 0.21778
#
# Static dielectric constant tensor:
#      x y z
#    x 3.336710 0.000000 -0.318480 
#    y 0.000000 3.201300 0.000000 
#    z -0.318480 0.000000 3.344140 
# 
# 
# High freq. dielectric constant tensor:
#      x y z
#    x 1.682960 0.000000 -0.027100 
#    y 0.000000 1.678040 0.000000 
#    z -0.027100 0.000000 1.679390 
# 
# From -- ./inp_files/324347.got.cif
#   From: 2010.06.25/outbox.cif.g09.slc.cpg/sg12_163_cif.got.tgz:324347.got - 2010.06.28 00:19:55.
