data_PCOD8092790
_publ_section_title
;
Structure prediction by ZEFSAII (Michael W. Deem and Ramdas Pophale) SiO2 
 PCOD8092790
Probable space group: C 2/M
;
_chemical_formula_sum "Si O2"
_cell_formula_units_Z 56
_cell_length_a 9.715845
_cell_length_b 25.758681
_cell_length_c 21.442303
_cell_angle_alpha 90.000000
_cell_angle_beta 147.915020
_cell_angle_gamma 90.000000
_cell_volume 2850.456854
_symmetry_space_group_name_H-M "C 2/M"
_symmetry_group_IT_number 12
_symmetry_cell_setting 'monoclinic'
loop_
_space_group_symop_operation_xyz
x,y,z
-x,y,-z
-x,-y,-z
x,-y,z
1/2+x,1/2+y,z
1/2-x,1/2+y,-z
1/2-x,1/2-y,-z
1/2+x,1/2-y,z
loop_
_atom_site_type_symbol
_atom_site_label
_atom_site_fract_x
_atom_site_fract_y
_atom_site_fract_z
Si Si1 0.865035 0.058439 0.089009
Si Si2 0.777975 0.117710 0.864796
Si Si3 0.004436 0.273909 0.070545
Si Si4 0.076498 0.557603 0.182274
Si Si5 0.040869 0.285355 0.705702
Si Si6 0.193441 0.871455 0.816160
Si Si7 0.192983 0.298971 0.625567
O O1 0.788840 0.086787 0.122802
O O2 0.098430 0.089138 0.146407
O O3 0.958194 0.000000 0.140337
O O4 0.617545 0.055970 0.950120
O O5 0.571628 0.078057 0.814180
O O6 0.614373 0.166312 0.777368
O O7 0.000000 0.134484 0.000000
O O8 0.231296 0.256036 0.202427
O O9 0.040018 0.336456 0.081474
O O10 0.750000 0.250000 0.000000
O O11 0.000000 0.250294 0.000000
O O12 0.184527 0.500000 0.238477
O O13 0.308837 0.596528 0.250295
O O14 0.028752 0.297372 0.627084
O O15 0.782076 0.258199 0.634371
O O16 0.941200 0.835977 0.728777
O O17 0.000000 0.323001 0.500000
#
# Coordination Sequence:
#
# PCOD8092790 Si02
#       7
#     8   8   8   8   8   8   8
#     4  10  19  35  57  84 121 161 192 227 276 346
#     4  10  21  34  57  87 127 158 188 221 275 350
#     4  11  23  33  52  84 123 154 180 221 276 350
#     4  10  21  34  55  88 124 158 190 226 276 348
#     4  11  23  38  59  86 112 154 188 233 292 344
#     4  11  22  36  57  84 115 153 200 235 289 339
#     4  11  25  44  61  82 109 145 203 255 295 339
#
# _framework density 19.645973999999999
#
# number of rings (size 3 to 8) (size 9 to 14) (size 15 to 20)
#    0.000    1.429    1.429    4.714   10.000    2.857 
#    0.000    0.000    0.000    1.714    0.000    1.000 
#    0.000    0.000    0.000    0.000    0.000    0.000 
#
# Total GULP energy -347016.236547 kJ/mol
# GULP energy per Si atom -12393.437020 kJ/mol
# Density = 1.960126 g / cm^3
# Si number density = 19.645974 Si / 1000 Ang^3
#
#
#
# Elastic Constant Matrix: (Units=GPa)
#
#
# Indices 1 2 3 4 5 6 
#
# 1 103.2887 36.7122 6.6579 -0.0001 -9.9180 -0.0009
# 2 36.7122 108.2443 8.0006 0.0010 -0.4015 -0.0007
# 3 6.6579 8.0006 41.4674 0.0009 -11.1164 -0.0015
# 4 -0.0001 0.0010 0.0009 10.1766 -0.0002 -2.7330
# 5 -9.9180 -0.4015 -11.1164 -0.0002 23.5348 0.0013
# 6 -0.0009 -0.0007 -0.0015 -2.7330 0.0013 28.8353
#
#
#
# Elastic Compliance Matrix: (Units=1/GPa)
#
#
# Indices 1 2 3 4 5 6 
#
# 1 0.011526 -0.003907 0.000215 0.000001 0.004892 0.000000
# 2 -0.003907 0.010709 -0.002097 -0.000001 -0.002454 0.000000
# 3 0.000215 -0.002097 0.028052 -0.000002 0.013305 0.000001
# 4 0.000001 -0.000001 -0.000002 0.100832 0.000000 0.009557
# 5 0.004892 -0.002454 0.013305 0.000000 0.050794 -0.000002
# 6 0.000000 0.000000 0.000001 0.009557 -0.000002 0.035586
#
#
# Mechanical properties :
#
#
# Convention : Reuss Voigt Hill
#
# Bulk Modulus (GPa) = 25.83358 39.52685 32.68022
# Shear Modulus (GPa) = 19.08538 25.95131 22.51834
#
# Velocity S-wave (km/s) = 3.12021 3.63843 3.38924
# Velocity P-wave (km/s) = 5.11460 6.14932 5.65567
#
# Compressibility (1/GPa) = 0.03870930
#
# Stress axis : x y z
#
# Youngs Moduli (GPa) = 86.75915 93.37667 35.64794
#
# Poissons Ratio (x) = 0.36482 -0.00765
# Poissons Ratio (y) = 0.33896 0.07475
# Poissons Ratio (z) = -0.01862 0.19580
#
# Static dielectric constant tensor:
#      x y z
#    x -1.844100 -0.000340 -2.043670 
#    y -0.000340 3.757120 -0.000140 
#    z -2.043670 -0.000140 2.458830 
# 
# 
# High freq. dielectric constant tensor:
#      x y z
#    x 1.787290 0.000000 -0.013450 
#    y 0.000000 1.775830 0.000000 
#    z -0.013450 0.000000 1.710410 
# 
# From -- ./inp_files/124251.got.cif
#   From: 2010.06.25/outbox.cif.g09.slc.cpg/sg12_63_cif.got.tgz:124251.got - 2010.06.28 00:19:55.
