data_PCOD8092910
_publ_section_title
;
Structure prediction by ZEFSAII (Michael W. Deem and Ramdas Pophale) SiO2 
 PCOD8092910
Probable space group: C 2/M
;
_chemical_formula_sum "Si O2"
_cell_formula_units_Z 64
_cell_length_a 24.478752
_cell_length_b 8.724022
_cell_length_c 16.297453
_cell_angle_alpha 90.000000
_cell_angle_beta 91.157005
_cell_angle_gamma 90.000000
_cell_volume 3479.663179
_symmetry_space_group_name_H-M "C 2/M"
_symmetry_group_IT_number 12
_symmetry_cell_setting 'monoclinic'
loop_
_space_group_symop_operation_xyz
x,y,z
-x,y,-z
-x,-y,-z
x,-y,z
1/2+x,1/2+y,z
1/2-x,1/2+y,-z
1/2-x,1/2-y,-z
1/2+x,1/2-y,z
loop_
_atom_site_type_symbol
_atom_site_label
_atom_site_fract_x
_atom_site_fract_y
_atom_site_fract_z
Si Si1 0.790793 0.320128 0.757533
Si Si2 0.056979 0.319118 0.968351
Si Si3 0.386110 0.820128 0.870089
Si Si4 0.307523 0.677570 0.478375
Si Si5 0.673728 0.678228 0.711842
Si Si6 0.568798 0.819308 0.785509
Si Si7 0.371447 0.181862 0.619993
Si Si8 0.958468 0.180740 0.732776
O O1 0.785835 0.500000 0.744764
O O2 0.823972 0.277318 0.841821
O O3 0.729102 0.256779 0.757082
O O4 0.824779 0.256627 0.681042
O O5 0.051295 0.500000 0.961470
O O6 0.070903 0.253857 0.878992
O O7 0.104863 0.274555 0.034565
O O8 0.000000 0.249461 0.000000
O O9 0.429918 0.732691 0.816041
O O10 0.396942 0.000000 0.855411
O O11 0.304658 0.500000 0.500247
O O12 0.250000 0.750000 0.500000
O O13 0.320519 0.705292 0.384269
O O14 0.356950 0.755216 0.529932
O O15 0.662942 0.500000 0.732046
O O16 0.625470 0.781536 0.744172
O O17 0.520836 0.736317 0.734362
O O18 0.558425 0.000000 0.783659
O O19 0.429422 0.246849 0.652138
O O20 0.374844 0.000000 0.618173
O O21 0.956257 0.000000 0.725072
#
# Coordination Sequence:
#
# PCOD8092910 Si02
#       8
#     8   8   8   8   8   8   8   8
#     4   8  15  30  53  78 106 144 180 215 270 328
#     4   9  16  30  54  82 108 138 185 237 278 321
#     4   9  16  31  56  81 107 143 186 230 272 326
#     4  11  21  35  57  85 116 147 186 233 278 326
#     4  10  21  38  54  77 114 151 183 223 280 334
#     4  11  22  37  56  79 108 148 191 230 276 334
#     4  10  19  35  58  84 111 143 184 230 275 327
#     4  11  21  34  53  82 114 144 178 226 283 334
#
# _framework density 18.392585
#
# number of rings (size 3 to 8) (size 9 to 14) (size 15 to 20)
#    0.000    2.125    2.500    3.000    0.000    1.000 
#    0.000    3.750    0.000    3.750    0.000    0.000 
#    0.000    0.000    0.000    0.000    0.000    0.000 
#
# Total GULP energy -396738.951470 kJ/mol
# GULP energy per Si atom -12398.092233 kJ/mol
# Density = 1.835072 g / cm^3
# Si number density = 18.392585 Si / 1000 Ang^3
#
#
#
# Elastic Constant Matrix: (Units=GPa)
#
#
# Indices 1 2 3 4 5 6 
#
# 1 125.9959 35.8970 61.8145 0.0000 23.1934 0.0000
# 2 35.8970 75.1224 40.5562 0.0000 7.1858 0.0000
# 3 61.8145 40.5562 104.7314 0.0000 26.3873 0.0000
# 4 0.0000 0.0000 0.0000 20.0729 0.0000 0.7595
# 5 23.1934 7.1858 26.3873 0.0000 34.7538 0.0000
# 6 0.0000 0.0000 0.0000 0.7595 0.0000 28.1171
#
#
#
# Elastic Compliance Matrix: (Units=1/GPa)
#
#
# Indices 1 2 3 4 5 6 
#
# 1 0.011809 -0.002554 -0.005105 0.000000 -0.003477 0.000000
# 2 -0.002554 0.017476 -0.005909 0.000000 0.002578 0.000000
# 3 -0.005105 -0.005909 0.016920 0.000000 -0.008218 0.000000
# 4 0.000000 0.000000 0.000000 0.049869 0.000000 -0.001347
# 5 -0.003477 0.002578 -0.008218 0.000000 0.036801 0.000000
# 6 0.000000 0.000000 0.000000 -0.001347 0.000000 0.035602
#
#
# Mechanical properties :
#
#
# Convention : Reuss Voigt Hill
#
# Bulk Modulus (GPa) = 52.44347 64.70945 58.57646
# Shear Modulus (GPa) = 24.75615 27.76088 26.25852
#
# Velocity S-wave (km/s) = 3.67275 3.88925 3.78255
# Velocity P-wave (km/s) = 6.82354 7.44494 7.14100
#
# Compressibility (1/GPa) = 0.01906815
#
# Stress axis : x y z
#
# Youngs Moduli (GPa) = 84.68143 57.22182 59.10164
#
# Poissons Ratio (x) = 0.14617 0.30169
# Poissons Ratio (y) = 0.21631 0.34924
# Poissons Ratio (z) = 0.43227 0.33814
#
# Static dielectric constant tensor:
#      x y z
#    x 3.431180 0.000000 0.326130 
#    y 0.000000 3.185460 0.000000 
#    z 0.326130 0.000000 3.584140 
# 
# 
# High freq. dielectric constant tensor:
#      x y z
#    x 1.704660 0.000000 0.028620 
#    y 0.000000 1.694920 0.000000 
#    z 0.028620 0.000000 1.712210 
# 
# From -- ./inp_files/287780.got.cif
#   From: 2010.06.25/outbox.cif.g09.slc.cpg/sg12_144_cif.got.tgz:287780.got - 2010.06.28 00:19:55.
