data_PCOD8092928
_publ_section_title
;
Structure prediction by ZEFSAII (Michael W. Deem and Ramdas Pophale) SiO2 
 PCOD8092928
Probable space group: C 2/M
;
_chemical_formula_sum "Si O2"
_cell_formula_units_Z 64
_cell_length_a 15.404066
_cell_length_b 9.060095
_cell_length_c 25.081954
_cell_angle_alpha 90.000000
_cell_angle_beta 107.808678
_cell_angle_gamma 90.000000
_cell_volume 3332.762278
_symmetry_space_group_name_H-M "C 2/M"
_symmetry_group_IT_number 12
_symmetry_cell_setting 'monoclinic'
loop_
_space_group_symop_operation_xyz
x,y,z
-x,y,-z
-x,-y,-z
x,-y,z
1/2+x,1/2+y,z
1/2-x,1/2+y,-z
1/2-x,1/2-y,-z
1/2+x,1/2-y,z
loop_
_atom_site_type_symbol
_atom_site_label
_atom_site_fract_x
_atom_site_fract_y
_atom_site_fract_z
Si Si1 0.965833 0.174721 0.241044
Si Si2 0.150016 0.169392 0.129011
Si Si3 0.585288 0.324943 0.361669
Si Si4 0.282372 0.171958 0.367601
Si Si5 0.717441 0.173496 0.940706
Si Si6 0.209872 0.331902 0.754651
Si Si7 0.481222 0.825762 0.133644
Si Si8 0.464882 0.324850 0.436297
O O1 0.863289 0.219313 0.235866
O O2 0.998855 0.250066 0.193439
O O3 0.031317 0.234426 0.300146
O O4 0.971831 0.000000 0.235188
O O5 0.218549 0.223182 0.095952
O O6 0.197016 0.190140 0.195398
O O7 0.060250 0.270609 0.108687
O O8 0.121393 0.000000 0.114686
O O9 0.581859 0.500000 0.360395
O O10 0.690250 0.272331 0.379602
O O11 0.535792 0.263781 0.405421
O O12 0.270263 0.204717 0.302868
O O13 0.364900 0.262352 0.407684
O O14 0.300048 0.000000 0.381343
O O15 0.615180 0.225425 0.908385
O O16 0.721341 0.000000 0.950099
O O17 0.750000 0.250000 0.000000
O O18 0.174164 0.500000 0.755418
O O19 0.485356 0.000000 0.141640
O O20 0.500000 0.269506 0.500000
O O21 0.458028 0.500000 0.432472
#
# Coordination Sequence:
#
# PCOD8092928 Si02
#       8
#     8   8   8   8   8   8   8   8
#     4  11  20  34  60  87 115 153 191 227 281 352
#     4  10  21  40  62  86 118 156 193 232 286 349
#     4   9  19  36  56  81 113 149 185 226 284 343
#     4  10  20  35  58  82 110 148 186 229 281 340
#     4  10  23  42  62  83 116 155 195 243 289 336
#     4  10  19  35  58  84 118 150 183 234 291 338
#     4  11  23  40  60  88 121 151 188 239 290 337
#     4  10  21  38  57  78 110 149 190 239 286 330
#
# _framework density 19.203289999999999
#
# number of rings (size 3 to 8) (size 9 to 14) (size 15 to 20)
#    0.000    1.875    2.500    1.500    0.000    5.250 
#    0.000    5.625    0.000    0.000    0.000    0.000 
#    0.000    0.000    0.000    0.000    0.000    0.000 
#
# Total GULP energy -396897.616206 kJ/mol
# GULP energy per Si atom -12403.050506 kJ/mol
# Density = 1.915958 g / cm^3
# Si number density = 19.203290 Si / 1000 Ang^3
#
#
#
# Elastic Constant Matrix: (Units=GPa)
#
#
# Indices 1 2 3 4 5 6 
#
# 1 158.6313 42.4820 69.2072 0.0000 9.5245 0.0000
# 2 42.4820 45.9010 40.7714 0.0000 1.0135 0.0000
# 3 69.2072 40.7714 146.9149 0.0000 3.8947 0.0000
# 4 0.0000 0.0000 0.0000 27.8299 0.0000 3.1138
# 5 9.5245 1.0135 3.8947 0.0000 13.5114 0.0000
# 6 0.0000 0.0000 0.0000 3.1138 0.0000 34.9439
#
#
#
# Elastic Compliance Matrix: (Units=1/GPa)
#
#
# Indices 1 2 3 4 5 6 
#
# 1 0.009443 -0.006365 -0.002537 0.000000 -0.005447 0.000000
# 2 -0.006365 0.033204 -0.006318 0.000000 0.003817 0.000000
# 3 -0.002537 -0.006318 0.009770 0.000000 -0.000554 0.000000
# 4 0.000000 0.000000 0.000000 0.036294 0.000000 -0.003234
# 5 -0.005447 0.003817 -0.000554 0.000000 0.077725 0.000000
# 6 0.000000 0.000000 0.000000 -0.003234 0.000000 0.028905
#
#
# Mechanical properties :
#
#
# Convention : Reuss Voigt Hill
#
# Bulk Modulus (GPa) = 45.50270 72.92982 59.21626
# Shear Modulus (GPa) = 21.44936 28.52280 24.98608
#
# Velocity S-wave (km/s) = 3.34572 3.85815 3.61104
# Velocity P-wave (km/s) = 6.21867 7.60969 6.94907
#
# Compressibility (1/GPa) = 0.02197672
#
# Stress axis : x y z
#
# Youngs Moduli (GPa) = 105.90337 30.11654 102.35654
#
# Poissons Ratio (x) = 0.19170 0.25970
# Poissons Ratio (y) = 0.67410 0.64664
# Poissons Ratio (z) = 0.26870 0.19026
#
# Static dielectric constant tensor:
#      x y z
#    x 3.740180 0.000000 -0.099170 
#    y 0.000000 3.323680 0.000000 
#    z -0.099170 0.000000 3.591860 
# 
# 
# High freq. dielectric constant tensor:
#      x y z
#    x 1.760940 0.000000 -0.001620 
#    y 0.000000 1.727730 0.000000 
#    z -0.001620 0.000000 1.747720 
# 
# From -- ./inp_files/359785.got.cif
#   From: 2010.06.25/outbox.cif.g09.slc.cpg/sg12_180_cif.got.tgz:359785.got - 2010.06.28 00:19:55.
