data_PCOD8092667
_publ_section_title
;
Structure prediction by ZEFSAII (Michael W. Deem and Ramdas Pophale) SiO2 
 PCOD8092667
Probable space group: C 2/M
;
_chemical_formula_sum "Si O2"
_cell_formula_units_Z 48
_cell_length_a 23.545569
_cell_length_b 12.011437
_cell_length_c 24.341855
_cell_angle_alpha 90.000000
_cell_angle_beta 160.203701
_cell_angle_gamma 90.000000
_cell_volume 2331.544545
_symmetry_space_group_name_H-M "C 2/M"
_symmetry_group_IT_number 12
_symmetry_cell_setting 'monoclinic'
loop_
_space_group_symop_operation_xyz
x,y,z
-x,y,-z
-x,-y,-z
x,-y,z
1/2+x,1/2+y,z
1/2-x,1/2+y,-z
1/2-x,1/2-y,-z
1/2+x,1/2-y,z
loop_
_atom_site_type_symbol
_atom_site_label
_atom_site_fract_x
_atom_site_fract_y
_atom_site_fract_z
Si Si1 0.169320 0.377359 0.866733
Si Si2 0.986564 0.764301 0.191033
Si Si3 0.216885 0.373227 0.592353
Si Si4 0.364969 0.773663 0.275139
Si Si5 0.865669 0.190032 0.838321
Si Si6 0.084193 0.369739 0.980663
O O1 0.104566 0.500000 0.820446
O O2 0.028405 0.292634 0.762513
O O3 0.195421 0.363611 0.825092
O O4 0.345539 0.359303 0.057684
O O5 0.165589 0.824583 0.348690
O O6 0.951791 0.668786 0.114136
O O7 0.157334 0.500000 0.524262
O O8 0.322773 0.379640 0.745099
O O9 0.066479 0.283357 0.460782
O O10 0.304517 0.797142 0.281890
O O11 0.277667 0.658403 0.174914
O O12 0.000000 0.126290 0.000000
O O13 0.952361 0.307437 0.900660
O O14 0.053310 0.500000 0.957954
#
# Coordination Sequence:
#
# PCOD8092667 Si02
#       6
#     8   8   8   8   8   8
#     4  10  19  35  57  78 107 143 181 228 273 315
#     4   9  20  35  56  84 106 137 190 229 261 322
#     4  11  22  37  56  79 114 148 174 220 278 324
#     4  10  21  34  52  83 113 141 180 219 265 330
#     4   9  20  36  56  82 108 138 186 228 260 320
#     4   9  18  37  61  80 107 145 183 228 272 310
#
# _framework density 20.587211
#
# number of rings (size 3 to 8) (size 9 to 14) (size 15 to 20)
#    0.000    2.333    0.000    3.000    0.000    6.000 
#    0.000    7.500    0.000    8.000    0.000    0.000 
#    0.000    0.000    0.000    0.000    0.000    0.000 
#
# Total GULP energy -297355.606227 kJ/mol
# GULP energy per Si atom -12389.816926 kJ/mol
# Density = 2.054035 g / cm^3
# Si number density = 20.587211 Si / 1000 Ang^3
#
#
#
# Elastic Constant Matrix: (Units=GPa)
#
#
# Indices 1 2 3 4 5 6 
#
# 1 83.7416 35.6295 16.2234 0.0036 22.8384 -0.0003
# 2 35.6295 102.5368 31.1304 0.0000 9.0117 -0.0009
# 3 16.2234 31.1304 92.2604 -0.0094 22.0315 -0.0022
# 4 0.0036 0.0000 -0.0094 19.1685 0.0002 4.4464
# 5 22.8384 9.0117 22.0315 0.0002 35.8726 -0.0009
# 6 -0.0003 -0.0009 -0.0022 4.4464 -0.0009 15.0138
#
#
#
# Elastic Compliance Matrix: (Units=1/GPa)
#
#
# Indices 1 2 3 4 5 6 
#
# 1 0.016700 -0.005299 0.001257 -0.000003 -0.010073 0.000000
# 2 -0.005299 0.012557 -0.003934 -0.000001 0.002636 0.000000
# 3 0.001257 -0.003934 0.013946 0.000007 -0.008377 -0.000001
# 4 -0.000003 -0.000001 0.000007 0.056017 -0.000003 -0.016590
# 5 -0.010073 0.002636 -0.008377 -0.000003 0.038772 0.000002
# 6 0.000000 0.000000 -0.000001 -0.016590 0.000002 0.071519
#
#
# Mechanical properties :
#
#
# Convention : Reuss Voigt Hill
#
# Bulk Modulus (GPa) = 36.69908 49.38948 43.04428
# Shear Modulus (GPa) = 21.31778 27.04803 24.18290
#
# Velocity S-wave (km/s) = 3.22139 3.62861 3.43104
# Velocity P-wave (km/s) = 5.63039 6.44966 6.05390
#
# Compressibility (1/GPa) = 0.02724864
#
# Stress axis : x y z
#
# Youngs Moduli (GPa) = 59.88150 79.63813 71.70627
#
# Poissons Ratio (x) = 0.42201 -0.09012
# Poissons Ratio (y) = 0.31732 0.28213
# Poissons Ratio (z) = -0.07526 0.31333
#
# Static dielectric constant tensor:
#      x y z
#    x 3.964700 0.000000 0.056270 
#    y 0.000000 3.388000 -0.000010 
#    z 0.056270 -0.000010 3.666000 
# 
# 
# High freq. dielectric constant tensor:
#      x y z
#    x 1.821580 0.000000 0.006670 
#    y 0.000000 1.772680 0.000000 
#    z 0.006670 0.000000 1.793020 
# 
# From -- ./inp_files/94325.got.cif
#   From: 2010.06.25/outbox.cif.g09.slc.cpg/sg12_48_cif.got.tgz:94325.got - 2010.06.28 00:19:55.
