data_PCOD8092512
_publ_section_title
;
Structure prediction by ZEFSAII (Michael W. Deem and Ramdas Pophale) SiO2 
 PCOD8092512
Probable space group: C 2/M
;
_chemical_formula_sum "Si O2"
_cell_formula_units_Z 60
_cell_length_a 17.063240
_cell_length_b 18.508776
_cell_length_c 11.480035
_cell_angle_alpha 90.000000
_cell_angle_beta 59.765740
_cell_angle_gamma 90.000000
_cell_volume 3132.441847
_symmetry_space_group_name_H-M "C 2/M"
_symmetry_group_IT_number 12
_symmetry_cell_setting 'monoclinic'
loop_
_space_group_symop_operation_xyz
x,y,z
-x,y,-z
-x,-y,-z
x,-y,z
1/2+x,1/2+y,z
1/2-x,1/2+y,-z
1/2-x,1/2-y,-z
1/2+x,1/2-y,z
loop_
_atom_site_type_symbol
_atom_site_label
_atom_site_fract_x
_atom_site_fract_y
_atom_site_fract_z
Si Si1 0.894661 0.290132 0.874175
Si Si2 0.371063 0.421109 0.790408
Si Si3 0.682288 0.176557 0.647742
Si Si4 0.867286 0.178764 0.415852
Si Si5 0.000000 0.122289 0.500000
Si Si6 0.759364 0.214355 0.826247
Si Si7 0.485636 0.084463 0.147934
Si Si8 0.003789 0.845210 0.134419
O O1 0.843598 0.269311 0.791020
O O2 0.978801 0.237572 0.839090
O O3 0.934035 0.371734 0.845084
O O4 0.824189 0.271151 0.027570
O O5 0.328411 0.500000 0.841517
O O6 0.444891 0.426552 0.632154
O O7 0.289486 0.368526 0.819124
O O8 0.416820 0.396368 0.877127
O O9 0.769258 0.142146 0.515807
O O10 0.636971 0.234790 0.597200
O O11 0.722632 0.224453 0.724123
O O12 0.613032 0.114092 0.739859
O O13 0.930989 0.172538 0.481025
O O14 0.908607 0.137515 0.271023
O O15 0.492713 0.000000 0.175978
O O16 0.500000 0.096803 0.000000
O O17 0.000000 0.856282 0.000000
#
# Coordination Sequence:
#
# PCOD8092512 Si02
#       8
#     8   8   8   8   4   8   8   8
#     4  10  19  35  55  83 109 158 198 238 289 347
#     4  10  21  34  52  81 115 147 181 231 296 354
#     4  11  20  35  52  89 117 145 197 247 290 345
#     4  10  21  33  59  83 114 147 192 246 298 337
#     4  10  19  38  54  84 113 148 186 230 303 352
#     4  10  20  33  56  81 118 148 195 246 292 331
#     4  11  22  35  56  86 125 165 193 236 299 365
#     4  10  19  35  58  79 110 146 193 243 287 344
#
# _framework density 19.154385999999999
#
# number of rings (size 3 to 8) (size 9 to 14) (size 15 to 20)
#    0.000    1.733    4.000    1.400    0.000    1.333 
#    0.000    0.667    0.000    0.000    0.000   13.533 
#    0.000    0.000    0.000    0.000    0.000    0.000 
#
# Total GULP energy -371851.120087 kJ/mol
# GULP energy per Si atom -12395.037336 kJ/mol
# Density = 1.911079 g / cm^3
# Si number density = 19.154386 Si / 1000 Ang^3
#
#
#
# Elastic Constant Matrix: (Units=GPa)
#
#
# Indices 1 2 3 4 5 6 
#
# 1 89.0281 43.9009 33.8900 0.0000 3.2178 0.0000
# 2 43.9009 112.4570 18.9965 0.0000 2.8187 0.0000
# 3 33.8900 18.9965 88.8498 0.0000 -4.5689 0.0000
# 4 0.0000 0.0000 0.0000 16.7467 0.0000 -4.0728
# 5 3.2178 2.8187 -4.5689 0.0000 35.6457 0.0000
# 6 0.0000 0.0000 0.0000 -4.0728 0.0000 17.6775
#
#
#
# Elastic Compliance Matrix: (Units=1/GPa)
#
#
# Indices 1 2 3 4 5 6 
#
# 1 0.015792 -0.005283 -0.004979 0.000000 -0.001646 0.000000
# 2 -0.005283 0.011027 -0.000365 0.000000 -0.000442 0.000000
# 3 -0.004979 -0.000365 0.013345 0.000000 0.002189 0.000000
# 4 0.000000 0.000000 0.000000 0.063258 0.000000 0.014574
# 5 -0.001646 -0.000442 0.002189 0.000000 0.028518 0.000000
# 6 0.000000 0.000000 0.000000 0.014574 0.000000 0.059927
#
#
# Mechanical properties :
#
#
# Convention : Reuss Voigt Hill
#
# Bulk Modulus (GPa) = 52.88098 53.76772 53.32435
# Shear Modulus (GPa) = 22.78697 26.91715 24.85206
#
# Velocity S-wave (km/s) = 3.45287 3.75276 3.60594
# Velocity P-wave (km/s) = 6.60031 6.84904 6.72582
#
# Compressibility (1/GPa) = 0.01891039
#
# Stress axis : x y z
#
# Youngs Moduli (GPa) = 63.32294 90.68378 74.93620
#
# Poissons Ratio (x) = 0.47905 0.37309
# Poissons Ratio (y) = 0.33451 0.02739
# Poissons Ratio (z) = 0.31527 0.03314
#
# Static dielectric constant tensor:
#      x y z
#    x 3.598220 0.000000 -0.129610 
#    y 0.000000 3.224750 0.000000 
#    z -0.129610 0.000000 3.739570 
# 
# 
# High freq. dielectric constant tensor:
#      x y z
#    x 1.748040 0.000000 -0.014220 
#    y 0.000000 1.710090 0.000000 
#    z -0.014220 0.000000 1.751470 
# 
# From -- ./inp_files/158258.got.cif
#   From: 2010.06.25/outbox.cif.g09.slc.cpg/sg12_80_cif.got.tgz:158258.got - 2010.06.28 00:19:55.
