data_PCOD8092664
_publ_section_title
;
Structure prediction by ZEFSAII (Michael W. Deem and Ramdas Pophale) SiO2 
 PCOD8092664
Probable space group: C 2/M
;
_chemical_formula_sum "Si O2"
_cell_formula_units_Z 64
_cell_length_a 14.641811
_cell_length_b 9.302544
_cell_length_c 25.611709
_cell_angle_alpha 90.000000
_cell_angle_beta 89.460454
_cell_angle_gamma 90.000000
_cell_volume 3488.316096
_symmetry_space_group_name_H-M "C 2/M"
_symmetry_group_IT_number 12
_symmetry_cell_setting 'monoclinic'
loop_
_space_group_symop_operation_xyz
x,y,z
-x,y,-z
-x,-y,-z
x,-y,z
1/2+x,1/2+y,z
1/2-x,1/2+y,-z
1/2-x,1/2-y,-z
1/2+x,1/2-y,z
loop_
_atom_site_type_symbol
_atom_site_label
_atom_site_fract_x
_atom_site_fract_y
_atom_site_fract_z
Si Si1 0.061609 0.331301 0.380627
Si Si2 0.345883 0.333355 0.000452
Si Si3 0.228574 0.334064 0.448157
Si Si4 0.113968 0.166623 0.630970
Si Si5 0.023731 0.670871 0.811771
Si Si6 0.831687 0.830531 0.252976
Si Si7 0.501157 0.332266 0.917772
Si Si8 0.128420 0.669828 0.269536
O O1 0.045158 0.500000 0.374841
O O2 0.127720 0.295952 0.428503
O O3 0.101356 0.266882 0.326220
O O4 0.966743 0.256501 0.394543
O O5 0.320263 0.500000 0.000839
O O6 0.409122 0.296456 0.950373
O O7 0.250000 0.250000 0.000000
O O8 0.406592 0.294755 0.050832
O O9 0.238079 0.500000 0.462108
O O10 0.250000 0.250000 0.500000
O O11 0.295306 0.291665 0.400676
O O12 0.126072 0.208936 0.691203
O O13 0.090865 0.000000 0.625306
O O14 0.035099 0.500000 0.813800
O O15 0.117481 0.742420 0.792257
O O16 0.997797 0.729876 0.868224
O O17 0.944028 0.719960 0.772987
O O18 0.727742 0.774447 0.252017
O O19 0.839303 0.000000 0.241325
O O20 0.502180 0.500000 0.901978
O O21 0.133449 0.500000 0.274803
#
# Coordination Sequence:
#
# PCOD8092664 Si02
#       8
#     8   8   8   8   8   8   8   8
#     4  10  19  36  59  79 105 142 180 221 270 327
#     4   9  19  37  62  85 110 148 192 231 274 325
#     4  10  22  39  58  80 109 143 180 224 276 330
#     4  10  20  35  57  82 106 138 180 224 271 326
#     4  11  22  35  54  84 116 144 183 234 276 316
#     4  10  19  35  57  78 105 146 185 219 271 334
#     4   9  20  39  57  79 115 155 186 222 276 334
#     4   9  18  34  55  77 105 143 182 219 267 326
#
# _framework density 18.346962000000001
#
# number of rings (size 3 to 8) (size 9 to 14) (size 15 to 20)
#    0.000    2.250    2.500    1.125    0.000    3.500 
#    0.000    9.375    0.000    0.000    0.000    0.000 
#    0.000    0.000    0.000    0.000    0.000    0.000 
#
# Total GULP energy -396810.883946 kJ/mol
# GULP energy per Si atom -12400.340123 kJ/mol
# Density = 1.830520 g / cm^3
# Si number density = 18.346962 Si / 1000 Ang^3
#
#
#
# Elastic Constant Matrix: (Units=GPa)
#
#
# Indices 1 2 3 4 5 6 
#
# 1 97.3608 35.4058 3.9630 0.0000 11.7887 0.0000
# 2 35.4058 49.7553 33.4154 0.0000 2.8821 0.0000
# 3 3.9630 33.4154 74.1985 0.0000 8.8403 0.0000
# 4 0.0000 0.0000 0.0000 33.8306 0.0000 -0.4167
# 5 11.7887 2.8821 8.8403 0.0000 15.4332 0.0000
# 6 0.0000 0.0000 0.0000 -0.4167 0.0000 33.6356
#
#
#
# Elastic Compliance Matrix: (Units=1/GPa)
#
#
# Indices 1 2 3 4 5 6 
#
# 1 0.018555 -0.018482 0.009240 0.000000 -0.016015 0.000000
# 2 -0.018482 0.047292 -0.022474 0.000000 0.018160 0.000000
# 3 0.009240 -0.022474 0.025163 0.000000 -0.017275 0.000000
# 4 0.000000 0.000000 0.000000 0.029564 0.000000 0.000366
# 5 -0.016015 0.018160 -0.017275 0.000000 0.083533 0.000000
# 6 0.000000 0.000000 0.000000 0.000366 0.000000 0.029735
#
#
# Mechanical properties :
#
#
# Convention : Reuss Voigt Hill
#
# Bulk Modulus (GPa) = 36.26004 40.76476 38.51240
# Shear Modulus (GPa) = 16.31499 26.48190 21.39845
#
# Velocity S-wave (km/s) = 2.98526 3.80332 3.41885
# Velocity P-wave (km/s) = 5.62928 6.44625 6.05156
#
# Compressibility (1/GPa) = 0.02757857
#
# Stress axis : x y z
#
# Youngs Moduli (GPa) = 53.89338 21.14524 39.74011
#
# Poissons Ratio (x) = 0.39081 -0.36722
# Poissons Ratio (y) = 0.99606 0.89314
# Poissons Ratio (z) = -0.49800 0.47523
#
# Static dielectric constant tensor:
#      x y z
#    x 3.706260 0.000000 0.912690 
#    y 0.000000 3.155790 0.000000 
#    z 0.912690 0.000000 7.456980 
# 
# 
# High freq. dielectric constant tensor:
#      x y z
#    x 1.723090 0.000000 -0.000260 
#    y 0.000000 1.693300 0.000000 
#    z -0.000260 0.000000 1.711220 
# 
# From -- ./inp_files/338711.got.cif
#   From: 2010.06.25/outbox.cif.g09.slc.cpg/sg12_170_cif.got.tgz:338711.got - 2010.06.28 00:19:55.
