data_PCOD8092401
_publ_section_title
;
Structure prediction by ZEFSAII (Michael W. Deem and Ramdas Pophale) SiO2 
 PCOD8092401
Probable space group: C 2/M
;
_chemical_formula_sum "Si O2"
_cell_formula_units_Z 60
_cell_length_a 9.224375
_cell_length_b 23.080708
_cell_length_c 28.011025
_cell_angle_alpha 90.000000
_cell_angle_beta 146.366757
_cell_angle_gamma 90.000000
_cell_volume 3303.137244
_symmetry_space_group_name_H-M "C 2/M"
_symmetry_group_IT_number 12
_symmetry_cell_setting 'monoclinic'
loop_
_space_group_symop_operation_xyz
x,y,z
-x,y,-z
-x,-y,-z
x,-y,z
1/2+x,1/2+y,z
1/2-x,1/2+y,-z
1/2-x,1/2-y,-z
1/2+x,1/2-y,z
loop_
_atom_site_type_symbol
_atom_site_label
_atom_site_fract_x
_atom_site_fract_y
_atom_site_fract_z
Si Si1 0.551205 0.065346 0.689048
Si Si2 0.291594 0.567792 0.856022
Si Si3 0.378231 0.930820 0.819133
Si Si4 0.376346 0.930900 0.015379
Si Si5 0.500000 0.135221 0.500000
Si Si6 0.251442 0.820245 0.601951
Si Si7 0.921934 0.224577 0.588721
Si Si8 0.296161 0.565718 0.655891
O O1 0.707806 0.081688 0.779315
O O2 0.324122 0.112390 0.620447
O O3 0.750496 0.069480 0.699909
O O4 0.430804 0.000000 0.659405
O O5 0.301023 0.500000 0.868523
O O6 0.582105 0.593786 0.942243
O O7 0.084987 0.594781 0.837244
O O8 0.086494 0.908012 0.725950
O O9 0.376648 0.000000 0.817765
O O10 0.454573 0.909259 0.893111
O O11 0.367914 0.000000 0.010397
O O12 0.500000 0.906388 0.000000
O O13 0.762852 0.171833 0.567648
O O14 0.559649 0.097322 0.563330
O O15 0.472993 0.776125 0.641493
O O16 0.000000 0.812001 0.500000
O O17 0.191150 0.799945 0.639879
O O18 0.750000 0.250000 0.500000
O O19 0.288437 0.500000 0.635684
#
# Coordination Sequence:
#
# PCOD8092401 Si02
#       8
#     8   8   8   8   4   8   8   8
#     4  10  21  35  50  73 108 143 172 212 263 321
#     4   9  17  29  44  68 100 135 171 210 257 310
#     4   9  17  29  44  66  97 136 177 213 251 306
#     4   9  15  25  45  67  92 132 175 210 252 306
#     4  12  21  34  56  72  99 134 178 226 268 308
#     4  10  20  35  54  75  98 132 174 225 270 310
#     4  10  19  35  54  75  93 125 168 227 275 303
#     4  10  21  34  48  70 104 144 179 212 260 321
#
# _framework density 18.164549000000001
#
# number of rings (size 3 to 8) (size 9 to 14) (size 15 to 20)
#    0.000    2.267    2.000    3.000    1.867    5.067 
#    0.000    0.667    0.000    0.000    0.000    0.000 
#    0.000    1.067    5.333    0.133    0.000    0.000 
#
# Total GULP energy -371779.741961 kJ/mol
# GULP energy per Si atom -12392.658065 kJ/mol
# Density = 1.812321 g / cm^3
# Si number density = 18.164549 Si / 1000 Ang^3
#
#
#
# Elastic Constant Matrix: (Units=GPa)
#
#
# Indices 1 2 3 4 5 6 
#
# 1 113.2764 34.6744 32.0008 0.0011 -3.5245 0.0017
# 2 34.6744 66.5877 25.0563 -0.0033 2.4380 0.0001
# 3 32.0008 25.0563 68.1312 -0.0070 -10.5106 -0.0004
# 4 0.0011 -0.0033 -0.0070 3.1556 0.0007 3.0908
# 5 -3.5245 2.4380 -10.5106 0.0007 27.6297 0.0016
# 6 0.0017 0.0001 -0.0004 3.0908 0.0016 17.7093
#
#
#
# Elastic Compliance Matrix: (Units=1/GPa)
#
#
# Indices 1 2 3 4 5 6 
#
# 1 0.011229 -0.004537 -0.003530 -0.000019 0.000490 0.000002
# 2 -0.004537 0.019740 -0.005829 0.000012 -0.004538 -0.000002
# 3 -0.003530 -0.005829 0.019642 0.000044 0.007536 -0.000007
# 4 -0.000019 0.000012 0.000044 0.382247 0.000007 -0.066714
# 5 0.000490 -0.004538 0.007536 0.000007 0.039523 -0.000005
# 6 0.000002 -0.000002 -0.000007 -0.066714 -0.000005 0.068111
#
#
# Mechanical properties :
#
#
# Convention : Reuss Voigt Hill
#
# Bulk Modulus (GPa) = 43.82283 47.93980 45.88132
# Shear Modulus (GPa) = 8.68222 20.11650 14.39936
#
# Velocity S-wave (km/s) = 2.18864 3.33146 2.81858
# Velocity P-wave (km/s) = 5.52853 6.42242 5.99217
#
# Compressibility (1/GPa) = 0.02281916
#
# Stress axis : x y z
#
# Youngs Moduli (GPa) = 89.05274 50.65908 50.91172
#
# Poissons Ratio (x) = 0.22984 0.17973
# Poissons Ratio (y) = 0.40403 0.29675
# Poissons Ratio (z) = 0.31437 0.29527
#
# Static dielectric constant tensor:
#      x y z
#    x 3.924510 -0.000040 -0.037600 
#    y -0.000040 2.896640 -0.000030 
#    z -0.037600 -0.000030 3.170570 
# 
# 
# High freq. dielectric constant tensor:
#      x y z
#    x 1.726290 0.000000 -0.008820 
#    y 0.000000 1.651360 0.000000 
#    z -0.008820 0.000000 1.678200 
# 
# From -- ./inp_files/357026.got.cif
#   From: 2010.06.25/outbox.cif.g09.slc.cpg/sg12_179_cif.got.tgz:357026.got - 2010.06.28 00:19:55.
