data_PCOD8092939
_publ_section_title
;
Structure prediction by ZEFSAII (Michael W. Deem and Ramdas Pophale) SiO2 
 PCOD8092939
Probable space group: C 2/M
;
_chemical_formula_sum "Si O2"
_cell_formula_units_Z 56
_cell_length_a 33.301001
_cell_length_b 8.592410
_cell_length_c 11.213116
_cell_angle_alpha 90.000000
_cell_angle_beta 119.566536
_cell_angle_gamma 90.000000
_cell_volume 2790.677466
_symmetry_space_group_name_H-M "C 2/M"
_symmetry_group_IT_number 12
_symmetry_cell_setting 'monoclinic'
loop_
_space_group_symop_operation_xyz
x,y,z
-x,y,-z
-x,-y,-z
x,-y,z
1/2+x,1/2+y,z
1/2-x,1/2+y,-z
1/2-x,1/2-y,-z
1/2+x,1/2-y,z
loop_
_atom_site_type_symbol
_atom_site_label
_atom_site_fract_x
_atom_site_fract_y
_atom_site_fract_z
Si Si1 0.192764 0.319918 0.182013
Si Si2 0.287143 0.181347 0.304590
Si Si3 0.672667 0.679760 0.401449
Si Si4 0.578505 0.680786 0.384723
Si Si5 0.991387 0.814286 0.120442
Si Si6 0.628502 0.317483 0.688422
Si Si7 0.393674 0.681941 0.076152
O O1 0.203014 0.500000 0.178004
O O2 0.235291 0.223241 0.187969
O O3 0.188061 0.285446 0.314851
O O4 0.146533 0.275229 0.046061
O O5 0.297483 0.276665 0.439821
O O6 0.322354 0.231111 0.251590
O O7 0.291986 0.000000 0.337620
O O8 0.681692 0.500000 0.382512
O O9 0.618699 0.710484 0.347244
O O10 0.569477 0.500000 0.389594
O O11 0.531301 0.756266 0.265335
O O12 0.593520 0.749295 0.535705
O O13 0.942072 0.756227 0.095534
O O14 0.993660 0.000000 0.124143
O O15 0.000000 0.750296 0.000000
O O16 0.637443 0.500000 0.680560
O O17 0.606407 0.282441 0.783482
O O18 0.386792 0.500000 0.039307
#
# Coordination Sequence:
#
# PCOD8092939 Si02
#       7
#     8   8   8   8   8   8   8
#     4  12  24  37  54  78 110 147 186 228 278 332
#     4  11  22  37  58  82 109 143 183 226 276 331
#     4  10  19  35  58  85 116 145 180 225 272 324
#     4   8  15  29  53  82 111 143 178 224 273 318
#     4   9  16  28  51  84 115 143 180 225 274 324
#     4   9  19  36  55  79 110 144 187 232 275 325
#     4  10  21  36  55  79 109 146 188 234 277 321
#
# _framework density 20.066813
#
# number of rings (size 3 to 8) (size 9 to 14) (size 15 to 20)
#    0.000    2.143    0.000    5.143    0.000    4.000 
#    0.000    2.857    0.000    7.286    0.000    5.000 
#    0.000    0.000    0.000    0.000    0.000    0.000 
#
# Total GULP energy -347235.117931 kJ/mol
# GULP energy per Si atom -12401.254212 kJ/mol
# Density = 2.002114 g / cm^3
# Si number density = 20.066813 Si / 1000 Ang^3
#
#
#
# Elastic Constant Matrix: (Units=GPa)
#
#
# Indices 1 2 3 4 5 6 
#
# 1 138.7129 32.4317 80.2346 0.0000 8.5130 0.0000
# 2 32.4317 49.1360 23.3862 0.0000 2.5512 0.0000
# 3 80.2346 23.3862 73.8606 0.0000 12.5324 0.0000
# 4 0.0000 0.0000 0.0000 22.0404 0.0000 0.4354
# 5 8.5130 2.5512 12.5324 0.0000 39.5167 0.0000
# 6 0.0000 0.0000 0.0000 0.4354 0.0000 22.5481
#
#
#
# Elastic Compliance Matrix: (Units=1/GPa)
#
#
# Indices 1 2 3 4 5 6 
#
# 1 0.020105 -0.003297 -0.021241 0.000000 0.002618 0.000000
# 2 -0.003297 0.024534 -0.004268 0.000000 0.000480 0.000000
# 3 -0.021241 -0.004268 0.039254 0.000000 -0.007597 0.000000
# 4 0.000000 0.000000 0.000000 0.045389 0.000000 -0.000876
# 5 0.002618 0.000480 -0.007597 0.000000 0.027120 0.000000
# 6 0.000000 0.000000 0.000000 -0.000876 0.000000 0.044366
#
#
# Mechanical properties :
#
#
# Convention : Reuss Voigt Hill
#
# Bulk Modulus (GPa) = 38.04995 59.31272 48.68133
# Shear Modulus (GPa) = 18.71670 25.19818 21.95744
#
# Velocity S-wave (km/s) = 3.05736 3.54745 3.31148
# Velocity P-wave (km/s) = 5.60946 6.81183 6.23967
#
# Compressibility (1/GPa) = 0.02628125
#
# Stress axis : x y z
#
# Youngs Moduli (GPa) = 49.73765 40.75937 25.47537
#
# Poissons Ratio (x) = 0.13437 0.54112
# Poissons Ratio (y) = 0.16397 0.10874
# Poissons Ratio (z) = 1.05647 0.17398
#
# Static dielectric constant tensor:
#      x y z
#    x 3.803760 0.000000 0.130890 
#    y 0.000000 3.300440 0.000000 
#    z 0.130890 0.000000 3.871310 
# 
# 
# High freq. dielectric constant tensor:
#      x y z
#    x 1.789690 0.000000 0.006740 
#    y 0.000000 1.748140 0.000000 
#    z 0.006740 0.000000 1.786530 
# 
# From -- ./inp_files/187736.got.cif
#   From: 2010.06.25/outbox.cif.g09.slc.cpg/sg12_94_cif.got.tgz:187736.got - 2010.06.28 00:19:55.
