data_PCOD8092098
_publ_section_title
;
Structure prediction by ZEFSAII (Michael W. Deem and Ramdas Pophale) SiO2 
 PCOD8092098
Probable space group: C 2/M
;
_chemical_formula_sum "Si O2"
_cell_formula_units_Z 44
_cell_length_a 11.860053
_cell_length_b 17.508002
_cell_length_c 17.179973
_cell_angle_alpha 90.000000
_cell_angle_beta 40.576715
_cell_angle_gamma 90.000000
_cell_volume 2320.438301
_symmetry_space_group_name_H-M "C 2/M"
_symmetry_group_IT_number 12
_symmetry_cell_setting 'monoclinic'
loop_
_space_group_symop_operation_xyz
x,y,z
-x,y,-z
-x,-y,-z
x,-y,z
1/2+x,1/2+y,z
1/2-x,1/2+y,-z
1/2-x,1/2-y,-z
1/2+x,1/2-y,z
loop_
_atom_site_type_symbol
_atom_site_label
_atom_site_fract_x
_atom_site_fract_y
_atom_site_fract_z
Si Si1 0.500000 0.827527 0.000000
Si Si2 0.974888 0.187757 0.345126
Si Si3 0.088484 0.659414 0.535262
Si Si4 0.298514 0.911962 0.227843
Si Si5 0.195223 0.731605 0.115253
Si Si6 0.025393 0.586270 0.250519
O O1 0.531607 0.880971 0.908315
O O2 0.658947 0.769908 0.909427
O O3 0.953353 0.252957 0.421742
O O4 0.794778 0.144557 0.423917
O O5 0.119079 0.129222 0.300881
O O6 0.020345 0.226727 0.237513
O O7 0.000000 0.638307 0.500000
O O8 0.012684 0.602552 0.639678
O O9 0.349398 0.901065 0.291878
O O10 0.271555 0.000000 0.220231
O O11 0.178884 0.641152 0.138349
O O12 0.250000 0.750000 0.000000
O O13 0.093323 0.500000 0.205356
#
# Coordination Sequence:
#
# PCOD8092098 Si02
#       6
#     4   8   8   8   8   8
#     4  10  19  34  59  84 112 152 192 232 285 350
#     4   9  22  35  57  88 114 150 200 239 287 345
#     4  10  22  38  60  81 113 159 200 243 281 341
#     4  10  20  35  57  87 120 146 186 244 299 346
#     4  10  19  35  58  83 115 150 192 235 283 349
#     4  10  22  38  58  86 118 154 192 242 297 344
#
# _framework density 18.961935
#
# number of rings (size 3 to 8) (size 9 to 14) (size 15 to 20)
#    0.000    2.182    1.818    0.273    7.636    2.545 
#    0.000    2.273    0.000    0.000    0.000    0.000 
#    0.000    0.000    0.000    0.000    0.000    0.000 
#
# Total GULP energy -272635.443114 kJ/mol
# GULP energy per Si atom -12392.520142 kJ/mol
# Density = 1.891878 g / cm^3
# Si number density = 18.961935 Si / 1000 Ang^3
#
#
#
# Elastic Constant Matrix: (Units=GPa)
#
#
# Indices 1 2 3 4 5 6 
#
# 1 107.6060 51.3998 49.1137 -0.0008 15.9845 0.0013
# 2 51.3998 134.6293 50.3911 0.0030 -3.1622 0.0001
# 3 49.1137 50.3911 109.9259 0.0087 10.0039 -0.0022
# 4 -0.0008 0.0030 0.0087 22.1088 -0.0026 -2.8847
# 5 15.9845 -3.1622 10.0039 -0.0026 34.9879 -0.0002
# 6 0.0013 0.0001 -0.0022 -2.8847 -0.0002 25.9644
#
#
#
# Elastic Compliance Matrix: (Units=1/GPa)
#
#
# Indices 1 2 3 4 5 6 
#
# 1 0.013749 -0.003946 -0.003830 0.000002 -0.005543 -0.000001
# 2 -0.003946 0.010243 -0.003266 0.000000 0.003662 0.000000
# 3 -0.003830 -0.003266 0.012498 -0.000005 -0.002119 0.000001
# 4 0.000002 0.000000 -0.000005 0.045896 0.000004 0.005099
# 5 -0.005543 0.003662 -0.002119 0.000004 0.032051 0.000001
# 6 -0.000001 0.000000 0.000001 0.005099 0.000001 0.039081
#
#
# Mechanical properties :
#
#
# Convention : Reuss Voigt Hill
#
# Bulk Modulus (GPa) = 69.40929 72.66339 71.03634
# Shear Modulus (GPa) = 27.71574 30.02933 28.87254
#
# Velocity S-wave (km/s) = 3.82730 3.98384 3.90636
# Velocity P-wave (km/s) = 7.49767 7.71785 7.60855
#
# Compressibility (1/GPa) = 0.01440729
#
# Stress axis : x y z
#
# Youngs Moduli (GPa) = 72.72997 97.63066 80.01344
#
# Poissons Ratio (x) = 0.38526 0.30643
# Poissons Ratio (y) = 0.28700 0.26129
# Poissons Ratio (z) = 0.27854 0.31882
#
# Static dielectric constant tensor:
#      x y z
#    x 3.585850 0.000030 -0.083210 
#    y 0.000030 3.904460 -0.000030 
#    z -0.083210 -0.000030 3.944880 
# 
# 
# High freq. dielectric constant tensor:
#      x y z
#    x 1.726570 0.000000 0.009900 
#    y 0.000000 1.733730 0.000000 
#    z 0.009900 0.000000 1.741470 
# 
# From -- ./inp_files/264123.got.cif
#   From: 2010.06.25/outbox.cif.g09.slc.cpg/sg12_133_cif.got.tgz:264123.got - 2010.06.28 00:19:55.
