data_PCOD8092037
_publ_section_title
;
Structure prediction by ZEFSAII (Michael W. Deem and Ramdas Pophale) SiO2 
 PCOD8092037
Probable space group: C 2/M
;
_chemical_formula_sum "Si O2"
_cell_formula_units_Z 64
_cell_length_a 10.276205
_cell_length_b 13.978137
_cell_length_c 33.656070
_cell_angle_alpha 90.000000
_cell_angle_beta 42.753869
_cell_angle_gamma 90.000000
_cell_volume 3281.855749
_symmetry_space_group_name_H-M "C 2/M"
_symmetry_group_IT_number 12
_symmetry_cell_setting 'monoclinic'
loop_
_space_group_symop_operation_xyz
x,y,z
-x,y,-z
-x,-y,-z
x,-y,z
1/2+x,1/2+y,z
1/2-x,1/2+y,-z
1/2-x,1/2-y,-z
1/2+x,1/2-y,z
loop_
_atom_site_type_symbol
_atom_site_label
_atom_site_fract_x
_atom_site_fract_y
_atom_site_fract_z
Si Si1 0.829344 0.394773 0.469784
Si Si2 0.270338 0.611690 0.873804
Si Si3 0.030667 0.766029 0.038289
Si Si4 0.151300 0.249168 0.302100
Si Si5 0.891167 0.111850 0.140169
Si Si6 0.087282 0.765875 0.228347
Si Si7 0.138638 0.604379 0.628322
Si Si8 0.983164 0.796512 0.586151
O O1 0.908884 0.500000 0.465482
O O2 0.781751 0.398922 0.434083
O O3 0.977985 0.307689 0.442927
O O4 0.634120 0.374650 0.537310
O O5 0.221744 0.500000 0.882096
O O6 0.079270 0.665989 0.930388
O O7 0.437600 0.633494 0.867674
O O8 0.331810 0.648696 0.816711
O O9 0.946929 0.850630 0.084143
O O10 0.000000 0.799773 0.000000
O O11 0.250000 0.750000 0.000000
O O12 0.110384 0.199456 0.268803
O O13 0.371157 0.242927 0.264768
O O14 0.081421 0.360282 0.317345
O O15 0.012839 0.202706 0.366759
O O16 0.703822 0.167474 0.196994
O O17 0.843123 0.000000 0.148407
O O18 0.149436 0.500000 0.645427
O O19 0.268308 0.677903 0.623112
#
# Coordination Sequence:
#
# PCOD8092037 Si02
#       8
#     8   8   8   8   8   8   8   8
#     4   9  19  35  57  84 116 156 196 240 302 377
#     4  10  22  40  65  91 120 167 212 243 294 363
#     4  11  22  39  63  96 132 162 196 253 303 347
#     4  11  22  38  60  87 119 156 197 250 307 354
#     4  10  22  40  65  92 121 165 210 243 293 361
#     4  11  22  42  62  88 122 160 200 257 302 348
#     4  10  20  35  61  89 113 152 203 244 294 370
#     4  10  19  34  58  88 117 150 198 250 303 354
#
# _framework density 19.501161
#
# number of rings (size 3 to 8) (size 9 to 14) (size 15 to 20)
#    0.000    1.750    3.750    0.750    0.000    3.000 
#    0.000    3.125    0.000   17.250    0.000    0.000 
#    0.000    0.000    0.000    0.000    0.000    0.000 
#
# Total GULP energy -396701.514575 kJ/mol
# GULP energy per Si atom -12396.922330 kJ/mol
# Density = 1.945678 g / cm^3
# Si number density = 19.501161 Si / 1000 Ang^3
#
#
#
# Elastic Constant Matrix: (Units=GPa)
#
#
# Indices 1 2 3 4 5 6 
#
# 1 123.5342 52.1082 55.0633 -0.0002 -4.5687 0.0001
# 2 52.1082 137.9092 47.2149 0.0000 -6.5323 0.0000
# 3 55.0633 47.2149 115.3997 -0.0011 7.3427 -0.0001
# 4 -0.0002 0.0000 -0.0011 16.3471 0.0002 -2.6934
# 5 -4.5687 -6.5323 7.3427 0.0002 35.6524 0.0000
# 6 0.0001 0.0000 -0.0001 -2.6934 0.0000 27.1857
#
#
#
# Elastic Compliance Matrix: (Units=1/GPa)
#
#
# Indices 1 2 3 4 5 6 
#
# 1 0.011243 -0.002655 -0.004397 0.000000 0.001860 0.000000
# 2 -0.002655 0.009247 -0.002637 0.000000 0.001897 0.000000
# 3 -0.004397 -0.002637 0.012067 0.000001 -0.003532 0.000000
# 4 0.000000 0.000000 0.000001 0.062188 -0.000001 0.006161
# 5 0.001860 0.001897 -0.003532 -0.000001 0.029362 0.000000
# 6 0.000000 0.000000 0.000000 0.006161 0.000000 0.037395
#
#
# Mechanical properties :
#
#
# Convention : Reuss Voigt Hill
#
# Bulk Modulus (GPa) = 75.87496 76.17954 76.02725
# Shear Modulus (GPa) = 26.98710 30.66749 28.82730
#
# Velocity S-wave (km/s) = 3.72408 3.96990 3.84895
# Velocity P-wave (km/s) = 7.58182 7.75644 7.66963
#
# Compressibility (1/GPa) = 0.01317958
#
# Stress axis : x y z
#
# Youngs Moduli (GPa) = 88.94088 108.14280 82.86827
#
# Poissons Ratio (x) = 0.28710 0.36437
# Poissons Ratio (y) = 0.23612 0.21855
# Poissons Ratio (z) = 0.39107 0.28521
#
# Static dielectric constant tensor:
#      x y z
#    x 2.793290 -0.000040 -0.642100 
#    y -0.000040 3.586810 -0.000040 
#    z -0.642100 -0.000040 3.010240 
# 
# 
# High freq. dielectric constant tensor:
#      x y z
#    x 1.753010 0.000000 0.004140 
#    y 0.000000 1.749070 0.000000 
#    z 0.004140 0.000000 1.777270 
# 
# From -- ./inp_files/372558.got.cif
#   From: 2010.06.25/outbox.cif.g09.slc.cpg/sg12_187_cif.got.tgz:372558.got - 2010.06.28 00:19:55.
