data_PCOD8092368
_publ_section_title
;
Structure prediction by ZEFSAII (Michael W. Deem and Ramdas Pophale) SiO2 
 PCOD8092368
Probable space group: C 2/M
;
_chemical_formula_sum "Si O2"
_cell_formula_units_Z 56
_cell_length_a 14.228265
_cell_length_b 17.294721
_cell_length_c 21.310246
_cell_angle_alpha 90.000000
_cell_angle_beta 139.818031
_cell_angle_gamma 90.000000
_cell_volume 3383.451572
_symmetry_space_group_name_H-M "C 2/M"
_symmetry_group_IT_number 12
_symmetry_cell_setting 'monoclinic'
loop_
_space_group_symop_operation_xyz
x,y,z
-x,y,-z
-x,-y,-z
x,-y,z
1/2+x,1/2+y,z
1/2-x,1/2+y,-z
1/2-x,1/2-y,-z
1/2+x,1/2-y,z
loop_
_atom_site_type_symbol
_atom_site_label
_atom_site_fract_x
_atom_site_fract_y
_atom_site_fract_z
Si Si1 0.802475 0.410065 0.588106
Si Si2 0.387822 0.732319 0.112163
Si Si3 0.517885 0.586809 0.223463
Si Si4 0.947094 0.143312 0.625857
Si Si5 0.636293 0.664987 0.609779
Si Si6 0.806179 0.798517 0.757090
Si Si7 0.562010 0.197930 0.732211
O O1 0.806839 0.500000 0.574745
O O2 0.708752 0.366683 0.486928
O O3 0.731060 0.397297 0.620139
O O4 0.966962 0.378573 0.672582
O O5 0.382269 0.643917 0.136769
O O6 0.535785 0.739930 0.145787
O O7 0.394270 0.792674 0.172909
O O8 0.250000 0.750000 0.000000
O O9 0.486055 0.500000 0.183566
O O10 0.540681 0.584675 0.309961
O O11 0.663999 0.620216 0.263925
O O12 0.079049 0.125115 0.644686
O O13 0.962848 0.230789 0.658668
O O14 0.500000 0.694220 0.500000
O O15 0.728126 0.741890 0.668497
O O16 0.712757 0.811401 0.771586
#
# Coordination Sequence:
#
# PCOD8092368 Si02
#       7
#     8   8   8   8   8   8   8
#     4  11  20  30  47  76 111 139 167 210 258 304
#     4   9  19  36  58  76  96 130 176 212 249 304
#     4   9  18  33  51  76 106 130 165 211 257 305
#     4   9  18  31  53  72  99 142 179 208 243 303
#     4   9  17  31  50  74 102 138 180 211 246 297
#     4   9  19  33  54  76 100 133 170 211 253 297
#     4  10  19  35  53  75 101 135 173 213 252 302
#
# _framework density 16.551145000000002
#
# number of rings (size 3 to 8) (size 9 to 14) (size 15 to 20)
#    0.857    1.714    1.429    0.857    0.000    6.571 
#    0.000    0.714    0.000    3.000    0.000    3.000 
#    0.000    0.000    0.000    0.000    0.000    0.000 
#
# Total GULP energy -346995.114483 kJ/mol
# GULP energy per Si atom -12392.682660 kJ/mol
# Density = 1.651347 g / cm^3
# Si number density = 16.551145 Si / 1000 Ang^3
#
#
#
# Elastic Constant Matrix: (Units=GPa)
#
#
# Indices 1 2 3 4 5 6 
#
# 1 107.4403 27.0277 59.5810 0.0000 7.2251 0.0000
# 2 27.0277 70.9320 36.5595 0.0000 2.6735 0.0000
# 3 59.5810 36.5595 108.8575 0.0000 6.1607 0.0000
# 4 0.0000 0.0000 0.0000 12.8961 0.0000 -0.2607
# 5 7.2251 2.6735 6.1607 0.0000 21.8606 0.0000
# 6 0.0000 0.0000 0.0000 -0.2607 0.0000 13.3428
#
#
#
# Elastic Compliance Matrix: (Units=1/GPa)
#
#
# Indices 1 2 3 4 5 6 
#
# 1 0.013638 -0.001607 -0.006789 0.000000 -0.002398 0.000000
# 2 -0.001607 0.017244 -0.004901 0.000000 -0.000197 0.000000
# 3 -0.006789 -0.004901 0.014620 0.000000 -0.001277 0.000000
# 4 0.000000 0.000000 0.000000 0.077574 0.000000 0.001515
# 5 -0.002398 -0.000197 -0.001277 0.000000 0.046921 0.000000
# 6 0.000000 0.000000 0.000000 0.001515 0.000000 0.074976
#
#
# Mechanical properties :
#
#
# Convention : Reuss Voigt Hill
#
# Bulk Modulus (GPa) = 52.88597 59.28515 56.08556
# Shear Modulus (GPa) = 17.99415 20.55735 19.27575
#
# Velocity S-wave (km/s) = 3.30083 3.52810 3.41635
# Velocity P-wave (km/s) = 6.82273 7.24526 7.03717
#
# Compressibility (1/GPa) = 0.01890861
#
# Stress axis : x y z
#
# Youngs Moduli (GPa) = 73.32557 57.99274 68.39836
#
# Poissons Ratio (x) = 0.09319 0.46436
# Poissons Ratio (y) = 0.11783 0.33519
# Poissons Ratio (z) = 0.49781 0.28419
#
# Static dielectric constant tensor:
#      x y z
#    x 3.252130 0.000000 -0.103120 
#    y 0.000000 2.882660 0.000000 
#    z -0.103120 0.000000 2.876980 
# 
# 
# High freq. dielectric constant tensor:
#      x y z
#    x 1.643000 0.000000 -0.007030 
#    y 0.000000 1.618050 0.000000 
#    z -0.007030 0.000000 1.615780 
# 
# From -- ./inp_files/271444.got.cif
#   From: 2010.06.25/outbox.cif.g09.slc.cpg/sg12_136_cif.got.tgz:271444.got - 2010.06.28 00:19:55.
