data_PCOD8092029
_publ_section_title
;
Structure prediction by ZEFSAII (Michael W. Deem and Ramdas Pophale) SiO2 
 PCOD8092029
Probable space group: C 2/M
;
_chemical_formula_sum "Si O2"
_cell_formula_units_Z 40
_cell_length_a 28.435437
_cell_length_b 8.977448
_cell_length_c 7.672487
_cell_angle_alpha 90.000000
_cell_angle_beta 87.222766
_cell_angle_gamma 90.000000
_cell_volume 1956.314051
_symmetry_space_group_name_H-M "C 2/M"
_symmetry_group_IT_number 12
_symmetry_cell_setting 'monoclinic'
loop_
_space_group_symop_operation_xyz
x,y,z
-x,y,-z
-x,-y,-z
x,-y,z
1/2+x,1/2+y,z
1/2-x,1/2+y,-z
1/2-x,1/2-y,-z
1/2+x,1/2-y,z
loop_
_atom_site_type_symbol
_atom_site_label
_atom_site_fract_x
_atom_site_fract_y
_atom_site_fract_z
Si Si1 0.900316 0.675170 0.650720
Si Si2 0.294997 0.173136 0.209492
Si Si3 0.298461 0.827994 0.803799
Si Si4 0.386571 0.676097 0.306848
Si Si5 0.446378 0.327404 0.962591
O O1 0.907163 0.500000 0.630265
O O2 0.846659 0.718556 0.703903
O O3 0.913842 0.754792 0.467409
O O4 0.934650 0.732006 0.794997
O O5 0.243271 0.230562 0.272570
O O6 0.333779 0.260091 0.313589
O O7 0.299057 0.000000 0.254761
O O8 0.304160 0.208099 0.006083
O O9 0.285877 0.000000 0.776732
O O10 0.385377 0.500000 0.326608
O O11 0.414182 0.726238 0.128877
O O12 0.437215 0.500000 0.922127
O O13 0.500000 0.296255 0.000000
#
# Coordination Sequence:
#
# PCOD8092029 Si02
#       5
#     8   8   8   8   8
#     4  11  23  40  63  91 124 158 198 247 297 355
#     4  10  19  34  58  87 120 158 202 247 291 345
#     4   9  19  35  56  85 120 159 200 242 292 349
#     4  11  23  39  62  90 122 159 200 245 297 358
#     4  10  23  44  67  89 117 155 199 249 303 358
#
# _framework density 20.446614
#
# number of rings (size 3 to 8) (size 9 to 14) (size 15 to 20)
#    0.000    1.800    2.000    1.800    0.000    5.200 
#    0.000    4.000    0.000    0.000    0.000    0.000 
#    0.000    0.000    0.000    0.000    0.000    0.000 
#
# Total GULP energy -248114.260553 kJ/mol
# GULP energy per Si atom -12405.713028 kJ/mol
# Density = 2.040008 g / cm^3
# Si number density = 20.446614 Si / 1000 Ang^3
#
#
#
# Elastic Constant Matrix: (Units=GPa)
#
#
# Indices 1 2 3 4 5 6 
#
# 1 88.4300 45.1663 35.7053 0.0000 12.9859 0.0000
# 2 45.1663 84.8962 38.2694 0.0000 16.3441 0.0000
# 3 35.7053 38.2694 78.9856 0.0000 30.6475 0.0000
# 4 0.0000 0.0000 0.0000 34.1265 0.0000 7.8859
# 5 12.9859 16.3441 30.6475 0.0000 20.5235 0.0000
# 6 0.0000 0.0000 0.0000 7.8859 0.0000 30.9001
#
#
#
# Elastic Compliance Matrix: (Units=1/GPa)
#
#
# Indices 1 2 3 4 5 6 
#
# 1 0.016577 -0.007027 -0.005208 0.000000 0.002884 0.000000
# 2 -0.007027 0.018108 -0.004106 0.000000 -0.003843 0.000000
# 3 -0.005208 -0.004106 0.034373 0.000000 -0.044764 0.000000
# 4 0.000000 0.000000 0.000000 0.031139 0.000000 -0.007947
# 5 0.002884 -0.003843 -0.044764 0.000000 0.116805 0.000000
# 6 0.000000 0.000000 0.000000 -0.007947 0.000000 0.034390
#
#
# Mechanical properties :
#
#
# Convention : Reuss Voigt Hill
#
# Bulk Modulus (GPa) = 27.49033 54.51042 41.00037
# Shear Modulus (GPa) = 16.88051 25.98807 21.43429
#
# Velocity S-wave (km/s) = 2.87642 3.56901 3.24127
# Velocity P-wave (km/s) = 4.95034 6.61071 5.83984
#
# Compressibility (1/GPa) = 0.03637643
#
# Stress axis : x y z
#
# Youngs Moduli (GPa) = 60.32603 55.22363 29.09246
#
# Poissons Ratio (x) = 0.38804 0.15152
# Poissons Ratio (y) = 0.42389 0.11945
# Poissons Ratio (z) = 0.31418 0.22675
#
# Static dielectric constant tensor:
#      x y z
#    x 3.648160 0.000000 -0.025080 
#    y 0.000000 3.631540 0.000000 
#    z -0.025080 0.000000 3.749510 
# 
# 
# High freq. dielectric constant tensor:
#      x y z
#    x 1.796370 0.000000 0.006010 
#    y 0.000000 1.800270 0.000000 
#    z 0.006010 0.000000 1.803010 
# 
# From -- ./inp_files/101015.got.cif
#   From: 2010.06.25/outbox.cif.g09.slc.cpg/sg12_51_cif.got.tgz:101015.got - 2010.06.28 00:19:55.
