data_PCOD8092243
_publ_section_title
;
Structure prediction by ZEFSAII (Michael W. Deem and Ramdas Pophale) SiO2 
 PCOD8092243
Probable space group: C 2/M
;
_chemical_formula_sum "Si O2"
_cell_formula_units_Z 56
_cell_length_a 23.641097
_cell_length_b 9.153670
_cell_length_c 14.179441
_cell_angle_alpha 90.000000
_cell_angle_beta 96.507606
_cell_angle_gamma 90.000000
_cell_volume 3048.700028
_symmetry_space_group_name_H-M "C 2/M"
_symmetry_group_IT_number 12
_symmetry_cell_setting 'monoclinic'
loop_
_space_group_symop_operation_xyz
x,y,z
-x,y,-z
-x,-y,-z
x,-y,z
1/2+x,1/2+y,z
1/2-x,1/2+y,-z
1/2-x,1/2-y,-z
1/2+x,1/2-y,z
loop_
_atom_site_type_symbol
_atom_site_label
_atom_site_fract_x
_atom_site_fract_y
_atom_site_fract_z
Si Si1 0.614327 0.666323 0.167664
Si Si2 0.782727 0.166911 0.687827
Si Si3 0.334098 0.672879 0.336838
Si Si4 0.419804 0.169707 0.220760
Si Si5 0.955581 0.669296 0.694167
Si Si6 0.560593 0.332901 0.966268
Si Si7 0.874549 0.169970 0.548275
O O1 0.597072 0.500000 0.190311
O O2 0.679202 0.695120 0.211664
O O3 0.570716 0.768778 0.214705
O O4 0.608898 0.693372 0.055000
O O5 0.730794 0.277130 0.681521
O O6 0.820200 0.204255 0.603112
O O7 0.760747 0.000000 0.679779
O O8 0.335949 0.500000 0.327234
O O9 0.368578 0.743657 0.258466
O O10 0.360837 0.725118 0.440873
O O11 0.476969 0.197372 0.291493
O O12 0.426683 0.224345 0.115805
O O13 0.404020 0.000000 0.214446
O O14 0.940475 0.500000 0.686247
O O15 0.929926 0.745764 0.596649
O O16 0.561313 0.500000 0.929887
O O17 0.500000 0.294400 0.000000
O O18 0.889451 0.000000 0.553448
#
# Coordination Sequence:
#
# PCOD8092243 Si02
#       7
#     8   8   8   8   8   8   8
#     4   9  18  34  57  85 113 141 177 223 273 322
#     4   9  18  35  58  82 111 142 176 223 276 325
#     4  11  23  38  56  79 108 146 190 229 269 323
#     4  11  24  38  53  79 116 150 181 223 276 327
#     4  10  20  33  53  82 112 143 180 224 271 324
#     4  10  19  34  60  87 110 142 182 223 268 324
#     4   9  20  37  58  82 108 142 183 228 275 323
#
# _framework density 18.368486000000001
#
# number of rings (size 3 to 8) (size 9 to 14) (size 15 to 20)
#    0.000    2.143    1.429    2.571    0.000    6.571 
#    0.000    3.571    0.000    0.000    0.000    0.000 
#    0.000    0.000    0.000    0.000    0.000    0.000 
#
# Total GULP energy -347279.193340 kJ/mol
# GULP energy per Si atom -12402.828334 kJ/mol
# Density = 1.832668 g / cm^3
# Si number density = 18.368486 Si / 1000 Ang^3
#
#
#
# Elastic Constant Matrix: (Units=GPa)
#
#
# Indices 1 2 3 4 5 6 
#
# 1 37.8791 36.6287 41.0571 0.0000 1.1476 0.0000
# 2 36.6287 78.3025 43.1190 0.0000 2.5999 0.0000
# 3 41.0571 43.1190 105.9445 0.0000 9.7266 0.0000
# 4 0.0000 0.0000 0.0000 23.8467 0.0000 3.4463
# 5 1.1476 2.5999 9.7266 0.0000 22.8113 0.0000
# 6 0.0000 0.0000 0.0000 3.4463 0.0000 31.4812
#
#
#
# Elastic Compliance Matrix: (Units=1/GPa)
#
#
# Indices 1 2 3 4 5 6 
#
# 1 0.065698 -0.021394 -0.017353 0.000000 0.006532 0.000000
# 2 -0.021394 0.023449 -0.001152 0.000000 -0.001105 0.000000
# 3 -0.017353 -0.001152 0.017214 0.000000 -0.006336 0.000000
# 4 0.000000 0.000000 0.000000 0.042609 0.000000 -0.004664
# 5 0.006532 -0.001105 -0.006336 0.000000 0.046337 0.000000
# 6 0.000000 0.000000 0.000000 -0.004664 0.000000 0.032276
#
#
# Mechanical properties :
#
#
# Convention : Reuss Voigt Hill
#
# Bulk Modulus (GPa) = 37.64290 51.52618 44.58454
# Shear Modulus (GPa) = 15.81108 22.38260 19.09684
#
# Velocity S-wave (km/s) = 2.93707 3.49454 3.22786
# Velocity P-wave (km/s) = 5.66035 6.66293 6.18200
#
# Compressibility (1/GPa) = 0.02656544
#
# Stress axis : x y z
#
# Youngs Moduli (GPa) = 15.22114 42.64491 58.09195
#
# Poissons Ratio (x) = 0.91233 1.00806
# Poissons Ratio (y) = 0.32564 0.06690
# Poissons Ratio (z) = 0.26413 0.04911
#
# Static dielectric constant tensor:
#      x y z
#    x 3.273070 0.000000 0.236000 
#    y 0.000000 3.371580 0.000000 
#    z 0.236000 0.000000 3.499180 
# 
# 
# High freq. dielectric constant tensor:
#      x y z
#    x 1.702450 0.000000 0.016590 
#    y 0.000000 1.715370 0.000000 
#    z 0.016590 0.000000 1.712620 
# 
# From -- ./inp_files/230887.got.cif
#   From: 2010.06.25/outbox.cif.g09.slc.cpg/sg12_116_cif.got.tgz:230887.got - 2010.06.28 00:19:55.
