data_PCOD8092795
_publ_section_title
;
Structure prediction by ZEFSAII (Michael W. Deem and Ramdas Pophale) SiO2 
 PCOD8092795
Probable space group: C 2/M
;
_chemical_formula_sum "Si O2"
_cell_formula_units_Z 56
_cell_length_a 16.400521
_cell_length_b 18.061370
_cell_length_c 22.812371
_cell_angle_alpha 90.000000
_cell_angle_beta 25.013055
_cell_angle_gamma 90.000000
_cell_volume 2857.190296
_symmetry_space_group_name_H-M "C 2/M"
_symmetry_group_IT_number 12
_symmetry_cell_setting 'monoclinic'
loop_
_space_group_symop_operation_xyz
x,y,z
-x,y,-z
-x,-y,-z
x,-y,z
1/2+x,1/2+y,z
1/2-x,1/2+y,-z
1/2-x,1/2-y,-z
1/2+x,1/2-y,z
loop_
_atom_site_type_symbol
_atom_site_label
_atom_site_fract_x
_atom_site_fract_y
_atom_site_fract_z
Si Si1 0.974361 0.687476 0.859972
Si Si2 0.256856 0.839730 0.783828
Si Si3 0.169155 0.086002 0.343166
Si Si4 0.921290 0.583109 0.487066
Si Si5 0.984550 0.797682 0.635897
Si Si6 0.846194 0.218750 0.355258
Si Si7 0.349914 0.314433 0.014724
O O1 0.129392 0.623183 0.769037
O O2 0.058141 0.755684 0.767207
O O3 0.898268 0.727218 0.969169
O O4 0.792416 0.652694 0.942526
O O5 0.406357 0.905160 0.672172
O O6 0.340473 0.763336 0.701615
O O7 0.052944 0.858627 0.886251
O O8 0.249254 0.825791 0.858101
O O9 0.000000 0.099746 0.500000
O O10 0.092602 0.121883 0.332739
O O11 0.209609 0.000000 0.306204
O O12 0.842969 0.500000 0.530458
O O13 0.746946 0.638341 0.589794
O O14 0.000000 0.598346 0.500000
O O15 0.987911 0.790924 0.703959
O O16 0.197876 0.782862 0.471562
#
# Coordination Sequence:
#
# PCOD8092795 Si02
#       7
#     8   8   8   8   8   8   8
#     4  11  20  36  57  89 118 150 204 247 280 339
#     4  10  19  37  58  86 112 150 197 240 285 343
#     4  11  23  37  58  89 125 157 187 241 312 365
#     4  10  22  37  58  88 119 148 185 242 309 359
#     4  10  19  35  57  85 115 146 196 242 292 346
#     4  10  20  33  60  86 113 151 190 250 292 340
#     4  10  21  33  59  87 110 151 203 241 279 328
#
# _framework density 19.599674
#
# number of rings (size 3 to 8) (size 9 to 14) (size 15 to 20)
#    0.000    1.714    4.286    0.857    2.000    0.571 
#    0.000    4.286    0.000    6.000    0.000    0.000 
#    0.000    0.000    0.000    0.000    0.000    0.000 
#
# Total GULP energy -347074.927467 kJ/mol
# GULP energy per Si atom -12395.533124 kJ/mol
# Density = 1.955506 g / cm^3
# Si number density = 19.599674 Si / 1000 Ang^3
#
#
#
# Elastic Constant Matrix: (Units=GPa)
#
#
# Indices 1 2 3 4 5 6 
#
# 1 101.5262 47.0999 34.2821 -0.0041 -13.2907 0.0003
# 2 47.0999 99.9195 27.3800 0.0585 -12.8521 -0.0010
# 3 34.2821 27.3800 71.9627 0.0202 -5.3530 0.0097
# 4 -0.0041 0.0585 0.0202 18.4862 0.0159 -1.6112
# 5 -13.2907 -12.8521 -5.3530 0.0159 38.4608 0.0001
# 6 0.0003 -0.0010 0.0097 -1.6112 0.0001 20.8656
#
#
#
# Elastic Compliance Matrix: (Units=1/GPa)
#
#
# Indices 1 2 3 4 5 6 
#
# 1 0.014076 -0.005050 -0.004596 0.000022 0.002537 0.000003
# 2 -0.005050 0.013382 -0.002509 -0.000043 0.002377 -0.000001
# 3 -0.004596 -0.002509 0.017036 -0.000012 -0.000055 -0.000009
# 4 0.000022 -0.000043 -0.000012 0.054461 -0.000031 0.004205
# 5 0.002537 0.002377 -0.000055 -0.000031 0.027664 -0.000002
# 6 0.000003 -0.000001 -0.000009 0.004205 -0.000002 0.048251
#
#
# Mechanical properties :
#
#
# Convention : Reuss Voigt Hill
#
# Bulk Modulus (GPa) = 49.54124 54.54803 52.04464
# Shear Modulus (GPa) = 24.28284 26.53893 25.41089
#
# Velocity S-wave (km/s) = 3.52368 3.68373 3.60459
# Velocity P-wave (km/s) = 6.47198 6.78120 6.62839
#
# Compressibility (1/GPa) = 0.02018520
#
# Stress axis : x y z
#
# Youngs Moduli (GPa) = 71.04163 74.72918 58.69941
#
# Poissons Ratio (x) = 0.37735 0.26977
# Poissons Ratio (y) = 0.35873 0.14728
# Poissons Ratio (z) = 0.32649 0.18749
#
# Static dielectric constant tensor:
#      x y z
#    x 3.636790 0.000010 -0.090100 
#    y 0.000010 3.216440 0.000130 
#    z -0.090100 0.000130 3.713990 
# 
# 
# High freq. dielectric constant tensor:
#      x y z
#    x 1.771760 0.000000 -0.008620 
#    y 0.000000 1.722380 0.000010 
#    z -0.008620 0.000010 1.772600 
# 
# From -- ./inp_files/234631.got.cif
#   From: 2010.06.25/outbox.cif.g09.slc.cpg/sg12_118_cif.got.tgz:234631.got - 2010.06.28 00:19:55.
