data_PCOD8092631
_publ_section_title
;
Structure prediction by ZEFSAII (Michael W. Deem and Ramdas Pophale) SiO2 
 PCOD8092631
Probable space group: C 2/M
;
_chemical_formula_sum "Si O2"
_cell_formula_units_Z 40
_cell_length_a 8.057478
_cell_length_b 27.963224
_cell_length_c 10.515932
_cell_angle_alpha 90.000000
_cell_angle_beta 50.206835
_cell_angle_gamma 90.000000
_cell_volume 1820.534102
_symmetry_space_group_name_H-M "C 2/M"
_symmetry_group_IT_number 12
_symmetry_cell_setting 'monoclinic'
loop_
_space_group_symop_operation_xyz
x,y,z
-x,y,-z
-x,-y,-z
x,-y,z
1/2+x,1/2+y,z
1/2-x,1/2+y,-z
1/2-x,1/2-y,-z
1/2+x,1/2-y,z
loop_
_atom_site_type_symbol
_atom_site_label
_atom_site_fract_x
_atom_site_fract_y
_atom_site_fract_z
Si Si1 0.195885 0.599294 0.684755
Si Si2 0.399771 0.701334 0.187651
Si Si3 0.169021 0.394605 0.308450
Si Si4 0.789024 0.304481 0.188637
Si Si5 0.474161 0.555985 0.322768
O O1 0.226546 0.655553 0.695133
O O2 0.341802 0.584797 0.493717
O O3 0.273020 0.569044 0.772265
O O4 0.943107 0.590335 0.771281
O O5 0.214089 0.661801 0.290225
O O6 0.580383 0.691987 0.203258
O O7 0.296171 0.753604 0.256676
O O8 0.500000 0.697307 0.000000
O O9 0.390074 0.424959 0.226299
O O10 0.000000 0.408283 0.500000
O O11 0.000000 0.313066 0.000000
O O12 0.434293 0.500000 0.354112
#
# Coordination Sequence:
#
# PCOD8092631 Si02
#       5
#     8   8   8   8   8
#     4  10  19  35  56  86 116 145 192 236 288 338
#     4  11  21  38  58  86 120 159 198 232 284 357
#     4  10  21  37  57  90 120 151 195 242 291 339
#     4  11  21  36  59  86 117 157 197 233 287 349
#     4  10  21  38  61  85 114 154 195 242 295 348
#
# _framework density 21.971572999999999
#
# number of rings (size 3 to 8) (size 9 to 14) (size 15 to 20)
#    0.000    1.600    2.000    6.000    0.000    4.400 
#    3.600    3.000    0.000    3.000    0.000    0.000 
#    0.000    0.000    0.000    0.000    0.000    0.000 
#
# Total GULP energy -247850.495444 kJ/mol
# GULP energy per Si atom -12392.524772 kJ/mol
# Density = 2.192157 g / cm^3
# Si number density = 21.971573 Si / 1000 Ang^3
#
#
#
# Elastic Constant Matrix: (Units=GPa)
#
#
# Indices 1 2 3 4 5 6 
#
# 1 252.1892 83.5192 13.3432 0.0000 1.8674 0.0000
# 2 83.5192 160.1938 25.5743 0.0000 5.5920 0.0000
# 3 13.3432 25.5743 8.6094 0.0000 -0.4619 0.0000
# 4 0.0000 0.0000 0.0000 -3.6329 0.0000 3.2433
# 5 1.8674 5.5920 -0.4619 0.0000 18.3595 0.0000
# 6 0.0000 0.0000 0.0000 3.2433 0.0000 34.0575
#
#
#
# Elastic Compliance Matrix: (Units=1/GPa)
#
#
# Indices 1 2 3 4 5 6 
#
# 1 0.004794 -0.002521 0.000074 0.000000 0.000282 0.000000
# 2 -0.002521 0.013584 -0.036701 0.000000 -0.004804 0.000000
# 3 0.000074 -0.036701 0.225964 0.000000 0.016857 0.000000
# 4 0.000000 0.000000 0.000000 -0.253692 0.000000 0.024159
# 5 0.000282 -0.004804 0.016857 0.000000 0.056327 0.000000
# 6 0.000000 0.000000 0.000000 0.024159 0.000000 0.027061
#
#
# Mechanical properties :
#
#
# Convention : Reuss Voigt Hill
#
# Bulk Modulus (GPa) = 6.02244 73.98509 40.00377
# Shear Modulus (GPa) = 24.07507 29.66051 26.86779
#
# Velocity S-wave (km/s) = 3.31378 3.67815 3.50071
# Velocity P-wave (km/s) = 4.16995 7.19615 5.88103
#
# Compressibility (1/GPa) = 0.16604559
#
# Stress axis : x y z
#
# Youngs Moduli (GPa) = 208.58378 73.61678 4.42548
#
# Poissons Ratio (x) = 0.18560 -0.00033
# Poissons Ratio (y) = 0.52589 0.16242
# Poissons Ratio (z) = -0.01547 2.70184
#
# Static dielectric constant tensor:
#      x y z
#    x 5.686000 0.000000 -0.093660 
#    y 0.000000 4.004830 0.000000 
#    z -0.093660 0.000000 3.313390 
# 
# 
# High freq. dielectric constant tensor:
#      x y z
#    x 1.911150 0.000000 -0.000460 
#    y 0.000000 1.862720 0.000000 
#    z -0.000460 0.000000 1.797960 
# 
# From -- ./inp_files/40535.got.cif
#   From: 2010.06.25/outbox.cif.g09.slc.cpg/sg12_21_cif.got.tgz:40535.got - 2010.06.28 00:19:55.
