data_PCOD8092604
_publ_section_title
;
Structure prediction by ZEFSAII (Michael W. Deem and Ramdas Pophale) SiO2 
 PCOD8092604
Probable space group: C 2/M
;
_chemical_formula_sum "Si O2"
_cell_formula_units_Z 56
_cell_length_a 23.518089
_cell_length_b 8.986398
_cell_length_c 15.711178
_cell_angle_alpha 90.000000
_cell_angle_beta 56.572329
_cell_angle_gamma 90.000000
_cell_volume 2771.184207
_symmetry_space_group_name_H-M "C 2/M"
_symmetry_group_IT_number 12
_symmetry_cell_setting 'monoclinic'
loop_
_space_group_symop_operation_xyz
x,y,z
-x,y,-z
-x,-y,-z
x,-y,z
1/2+x,1/2+y,z
1/2-x,1/2+y,-z
1/2-x,1/2-y,-z
1/2+x,1/2-y,z
loop_
_atom_site_type_symbol
_atom_site_label
_atom_site_fract_x
_atom_site_fract_y
_atom_site_fract_z
Si Si1 0.290628 0.828128 0.891392
Si Si2 0.065510 0.823717 0.679380
Si Si3 0.931195 0.823280 0.514785
Si Si4 0.671745 0.327440 0.730742
Si Si5 0.425923 0.328164 0.031567
Si Si6 0.291803 0.323862 0.713205
Si Si7 0.931361 0.329685 0.857589
O O1 0.271272 0.752857 0.818354
O O2 0.371475 0.811242 0.838191
O O3 0.268164 0.000000 0.906454
O O4 0.250000 0.750000 0.000000
O O5 0.075761 0.762300 0.575578
O O6 0.130511 0.773472 0.681429
O O7 0.996346 0.761814 0.775007
O O8 0.058256 0.000000 0.688629
O O9 0.866860 0.770376 0.623045
O O10 0.000000 0.757598 0.500000
O O11 0.934554 0.000000 0.509541
O O12 0.692084 0.500000 0.706573
O O13 0.625883 0.296891 0.850440
O O14 0.739623 0.228796 0.682921
O O15 0.427527 0.500000 0.002985
O O16 0.500000 0.274490 0.000000
O O17 0.402550 0.231820 0.970407
O O18 0.288048 0.500000 0.727086
O O19 0.952780 0.500000 0.851104
#
# Coordination Sequence:
#
# PCOD8092604 Si02
#       7
#     8   8   8   8   8   8   8
#     4  11  24  41  60  86 119 157 197 239 291 352
#     4  10  20  38  62  85 113 155 203 241 284 351
#     4   9  19  37  62  89 114 147 197 249 293 343
#     4  10  21  37  58  85 118 157 199 242 290 351
#     4  10  19  35  56  81 113 156 202 233 275 347
#     4  11  23  39  61  89 119 154 195 244 298 350
#     4  11  23  36  55  87 120 149 189 246 303 344
#
# _framework density 20.207968000000001
#
# number of rings (size 3 to 8) (size 9 to 14) (size 15 to 20)
#    0.000    1.714    1.429    3.000    0.000    7.714 
#    0.000    1.429    0.000    3.857    0.000    0.000 
#    0.000    0.000    0.000    0.000    0.000    0.000 
#
# Total GULP energy -347318.296402 kJ/mol
# GULP energy per Si atom -12404.224871 kJ/mol
# Density = 2.016197 g / cm^3
# Si number density = 20.207968 Si / 1000 Ang^3
#
#
#
# Elastic Constant Matrix: (Units=GPa)
#
#
# Indices 1 2 3 4 5 6 
#
# 1 142.9535 47.5744 60.0561 0.0000 3.8558 0.0001
# 2 47.5744 66.6348 37.2387 -0.0001 1.7887 0.0001
# 3 60.0561 37.2387 115.9101 0.0000 11.4310 0.0000
# 4 0.0000 -0.0001 0.0000 15.9316 0.0000 -1.4087
# 5 3.8558 1.7887 11.4310 0.0000 38.6632 0.0000
# 6 0.0001 0.0001 0.0000 -1.4087 0.0000 32.8848
#
#
#
# Elastic Compliance Matrix: (Units=1/GPa)
#
#
# Indices 1 2 3 4 5 6 
#
# 1 0.010291 -0.005313 -0.003655 0.000000 0.000300 0.000000
# 2 -0.005313 0.021066 -0.004091 0.000000 0.000765 0.000000
# 3 -0.003655 -0.004091 0.012134 0.000000 -0.003034 0.000000
# 4 0.000000 0.000000 0.000000 0.063007 0.000000 0.002699
# 5 0.000300 0.000765 -0.003034 0.000000 0.026696 0.000000
# 6 0.000000 0.000000 0.000000 0.002699 0.000000 0.030525
#
#
# Mechanical properties :
#
#
# Convention : Reuss Voigt Hill
#
# Bulk Modulus (GPa) = 57.55454 68.35965 62.95709
# Shear Modulus (GPa) = 25.55898 29.53786 27.54842
#
# Velocity S-wave (km/s) = 3.56026 3.82736 3.69622
# Velocity P-wave (km/s) = 6.74118 7.30979 7.03124
#
# Compressibility (1/GPa) = 0.01737483
#
# Stress axis : x y z
#
# Youngs Moduli (GPa) = 97.17630 47.47043 82.41106
#
# Poissons Ratio (x) = 0.25220 0.30118
# Poissons Ratio (y) = 0.51627 0.33711
# Poissons Ratio (z) = 0.35514 0.19418
#
# Static dielectric constant tensor:
#      x y z
#    x 3.970380 0.000000 0.118880 
#    y 0.000000 3.460230 0.000000 
#    z 0.118880 0.000000 3.695470 
# 
# 
# High freq. dielectric constant tensor:
#      x y z
#    x 1.807070 0.000000 0.003110 
#    y 0.000000 1.769500 0.000000 
#    z 0.003110 0.000000 1.788710 
# 
# From -- ./inp_files/238293.got.cif
#   From: 2010.06.25/outbox.cif.g09.slc.cpg/sg12_120_cif.got.tgz:238293.got - 2010.06.28 00:19:55.
