data_PCOD8092930
_publ_section_title
;
Structure prediction by ZEFSAII (Michael W. Deem and Ramdas Pophale) SiO2 
 PCOD8092930
Probable space group: C 2/M
;
_chemical_formula_sum "Si O2"
_cell_formula_units_Z 40
_cell_length_a 15.621739
_cell_length_b 8.611862
_cell_length_c 14.472229
_cell_angle_alpha 90.000000
_cell_angle_beta 88.882474
_cell_angle_gamma 90.000000
_cell_volume 1946.611352
_symmetry_space_group_name_H-M "C 2/M"
_symmetry_group_IT_number 12
_symmetry_cell_setting 'monoclinic'
loop_
_space_group_symop_operation_xyz
x,y,z
-x,y,-z
-x,-y,-z
x,-y,z
1/2+x,1/2+y,z
1/2-x,1/2+y,-z
1/2-x,1/2-y,-z
1/2+x,1/2-y,z
loop_
_atom_site_type_symbol
_atom_site_label
_atom_site_fract_x
_atom_site_fract_y
_atom_site_fract_z
Si Si1 0.656356 0.317612 0.773741
Si Si2 0.668985 0.319389 0.209530
Si Si3 0.097791 0.681405 0.590502
Si Si4 0.996564 0.815179 0.896168
Si Si5 0.414294 0.679743 0.598006
O O1 0.647569 0.500000 0.759358
O O2 0.746069 0.274833 0.820773
O O3 0.655494 0.234230 0.674743
O O4 0.579100 0.253427 0.838725
O O5 0.684238 0.500000 0.188677
O O6 0.589949 0.254836 0.150714
O O7 0.651034 0.288807 0.317878
O O8 0.109627 0.500000 0.574006
O O9 0.129545 0.769737 0.497275
O O10 0.999234 0.720281 0.613555
O O11 0.997663 0.000000 0.896187
O O12 0.000000 0.748913 0.000000
O O13 0.441728 0.500000 0.594422
#
# Coordination Sequence:
#
# PCOD8092930 Si02
#       5
#     8   8   8   8   8
#     4  11  22  38  60  88 118 156 197 239 291 349
#     4  10  21  38  60  88 119 154 194 239 290 346
#     4  11  21  34  56  86 119 156 197 242 288 338
#     4   9  19  39  64  86 114 153 194 239 296 354
#     4  10  19  35  58  84 118 159 198 236 286 346
#
# _framework density 20.54853
#
# number of rings (size 3 to 8) (size 9 to 14) (size 15 to 20)
#    0.000    1.800    2.000    4.200    0.000    3.200 
#    0.000    0.000    0.000    4.200    0.000    0.000 
#    0.000    0.000    0.000    0.000    0.000    0.000 
#
# Total GULP energy -248052.537296 kJ/mol
# GULP energy per Si atom -12402.626865 kJ/mol
# Density = 2.050176 g / cm^3
# Si number density = 20.548530 Si / 1000 Ang^3
#
#
#
# Elastic Constant Matrix: (Units=GPa)
#
#
# Indices 1 2 3 4 5 6 
#
# 1 137.3128 18.1113 65.1581 0.0000 12.2704 0.0000
# 2 18.1113 56.8038 27.0735 0.0000 1.7671 0.0000
# 3 65.1581 27.0735 135.3280 0.0000 10.5108 0.0000
# 4 0.0000 0.0000 0.0000 13.5796 0.0000 5.5177
# 5 12.2704 1.7671 10.5108 0.0000 15.9986 0.0000
# 6 0.0000 0.0000 0.0000 5.5177 0.0000 32.6349
#
#
#
# Elastic Compliance Matrix: (Units=1/GPa)
#
#
# Indices 1 2 3 4 5 6 
#
# 1 0.009806 -0.000999 -0.004158 0.000000 -0.004679 0.000000
# 2 -0.000999 0.019565 -0.003503 0.000000 0.000907 0.000000
# 3 -0.004158 -0.003503 0.010342 0.000000 -0.003219 0.000000
# 4 0.000000 0.000000 0.000000 0.079072 0.000000 -0.013369
# 5 -0.004679 0.000907 -0.003219 0.000000 0.068108 0.000000
# 6 0.000000 0.000000 0.000000 -0.013369 0.000000 0.032902
#
#
# Mechanical properties :
#
#
# Convention : Reuss Voigt Hill
#
# Bulk Modulus (GPa) = 44.65991 61.12558 52.89274
# Shear Modulus (GPa) = 20.44320 27.04939 23.74630
#
# Velocity S-wave (km/s) = 3.15758 3.63211 3.40313
# Velocity P-wave (km/s) = 5.92240 6.88485 6.42168
#
# Compressibility (1/GPa) = 0.02239145
#
# Stress axis : x y z
#
# Youngs Moduli (GPa) = 101.98317 51.11272 96.69005
#
# Poissons Ratio (x) = 0.05107 0.40203
# Poissons Ratio (y) = 0.10189 0.33875
# Poissons Ratio (z) = 0.42404 0.17907
#
# Static dielectric constant tensor:
#      x y z
#    x 3.650650 0.000000 0.056000 
#    y 0.000000 3.461500 0.000000 
#    z 0.056000 0.000000 3.926640 
# 
# 
# High freq. dielectric constant tensor:
#      x y z
#    x 1.802080 0.000000 0.003340 
#    y 0.000000 1.782080 0.000000 
#    z 0.003340 0.000000 1.803750 
# 
# From -- ./inp_files/211333.got.cif
#   From: 2010.06.25/outbox.cif.g09.slc.cpg/sg12_106_cif.got.tgz:211333.got - 2010.06.28 00:19:55.
