data_PCOD8092410
_publ_section_title
;
Structure prediction by ZEFSAII (Michael W. Deem and Ramdas Pophale) SiO2 
 PCOD8092410
Probable space group: C 2/M
;
_chemical_formula_sum "Si O2"
_cell_formula_units_Z 40
_cell_length_a 11.819445
_cell_length_b 33.798454
_cell_length_c 5.206051
_cell_angle_alpha 90.000000
_cell_angle_beta 80.218601
_cell_angle_gamma 90.000000
_cell_volume 2049.475386
_symmetry_space_group_name_H-M "C 2/M"
_symmetry_group_IT_number 12
_symmetry_cell_setting 'monoclinic'
loop_
_space_group_symop_operation_xyz
x,y,z
-x,y,-z
-x,-y,-z
x,-y,z
1/2+x,1/2+y,z
1/2-x,1/2+y,-z
1/2-x,1/2-y,-z
1/2+x,1/2-y,z
loop_
_atom_site_type_symbol
_atom_site_label
_atom_site_fract_x
_atom_site_fract_y
_atom_site_fract_z
Si Si1 0.374632 0.320613 0.134881
Si Si2 0.760046 0.663833 0.328697
Si Si3 0.633571 0.080241 0.701769
Si Si4 0.571711 0.766517 0.731606
Si Si5 0.619332 0.046149 0.206909
O O1 0.336747 0.342318 0.413559
O O2 0.372560 0.273836 0.187717
O O3 0.500000 0.335437 0.000000
O O4 0.289793 0.331121 0.935960
O O5 0.845809 0.626846 0.298349
O O6 0.830191 0.702695 0.381910
O O7 0.690978 0.059894 0.428744
O O8 0.498155 0.071217 0.750913
O O9 0.690729 0.058665 0.926841
O O10 0.500000 0.757806 0.500000
O O11 0.500000 0.784405 0.000000
O O12 0.590168 0.000000 0.223129
#
# Coordination Sequence:
#
# PCOD8092410 Si02
#       5
#     8   8   8   8   8
#     4  11  23  42  56  75 105 156 202 246 291 331
#     4  12  23  36  59  83 116 141 194 251 283 328
#     4  10  20  30  52  81 112 145 186 208 270 322
#     4  11  23  37  59  82 112 149 191 230 302 354
#     4  10  19  35  54  79 125 158 171 201 265 363
#
# _framework density 19.517191
#
# number of rings (size 3 to 8) (size 9 to 14) (size 15 to 20)
#    0.000    1.200    0.000    9.600    5.600    0.000 
#    0.000    0.000    0.000    0.000    0.000    0.000 
#    0.000   92.800    0.000    0.000    0.000    0.000 
#
# Total GULP energy -247911.692908 kJ/mol
# GULP energy per Si atom -12395.584645 kJ/mol
# Density = 1.947277 g / cm^3
# Si number density = 19.517191 Si / 1000 Ang^3
#
#
#
# Elastic Constant Matrix: (Units=GPa)
#
#
# Indices 1 2 3 4 5 6 
#
# 1 47.9453 41.0674 26.9418 0.0000 2.8818 0.0000
# 2 41.0674 109.6870 41.3539 0.0000 5.2622 0.0000
# 3 26.9418 41.3539 183.4364 0.0000 20.0184 0.0000
# 4 0.0000 0.0000 0.0000 14.4948 0.0000 9.0202
# 5 2.8818 5.2622 20.0184 0.0000 29.0874 0.0000
# 6 0.0000 0.0000 0.0000 9.0202 0.0000 13.2727
#
#
#
# Elastic Compliance Matrix: (Units=1/GPa)
#
#
# Indices 1 2 3 4 5 6 
#
# 1 0.031463 -0.010973 -0.002188 0.000000 0.000374 0.000000
# 2 -0.010973 0.013793 -0.001453 0.000000 -0.000408 0.000000
# 3 -0.002188 -0.001453 0.006539 0.000000 -0.004021 0.000000
# 4 0.000000 0.000000 0.000000 0.119552 0.000000 -0.081248
# 5 0.000374 -0.000408 -0.004021 0.000000 0.037183 0.000000
# 6 0.000000 0.000000 0.000000 -0.081248 0.000000 0.130559
#
#
# Mechanical properties :
#
#
# Convention : Reuss Voigt Hill
#
# Bulk Modulus (GPa) = 44.31386 62.19946 53.25666
# Shear Modulus (GPa) = 13.30355 26.81800 20.06078
#
# Velocity S-wave (km/s) = 2.61364 3.71087 3.20949
# Velocity P-wave (km/s) = 5.64469 7.09218 6.40943
#
# Compressibility (1/GPa) = 0.02256630
#
# Stress axis : x y z
#
# Youngs Moduli (GPa) = 31.78340 72.50251 152.92236
#
# Poissons Ratio (x) = 0.79556 0.33461
# Poissons Ratio (y) = 0.34876 0.22224
# Poissons Ratio (z) = 0.06955 0.10537
#
# Static dielectric constant tensor:
#      x y z
#    x 3.523080 0.000000 1.561940 
#    y 0.000000 3.377180 0.000000 
#    z 1.561940 0.000000 12.001600 
# 
# 
# High freq. dielectric constant tensor:
#      x y z
#    x 1.706390 0.000000 0.014060 
#    y 0.000000 1.746790 0.000000 
#    z 0.014060 0.000000 1.805880 
# 
# From -- ./inp_files/8117.got.cif
#   From: 2010.06.25/outbox.cif.g09.slc.cpg/sg12_5_cif.got.tgz:8117.got - 2010.06.28 00:19:55.
