data_PCOD8092820
_publ_section_title
;
Structure prediction by ZEFSAII (Michael W. Deem and Ramdas Pophale) SiO2 
 PCOD8092820
Probable space group: C 2/M
;
_chemical_formula_sum "Si O2"
_cell_formula_units_Z 56
_cell_length_a 15.098522
_cell_length_b 9.087711
_cell_length_c 23.953029
_cell_angle_alpha 90.000000
_cell_angle_beta 117.255063
_cell_angle_gamma 90.000000
_cell_volume 2921.727789
_symmetry_space_group_name_H-M "C 2/M"
_symmetry_group_IT_number 12
_symmetry_cell_setting 'monoclinic'
loop_
_space_group_symop_operation_xyz
x,y,z
-x,y,-z
-x,-y,-z
x,-y,z
1/2+x,1/2+y,z
1/2-x,1/2+y,-z
1/2-x,1/2-y,-z
1/2+x,1/2-y,z
loop_
_atom_site_type_symbol
_atom_site_label
_atom_site_fract_x
_atom_site_fract_y
_atom_site_fract_z
Si Si1 0.754745 0.832769 0.059320
Si Si2 0.397009 0.327988 0.804286
Si Si3 0.178084 0.673954 0.727361
Si Si4 0.430901 0.326721 0.404672
Si Si5 0.653281 0.673061 0.500646
Si Si6 0.916912 0.173899 0.933057
Si Si7 0.591420 0.333246 0.804767
O O1 0.684752 0.754541 0.083162
O O2 0.862602 0.825112 0.119590
O O3 0.722203 0.000000 0.038921
O O4 0.750000 0.750000 0.000000
O O5 0.379634 0.500000 0.805197
O O6 0.290255 0.260134 0.756532
O O7 0.440177 0.275155 0.876660
O O8 0.475480 0.290128 0.778600
O O9 0.173846 0.500000 0.718990
O O10 0.111995 0.744732 0.660661
O O11 0.136461 0.715993 0.775812
O O12 0.422697 0.500000 0.393968
O O13 0.364528 0.281229 0.439658
O O14 0.548113 0.282947 0.441471
O O15 0.672453 0.500000 0.500940
O O16 0.750000 0.750000 0.500000
O O17 0.902827 0.000000 0.936022
O O18 0.000000 0.231908 0.000000
O O19 0.603298 0.500000 0.784751
#
# Coordination Sequence:
#
# PCOD8092820 Si02
#       7
#     8   8   8   8   8   8   8
#     4  11  22  35  55  81 110 143 187 238 293 354
#     4   9  19  36  56  78 108 145 187 231 284 347
#     4  11  22  37  58  85 116 150 193 245 288 332
#     4   9  20  39  59  83 119 161 194 228 283 346
#     4   9  19  37  62  89 120 156 195 237 280 329
#     4  10  19  35  58  79 106 144 185 233 293 355
#     4  10  21  39  59  79 108 151 192 231 288 356
#
# _framework density 19.166740000000001
#
# number of rings (size 3 to 8) (size 9 to 14) (size 15 to 20)
#    0.000    2.143    1.429    2.571    0.000    5.429 
#    0.000    7.857    0.000    0.000    0.000    0.000 
#    0.000    0.000    0.000    0.000    0.000    0.000 
#
# Total GULP energy -347025.117184 kJ/mol
# GULP energy per Si atom -12393.754185 kJ/mol
# Density = 1.912312 g / cm^3
# Si number density = 19.166740 Si / 1000 Ang^3
#
#
#
# Elastic Constant Matrix: (Units=GPa)
#
#
# Indices 1 2 3 4 5 6 
#
# 1 129.8236 29.1659 40.0480 0.0000 7.7408 0.0000
# 2 29.1659 40.7433 31.8352 0.0000 2.7713 0.0000
# 3 40.0480 31.8352 106.6205 0.0000 10.4997 0.0000
# 4 0.0000 0.0000 0.0000 29.5969 0.0000 -2.0157
# 5 7.7408 2.7713 10.4997 0.0000 24.7947 0.0000
# 6 0.0000 0.0000 0.0000 -2.0157 0.0000 29.8649
#
#
#
# Elastic Compliance Matrix: (Units=1/GPa)
#
#
# Indices 1 2 3 4 5 6 
#
# 1 0.009558 -0.005284 -0.001854 0.000000 -0.001608 0.000000
# 2 -0.005284 0.034939 -0.008584 0.000000 0.001379 0.000000
# 3 -0.001854 -0.008584 0.013030 0.000000 -0.003980 0.000000
# 4 0.000000 0.000000 0.000000 0.033943 0.000000 0.002291
# 5 -0.001608 0.001379 -0.003980 0.000000 0.042364 0.000000
# 6 0.000000 0.000000 0.000000 0.002291 0.000000 0.033639
#
#
# Mechanical properties :
#
#
# Convention : Reuss Voigt Hill
#
# Bulk Modulus (GPa) = 38.33668 53.25395 45.79532
# Shear Modulus (GPa) = 24.08351 28.59385 26.33868
#
# Velocity S-wave (km/s) = 3.54860 3.86663 3.71102
# Velocity P-wave (km/s) = 6.06920 6.91226 6.50440
#
# Compressibility (1/GPa) = 0.02608468
#
# Stress axis : x y z
#
# Youngs Moduli (GPa) = 104.62890 28.62108 76.74462
#
# Poissons Ratio (x) = 0.15123 0.14228
# Poissons Ratio (y) = 0.55284 0.65874
# Poissons Ratio (z) = 0.19397 0.24567
#
# Static dielectric constant tensor:
#      x y z
#    x 3.661380 0.000000 0.227200 
#    y 0.000000 3.266550 0.000000 
#    z 0.227200 0.000000 3.536430 
# 
# 
# High freq. dielectric constant tensor:
#      x y z
#    x 1.755280 0.000000 0.003780 
#    y 0.000000 1.726580 0.000000 
#    z 0.003780 0.000000 1.747430 
# 
# From -- ./inp_files/338197.got.cif
#   From: 2010.06.25/outbox.cif.g09.slc.cpg/sg12_170_cif.got.tgz:338197.got - 2010.06.28 00:19:55.
