data_PCOD8092235
_publ_section_title
;
Structure prediction by ZEFSAII (Michael W. Deem and Ramdas Pophale) SiO2 
 PCOD8092235
Probable space group: C 2/M
;
_chemical_formula_sum "Si O2"
_cell_formula_units_Z 56
_cell_length_a 25.179227
_cell_length_b 18.074352
_cell_length_c 17.783167
_cell_angle_alpha 90.000000
_cell_angle_beta 159.028707
_cell_angle_gamma 90.000000
_cell_volume 2896.517241
_symmetry_space_group_name_H-M "C 2/M"
_symmetry_group_IT_number 12
_symmetry_cell_setting 'monoclinic'
loop_
_space_group_symop_operation_xyz
x,y,z
-x,y,-z
-x,-y,-z
x,-y,z
1/2+x,1/2+y,z
1/2-x,1/2+y,-z
1/2-x,1/2-y,-z
1/2+x,1/2-y,z
loop_
_atom_site_type_symbol
_atom_site_label
_atom_site_fract_x
_atom_site_fract_y
_atom_site_fract_z
Si Si1 0.727579 0.585176 0.488574
Si Si2 0.622709 0.082451 0.598615
Si Si3 0.773115 0.767037 0.808115
Si Si4 0.506065 0.918787 0.275688
Si Si5 0.326642 0.284131 0.475439
Si Si6 0.066538 0.174726 0.163777
Si Si7 0.150258 0.273832 0.935930
O O1 0.706816 0.500000 0.487162
O O2 0.733803 0.638281 0.570571
O O3 0.585822 0.610475 0.251192
O O4 0.871619 0.594388 0.626913
O O5 0.500000 0.098640 0.500000
O O6 0.746182 0.144879 0.768631
O O7 0.566222 0.090135 0.439245
O O8 0.688957 0.000000 0.698982
O O9 0.681881 0.716927 0.627436
O O10 0.742358 0.741336 0.851489
O O11 0.950995 0.760008 0.032473
O O12 0.373398 0.861382 0.092390
O O13 0.436894 0.000000 0.173885
O O14 0.225412 0.215055 0.366644
O O15 0.493057 0.269646 0.725026
O O16 0.000000 0.137658 0.000000
O O17 0.250000 0.250000 0.000000
#
# Coordination Sequence:
#
# PCOD8092235 Si02
#       7
#     8   8   8   8   8   8   8
#     4  11  21  36  60  86 122 162 194 248 317 359
#     4  10  20  36  57  86 127 162 191 244 308 363
#     4  11  22  35  61  89 117 158 203 245 297 360
#     4  10  20  38  61  87 121 158 197 252 304 353
#     4  11  22  41  58  84 126 153 201 255 290 368
#     4  10  19  34  60  86 113 157 192 243 308 358
#     4  12  23  38  63  90 115 162 210 240 300 364
#
# _framework density 19.333563000000002
#
# number of rings (size 3 to 8) (size 9 to 14) (size 15 to 20)
#    0.000    1.286    4.286    3.000    0.000    0.857 
#    0.000    1.429    0.000    5.571    0.000    2.000 
#    0.000    0.000    0.000    0.000    0.000    0.000 
#
# Total GULP energy -346930.030526 kJ/mol
# GULP energy per Si atom -12390.358233 kJ/mol
# Density = 1.928956 g / cm^3
# Si number density = 19.333563 Si / 1000 Ang^3
#
#
#
# Elastic Constant Matrix: (Units=GPa)
#
#
# Indices 1 2 3 4 5 6 
#
# 1 118.7184 60.5196 38.1201 0.0000 -23.8201 0.0000
# 2 60.5196 147.4966 47.1317 0.0000 -17.3243 0.0000
# 3 38.1201 47.1317 60.0658 0.0000 -23.1615 0.0000
# 4 0.0000 0.0000 0.0000 28.1208 0.0000 -4.0214
# 5 -23.8201 -17.3243 -23.1615 0.0000 35.3183 0.0000
# 6 0.0000 0.0000 0.0000 -4.0214 0.0000 28.9103
#
#
#
# Elastic Compliance Matrix: (Units=1/GPa)
#
#
# Indices 1 2 3 4 5 6 
#
# 1 0.012087 -0.003381 -0.003365 0.000000 0.004287 0.000000
# 2 -0.003381 0.009996 -0.006273 0.000000 -0.001491 0.000000
# 3 -0.003365 -0.006273 0.028971 0.000000 0.013652 0.000000
# 4 0.000000 0.000000 0.000000 0.036283 0.000000 0.005047
# 5 0.004287 -0.001491 0.013652 0.000000 0.039427 0.000000
# 6 0.000000 0.000000 0.000000 0.005047 0.000000 0.035292
#
#
# Mechanical properties :
#
#
# Convention : Reuss Voigt Hill
#
# Bulk Modulus (GPa) = 39.97400 68.64707 54.31053
# Shear Modulus (GPa) = 25.45397 30.50383 27.97890
#
# Velocity S-wave (km/s) = 3.63239 3.97642 3.80829
# Velocity P-wave (km/s) = 6.18977 7.52770 6.89128
#
# Compressibility (1/GPa) = 0.02501626
#
# Stress axis : x y z
#
# Youngs Moduli (GPa) = 82.73040 100.03573 34.51766
#
# Poissons Ratio (x) = 0.33819 0.11616
# Poissons Ratio (y) = 0.27969 0.21653
# Poissons Ratio (z) = 0.27842 0.62753
#
# Static dielectric constant tensor:
#      x y z
#    x 3.802070 0.000000 -0.129550 
#    y 0.000000 3.639020 0.000000 
#    z -0.129550 0.000000 3.416820 
# 
# 
# High freq. dielectric constant tensor:
#      x y z
#    x 1.763780 0.000000 -0.007490 
#    y 0.000000 1.740540 0.000000 
#    z -0.007490 0.000000 1.732750 
# 
# From -- ./inp_files/293922.got.cif
#   From: 2010.06.25/outbox.cif.g09.slc.cpg/sg12_147_cif.got.tgz:293922.got - 2010.06.28 00:19:55.
