data_PCOD8092783
_publ_section_title
;
Structure prediction by ZEFSAII (Michael W. Deem and Ramdas Pophale) SiO2 
 PCOD8092783
Probable space group: C 2/M
;
_chemical_formula_sum "Si O2"
_cell_formula_units_Z 64
_cell_length_a 16.496763
_cell_length_b 28.986877
_cell_length_c 9.631558
_cell_angle_alpha 90.000000
_cell_angle_beta 53.231401
_cell_angle_gamma 90.000000
_cell_volume 3689.448965
_symmetry_space_group_name_H-M "C 2/M"
_symmetry_group_IT_number 12
_symmetry_cell_setting 'monoclinic'
loop_
_space_group_symop_operation_xyz
x,y,z
-x,y,-z
-x,-y,-z
x,-y,z
1/2+x,1/2+y,z
1/2-x,1/2+y,-z
1/2-x,1/2-y,-z
1/2+x,1/2-y,z
loop_
_atom_site_type_symbol
_atom_site_label
_atom_site_fract_x
_atom_site_fract_y
_atom_site_fract_z
Si Si1 0.463779 0.051200 0.882185
Si Si2 0.428705 0.187086 0.373094
Si Si3 0.925473 0.786344 0.459970
Si Si4 0.695333 0.211188 0.757033
Si Si5 0.291772 0.863413 0.716000
Si Si6 0.868431 0.356757 0.932390
Si Si7 0.898654 0.189492 0.182935
Si Si8 0.902776 0.447929 0.505961
O O1 0.374193 0.088988 0.965571
O O2 0.561351 0.063976 0.687199
O O3 0.423135 0.000000 0.878564
O O4 0.500000 0.049547 0.000000
O O5 0.471799 0.237175 0.367925
O O6 0.336746 0.189371 0.356782
O O7 0.385577 0.164724 0.556265
O O8 0.517544 0.157444 0.217562
O O9 0.814396 0.779233 0.637794
O O10 0.919331 0.816290 0.326311
O O11 0.000000 0.808645 0.500000
O O12 0.637265 0.259845 0.831250
O O13 0.671097 0.175777 0.904783
O O14 0.293650 0.853246 0.878451
O O15 0.183718 0.848629 0.770263
O O16 0.310016 0.916561 0.654257
O O17 0.000000 0.176305 0.000000
O O18 0.863119 0.500000 0.559458
O O19 0.000000 0.438347 0.500000
#
# Coordination Sequence:
#
# PCOD8092783 Si02
#       8
#     8   8   8   8   8   8   8   8
#     4  10  20  33  51  80 118 149 177 220 273 330
#     4  11  19  37  52  77 108 145 183 222 271 324
#     4  11  22  38  57  76 106 147 189 233 275 323
#     4  11  22  38  53  78 109 150 184 231 275 322
#     4  12  21  35  55  80 111 144 186 224 275 325
#     4  12  23  31  56  83 111 148 189 221 266 340
#     4  11  24  40  55  76 111 145 187 239 278 317
#     4  10  19  35  57  84 115 145 179 221 276 337
#
# _framework density 17.346765000000001
#
# number of rings (size 3 to 8) (size 9 to 14) (size 15 to 20)
#    0.000    1.000    5.000    4.500    1.750    0.500 
#    0.000    0.000    0.000    0.375    0.000    0.000 
#    0.000    1.000    0.000    0.000    0.000    0.000 
#
# Total GULP energy -396791.981843 kJ/mol
# GULP energy per Si atom -12399.749433 kJ/mol
# Density = 1.730728 g / cm^3
# Si number density = 17.346765 Si / 1000 Ang^3
#
#
#
# Elastic Constant Matrix: (Units=GPa)
#
#
# Indices 1 2 3 4 5 6 
#
# 1 90.0466 37.3162 31.0213 0.0000 10.3692 0.0000
# 2 37.3162 98.7809 34.1508 0.0000 5.1797 0.0000
# 3 31.0213 34.1508 82.2625 0.0000 10.2239 0.0000
# 4 0.0000 0.0000 0.0000 26.0078 0.0000 1.7995
# 5 10.3692 5.1797 10.2239 0.0000 34.0100 0.0000
# 6 0.0000 0.0000 0.0000 1.7995 0.0000 21.8786
#
#
#
# Elastic Compliance Matrix: (Units=1/GPa)
#
#
# Indices 1 2 3 4 5 6 
#
# 1 0.014266 -0.004091 -0.003343 0.000000 -0.002721 0.000000
# 2 -0.004091 0.012997 -0.003908 0.000000 0.000443 0.000000
# 3 -0.003343 -0.003908 0.015415 0.000000 -0.003019 0.000000
# 4 0.000000 0.000000 0.000000 0.038670 0.000000 -0.003181
# 5 -0.002721 0.000443 -0.003019 0.000000 0.031073 0.000000
# 6 0.000000 0.000000 0.000000 -0.003181 0.000000 0.045968
#
#
# Mechanical properties :
#
#
# Convention : Reuss Voigt Hill
#
# Bulk Modulus (GPa) = 50.01644 52.89628 51.45636
# Shear Modulus (GPa) = 26.63314 27.61939 27.12627
#
# Velocity S-wave (km/s) = 3.92259 3.99456 3.95874
# Velocity P-wave (km/s) = 7.02933 7.19965 7.11500
#
# Compressibility (1/GPa) = 0.01999342
#
# Stress axis : x y z
#
# Youngs Moduli (GPa) = 70.09838 76.94359 64.87389
#
# Poissons Ratio (x) = 0.31474 0.21689
# Poissons Ratio (y) = 0.28674 0.25352
# Poissons Ratio (z) = 0.23435 0.30069
#
# Static dielectric constant tensor:
#      x y z
#    x 3.166620 0.000000 0.241510 
#    y 0.000000 3.404010 0.000000 
#    z 0.241510 0.000000 3.417400 
# 
# 
# High freq. dielectric constant tensor:
#      x y z
#    x 1.654740 0.000000 0.027030 
#    y 0.000000 1.658630 0.000000 
#    z 0.027030 0.000000 1.673090 
# 
# From -- ./inp_files/68202.got.cif
#   From: 2010.06.25/outbox.cif.g09.slc.cpg/sg12_35_cif.got.tgz:68202.got - 2010.06.28 00:19:55.
