data_PCOD8092621
_publ_section_title
;
Structure prediction by ZEFSAII (Michael W. Deem and Ramdas Pophale) SiO2 
 PCOD8092621
Probable space group: C 2/M
;
_chemical_formula_sum "Si O2"
_cell_formula_units_Z 56
_cell_length_a 24.671443
_cell_length_b 18.332045
_cell_length_c 9.340455
_cell_angle_alpha 90.000000
_cell_angle_beta 44.273089
_cell_angle_gamma 90.000000
_cell_volume 2949.022650
_symmetry_space_group_name_H-M "C 2/M"
_symmetry_group_IT_number 12
_symmetry_cell_setting 'monoclinic'
loop_
_space_group_symop_operation_xyz
x,y,z
-x,y,-z
-x,-y,-z
x,-y,z
1/2+x,1/2+y,z
1/2-x,1/2+y,-z
1/2-x,1/2-y,-z
1/2+x,1/2-y,z
loop_
_atom_site_type_symbol
_atom_site_label
_atom_site_fract_x
_atom_site_fract_y
_atom_site_fract_z
Si Si1 0.214930 0.084631 0.844984
Si Si2 0.020650 0.330505 0.116622
Si Si3 0.388610 0.919386 0.836265
Si Si4 0.371009 0.156156 0.585920
Si Si5 0.793039 0.079683 0.813947
Si Si6 0.148830 0.220950 0.808632
Si Si7 0.695453 0.291288 0.404443
O O1 0.308627 0.095133 0.650558
O O2 0.166781 0.139999 0.835591
O O3 0.196532 0.000000 0.840314
O O4 0.188906 0.102912 0.056860
O O5 0.072277 0.391499 0.093964
O O6 0.939476 0.324811 0.349467
O O7 0.066717 0.252694 0.021315
O O8 0.000000 0.360465 0.000000
O O9 0.408088 0.865524 0.667577
O O10 0.420845 0.000000 0.739010
O O11 0.298251 0.922426 0.034746
O O12 0.322806 0.231080 0.682498
O O13 0.826574 0.133233 0.630677
O O14 0.829186 0.000000 0.715722
O O15 0.213947 0.280884 0.727430
O O16 0.144320 0.214960 0.644986
#
# Coordination Sequence:
#
# PCOD8092621 Si02
#       7
#     8   8   8   8   8   8   8
#     4   9  20  37  60  88 113 148 191 240 289 337
#     4  12  23  38  53  81 118 154 190 231 280 335
#     4  10  22  38  56  82 115 154 189 225 280 345
#     4  10  21  35  59  83 113 145 187 237 280 341
#     4   9  18  34  58  86 114 141 186 240 287 336
#     4  10  21  35  56  81 115 150 194 235 279 343
#     4  10  19  35  56  83 108 147 192 240 281 329
#
# _framework density 18.989343999999999
#
# number of rings (size 3 to 8) (size 9 to 14) (size 15 to 20)
#    0.000    2.000    2.857    1.714    2.000    4.286 
#    0.000    1.429    0.000    1.286    0.000    2.000 
#    0.000    0.000    0.000    0.000    0.000    0.000 
#
# Total GULP energy -347018.374475 kJ/mol
# GULP energy per Si atom -12393.513374 kJ/mol
# Density = 1.894612 g / cm^3
# Si number density = 18.989344 Si / 1000 Ang^3
#
#
#
# Elastic Constant Matrix: (Units=GPa)
#
#
# Indices 1 2 3 4 5 6 
#
# 1 92.4381 52.6906 29.7470 0.0000 25.6986 0.0000
# 2 52.6906 126.1979 44.7569 0.0000 24.5363 0.0000
# 3 29.7470 44.7569 80.0738 0.0000 8.6568 0.0000
# 4 0.0000 0.0000 0.0000 17.6243 0.0000 4.3536
# 5 25.6986 24.5363 8.6568 0.0000 20.6175 0.0000
# 6 0.0000 0.0000 0.0000 4.3536 0.0000 14.0067
#
#
#
# Elastic Compliance Matrix: (Units=1/GPa)
#
#
# Indices 1 2 3 4 5 6 
#
# 1 0.018710 -0.003115 -0.003236 0.000000 -0.018256 0.000000
# 2 -0.003115 0.012793 -0.004994 0.000000 -0.009246 0.000000
# 3 -0.003236 -0.004994 0.016136 0.000000 0.003202 0.000000
# 4 0.000000 0.000000 0.000000 0.061459 0.000000 -0.019103
# 5 -0.018256 -0.009246 0.003202 0.000000 0.080916 0.000000
# 6 0.000000 0.000000 0.000000 -0.019103 0.000000 0.077332
#
#
# Mechanical properties :
#
#
# Convention : Reuss Voigt Hill
#
# Bulk Modulus (GPa) = 40.08109 61.45542 50.76825
# Shear Modulus (GPa) = 16.75869 21.88405 19.32137
#
# Velocity S-wave (km/s) = 2.97397 3.39844 3.19326
# Velocity P-wave (km/s) = 5.73983 6.91611 6.35524
#
# Compressibility (1/GPa) = 0.02494942
#
# Stress axis : x y z
#
# Youngs Moduli (GPa) = 53.44699 78.16542 61.97344
#
# Poissons Ratio (x) = 0.24347 0.20055
# Poissons Ratio (y) = 0.16648 0.30950
# Poissons Ratio (z) = 0.17296 0.39037
#
# Static dielectric constant tensor:
#      x y z
#    x 3.572250 0.000000 0.198520 
#    y 0.000000 3.656550 0.000000 
#    z 0.198520 0.000000 3.374380 
# 
# 
# High freq. dielectric constant tensor:
#      x y z
#    x 1.732540 0.000000 0.014850 
#    y 0.000000 1.734480 0.000000 
#    z 0.014850 0.000000 1.719580 
# 
# From -- ./inp_files/98078.got.cif
#   From: 2010.06.25/outbox.cif.g09.slc.cpg/sg12_50_cif.got.tgz:98078.got - 2010.06.28 00:19:55.
