data_PCOD8092595
_publ_section_title
;
Structure prediction by ZEFSAII (Michael W. Deem and Ramdas Pophale) SiO2 
 PCOD8092595
Probable space group: C 2/M
;
_chemical_formula_sum "Si O2"
_cell_formula_units_Z 48
_cell_length_a 28.570397
_cell_length_b 19.197544
_cell_length_c 14.358276
_cell_angle_alpha 90.000000
_cell_angle_beta 160.283789
_cell_angle_gamma 90.000000
_cell_volume 2656.806455
_symmetry_space_group_name_H-M "C 2/M"
_symmetry_group_IT_number 12
_symmetry_cell_setting 'monoclinic'
loop_
_space_group_symop_operation_xyz
x,y,z
-x,y,-z
-x,-y,-z
x,-y,z
1/2+x,1/2+y,z
1/2-x,1/2+y,-z
1/2-x,1/2-y,-z
1/2+x,1/2-y,z
loop_
_atom_site_type_symbol
_atom_site_label
_atom_site_fract_x
_atom_site_fract_y
_atom_site_fract_z
Si Si1 0.729050 0.080158 0.087892
Si Si2 0.833190 0.919702 0.081715
Si Si3 0.147965 0.293818 0.482447
Si Si4 0.416336 0.079378 0.521836
Si Si5 0.932911 0.159264 0.586832
Si Si6 0.466721 0.699891 0.039539
O O1 0.792221 0.120210 0.294749
O O2 0.743907 0.000000 0.139887
O O3 0.814191 0.098538 0.154322
O O4 0.569134 0.100415 0.773266
O O5 0.686459 0.908763 0.756694
O O6 0.884630 0.000000 0.165288
O O7 0.943743 0.864772 0.249869
O O8 0.125363 0.373497 0.468492
O O9 0.102605 0.242333 0.483818
O O10 0.052371 0.272457 0.214830
O O11 0.306331 0.282429 0.751039
O O12 0.410457 0.000000 0.546267
O O13 0.980722 0.143734 0.783707
O O14 0.500000 0.669215 0.000000
#
# Coordination Sequence:
#
# PCOD8092595 Si02
#       6
#     8   8   8   8   8   8
#     4  10  20  34  55  82 112 151 188 217 260 318
#     4  10  19  35  56  80 113 152 187 216 259 321
#     4  10  20  37  57  83 109 137 183 225 274 328
#     4  10  19  35  57  80 112 149 182 222 265 315
#     4  10  21  33  57  80 112 136 183 228 271 315
#     4  10  21  37  61  84 103 140 180 223 281 334
#
# _framework density 18.066804000000001
#
# number of rings (size 3 to 8) (size 9 to 14) (size 15 to 20)
#    1.000    1.000    1.667    3.000    0.000    3.333 
#    0.000    5.000    0.000    5.000    0.000    0.000 
#    0.000    0.000    0.000    0.000    0.000    0.000 
#
# Total GULP energy -297401.930355 kJ/mol
# GULP energy per Si atom -12391.747098 kJ/mol
# Density = 1.802568 g / cm^3
# Si number density = 18.066804 Si / 1000 Ang^3
#
#
#
# Elastic Constant Matrix: (Units=GPa)
#
#
# Indices 1 2 3 4 5 6 
#
# 1 88.2424 42.8884 41.5077 0.0000 0.1843 0.0000
# 2 42.8884 64.7843 46.6958 0.0000 7.2496 0.0000
# 3 41.5077 46.6958 115.9458 0.0000 13.1545 0.0000
# 4 0.0000 0.0000 0.0000 24.1385 0.0000 0.2956
# 5 0.1843 7.2496 13.1545 0.0000 22.8124 0.0000
# 6 0.0000 0.0000 0.0000 0.2956 0.0000 18.4749
#
#
#
# Elastic Compliance Matrix: (Units=1/GPa)
#
#
# Indices 1 2 3 4 5 6 
#
# 1 0.017547 -0.010186 -0.002708 0.000000 0.004657 0.000000
# 2 -0.010186 0.027747 -0.006995 0.000000 -0.004702 0.000000
# 3 -0.002708 -0.006995 0.013007 0.000000 -0.005256 0.000000
# 4 0.000000 0.000000 0.000000 0.041436 0.000000 -0.000663
# 5 0.004657 -0.004702 -0.005256 0.000000 0.048323 0.000000
# 6 0.000000 0.000000 0.000000 -0.000663 0.000000 0.054138
#
#
# Mechanical properties :
#
#
# Convention : Reuss Voigt Hill
#
# Bulk Modulus (GPa) = 53.98238 59.01736 56.49987
# Shear Modulus (GPa) = 20.14911 22.27722 21.21317
#
# Velocity S-wave (km/s) = 3.34317 3.51529 3.43031
# Velocity P-wave (km/s) = 6.69676 7.01523 6.85784
#
# Compressibility (1/GPa) = 0.01852456
#
# Stress axis : x y z
#
# Youngs Moduli (GPa) = 56.98999 36.03995 76.87873
#
# Poissons Ratio (x) = 0.36709 0.20817
# Poissons Ratio (y) = 0.58048 0.53776
# Poissons Ratio (z) = 0.15432 0.25210
#
# Static dielectric constant tensor:
#      x y z
#    x 3.089090 0.000000 -0.074780 
#    y 0.000000 3.184490 0.000000 
#    z -0.074780 0.000000 3.579540 
# 
# 
# High freq. dielectric constant tensor:
#      x y z
#    x 1.672990 0.000000 -0.002550 
#    y 0.000000 1.674930 0.000000 
#    z -0.002550 0.000000 1.728800 
# 
# From -- ./inp_files/247142.got.cif
#   From: 2010.06.25/outbox.cif.g09.slc.cpg/sg12_124_cif.got.tgz:247142.got - 2010.06.28 00:19:55.
