data_PCOD8092688
_publ_section_title
;
Structure prediction by ZEFSAII (Michael W. Deem and Ramdas Pophale) SiO2 
 PCOD8092688
Probable space group: C 2/M
;
_chemical_formula_sum "Si O2"
_cell_formula_units_Z 48
_cell_length_a 15.731536
_cell_length_b 8.919673
_cell_length_c 16.995800
_cell_angle_alpha 90.000000
_cell_angle_beta 89.246890
_cell_angle_gamma 90.000000
_cell_volume 2384.647309
_symmetry_space_group_name_H-M "C 2/M"
_symmetry_group_IT_number 12
_symmetry_cell_setting 'monoclinic'
loop_
_space_group_symop_operation_xyz
x,y,z
-x,y,-z
-x,-y,-z
x,-y,z
1/2+x,1/2+y,z
1/2-x,1/2+y,-z
1/2-x,1/2-y,-z
1/2+x,1/2-y,z
loop_
_atom_site_type_symbol
_atom_site_label
_atom_site_fract_x
_atom_site_fract_y
_atom_site_fract_z
Si Si1 0.250994 0.678454 0.914956
Si Si2 0.588730 0.676454 0.185346
Si Si3 0.398694 0.324579 0.179727
Si Si4 0.095465 0.676766 0.500178
Si Si5 0.348228 0.668321 0.653883
Si Si6 0.653560 0.830516 0.668063
O O1 0.251358 0.500000 0.921695
O O2 0.336518 0.740277 0.871324
O O3 0.166348 0.727930 0.870363
O O4 0.250000 0.750000 0.000000
O O5 0.602744 0.500000 0.192434
O O6 0.495545 0.713375 0.151237
O O7 0.597064 0.739608 0.274848
O O8 0.378741 0.500000 0.169372
O O9 0.393112 0.280079 0.271237
O O10 0.098038 0.500000 0.494431
O O11 0.146335 0.736388 0.424981
O O12 0.138699 0.732039 0.580288
O O13 0.000000 0.739375 0.500000
O O14 0.377857 0.500000 0.633154
O O15 0.252496 0.669668 0.686741
O O16 0.616887 0.000000 0.676898
#
# Coordination Sequence:
#
# PCOD8092688 Si02
#       6
#     8   8   8   8   8   8
#     4  11  23  44  67  90 124 158 192 239 296 356
#     4   9  20  39  62  86 120 160 195 239 297 357
#     4  11  22  38  63  93 118 153 203 245 291 352
#     4  10  21  34  49  78 117 153 195 251 305 342
#     4  10  19  35  57  79 108 156 205 240 290 353
#     4  10  20  36  56  79 116 161 198 242 302 353
#
# _framework density 20.128762999999999
#
# number of rings (size 3 to 8) (size 9 to 14) (size 15 to 20)
#    0.000    1.833    1.667    2.500    0.000    2.333 
#    0.000    7.500    0.000    0.000    0.000    0.000 
#    0.000    0.000    0.000    0.000    0.000    0.000 
#
# Total GULP energy -297590.329560 kJ/mol
# GULP energy per Si atom -12399.597065 kJ/mol
# Density = 2.008295 g / cm^3
# Si number density = 20.128763 Si / 1000 Ang^3
#
#
#
# Elastic Constant Matrix: (Units=GPa)
#
#
# Indices 1 2 3 4 5 6 
#
# 1 120.8446 33.1252 53.5790 0.0000 3.1648 0.0000
# 2 33.1252 52.3473 35.1569 0.0000 0.5469 0.0000
# 3 53.5790 35.1569 138.2237 0.0000 -0.6522 0.0000
# 4 0.0000 0.0000 0.0000 37.2965 0.0000 1.1170
# 5 3.1648 0.5469 -0.6522 0.0000 22.2004 0.0000
# 6 0.0000 0.0000 0.0000 1.1170 0.0000 23.5458
#
#
#
# Elastic Compliance Matrix: (Units=1/GPa)
#
#
# Indices 1 2 3 4 5 6 
#
# 1 0.011003 -0.004917 -0.003022 0.000000 -0.001536 0.000000
# 2 -0.004917 0.025248 -0.004516 0.000000 -0.000054 0.000000
# 3 -0.003022 -0.004516 0.009558 0.000000 0.000823 0.000000
# 4 0.000000 0.000000 0.000000 0.026850 0.000000 -0.001274
# 5 -0.001536 -0.000054 0.000823 0.000000 0.045289 0.000000
# 6 0.000000 0.000000 0.000000 -0.001274 0.000000 0.042531
#
#
# Mechanical properties :
#
#
# Convention : Reuss Voigt Hill
#
# Bulk Modulus (GPa) = 47.84703 61.68200 54.76451
# Shear Modulus (GPa) = 25.99347 29.24550 27.61949
#
# Velocity S-wave (km/s) = 3.59745 3.81586 3.70826
# Velocity P-wave (km/s) = 6.40918 7.07987 6.75286
#
# Compressibility (1/GPa) = 0.02089994
#
# Stress axis : x y z
#
# Youngs Moduli (GPa) = 90.88541 39.60647 104.61982
#
# Poissons Ratio (x) = 0.19475 0.31611
# Poissons Ratio (y) = 0.44690 0.47247
# Poissons Ratio (z) = 0.27461 0.17887
#
# Static dielectric constant tensor:
#      x y z
#    x 3.834600 0.000000 0.076850 
#    y 0.000000 3.436020 0.000000 
#    z 0.076850 0.000000 3.726930 
# 
# 
# High freq. dielectric constant tensor:
#      x y z
#    x 1.796650 0.000000 0.006340 
#    y 0.000000 1.762060 0.000000 
#    z 0.006340 0.000000 1.790310 
# 
# From -- ./inp_files/267651.got.cif
#   From: 2010.06.25/outbox.cif.g09.slc.cpg/sg12_134_cif.got.tgz:267651.got - 2010.06.28 00:19:55.
