data_PCOD8092017
_publ_section_title
;
Structure prediction by ZEFSAII (Michael W. Deem and Ramdas Pophale) SiO2 
 PCOD8092017
Probable space group: C 2/M
;
_chemical_formula_sum "Si O2"
_cell_formula_units_Z 56
_cell_length_a 29.210075
_cell_length_b 8.602967
_cell_length_c 11.270973
_cell_angle_alpha 90.000000
_cell_angle_beta 76.012598
_cell_angle_gamma 90.000000
_cell_volume 2748.338707
_symmetry_space_group_name_H-M "C 2/M"
_symmetry_group_IT_number 12
_symmetry_cell_setting 'monoclinic'
loop_
_space_group_symop_operation_xyz
x,y,z
-x,y,-z
-x,-y,-z
x,-y,z
1/2+x,1/2+y,z
1/2-x,1/2+y,-z
1/2-x,1/2-y,-z
1/2+x,1/2-y,z
loop_
_atom_site_type_symbol
_atom_site_label
_atom_site_fract_x
_atom_site_fract_y
_atom_site_fract_z
Si Si1 0.168611 0.678361 0.562600
Si Si2 0.616037 0.318915 0.939095
Si Si3 0.071317 0.680501 0.745852
Si Si4 0.012741 0.315399 0.363032
Si Si5 0.611073 0.818064 0.193966
Si Si6 0.787164 0.819631 0.245269
Si Si7 0.810233 0.180139 0.700538
O O1 0.182773 0.500000 0.574281
O O2 0.114238 0.708174 0.628309
O O3 0.202706 0.782069 0.623138
O O4 0.175365 0.719885 0.422036
O O5 0.613123 0.500000 0.971918
O O6 0.578193 0.278652 0.861248
O O7 0.668075 0.271082 0.861710
O O8 0.603607 0.217078 0.060672
O O9 0.066860 0.500000 0.783374
O O10 0.024606 0.745518 0.710862
O O11 0.009078 0.500000 0.369672
O O12 0.064879 0.261129 0.293986
O O13 0.000000 0.245223 0.500000
O O14 0.655706 0.722112 0.212254
O O15 0.619826 0.000000 0.207757
O O16 0.742835 0.721354 0.226261
O O17 0.775235 0.000000 0.240738
O O18 0.814419 0.000000 0.667335
#
# Coordination Sequence:
#
# PCOD8092017 Si02
#       7
#     8   8   8   8   8   8   8
#     4  10  19  34  58  87 117 148 186 232 281 333
#     4  10  22  40  59  82 114 148 186 233 282 334
#     4   9  18  35  61  87 113 149 191 233 275 325
#     4   9  18  35  60  89 116 144 184 231 276 326
#     4  11  23  39  60  83 111 148 190 235 279 330
#     4  10  21  38  59  82 111 149 191 233 279 333
#     4  12  24  37  55  81 115 151 188 233 285 338
#
# _framework density 20.375945000000002
#
# number of rings (size 3 to 8) (size 9 to 14) (size 15 to 20)
#    0.000    1.857    0.000    4.286    0.000    5.714 
#    0.000    4.286    0.000    3.000    0.000    0.000 
#    0.000    0.000    0.000    0.000    0.000    0.000 
#
# Total GULP energy -347359.544420 kJ/mol
# GULP energy per Si atom -12405.698015 kJ/mol
# Density = 2.032957 g / cm^3
# Si number density = 20.375945 Si / 1000 Ang^3
#
#
#
# Elastic Constant Matrix: (Units=GPa)
#
#
# Indices 1 2 3 4 5 6 
#
# 1 133.6407 29.5868 36.0850 0.0000 11.9384 0.0000
# 2 29.5868 53.7098 18.1551 0.0000 -4.7368 0.0000
# 3 36.0850 18.1551 107.1117 0.0000 6.9476 0.0000
# 4 0.0000 0.0000 0.0000 28.3879 0.0000 5.4775
# 5 11.9384 -4.7368 6.9476 0.0000 20.4561 0.0000
# 6 0.0000 0.0000 0.0000 5.4775 0.0000 27.3022
#
#
#
# Elastic Compliance Matrix: (Units=1/GPa)
#
#
# Indices 1 2 3 4 5 6 
#
# 1 0.009735 -0.005239 -0.001988 0.000000 -0.006219 0.000000
# 2 -0.005239 0.023276 -0.002790 0.000000 0.009395 0.000000
# 3 -0.001988 -0.002790 0.010681 0.000000 -0.003113 0.000000
# 4 0.000000 0.000000 0.000000 0.036645 0.000000 -0.007352
# 5 -0.006219 0.009395 -0.003113 0.000000 0.055748 0.000000
# 6 0.000000 0.000000 0.000000 -0.007352 0.000000 0.038102
#
#
# Mechanical properties :
#
#
# Convention : Reuss Voigt Hill
#
# Bulk Modulus (GPa) = 42.26917 51.34621 46.80769
# Shear Modulus (GPa) = 24.73946 29.27159 27.00553
#
# Velocity S-wave (km/s) = 3.48825 3.79433 3.64450
# Velocity P-wave (km/s) = 6.08387 6.66709 6.38215
#
# Compressibility (1/GPa) = 0.02365790
#
# Stress axis : x y z
#
# Youngs Moduli (GPa) = 102.72112 42.96244 93.62747
#
# Poissons Ratio (x) = 0.22509 0.18615
# Poissons Ratio (y) = 0.53817 0.26118
# Poissons Ratio (z) = 0.20423 0.11985
#
# Static dielectric constant tensor:
#      x y z
#    x 3.832910 0.000000 -0.038420 
#    y 0.000000 3.481580 0.000000 
#    z -0.038420 0.000000 3.600260 
# 
# 
# High freq. dielectric constant tensor:
#      x y z
#    x 1.804370 0.000000 0.001040 
#    y 0.000000 1.784100 0.000000 
#    z 0.001040 0.000000 1.793450 
# 
# From -- ./inp_files/186446.got.cif
#   From: 2010.06.25/outbox.cif.g09.slc.cpg/sg12_94_cif.got.tgz:186446.got - 2010.06.28 00:19:55.
