data_PCOD8092099
_publ_section_title
;
Structure prediction by ZEFSAII (Michael W. Deem and Ramdas Pophale) SiO2 
 PCOD8092099
Probable space group: C 2/M
;
_chemical_formula_sum "Si O2"
_cell_formula_units_Z 64
_cell_length_a 20.170378
_cell_length_b 8.723495
_cell_length_c 21.134725
_cell_angle_alpha 90.000000
_cell_angle_beta 116.335812
_cell_angle_gamma 90.000000
_cell_volume 3332.810421
_symmetry_space_group_name_H-M "C 2/M"
_symmetry_group_IT_number 12
_symmetry_cell_setting 'monoclinic'
loop_
_space_group_symop_operation_xyz
x,y,z
-x,y,-z
-x,-y,-z
x,-y,z
1/2+x,1/2+y,z
1/2-x,1/2+y,-z
1/2-x,1/2-y,-z
1/2+x,1/2-y,z
loop_
_atom_site_type_symbol
_atom_site_label
_atom_site_fract_x
_atom_site_fract_y
_atom_site_fract_z
Si Si1 0.998758 0.319379 0.723442
Si Si2 0.077571 0.181601 0.059611
Si Si3 0.164829 0.318305 0.791999
Si Si4 0.393264 0.821337 0.791767
Si Si5 0.242419 0.321413 0.698569
Si Si6 0.893456 0.679037 0.440407
Si Si7 0.725350 0.318247 0.055315
Si Si8 0.478182 0.319323 0.584874
O O1 0.995661 0.500000 0.708343
O O2 0.958205 0.276282 0.771115
O O3 0.960327 0.232373 0.648631
O O4 0.082038 0.256288 0.766206
O O5 0.093296 0.235757 0.137046
O O6 0.143201 0.237275 0.040720
O O7 0.074969 0.000000 0.060741
O O8 0.000000 0.248299 0.000000
O O9 0.164185 0.500000 0.793428
O O10 0.197007 0.259558 0.739484
O O11 0.216774 0.252978 0.869155
O O12 0.317603 0.773048 0.725301
O O13 0.391993 0.000000 0.805730
O O14 0.261973 0.500000 0.714675
O O15 0.191622 0.291827 0.615452
O O16 0.908681 0.500000 0.457244
O O17 0.909059 0.770231 0.511651
O O18 0.947580 0.735950 0.407597
O O19 0.728304 0.500000 0.052716
O O20 0.750000 0.250000 0.000000
O O21 0.489287 0.500000 0.585262
#
# Coordination Sequence:
#
# PCOD8092099 Si02
#       8
#     8   8   8   8   8   8   8   8
#     4  10  21  39  58  81 114 154 195 233 286 347
#     4  10  22  41  61  81 114 156 194 230 281 351
#     4   9  17  35  60  80 105 146 194 235 272 333
#     4  11  24  38  59  87 117 150 189 243 290 337
#     4  10  19  37  63  84 109 152 196 233 281 344
#     4  10  19  34  59  84 112 156 195 230 284 351
#     4  10  21  37  58  84 113 147 184 232 285 331
#     4  11  21  33  53  87 122 149 185 244 293 331
#
# _framework density 19.203012999999999
#
# number of rings (size 3 to 8) (size 9 to 14) (size 15 to 20)
#    0.000    1.875    2.500    2.625    1.750    2.750 
#    0.000    1.250    0.000    0.000    0.000    0.000 
#    0.000    0.000    0.000    0.000    0.000    0.000 
#
# Total GULP energy -396835.712529 kJ/mol
# GULP energy per Si atom -12401.116017 kJ/mol
# Density = 1.915931 g / cm^3
# Si number density = 19.203013 Si / 1000 Ang^3
#
#
#
# Elastic Constant Matrix: (Units=GPa)
#
#
# Indices 1 2 3 4 5 6 
#
# 1 125.5140 27.2377 56.1308 0.0000 6.8565 0.0000
# 2 27.2377 33.5780 20.8424 0.0000 -3.0760 0.0000
# 3 56.1308 20.8424 117.4098 0.0000 8.9645 0.0000
# 4 0.0000 0.0000 0.0000 24.8382 0.0000 -4.9637
# 5 6.8565 -3.0760 8.9645 0.0000 31.8856 0.0000
# 6 0.0000 0.0000 0.0000 -4.9637 0.0000 21.8901
#
#
#
# Elastic Compliance Matrix: (Units=1/GPa)
#
#
# Indices 1 2 3 4 5 6 
#
# 1 0.011392 -0.006894 -0.004072 0.000000 -0.001970 0.000000
# 2 -0.006894 0.038442 -0.004011 0.000000 0.006319 0.000000
# 3 -0.004072 -0.004011 0.011383 0.000000 -0.002712 0.000000
# 4 0.000000 0.000000 0.000000 0.042172 0.000000 0.009563
# 5 -0.001970 0.006319 -0.002712 0.000000 0.033158 0.000000
# 6 0.000000 0.000000 0.000000 0.009563 0.000000 0.047851
#
#
# Mechanical properties :
#
#
# Convention : Reuss Voigt Hill
#
# Bulk Modulus (GPa) = 31.98617 53.88041 42.93329
# Shear Modulus (GPa) = 22.24482 27.20884 24.72683
#
# Velocity S-wave (km/s) = 3.40722 3.76826 3.59228
# Velocity P-wave (km/s) = 5.67203 6.85947 6.29381
#
# Compressibility (1/GPa) = 0.03126352
#
# Stress axis : x y z
#
# Youngs Moduli (GPa) = 87.78174 26.01331 87.85072
#
# Poissons Ratio (x) = 0.17933 0.35773
# Poissons Ratio (y) = 0.60514 0.35236
# Poissons Ratio (z) = 0.35745 0.10434
#
# Static dielectric constant tensor:
#      x y z
#    x 3.629180 0.000000 0.182510 
#    y 0.000000 3.283400 0.000000 
#    z 0.182510 0.000000 3.721880 
# 
# 
# High freq. dielectric constant tensor:
#      x y z
#    x 1.739490 0.000000 0.007790 
#    y 0.000000 1.730190 0.000000 
#    z 0.007790 0.000000 1.759780 
# 
# From -- ./inp_files/320136.got.cif
#   From: 2010.06.25/outbox.cif.g09.slc.cpg/sg12_161_cif.got.tgz:320136.got - 2010.06.28 00:19:55.
