data_PCOD8092868
_publ_section_title
;
Structure prediction by ZEFSAII (Michael W. Deem and Ramdas Pophale) SiO2 
 PCOD8092868
Probable space group: C 2/M
;
_chemical_formula_sum "Si O2"
_cell_formula_units_Z 56
_cell_length_a 21.715630
_cell_length_b 8.658159
_cell_length_c 20.134916
_cell_angle_alpha 90.000000
_cell_angle_beta 129.646480
_cell_angle_gamma 90.000000
_cell_volume 2914.984306
_symmetry_space_group_name_H-M "C 2/M"
_symmetry_group_IT_number 12
_symmetry_cell_setting 'monoclinic'
loop_
_space_group_symop_operation_xyz
x,y,z
-x,y,-z
-x,-y,-z
x,-y,z
1/2+x,1/2+y,z
1/2-x,1/2+y,-z
1/2-x,1/2-y,-z
1/2+x,1/2-y,z
loop_
_atom_site_type_symbol
_atom_site_label
_atom_site_fract_x
_atom_site_fract_y
_atom_site_fract_z
Si Si1 0.609426 0.319894 0.033784
Si Si2 0.085470 0.673352 0.753116
Si Si3 0.456331 0.178464 0.883435
Si Si4 0.525656 0.817036 0.444134
Si Si5 0.835712 0.822391 0.543505
Si Si6 0.761636 0.180970 0.080841
Si Si7 0.072854 0.671172 0.283313
O O1 0.604683 0.500000 0.014214
O O2 0.587383 0.289231 0.094880
O O3 0.697681 0.257108 0.085089
O O4 0.549180 0.228600 0.943549
O O5 0.119590 0.500000 0.765666
O O6 0.154162 0.786611 0.825662
O O7 0.043326 0.733614 0.655819
O O8 0.021322 0.672502 0.767923
O O9 0.412893 0.206069 0.783872
O O10 0.450651 0.000000 0.901591
O O11 0.500000 0.757312 0.500000
O O12 0.612808 0.751931 0.481753
O O13 0.534616 0.000000 0.449638
O O14 0.750000 0.750000 0.500000
O O15 0.884179 0.802653 0.645049
O O16 0.824175 0.000000 0.517915
O O17 0.748892 0.000000 0.066684
O O18 0.750000 0.250000 0.000000
O O19 0.106626 0.500000 0.325299
#
# Coordination Sequence:
#
# PCOD8092868 Si02
#       7
#     8   8   8   8   8   8   8
#     4  11  22  36  54  78 111 148 188 230 273 330
#     4   9  18  35  58  85 115 147 185 229 279 342
#     4  10  19  35  58  82 110 145 183 228 282 332
#     4   9  19  39  65  89 117 155 193 236 295 356
#     4  11  22  37  59  86 118 152 192 241 288 343
#     4  12  24  38  56  80 111 148 190 236 286 334
#     4   9  19  36  59  83 110 144 183 227 279 337
#
# _framework density 19.211081
#
# number of rings (size 3 to 8) (size 9 to 14) (size 15 to 20)
#    0.000    1.857    0.000    6.857    0.000    4.857 
#    2.571    0.000    0.000    0.000    0.000    0.000 
#    0.000    0.000    0.000    0.000    0.000    0.000 
#
# Total GULP energy -347114.828897 kJ/mol
# GULP energy per Si atom -12396.958175 kJ/mol
# Density = 1.916736 g / cm^3
# Si number density = 19.211081 Si / 1000 Ang^3
#
#
#
# Elastic Constant Matrix: (Units=GPa)
#
#
# Indices 1 2 3 4 5 6 
#
# 1 105.0325 38.1653 56.9378 0.0000 3.8973 0.0000
# 2 38.1653 92.4157 27.6392 0.0000 1.5552 0.0000
# 3 56.9378 27.6392 84.4722 0.0000 -5.9842 0.0000
# 4 0.0000 0.0000 0.0000 31.5316 0.0000 3.6413
# 5 3.8973 1.5552 -5.9842 0.0000 30.4545 0.0000
# 6 0.0000 0.0000 0.0000 3.6413 0.0000 31.4607
#
#
#
# Elastic Compliance Matrix: (Units=1/GPa)
#
#
# Indices 1 2 3 4 5 6 
#
# 1 0.016560 -0.003714 -0.010226 0.000000 -0.003939 0.000000
# 2 -0.003714 0.012887 -0.001750 0.000000 -0.000527 0.000000
# 3 -0.010226 -0.001750 0.019677 0.000000 0.005264 0.000000
# 4 0.000000 0.000000 0.000000 0.032144 0.000000 -0.003720
# 5 -0.003939 -0.000527 0.005264 0.000000 0.034401 0.000000
# 6 0.000000 0.000000 0.000000 -0.003720 0.000000 0.032216
#
#
# Mechanical properties :
#
#
# Convention : Reuss Voigt Hill
#
# Bulk Modulus (GPa) = 56.36179 58.60055 57.48117
# Shear Modulus (GPa) = 27.00074 29.30125 28.15100
#
# Velocity S-wave (km/s) = 3.75304 3.90965 3.83214
# Velocity P-wave (km/s) = 6.94134 7.13794 7.04033
#
# Compressibility (1/GPa) = 0.01774252
#
# Stress axis : x y z
#
# Youngs Moduli (GPa) = 60.38606 77.59814 50.82191
#
# Poissons Ratio (x) = 0.28822 0.51970
# Poissons Ratio (y) = 0.22429 0.08895
# Poissons Ratio (z) = 0.61750 0.13582
#
# Static dielectric constant tensor:
#      x y z
#    x 3.619050 0.000000 -0.032150 
#    y 0.000000 3.520850 0.000000 
#    z -0.032150 0.000000 3.459830 
# 
# 
# High freq. dielectric constant tensor:
#      x y z
#    x 1.748420 0.000000 -0.003850 
#    y 0.000000 1.748110 0.000000 
#    z -0.003850 0.000000 1.740690 
# 
# From -- ./inp_files/320191.got.cif
#   From: 2010.06.25/outbox.cif.g09.slc.cpg/sg12_161_cif.got.tgz:320191.got - 2010.06.28 00:19:55.
