data_PCOD8092593
_publ_section_title
;
Structure prediction by ZEFSAII (Michael W. Deem and Ramdas Pophale) SiO2 
 PCOD8092593
Probable space group: C 2/M
;
_chemical_formula_sum "Si O2"
_cell_formula_units_Z 64
_cell_length_a 15.367440
_cell_length_b 9.094939
_cell_length_c 24.437341
_cell_angle_alpha 90.000000
_cell_angle_beta 90.106845
_cell_angle_gamma 90.000000
_cell_volume 3415.501738
_symmetry_space_group_name_H-M "C 2/M"
_symmetry_group_IT_number 12
_symmetry_cell_setting 'monoclinic'
loop_
_space_group_symop_operation_xyz
x,y,z
-x,y,-z
-x,-y,-z
x,-y,z
1/2+x,1/2+y,z
1/2-x,1/2+y,-z
1/2-x,1/2-y,-z
1/2+x,1/2-y,z
loop_
_atom_site_type_symbol
_atom_site_label
_atom_site_fract_x
_atom_site_fract_y
_atom_site_fract_z
Si Si1 0.947988 0.337875 0.555219
Si Si2 0.713481 0.326090 0.327630
Si Si3 0.716224 0.332863 0.447770
Si Si4 0.871418 0.324539 0.254938
Si Si5 0.782862 0.175390 0.944996
Si Si6 0.125732 0.326002 0.868068
Si Si7 0.968809 0.332358 0.675065
Si Si8 0.035466 0.672070 0.060397
O O1 0.901692 0.500000 0.555596
O O2 0.885494 0.198893 0.555578
O O3 0.000000 0.323472 0.500000
O O4 0.002592 0.324087 0.611756
O O5 0.698453 0.500000 0.324343
O O6 0.752432 0.284694 0.388057
O O7 0.783240 0.268312 0.283731
O O8 0.621384 0.251355 0.315291
O O9 0.737150 0.500000 0.459271
O O10 0.750000 0.250000 0.500000
O O11 0.872442 0.500000 0.256438
O O12 0.872969 0.261977 0.193332
O O13 0.955751 0.262616 0.287068
O O14 0.714078 0.223120 0.898358
O O15 0.877402 0.235481 0.928190
O O16 0.786345 0.000000 0.952689
O O17 0.750000 0.250000 0.000000
O O18 0.121433 0.500000 0.867125
O O19 0.038977 0.268901 0.898527
O O20 0.952083 0.500000 0.692491
O O21 0.056441 0.500000 0.068772
O O22 0.000000 0.702139 0.000000
#
# Coordination Sequence:
#
# PCOD8092593 Si02
#       8
#     8   8   8   8   8   8   8   8
#     4   9  18  31  50  74 102 131 166 212 263 318
#     4   9  19  35  55  76 104 138 176 219 267 319
#     4  10  20  32  49  74 104 134 170 216 266 319
#     4   9  18  34  57  79 101 142 186 215 255 323
#     4  11  21  35  56  83 113 147 183 223 269 317
#     4   9  19  35  54  79 111 143 179 218 266 323
#     4   9  18  33  54  77 102 134 175 218 261 314
#     4  10  19  35  56  80 112 147 178 216 269 321
#
# _framework density 18.738095000000001
#
# number of rings (size 3 to 8) (size 9 to 14) (size 15 to 20)
#    0.000    2.500    1.250    0.750    1.750    2.000 
#    0.000    0.625    0.000    3.000    0.000    0.000 
#    0.000    0.000    0.000    0.000    0.000    0.000 
#
# Total GULP energy -396538.728041 kJ/mol
# GULP energy per Si atom -12391.835251 kJ/mol
# Density = 1.869545 g / cm^3
# Si number density = 18.738095 Si / 1000 Ang^3
#
#
#
# Elastic Constant Matrix: (Units=GPa)
#
#
# Indices 1 2 3 4 5 6 
#
# 1 148.1433 38.7398 93.2927 0.0000 -0.7244 0.0000
# 2 38.7398 35.6003 38.7182 0.0000 0.2406 0.0000
# 3 93.2927 38.7182 177.6493 0.0000 -2.3705 0.0000
# 4 0.0000 0.0000 0.0000 15.9867 0.0000 -1.2141
# 5 -0.7244 0.2406 -2.3705 0.0000 35.1358 0.0000
# 6 0.0000 0.0000 0.0000 -1.2141 0.0000 27.4359
#
#
#
# Elastic Compliance Matrix: (Units=1/GPa)
#
#
# Indices 1 2 3 4 5 6 
#
# 1 0.011537 -0.007818 -0.004355 0.000000 -0.000002 0.000000
# 2 -0.007818 0.042137 -0.005088 0.000000 -0.000793 0.000000
# 3 -0.004355 -0.005088 0.009032 0.000000 0.000554 0.000000
# 4 0.000000 0.000000 0.000000 0.062763 0.000000 0.002777
# 5 -0.000002 -0.000793 0.000554 0.000000 0.028504 0.000000
# 6 0.000000 0.000000 0.000000 0.002777 0.000000 0.036571
#
#
# Mechanical properties :
#
#
# Convention : Reuss Voigt Hill
#
# Bulk Modulus (GPa) = 35.48194 78.09936 56.79065
# Shear Modulus (GPa) = 21.32542 28.42117 24.87330
#
# Velocity S-wave (km/s) = 3.37720 3.89878 3.64733
# Velocity P-wave (km/s) = 5.84672 7.87638 6.93619
#
# Compressibility (1/GPa) = 0.02818335
#
# Stress axis : x y z
#
# Youngs Moduli (GPa) = 86.67665 23.73216 110.71272
#
# Poissons Ratio (x) = 0.18555 0.48213
# Poissons Ratio (y) = 0.67767 0.56335
# Poissons Ratio (z) = 0.37746 0.12076
#
# Static dielectric constant tensor:
#      x y z
#    x 3.404950 0.000000 0.348540 
#    y 0.000000 3.246260 0.000000 
#    z 0.348540 0.000000 4.274700 
# 
# 
# High freq. dielectric constant tensor:
#      x y z
#    x 1.724920 0.000000 0.001240 
#    y 0.000000 1.698580 0.000000 
#    z 0.001240 0.000000 1.739090 
# 
# From -- ./inp_files/338680.got.cif
#   From: 2010.06.25/outbox.cif.g09.slc.cpg/sg12_170_cif.got.tgz:338680.got - 2010.06.28 00:19:55.
