data_PCOD8092527
_publ_section_title
;
Structure prediction by ZEFSAII (Michael W. Deem and Ramdas Pophale) SiO2 
 PCOD8092527
Probable space group: C 2/M
;
_chemical_formula_sum "Si O2"
_cell_formula_units_Z 56
_cell_length_a 14.483236
_cell_length_b 9.057245
_cell_length_c 29.913760
_cell_angle_alpha 90.000000
_cell_angle_beta 53.070356
_cell_angle_gamma 90.000000
_cell_volume 3136.770130
_symmetry_space_group_name_H-M "C 2/M"
_symmetry_group_IT_number 12
_symmetry_cell_setting 'monoclinic'
loop_
_space_group_symop_operation_xyz
x,y,z
-x,y,-z
-x,-y,-z
x,-y,z
1/2+x,1/2+y,z
1/2-x,1/2+y,-z
1/2-x,1/2-y,-z
1/2+x,1/2-y,z
loop_
_atom_site_type_symbol
_atom_site_label
_atom_site_fract_x
_atom_site_fract_y
_atom_site_fract_z
Si Si1 0.660268 0.829233 0.058601
Si Si2 0.193329 0.823869 0.140774
Si Si3 0.281824 0.325923 0.352479
Si Si4 0.447914 0.830961 0.059660
Si Si5 0.823193 0.827231 0.440965
Si Si6 0.915674 0.825957 0.647605
Si Si7 0.960473 0.175387 0.733254
O O1 0.647711 0.747549 0.108874
O O2 0.532763 0.813752 0.076115
O O3 0.696809 0.000000 0.053345
O O4 0.750000 0.750000 0.000000
O O5 0.324154 0.765032 0.109592
O O6 0.117635 0.761948 0.203844
O O7 0.183306 0.000000 0.140436
O O8 0.268622 0.500000 0.350426
O O9 0.273489 0.280588 0.406993
O O10 0.181278 0.249860 0.353923
O O11 0.407322 0.271590 0.298265
O O12 0.424876 0.000000 0.053264
O O13 0.500000 0.751811 0.000000
O O14 0.750000 0.750000 0.500000
O O15 0.957416 0.782159 0.407280
O O16 0.809695 0.000000 0.451219
O O17 0.907555 0.769810 0.701406
O O18 0.896315 0.000000 0.650461
O O19 0.959864 0.000000 0.732473
#
# Coordination Sequence:
#
# PCOD8092527 Si02
#       7
#     8   8   8   8   8   8   8
#     4  11  21  34  52  75 101 129 164 205 249 302
#     4  10  19  35  56  74  97 133 169 204 251 306
#     4   9  18  34  53  75 103 136 170 212 259 301
#     4   9  17  31  50  71  96 127 160 193 239 300
#     4   9  19  34  51  74 108 141 174 212 255 305
#     4   9  18  34  54  76 101 135 176 215 251 298
#     4   8  17  34  54  73  98 133 170 205 252 309
#
# _framework density 17.852758000000001
#
# number of rings (size 3 to 8) (size 9 to 14) (size 15 to 20)
#    0.000    2.714    1.429    2.143    0.000    2.857 
#    0.000   10.000    0.000    0.000    0.000    0.000 
#    0.000    0.000    0.000    0.000    0.000    0.000 
#
# Total GULP energy -347068.746744 kJ/mol
# GULP energy per Si atom -12395.312384 kJ/mol
# Density = 1.781212 g / cm^3
# Si number density = 17.852758 Si / 1000 Ang^3
#
#
#
# Elastic Constant Matrix: (Units=GPa)
#
#
# Indices 1 2 3 4 5 6 
#
# 1 153.0796 39.5015 88.8246 0.0000 -1.9772 0.0000
# 2 39.5015 37.1592 42.9547 0.0000 1.2182 0.0001
# 3 88.8246 42.9547 191.0816 0.0000 0.4259 0.0000
# 4 0.0000 0.0000 0.0000 22.5777 0.0000 4.3230
# 5 -1.9772 1.2182 0.4259 0.0000 21.5202 0.0000
# 6 0.0000 0.0001 0.0000 4.3230 0.0000 33.0038
#
#
#
# Elastic Compliance Matrix: (Units=1/GPa)
#
#
# Indices 1 2 3 4 5 6 
#
# 1 0.010256 -0.007342 -0.003120 0.000000 0.001420 0.000000
# 2 -0.007342 0.041693 -0.005953 0.000000 -0.002917 0.000000
# 3 -0.003120 -0.005953 0.008022 0.000000 -0.000108 0.000000
# 4 0.000000 0.000000 0.000000 0.045431 0.000000 -0.005951
# 5 0.001420 -0.002917 -0.000108 0.000000 0.046766 0.000000
# 6 0.000000 0.000000 0.000000 -0.005951 0.000000 0.031079
#
#
# Mechanical properties :
#
#
# Convention : Reuss Voigt Hill
#
# Bulk Modulus (GPa) = 36.84496 80.43134 58.63815
# Shear Modulus (GPa) = 22.20993 29.42301 25.81647
#
# Velocity S-wave (km/s) = 3.53095 4.06408 3.80686
# Velocity P-wave (km/s) = 6.10791 8.19590 7.22770
#
# Compressibility (1/GPa) = 0.02714075
#
# Stress axis : x y z
#
# Youngs Moduli (GPa) = 97.50403 23.98468 124.65329
#
# Poissons Ratio (x) = 0.17610 0.38894
# Poissons Ratio (y) = 0.71589 0.74206
# Poissons Ratio (z) = 0.30423 0.14278
#
# Static dielectric constant tensor:
#      x y z
#    x 3.601230 0.000000 0.217660 
#    y 0.000000 3.008040 0.000000 
#    z 0.217660 0.000000 4.317030 
# 
# 
# High freq. dielectric constant tensor:
#      x y z
#    x 1.700080 0.000000 -0.001910 
#    y 0.000000 1.658940 0.000000 
#    z -0.001910 0.000000 1.697950 
# 
# From -- ./inp_files/359647.got.cif
#   From: 2010.06.25/outbox.cif.g09.slc.cpg/sg12_180_cif.got.tgz:359647.got - 2010.06.28 00:19:55.
