data_PCOD8092672
_publ_section_title
;
Structure prediction by ZEFSAII (Michael W. Deem and Ramdas Pophale) SiO2 
 PCOD8092672
Probable space group: C 2/M
;
_chemical_formula_sum "Si O2"
_cell_formula_units_Z 48
_cell_length_a 19.200695
_cell_length_b 27.902542
_cell_length_c 8.591796
_cell_angle_alpha 90.000000
_cell_angle_beta 30.897035
_cell_angle_gamma 90.000000
_cell_volume 2363.646133
_symmetry_space_group_name_H-M "C 2/M"
_symmetry_group_IT_number 12
_symmetry_cell_setting 'monoclinic'
loop_
_space_group_symop_operation_xyz
x,y,z
-x,y,-z
-x,-y,-z
x,-y,z
1/2+x,1/2+y,z
1/2-x,1/2+y,-z
1/2-x,1/2-y,-z
1/2+x,1/2-y,z
loop_
_atom_site_type_symbol
_atom_site_label
_atom_site_fract_x
_atom_site_fract_y
_atom_site_fract_z
Si Si1 0.287867 0.853704 0.637697
Si Si2 0.035575 0.293558 0.110443
Si Si3 0.457864 0.694726 0.758051
Si Si4 0.873749 0.948541 0.347793
Si Si5 0.890837 0.447968 0.337871
Si Si6 0.706806 0.649260 0.436791
O O1 0.400150 0.812992 0.452687
O O2 0.363149 0.905529 0.516711
O O3 0.222369 0.850530 0.592558
O O4 0.163979 0.844094 0.993358
O O5 0.092162 0.246749 0.089229
O O6 0.151786 0.333834 0.907949
O O7 0.000000 0.282217 0.000000
O O8 0.500000 0.695374 0.500000
O O9 0.586608 0.684166 0.619207
O O10 0.749814 0.957882 0.473233
O O11 0.834509 0.904941 0.540036
O O12 0.904210 0.000000 0.375336
O O13 0.000000 0.932372 0.000000
O O14 0.937966 0.500000 0.320177
O O15 0.000000 0.429703 0.000000
#
# Coordination Sequence:
#
# PCOD8092672 Si02
#       6
#     8   8   8   8   8   8
#     4  10  19  35  57  80 107 137 173 215 261 313
#     4  10  21  36  56  80 103 134 176 220 266 315
#     4  12  25  37  51  74 105 143 183 220 261 309
#     4   9  16  27  48  78 107 134 164 201 250 306
#     4   9  16  28  51  84 113 132 160 209 263 311
#     4  10  19  35  57  79 105 136 172 216 265 313
#
# _framework density 20.307607999999998
#
# number of rings (size 3 to 8) (size 9 to 14) (size 15 to 20)
#    0.000    2.000    0.000    7.000    0.000    5.333 
#    0.000    0.000    0.000    2.000    0.000    0.000 
#    0.000   16.000    0.000    0.000    0.000    0.000 
#
# Total GULP energy -297346.438058 kJ/mol
# GULP energy per Si atom -12389.434919 kJ/mol
# Density = 2.026139 g / cm^3
# Si number density = 20.307608 Si / 1000 Ang^3
#
#
#
# Elastic Constant Matrix: (Units=GPa)
#
#
# Indices 1 2 3 4 5 6 
#
# 1 16.3491 30.6901 31.9237 0.0000 -4.3977 0.0001
# 2 30.6901 155.1245 61.1701 -0.0001 5.8044 0.0000
# 3 31.9237 61.1701 137.5689 -0.0001 -12.5642 0.0001
# 4 0.0000 -0.0001 -0.0001 34.0893 0.0001 -12.1294
# 5 -4.3977 5.8044 -12.5642 0.0001 22.3512 -0.0001
# 6 0.0001 0.0000 0.0001 -12.1294 -0.0001 5.1710
#
#
#
# Elastic Compliance Matrix: (Units=1/GPa)
#
#
# Indices 1 2 3 4 5 6 
#
# 1 0.156673 -0.022241 -0.024376 -0.000004 0.022899 -0.000011
# 2 -0.022241 0.011367 -0.000593 0.000001 -0.007661 0.000002
# 3 -0.024376 -0.000593 0.013456 0.000000 0.002922 0.000001
# 4 -0.000004 0.000001 0.000000 0.177373 0.000000 0.416056
# 5 0.022899 -0.007661 0.002922 0.000000 0.052878 0.000000
# 6 -0.000011 0.000002 0.000001 0.416056 0.000000 1.169309
#
#
# Mechanical properties :
#
#
# Convention : Reuss Voigt Hill
#
# Bulk Modulus (GPa) = 11.48420 61.84560 36.66490
# Shear Modulus (GPa) = 2.93341 24.67287 13.80314
#
# Velocity S-wave (km/s) = 1.20317 3.48940 2.60994
# Velocity P-wave (km/s) = 2.75637 6.83777 5.21309
#
# Compressibility (1/GPa) = 0.08707618
#
# Stress axis : x y z
#
# Youngs Moduli (GPa) = 6.38273 87.97293 74.31527
#
# Poissons Ratio (x) = 1.95662 1.81150
# Poissons Ratio (y) = 0.14196 0.04406
# Poissons Ratio (z) = 0.15558 0.05216
#
# Static dielectric constant tensor:
#      x y z
#    x 3.114500 0.000000 -0.334080 
#    y 0.000000 4.511500 0.000000 
#    z -0.334080 0.000000 3.629680 
# 
# 
# High freq. dielectric constant tensor:
#      x y z
#    x 1.722640 0.000000 -0.047040 
#    y 0.000000 1.819960 0.000000 
#    z -0.047040 0.000000 1.798030 
# 
# From -- ./inp_files/91374.got.cif
#   From: 2010.06.25/outbox.cif.g09.slc.cpg/sg12_46_cif.got.tgz:91374.got - 2010.06.28 00:19:55.
