data_PCOD8092291
_publ_section_title
;
Structure prediction by ZEFSAII (Michael W. Deem and Ramdas Pophale) SiO2 
 PCOD8092291
Probable space group: C 2/M
;
_chemical_formula_sum "Si O2"
_cell_formula_units_Z 64
_cell_length_a 10.594957
_cell_length_b 14.306834
_cell_length_c 22.673328
_cell_angle_alpha 90.000000
_cell_angle_beta 69.603992
_cell_angle_gamma 90.000000
_cell_volume 3221.361998
_symmetry_space_group_name_H-M "C 2/M"
_symmetry_group_IT_number 12
_symmetry_cell_setting 'monoclinic'
loop_
_space_group_symop_operation_xyz
x,y,z
-x,y,-z
-x,-y,-z
x,-y,z
1/2+x,1/2+y,z
1/2-x,1/2+y,-z
1/2-x,1/2-y,-z
1/2+x,1/2-y,z
loop_
_atom_site_type_symbol
_atom_site_label
_atom_site_fract_x
_atom_site_fract_y
_atom_site_fract_z
Si Si1 0.380634 0.285928 0.904696
Si Si2 0.341859 0.213745 0.288355
Si Si3 0.775019 0.394234 0.474674
Si Si4 0.619366 0.714072 0.595304
Si Si5 0.635589 0.601280 0.378909
Si Si6 0.224980 0.394234 0.025326
Si Si7 0.841859 0.713745 0.788354
Si Si8 0.364411 0.601280 0.121091
O O1 0.383325 0.183507 0.935859
O O2 0.326345 0.283735 0.846616
O O3 0.534328 0.317721 0.876994
O O4 0.288857 0.361353 0.953364
O O5 0.326344 0.283735 0.346616
O O6 0.276479 0.116238 0.321008
O O7 0.250000 0.250000 0.250000
O O8 0.500000 0.198538 0.250000
O O9 0.836369 0.500000 0.471255
O O10 0.711143 0.361353 0.546636
O O11 0.883325 0.316493 0.435859
O O12 0.656361 0.395443 0.445808
O O13 0.465673 0.682279 0.623006
O O14 0.578185 0.500000 0.370102
O O15 0.163630 0.500000 0.028745
O O16 0.343639 0.395443 0.054192
O O17 0.776479 0.616238 0.821008
O O18 0.421814 0.500000 0.129899
#
# Coordination Sequence:
#
# PCOD8092291 Si02
#       8
#     8   8   8   8   8   8   8   8
#     4  10  19  34  61  89 121 160 200 248 305 353
#     4  11  22  40  61  86 121 165 208 251 299 354
#     4   9  19  35  59  92 123 156 200 248 308 370
#     4  10  19  34  61  89 121 160 200 248 305 353
#     4  10  20  36  63  92 120 159 204 248 304 369
#     4   9  19  35  59  92 123 156 200 248 308 370
#     4  11  22  40  61  86 121 165 208 251 299 354
#     4  10  20  36  63  92 120 159 204 248 304 369
#
# _framework density 19.867372
#
# number of rings (size 3 to 8) (size 9 to 14) (size 15 to 20)
#    0.000    2.000    2.500    1.500    0.000    2.500 
#    0.000    3.750    0.000   33.000    0.000    0.000 
#    0.000    0.000    0.000    0.000    0.000    0.000 
#
# Total GULP energy -396473.698105 kJ/mol
# GULP energy per Si atom -12389.803066 kJ/mol
# Density = 1.982215 g / cm^3
# Si number density = 19.867372 Si / 1000 Ang^3
#
#
#
# Elastic Constant Matrix: (Units=GPa)
#
#
# Indices 1 2 3 4 5 6 
#
# 1 107.1376 57.3087 53.9039 0.0000 -10.0053 0.0000
# 2 57.3087 155.0547 50.1088 0.0000 -6.2352 0.0000
# 3 53.9039 50.1088 132.8899 0.0000 3.2702 0.0000
# 4 0.0000 0.0000 0.0000 14.4834 0.0000 -3.3116
# 5 -10.0053 -6.2352 3.2702 0.0000 30.9820 0.0000
# 6 0.0000 0.0000 0.0000 -3.3116 0.0000 29.2506
#
#
#
# Elastic Compliance Matrix: (Units=1/GPa)
#
#
# Indices 1 2 3 4 5 6 
#
# 1 0.013814 -0.003521 -0.004380 0.000000 0.004215 0.000000
# 2 -0.003521 0.008340 -0.001735 0.000000 0.000725 0.000000
# 3 -0.004380 -0.001735 0.010025 0.000000 -0.002822 0.000000
# 4 0.000000 0.000000 0.000000 0.070879 0.000000 0.008025
# 5 0.004215 0.000725 -0.002822 0.000000 0.034082 0.000000
# 6 0.000000 0.000000 0.000000 0.008025 0.000000 0.035096
#
#
# Mechanical properties :
#
#
# Convention : Reuss Voigt Hill
#
# Bulk Modulus (GPa) = 77.46206 79.74721 78.60463
# Shear Modulus (GPa) = 25.53502 30.52726 28.03114
#
# Velocity S-wave (km/s) = 3.58896 3.92414 3.76029
# Velocity P-wave (km/s) = 7.49989 7.79479 7.64876
#
# Compressibility (1/GPa) = 0.01290955
#
# Stress axis : x y z
#
# Youngs Moduli (GPa) = 72.38904 119.89864 99.75111
#
# Poissons Ratio (x) = 0.42216 0.43686
# Poissons Ratio (y) = 0.25488 0.17302
# Poissons Ratio (z) = 0.31703 0.20797
#
# Static dielectric constant tensor:
#      x y z
#    x 3.453770 0.000000 -0.020850 
#    y 0.000000 3.725120 0.000000 
#    z -0.020850 0.000000 3.840180 
# 
# 
# High freq. dielectric constant tensor:
#      x y z
#    x 1.753280 0.000000 -0.002340 
#    y 0.000000 1.767530 0.000000 
#    z -0.002340 0.000000 1.787770 
# 
# From -- ./inp_files/305437.got.cif
#   From: 2010.06.25/outbox.cif.g09.slc.cpg/sg12_153_cif.got.tgz:305437.got - 2010.06.28 00:19:55.
