data_PCOD8092747
_publ_section_title
;
Structure prediction by ZEFSAII (Michael W. Deem and Ramdas Pophale) SiO2 
 PCOD8092747
Probable space group: C 2/M
;
_chemical_formula_sum "Si O2"
_cell_formula_units_Z 64
_cell_length_a 30.352777
_cell_length_b 8.730473
_cell_length_c 15.776261
_cell_angle_alpha 90.000000
_cell_angle_beta 131.107038
_cell_angle_gamma 90.000000
_cell_volume 3150.021633
_symmetry_space_group_name_H-M "C 2/M"
_symmetry_group_IT_number 12
_symmetry_cell_setting 'monoclinic'
loop_
_space_group_symop_operation_xyz
x,y,z
-x,y,-z
-x,-y,-z
x,-y,z
1/2+x,1/2+y,z
1/2-x,1/2+y,-z
1/2-x,1/2-y,-z
1/2+x,1/2-y,z
loop_
_atom_site_type_symbol
_atom_site_label
_atom_site_fract_x
_atom_site_fract_y
_atom_site_fract_z
Si Si1 0.240187 0.320887 0.579708
Si Si2 0.706032 0.675912 0.011060
Si Si3 0.495736 0.320294 0.756968
Si Si4 0.120415 0.177468 0.471377
Si Si5 0.406619 0.323280 0.238967
Si Si6 0.046948 0.816988 0.992562
Si Si7 0.432968 0.176277 0.435533
Si Si8 0.820641 0.817219 0.835566
O O1 0.250279 0.500000 0.583383
O O2 0.250000 0.250000 0.500000
O O3 0.174978 0.286812 0.527147
O O4 0.283593 0.255669 0.707870
O O5 0.723753 0.500000 0.037497
O O6 0.706648 0.743105 0.108745
O O7 0.750000 0.750000 0.000000
O O8 0.640982 0.700431 0.894178
O O9 0.506243 0.500000 0.776763
O O10 0.426966 0.283247 0.661683
O O11 0.531591 0.263209 0.720456
O O12 0.523126 0.245095 0.875031
O O13 0.089722 0.211467 0.521071
O O14 0.139574 0.000000 0.491663
O O15 0.409086 0.500000 0.271404
O O16 0.393756 0.216690 0.303603
O O17 0.047507 0.000000 0.993112
O O18 0.112866 0.757057 0.092701
O O19 0.000000 0.753884 0.000000
O O20 0.500000 0.214649 0.500000
O O21 0.423429 0.000000 0.449321
O O22 0.819871 0.000000 0.837480
#
# Coordination Sequence:
#
# PCOD8092747 Si02
#       8
#     8   8   8   8   8   8   8   8
#     4  11  25  44  64  88 121 163 208 253 299 355
#     4  10  21  37  58  85 117 155 196 245 302 357
#     4   9  17  31  54  86 117 145 185 242 302 353
#     4  11  23  39  62  89 120 158 202 248 300 359
#     4  10  19  35  57  82 116 154 196 246 301 356
#     4   9  16  28  54  88 115 139 177 235 298 356
#     4  11  23  37  55  84 122 160 198 241 296 357
#     4   9  19  37  58  85 121 152 188 244 303 352
#
# _framework density 20.317321
#
# number of rings (size 3 to 8) (size 9 to 14) (size 15 to 20)
#    0.000    2.000    2.500    1.125    3.500    1.000 
#    0.000    0.625    0.000    0.000    0.000    0.875 
#    0.000    0.000    0.000    0.000    0.000    0.000 
#
# Total GULP energy -396645.451518 kJ/mol
# GULP energy per Si atom -12395.170360 kJ/mol
# Density = 2.027108 g / cm^3
# Si number density = 20.317321 Si / 1000 Ang^3
#
#
#
# Elastic Constant Matrix: (Units=GPa)
#
#
# Indices 1 2 3 4 5 6 
#
# 1 132.5312 18.5499 65.6120 0.0000 -1.9279 0.0000
# 2 18.5499 29.2962 27.1260 0.0000 0.2215 0.0000
# 3 65.6120 27.1260 147.6668 0.0000 -11.9081 0.0000
# 4 0.0000 0.0000 0.0000 21.8302 0.0000 1.4450
# 5 -1.9279 0.2215 -11.9081 0.0000 32.1486 0.0000
# 6 0.0000 0.0000 0.0000 1.4450 0.0000 27.9525
#
#
#
# Elastic Compliance Matrix: (Units=1/GPa)
#
#
# Indices 1 2 3 4 5 6 
#
# 1 0.009862 -0.002549 -0.003983 0.000000 -0.000867 0.000000
# 2 -0.002549 0.042106 -0.006842 0.000000 -0.002977 0.000000
# 3 -0.003983 -0.006842 0.010085 0.000000 0.003544 0.000000
# 4 0.000000 0.000000 0.000000 0.045965 0.000000 -0.002376
# 5 -0.000867 -0.002977 0.003544 0.000000 0.032387 0.000000
# 6 0.000000 0.000000 0.000000 -0.002376 0.000000 0.035898
#
#
# Mechanical properties :
#
#
# Convention : Reuss Voigt Hill
#
# Bulk Modulus (GPa) = 28.32654 59.11888 43.72271
# Shear Modulus (GPa) = 23.27536 29.60002 26.43769
#
# Velocity S-wave (km/s) = 3.38833 3.82106 3.61118
# Velocity P-wave (km/s) = 5.41110 6.97340 6.24133
#
# Compressibility (1/GPa) = 0.03530258
#
# Stress axis : x y z
#
# Youngs Moduli (GPa) = 101.40303 23.74951 99.16184
#
# Poissons Ratio (x) = 0.06055 0.39499
# Poissons Ratio (y) = 0.25852 0.67847
# Poissons Ratio (z) = 0.40392 0.16250
#
# Static dielectric constant tensor:
#      x y z
#    x 3.863740 0.000000 0.001410 
#    y 0.000000 3.227280 0.000000 
#    z 0.001410 0.000000 4.050070 
# 
# 
# High freq. dielectric constant tensor:
#      x y z
#    x 1.799770 0.000000 -0.003250 
#    y 0.000000 1.744890 0.000000 
#    z -0.003250 0.000000 1.810130 
# 
# From -- ./inp_files/249991.got.cif
#   From: 2010.06.25/outbox.cif.g09.slc.cpg/sg12_125_cif.got.tgz:249991.got - 2010.06.28 00:19:55.
