data_PCOD8092385
_publ_section_title
;
Structure prediction by ZEFSAII (Michael W. Deem and Ramdas Pophale) SiO2 
 PCOD8092385
Probable space group: C 2/M
;
_chemical_formula_sum "Si O2"
_cell_formula_units_Z 56
_cell_length_a 20.370776
_cell_length_b 9.315545
_cell_length_c 24.042112
_cell_angle_alpha 90.000000
_cell_angle_beta 131.885139
_cell_angle_gamma 90.000000
_cell_volume 3396.598841
_symmetry_space_group_name_H-M "C 2/M"
_symmetry_group_IT_number 12
_symmetry_cell_setting 'monoclinic'
loop_
_space_group_symop_operation_xyz
x,y,z
-x,y,-z
-x,-y,-z
x,-y,z
1/2+x,1/2+y,z
1/2-x,1/2+y,-z
1/2-x,1/2-y,-z
1/2+x,1/2-y,z
loop_
_atom_site_type_symbol
_atom_site_label
_atom_site_fract_x
_atom_site_fract_y
_atom_site_fract_z
Si Si1 0.696093 0.833590 0.069059
Si Si2 0.406195 0.163435 0.284156
Si Si3 0.600631 0.334403 0.820101
Si Si4 0.213648 0.833808 0.712887
Si Si5 0.927671 0.663340 0.417054
Si Si6 0.059152 0.167688 0.921187
Si Si7 0.108270 0.662878 0.137603
O O1 0.797536 0.785841 0.122231
O O2 0.654805 0.802677 0.105801
O O3 0.686974 0.000000 0.048024
O O4 0.645267 0.741267 0.994607
O O5 0.450722 0.238957 0.255711
O O6 0.318187 0.256212 0.248103
O O7 0.465536 0.168855 0.374616
O O8 0.381332 0.000000 0.255469
O O9 0.590850 0.500000 0.798123
O O10 0.555771 0.301543 0.853558
O O11 0.163662 0.756284 0.632398
O O12 0.319618 0.817269 0.771860
O O13 0.185880 0.000000 0.698940
O O14 0.905062 0.500000 0.421701
O O15 0.000000 0.728974 0.500000
O O16 0.971287 0.228895 0.899337
O O17 0.064279 0.000000 0.937042
O O18 0.071785 0.500000 0.117522
#
# Coordination Sequence:
#
# PCOD8092385 Si02
#       7
#     8   8   8   8   8   8   8
#     4  10  19  35  54  67  88 125 164 201 249 297
#     4   9  17  28  47  72  95 125 157 188 234 281
#     4  10  20  36  51  67  95 128 161 200 244 288
#     4   9  16  29  48  70  95 126 161 191 229 280
#     4   8  15  27  43  72 108 129 150 190 237 280
#     4  11  24  34  46  71  98 123 159 208 249 283
#     4  10  20  35  52  68  93 130 163 198 244 290
#
# _framework density 16.487081
#
# number of rings (size 3 to 8) (size 9 to 14) (size 15 to 20)
#    0.857    1.571    1.429    1.714    0.000    5.429 
#    0.000    0.000    0.000    0.000    0.000    1.000 
#    0.000    0.000    0.000    0.000    0.000    0.000 
#
# Total GULP energy -346905.017476 kJ/mol
# GULP energy per Si atom -12389.464910 kJ/mol
# Density = 1.644956 g / cm^3
# Si number density = 16.487081 Si / 1000 Ang^3
#
#
#
# Elastic Constant Matrix: (Units=GPa)
#
#
# Indices 1 2 3 4 5 6 
#
# 1 37.0367 17.7190 0.1827 0.0000 -7.9912 0.0000
# 2 17.7190 76.3997 34.2191 0.0000 -7.3099 0.0000
# 3 0.1827 34.2191 72.6920 0.0000 -7.8468 0.0000
# 4 0.0000 0.0000 0.0000 28.5146 0.0000 -4.8451
# 5 -7.9912 -7.3099 -7.8468 0.0000 12.7566 0.0000
# 6 0.0000 0.0000 0.0000 -4.8451 0.0000 13.5063
#
#
#
# Elastic Compliance Matrix: (Units=1/GPa)
#
#
# Indices 1 2 3 4 5 6 
#
# 1 0.035983 -0.009248 0.006559 0.000000 0.021277 0.000000
# 2 -0.009248 0.019270 -0.009085 0.000000 -0.000339 0.000000
# 3 0.006559 -0.009085 0.019171 0.000000 0.010696 0.000000
# 4 0.000000 0.000000 0.000000 0.037346 0.000000 0.013397
# 5 0.021277 -0.000339 0.010696 0.000000 0.098105 0.000000
# 6 0.000000 0.000000 0.000000 0.013397 0.000000 0.078845
#
#
# Mechanical properties :
#
#
# Convention : Reuss Voigt Hill
#
# Bulk Modulus (GPa) = 19.65447 32.26334 25.95890
# Shear Modulus (GPa) = 15.18716 19.88934 17.53825
#
# Velocity S-wave (km/s) = 3.03835 3.47704 3.26507
# Velocity P-wave (km/s) = 4.92501 5.97755 5.47662
#
# Compressibility (1/GPa) = 0.05087902
#
# Stress axis : x y z
#
# Youngs Moduli (GPa) = 27.79107 51.89315 52.16136
#
# Poissons Ratio (x) = 0.47988 -0.34215
# Poissons Ratio (y) = 0.25700 0.47387
# Poissons Ratio (z) = -0.18229 0.47143
#
# Static dielectric constant tensor:
#      x y z
#    x 2.801270 0.000000 -0.095130 
#    y 0.000000 3.136930 0.000000 
#    z -0.095130 0.000000 3.111420 
# 
# 
# High freq. dielectric constant tensor:
#      x y z
#    x 1.595450 0.000000 -0.009630 
#    y 0.000000 1.645070 0.000000 
#    z -0.009630 0.000000 1.626260 
# 
# From -- ./inp_files/345637.got.cif
#   From: 2010.06.25/outbox.cif.g09.slc.cpg/sg12_173_cif.got.tgz:345637.got - 2010.06.28 00:19:55.
