data_PCOD8092641
_publ_section_title
;
Structure prediction by ZEFSAII (Michael W. Deem and Ramdas Pophale) SiO2 
 PCOD8092641
Probable space group: C 2/M
;
_chemical_formula_sum "Si O2"
_cell_formula_units_Z 64
_cell_length_a 15.253184
_cell_length_b 9.092128
_cell_length_c 28.150307
_cell_angle_alpha 90.000000
_cell_angle_beta 57.975843
_cell_angle_gamma 90.000000
_cell_volume 3309.902476
_symmetry_space_group_name_H-M "C 2/M"
_symmetry_group_IT_number 12
_symmetry_cell_setting 'monoclinic'
loop_
_space_group_symop_operation_xyz
x,y,z
-x,y,-z
-x,-y,-z
x,-y,z
1/2+x,1/2+y,z
1/2-x,1/2+y,-z
1/2-x,1/2-y,-z
1/2+x,1/2-y,z
loop_
_atom_site_type_symbol
_atom_site_label
_atom_site_fract_x
_atom_site_fract_y
_atom_site_fract_z
Si Si1 0.685260 0.832672 0.730773
Si Si2 0.462739 0.673153 0.380740
Si Si3 0.598498 0.325696 0.498118
Si Si4 0.548253 0.174320 0.206385
Si Si5 0.364224 0.173807 0.719651
Si Si6 0.210281 0.667920 0.616752
Si Si7 0.598297 0.672977 0.005055
Si Si8 0.165779 0.327073 0.079829
O O1 0.569124 0.770695 0.763565
O O2 0.746268 0.726023 0.748734
O O3 0.739636 0.825303 0.663487
O O4 0.687989 0.000000 0.748983
O O5 0.480611 0.500000 0.374140
O O6 0.408134 0.723825 0.445413
O O7 0.572416 0.751350 0.341629
O O8 0.388927 0.728720 0.360178
O O9 0.500000 0.257282 0.500000
O O10 0.598243 0.500000 0.492830
O O11 0.699931 0.265083 0.442490
O O12 0.596714 0.235435 0.241096
O O13 0.614373 0.232367 0.142912
O O14 0.551328 0.000000 0.207626
O O15 0.373467 0.000000 0.712641
O O16 0.182488 0.500000 0.610336
O O17 0.585502 0.500000 0.017126
O O18 0.602013 0.750873 0.055340
O O19 0.500000 0.726775 0.000000
O O20 0.711610 0.710729 0.950447
O O21 0.150378 0.500000 0.077104
#
# Coordination Sequence:
#
# PCOD8092641 Si02
#       8
#     8   8   8   8   8   8   8   8
#     4  10  20  37  58  79 105 142 183 227 278 333
#     4  11  21  34  54  79 106 137 179 227 274 333
#     4   9  18  32  51  75 101 134 177 221 274 336
#     4   9  19  37  57  78 109 147 185 224 275 329
#     4  11  22  38  58  81 108 144 185 227 278 335
#     4  10  19  35  57  76 103 142 179 222 279 337
#     4   9  18  33  54  82 116 150 183 224 274 320
#     4   9  18  34  56  80 109 148 189 227 267 320
#
# _framework density 19.335917999999999
#
# number of rings (size 3 to 8) (size 9 to 14) (size 15 to 20)
#    0.000    2.250    1.250    1.875    0.000    3.750 
#    0.000    3.750    0.000    2.625    0.000    0.000 
#    0.000    0.000    0.000    0.000    0.000    0.000 
#
# Total GULP energy -396667.733402 kJ/mol
# GULP energy per Si atom -12395.866669 kJ/mol
# Density = 1.929191 g / cm^3
# Si number density = 19.335918 Si / 1000 Ang^3
#
#
#
# Elastic Constant Matrix: (Units=GPa)
#
#
# Indices 1 2 3 4 5 6 
#
# 1 150.1487 40.1120 54.6787 0.0000 -4.6446 0.0000
# 2 40.1120 49.3565 32.7392 0.0000 0.9989 0.0000
# 3 54.6787 32.7392 129.0925 0.0000 -6.7484 0.0000
# 4 0.0000 0.0000 0.0000 21.9167 0.0000 -0.6752
# 5 -4.6446 0.9989 -6.7484 0.0000 17.0787 0.0000
# 6 0.0000 0.0000 0.0000 -0.6752 0.0000 31.5221
#
#
#
# Elastic Compliance Matrix: (Units=1/GPa)
#
#
# Indices 1 2 3 4 5 6 
#
# 1 0.009136 -0.005968 -0.002254 0.000000 0.001943 0.000000
# 2 -0.005968 0.028521 -0.004980 0.000000 -0.005259 0.000000
# 3 -0.002254 -0.004980 0.010157 0.000000 0.003692 0.000000
# 4 0.000000 0.000000 0.000000 0.045657 0.000000 0.000978
# 5 0.001943 -0.005259 0.003692 0.000000 0.060847 0.000000
# 6 0.000000 0.000000 0.000000 0.000978 0.000000 0.031745
#
#
# Mechanical properties :
#
#
# Convention : Reuss Voigt Hill
#
# Bulk Modulus (GPa) = 46.71116 64.85083 55.78100
# Shear Modulus (GPa) = 22.76815 27.50803 25.13809
#
# Velocity S-wave (km/s) = 3.43520 3.77588 3.60956
# Velocity P-wave (km/s) = 6.32015 7.25407 6.80316
#
# Compressibility (1/GPa) = 0.02140816
#
# Stress axis : x y z
#
# Youngs Moduli (GPa) = 109.46258 35.06165 98.45227
#
# Poissons Ratio (x) = 0.20926 0.22194
# Poissons Ratio (y) = 0.65332 0.49031
# Poissons Ratio (z) = 0.24676 0.17461
#
# Static dielectric constant tensor:
#      x y z
#    x 3.650790 0.000000 -0.084480 
#    y 0.000000 3.181860 0.000000 
#    z -0.084480 0.000000 3.671760 
# 
# 
# High freq. dielectric constant tensor:
#      x y z
#    x 1.760710 0.000000 -0.005200 
#    y 0.000000 1.720830 0.000000 
#    z -0.005200 0.000000 1.752560 
# 
# From -- ./inp_files/375016.got.cif
#   From: 2010.06.25/outbox.cif.g09.slc.cpg/sg12_188_cif.got.tgz:375016.got - 2010.06.28 00:19:55.
