data_PCOD8092982
_publ_section_title
;
Structure prediction by ZEFSAII (Michael W. Deem and Ramdas Pophale) SiO2 
 PCOD8092982
Probable space group: C 2/M
;
_chemical_formula_sum "Si O2"
_cell_formula_units_Z 64
_cell_length_a 18.657568
_cell_length_b 27.496929
_cell_length_c 8.852843
_cell_angle_alpha 90.000000
_cell_angle_beta 139.285546
_cell_angle_gamma 90.000000
_cell_volume 2962.528022
_symmetry_space_group_name_H-M "C 2/M"
_symmetry_group_IT_number 12
_symmetry_cell_setting 'monoclinic'
loop_
_space_group_symop_operation_xyz
x,y,z
-x,y,-z
-x,-y,-z
x,-y,z
1/2+x,1/2+y,z
1/2-x,1/2+y,-z
1/2-x,1/2-y,-z
1/2+x,1/2-y,z
loop_
_atom_site_type_symbol
_atom_site_label
_atom_site_fract_x
_atom_site_fract_y
_atom_site_fract_z
Si Si1 0.757531 0.603278 0.964504
Si Si2 0.144061 0.392877 0.322592
Si Si3 0.861219 0.889104 0.540231
Si Si4 0.445640 0.445401 0.248806
Si Si5 0.661613 0.784659 0.440662
Si Si6 0.991269 0.799062 0.811734
Si Si7 0.731074 0.297600 0.067561
Si Si8 0.951349 0.441827 0.130248
O O1 0.701166 0.599010 0.712713
O O2 0.674200 0.579121 0.951204
O O3 0.779568 0.658492 0.046332
O O4 0.873328 0.573595 0.145783
O O5 0.276058 0.402455 0.540123
O O6 0.133620 0.334234 0.307093
O O7 0.076032 0.419863 0.348996
O O8 0.096775 0.414947 0.092807
O O9 0.972117 0.920137 0.738893
O O10 0.895346 0.832593 0.589107
O O11 0.500000 0.441037 0.500000
O O12 0.430427 0.500000 0.171680
O O13 0.750000 0.750000 0.500000
O O14 0.545900 0.756646 0.264661
O O15 0.702287 0.796558 0.671998
O O16 0.102857 0.806123 0.897196
O O17 0.000000 0.814284 0.000000
O O18 0.750000 0.250000 0.000000
O O19 0.954338 0.500000 0.116286
#
# Coordination Sequence:
#
# PCOD8092982 Si02
#       8
#     8   8   8   8   8   8   8   8
#     4  10  21  37  60  89 132 163 214 266 332 389
#     4  10  21  36  62  88 128 165 221 272 325 388
#     4  10  19  35  58  91 121 165 205 269 317 391
#     4   9  17  30  54  85 114 149 199 258 319 373
#     4  12  25  42  64  97 132 175 222 267 333 406
#     4  12  24  41  66  88 131 175 217 261 333 399
#     4  12  27  41  65  97 132 177 220 274 335 402
#     4  10  22  39  66  96 128 174 229 284 336 393
#
# _framework density 21.603171
#
# number of rings (size 3 to 8) (size 9 to 14) (size 15 to 20)
#    0.000    1.375    3.750    1.875    5.250    5.000 
#    0.000    0.000    0.000    4.125    0.000    0.000 
#    0.000    0.000    0.000    0.000    0.000    0.000 
#
# Total GULP energy -396623.942125 kJ/mol
# GULP energy per Si atom -12394.498191 kJ/mol
# Density = 2.155400 g / cm^3
# Si number density = 21.603171 Si / 1000 Ang^3
#
#
#
# Elastic Constant Matrix: (Units=GPa)
#
#
# Indices 1 2 3 4 5 6 
#
# 1 143.8051 70.5471 40.1870 0.0000 51.8602 0.0000
# 2 70.5471 184.9302 26.1303 0.0000 25.9894 0.0000
# 3 40.1870 26.1303 35.9638 0.0000 20.7492 0.0000
# 4 0.0000 0.0000 0.0000 28.0289 0.0000 4.0465
# 5 51.8602 25.9894 20.7492 0.0000 32.9767 0.0000
# 6 0.0000 0.0000 0.0000 4.0465 0.0000 39.6320
#
#
#
# Elastic Compliance Matrix: (Units=1/GPa)
#
#
# Indices 1 2 3 4 5 6 
#
# 1 0.018054 -0.002979 -0.004683 0.000000 -0.023097 0.000000
# 2 -0.002979 0.006731 -0.001890 0.000000 0.000570 0.000000
# 3 -0.004683 -0.001890 0.046004 0.000000 -0.020091 0.000000
# 4 0.000000 0.000000 0.000000 0.036211 0.000000 -0.003697
# 5 -0.023097 0.000570 -0.020091 0.000000 0.078839 0.000000
# 6 0.000000 0.000000 0.000000 -0.003697 0.000000 0.025610
#
#
# Mechanical properties :
#
#
# Convention : Reuss Voigt Hill
#
# Bulk Modulus (GPa) = 19.34879 70.93644 45.14262
# Shear Modulus (GPa) = 20.17904 35.31651 27.74778
#
# Velocity S-wave (km/s) = 3.05958 4.04763 3.58778
# Velocity P-wave (km/s) = 4.63220 7.39945 6.17289
#
# Compressibility (1/GPa) = 0.05168281
#
# Stress axis : x y z
#
# Youngs Moduli (GPa) = 55.39064 148.56640 21.73733
#
# Poissons Ratio (x) = 0.44264 0.10180
# Poissons Ratio (y) = 0.16503 0.04109
# Poissons Ratio (z) = 0.25941 0.28081
#
# Static dielectric constant tensor:
#      x y z
#    x 4.740010 0.000000 0.672370 
#    y 0.000000 4.026750 0.000000 
#    z 0.672370 0.000000 3.722430 
# 
# 
# High freq. dielectric constant tensor:
#      x y z
#    x 1.860020 0.000000 0.032780 
#    y 0.000000 1.855910 0.000000 
#    z 0.032780 0.000000 1.814970 
# 
# From -- ./inp_files/80763.got.cif
#   From: 2010.06.25/outbox.cif.g09.slc.cpg/sg12_41_cif.got.tgz:80763.got - 2010.06.28 00:19:55.
