data_PCOD8092960
_publ_section_title
;
Structure prediction by ZEFSAII (Michael W. Deem and Ramdas Pophale) SiO2 
 PCOD8092960
Probable space group: C 2/M
;
_chemical_formula_sum "Si O2"
_cell_formula_units_Z 64
_cell_length_a 33.671269
_cell_length_b 8.796779
_cell_length_c 15.191567
_cell_angle_alpha 90.000000
_cell_angle_beta 135.010900
_cell_angle_gamma 90.000000
_cell_volume 3181.178986
_symmetry_space_group_name_H-M "C 2/M"
_symmetry_group_IT_number 12
_symmetry_cell_setting 'monoclinic'
loop_
_space_group_symop_operation_xyz
x,y,z
-x,y,-z
-x,-y,-z
x,-y,z
1/2+x,1/2+y,z
1/2-x,1/2+y,-z
1/2-x,1/2-y,-z
1/2+x,1/2-y,z
loop_
_atom_site_type_symbol
_atom_site_label
_atom_site_fract_x
_atom_site_fract_y
_atom_site_fract_z
Si Si1 0.255546 0.179977 0.675084
Si Si2 0.359846 0.178801 0.481988
Si Si3 0.118684 0.679921 0.846049
Si Si4 0.855719 0.179336 0.286686
Si Si5 0.768906 0.678442 0.893062
Si Si6 0.365915 0.678906 0.801703
Si Si7 0.436538 0.323899 0.079651
Si Si8 0.565479 0.324406 0.261533
O O1 0.195438 0.252426 0.556939
O O2 0.271134 0.238467 0.796970
O O3 0.305735 0.239963 0.692007
O O4 0.249586 0.000000 0.657554
O O5 0.371890 0.248460 0.405032
O O6 0.412815 0.220200 0.625121
O O7 0.353020 0.000000 0.461809
O O8 0.118020 0.500000 0.834618
O O9 0.105215 0.753827 0.729752
O O10 0.072747 0.729460 0.845485
O O11 0.179245 0.747951 0.971557
O O12 0.791299 0.223604 0.160553
O O13 0.864072 0.000000 0.308091
O O14 0.776761 0.500000 0.903472
O O15 0.356225 0.500000 0.788964
O O16 0.405505 0.726869 0.783431
O O17 0.395318 0.735370 0.937999
O O18 0.425326 0.500000 0.082573
O O19 0.499575 0.296490 0.145864
O O20 0.578644 0.500000 0.303960
#
# Coordination Sequence:
#
# PCOD8092960 Si02
#       8
#     8   8   8   8   8   8   8   8
#     4  10  19  35  58  86 120 157 190 232 289 347
#     4  11  23  40  60  85 116 152 197 243 288 341
#     4  11  20  33  54  85 120 153 190 235 286 341
#     4  10  20  36  57  83 115 154 194 233 285 346
#     4   8  16  30  50  79 115 151 184 223 276 337
#     4  10  20  36  61  91 118 148 191 241 291 344
#     4  10  21  38  60  87 118 153 193 238 289 345
#     4  10  22  41  62  83 113 155 198 241 290 344
#
# _framework density 20.118326
#
# number of rings (size 3 to 8) (size 9 to 14) (size 15 to 20)
#    0.000    2.000    1.250    3.750    0.000    3.000 
#    0.000    1.875    0.000    6.000    0.000    0.000 
#    0.000    0.000    0.000    0.000    0.000    0.000 
#
# Total GULP energy -396828.690834 kJ/mol
# GULP energy per Si atom -12400.896589 kJ/mol
# Density = 2.007254 g / cm^3
# Si number density = 20.118326 Si / 1000 Ang^3
#
#
#
# Elastic Constant Matrix: (Units=GPa)
#
#
# Indices 1 2 3 4 5 6 
#
# 1 90.1837 29.5656 14.8844 0.0000 -18.6015 0.0000
# 2 29.5656 83.8662 23.8178 0.0000 -11.1519 0.0000
# 3 14.8844 23.8178 57.9394 0.0000 -3.1553 0.0000
# 4 0.0000 0.0000 0.0000 24.9528 0.0000 1.0705
# 5 -18.6015 -11.1519 -3.1553 0.0000 18.7031 0.0000
# 6 0.0000 0.0000 0.0000 1.0705 0.0000 31.2327
#
#
#
# Elastic Compliance Matrix: (Units=1/GPa)
#
#
# Indices 1 2 3 4 5 6 
#
# 1 0.015052 -0.003058 -0.001911 0.000000 0.012824 0.000000
# 2 -0.003058 0.015149 -0.005163 0.000000 0.005120 0.000000
# 3 -0.001911 -0.005163 0.019783 0.000000 -0.001642 0.000000
# 4 0.000000 0.000000 0.000000 0.040135 0.000000 -0.001376
# 5 0.012824 0.005120 -0.001642 0.000000 0.068997 0.000000
# 6 0.000000 0.000000 0.000000 -0.001376 0.000000 0.032065
#
#
# Mechanical properties :
#
#
# Convention : Reuss Voigt Hill
#
# Bulk Modulus (GPa) = 33.64817 40.94723 37.29770
# Shear Modulus (GPa) = 22.58844 25.89246 24.24045
#
# Velocity S-wave (km/s) = 3.35442 3.59138 3.47492
# Velocity P-wave (km/s) = 5.63599 6.13146 5.88893
#
# Compressibility (1/GPa) = 0.02971930
#
# Stress axis : x y z
#
# Youngs Moduli (GPa) = 66.43817 66.01105 50.54745
#
# Poissons Ratio (x) = 0.20187 0.09660
# Poissons Ratio (y) = 0.20318 0.26098
# Poissons Ratio (z) = 0.12697 0.34081
#
# Static dielectric constant tensor:
#      x y z
#    x 3.693270 0.000000 -0.018860 
#    y 0.000000 3.416720 0.000000 
#    z -0.018860 0.000000 3.568340 
# 
# 
# High freq. dielectric constant tensor:
#      x y z
#    x 1.789020 0.000000 -0.006600 
#    y 0.000000 1.773160 0.000000 
#    z -0.006600 0.000000 1.772580 
# 
# From -- ./inp_files/250089.got.cif
#   From: 2010.06.25/outbox.cif.g09.slc.cpg/sg12_126_cif.got.tgz:250089.got - 2010.06.28 00:19:55.
