data_PCOD8092959
_publ_section_title
;
Structure prediction by ZEFSAII (Michael W. Deem and Ramdas Pophale) SiO2 
 PCOD8092959
Probable space group: C 2/M
;
_chemical_formula_sum "Si O2"
_cell_formula_units_Z 56
_cell_length_a 20.052696
_cell_length_b 8.974003
_cell_length_c 17.254662
_cell_angle_alpha 90.000000
_cell_angle_beta 71.943551
_cell_angle_gamma 90.000000
_cell_volume 2952.109782
_symmetry_space_group_name_H-M "C 2/M"
_symmetry_group_IT_number 12
_symmetry_cell_setting 'monoclinic'
loop_
_space_group_symop_operation_xyz
x,y,z
-x,y,-z
-x,-y,-z
x,-y,z
1/2+x,1/2+y,z
1/2-x,1/2+y,-z
1/2-x,1/2-y,-z
1/2+x,1/2-y,z
loop_
_atom_site_type_symbol
_atom_site_label
_atom_site_fract_x
_atom_site_fract_y
_atom_site_fract_z
Si Si1 0.651936 0.826943 0.592693
Si Si2 0.310778 0.328645 0.571116
Si Si3 0.679892 0.171415 0.832150
Si Si4 0.677781 0.171488 0.008705
Si Si5 0.337525 0.327592 0.736707
Si Si6 0.923179 0.175957 0.245850
Si Si7 0.430735 0.176178 0.824335
O O1 0.648540 0.773269 0.505077
O O2 0.728111 0.792294 0.601355
O O3 0.594581 0.737541 0.662479
O O4 0.633053 0.000000 0.603012
O O5 0.322434 0.500000 0.543618
O O6 0.341429 0.292153 0.644177
O O7 0.761563 0.213903 0.797911
O O8 0.637223 0.279842 0.792320
O O9 0.668971 0.000000 0.808958
O O10 0.653531 0.196957 0.929113
O O11 0.616944 0.231862 0.086802
O O12 0.691497 0.000000 0.021217
O O13 0.750000 0.250000 0.000000
O O14 0.354696 0.500000 0.746937
O O15 0.395451 0.225791 0.756566
O O16 0.995230 0.245533 0.190363
O O17 0.930004 0.000000 0.247610
O O18 0.441847 0.000000 0.820240
#
# Coordination Sequence:
#
# PCOD8092959 Si02
#       7
#     8   8   8   8   8   8   8
#     4  10  19  35  58  86 119 154 190 238 293 345
#     4   9  18  33  56  88 119 151 191 236 287 343
#     4  10  20  38  62  87 118 155 194 241 293 346
#     4  10  21  37  61  89 118 153 194 242 292 344
#     4  10  19  36  61  88 119 155 194 238 289 346
#     4  12  25  40  59  85 118 158 199 243 294 349
#     4  11  24  40  59  86 120 157 196 241 295 351
#
# _framework density 18.969484000000001
#
# number of rings (size 3 to 8) (size 9 to 14) (size 15 to 20)
#    0.000    1.714    2.857    2.143    0.000    3.429 
#    0.000    3.571    0.000    4.286    0.000    0.000 
#    0.000    0.000    0.000    0.000    0.000    0.000 
#
# Total GULP energy -347338.555662 kJ/mol
# GULP energy per Si atom -12404.948417 kJ/mol
# Density = 1.892631 g / cm^3
# Si number density = 18.969484 Si / 1000 Ang^3
#
#
#
# Elastic Constant Matrix: (Units=GPa)
#
#
# Indices 1 2 3 4 5 6 
#
# 1 45.3911 27.6244 22.4983 0.0000 -4.9371 0.0000
# 2 27.6244 89.1905 42.7545 0.0000 -7.4797 0.0000
# 3 22.4983 42.7545 97.3314 0.0000 -5.9829 0.0000
# 4 0.0000 0.0000 0.0000 31.5285 0.0000 1.1701
# 5 -4.9371 -7.4797 -5.9829 0.0000 28.1066 0.0000
# 6 0.0000 0.0000 0.0000 1.1701 0.0000 34.3656
#
#
#
# Elastic Compliance Matrix: (Units=1/GPa)
#
#
# Indices 1 2 3 4 5 6 
#
# 1 0.028152 -0.006929 -0.003317 0.000000 0.002395 0.000000
# 2 -0.006929 0.016081 -0.005344 0.000000 0.001925 0.000000
# 3 -0.003317 -0.005344 0.013441 0.000000 0.000856 0.000000
# 4 0.000000 0.000000 0.000000 0.031757 0.000000 -0.001081
# 5 0.002395 0.001925 0.000856 0.000000 0.036694 0.000000
# 6 0.000000 0.000000 0.000000 -0.001081 0.000000 0.029136
#
#
# Mechanical properties :
#
#
# Convention : Reuss Voigt Hill
#
# Bulk Modulus (GPa) = 37.74243 46.40750 42.07497
# Shear Modulus (GPa) = 25.60543 28.06920 26.83732
#
# Velocity S-wave (km/s) = 3.67798 3.85086 3.76541
# Velocity P-wave (km/s) = 6.16249 6.65504 6.41350
#
# Compressibility (1/GPa) = 0.02649538
#
# Stress axis : x y z
#
# Youngs Moduli (GPa) = 35.52171 62.18510 74.39973
#
# Poissons Ratio (x) = 0.43085 0.24676
# Poissons Ratio (y) = 0.24611 0.39759
# Poissons Ratio (z) = 0.11781 0.33232
#
# Static dielectric constant tensor:
#      x y z
#    x 3.268460 0.000000 -0.017920 
#    y 0.000000 3.435100 0.000000 
#    z -0.017920 0.000000 3.712840 
# 
# 
# High freq. dielectric constant tensor:
#      x y z
#    x 1.718540 0.000000 0.002680 
#    y 0.000000 1.736230 0.000000 
#    z 0.002680 0.000000 1.752270 
# 
# From -- ./inp_files/275012.got.cif
#   From: 2010.06.25/outbox.cif.g09.slc.cpg/sg12_138_cif.got.tgz:275012.got - 2010.06.28 00:19:55.
