data_PCOD8092851
_publ_section_title
;
Structure prediction by ZEFSAII (Michael W. Deem and Ramdas Pophale) SiO2 
 PCOD8092851
Probable space group: C 2/M
;
_chemical_formula_sum "Si O2"
_cell_formula_units_Z 56
_cell_length_a 16.050425
_cell_length_b 8.991843
_cell_length_c 22.607618
_cell_angle_alpha 90.000000
_cell_angle_beta 121.184981
_cell_angle_gamma 90.000000
_cell_volume 2791.322930
_symmetry_space_group_name_H-M "C 2/M"
_symmetry_group_IT_number 12
_symmetry_cell_setting 'monoclinic'
loop_
_space_group_symop_operation_xyz
x,y,z
-x,y,-z
-x,-y,-z
x,-y,z
1/2+x,1/2+y,z
1/2-x,1/2+y,-z
1/2-x,1/2-y,-z
1/2+x,1/2-y,z
loop_
_atom_site_type_symbol
_atom_site_label
_atom_site_fract_x
_atom_site_fract_y
_atom_site_fract_z
Si Si1 0.979427 0.676667 0.427461
Si Si2 0.204610 0.328867 0.710932
Si Si3 0.218689 0.329318 0.849208
Si Si4 0.168321 0.674138 0.431472
Si Si5 0.957532 0.823368 0.161217
Si Si6 0.059872 0.176665 0.078335
Si Si7 0.625594 0.174784 0.284550
O O1 0.974283 0.500000 0.428236
O O2 0.064653 0.731471 0.416242
O O3 0.000000 0.743804 0.500000
O O4 0.878750 0.736073 0.362893
O O5 0.230297 0.500000 0.705228
O O6 0.171081 0.315826 0.766513
O O7 0.300669 0.230139 0.738554
O O8 0.219849 0.500000 0.871123
O O9 0.329047 0.264767 0.886896
O O10 0.152821 0.236540 0.871178
O O11 0.179899 0.500000 0.445288
O O12 0.250000 0.750000 0.500000
O O13 0.174041 0.718908 0.364999
O O14 0.004249 0.765423 0.116636
O O15 0.022838 0.757213 0.238307
O O16 0.955583 0.000000 0.163934
O O17 0.062844 0.000000 0.082225
O O18 0.000000 0.235387 0.000000
O O19 0.606555 0.000000 0.272943
#
# Coordination Sequence:
#
# PCOD8092851 Si02
#       7
#     8   8   8   8   8   8   8
#     4   9  17  30  50  74 101 137 183 231 280 339
#     4  10  19  35  58  81 109 150 197 239 290 356
#     4  10  20  37  60  87 119 157 198 246 299 350
#     4  10  21  36  53  77 108 145 189 239 295 351
#     4  11  22  38  61  90 119 156 203 244 292 358
#     4   9  19  38  62  87 120 160 199 242 296 357
#     4  11  22  36  56  83 117 153 192 245 301 348
#
# _framework density 20.062173000000001
#
# number of rings (size 3 to 8) (size 9 to 14) (size 15 to 20)
#    0.000    2.000    1.429    2.571    0.000    5.714 
#    0.000    0.714    0.000    5.571    0.000    0.000 
#    0.000    0.000    0.000    0.000    0.000    0.000 
#
# Total GULP energy -347191.045704 kJ/mol
# GULP energy per Si atom -12399.680204 kJ/mol
# Density = 2.001651 g / cm^3
# Si number density = 20.062173 Si / 1000 Ang^3
#
#
#
# Elastic Constant Matrix: (Units=GPa)
#
#
# Indices 1 2 3 4 5 6 
#
# 1 152.1654 44.2360 51.7678 0.0000 7.7564 0.0000
# 2 44.2360 53.7447 32.3989 0.0000 -1.6748 0.0000
# 3 51.7678 32.3989 118.9102 0.0000 9.7228 0.0000
# 4 0.0000 0.0000 0.0000 17.7176 0.0000 4.1828
# 5 7.7564 -1.6748 9.7228 0.0000 29.2441 0.0000
# 6 0.0000 0.0000 0.0000 4.1828 0.0000 31.9915
#
#
#
# Elastic Compliance Matrix: (Units=1/GPa)
#
#
# Indices 1 2 3 4 5 6 
#
# 1 0.009264 -0.006419 -0.002111 0.000000 -0.002123 0.000000
# 2 -0.006419 0.027041 -0.004974 0.000000 0.004905 0.000000
# 3 -0.002111 -0.004974 0.010959 0.000000 -0.003369 0.000000
# 4 0.000000 0.000000 0.000000 0.058239 0.000000 -0.007615
# 5 -0.002123 0.004905 -0.003369 0.000000 0.036159 0.000000
# 6 0.000000 0.000000 0.000000 -0.007615 0.000000 0.032254
#
#
# Mechanical properties :
#
#
# Convention : Reuss Voigt Hill
#
# Bulk Modulus (GPa) = 49.36581 64.62509 56.99545
# Shear Modulus (GPa) = 24.07591 28.88513 26.48052
#
# Velocity S-wave (km/s) = 3.46795 3.79856 3.63702
# Velocity P-wave (km/s) = 6.37930 7.17782 6.79031
#
# Compressibility (1/GPa) = 0.02025693
#
# Stress axis : x y z
#
# Youngs Moduli (GPa) = 107.94356 36.98051 91.24603
#
# Poissons Ratio (x) = 0.23737 0.19259
# Poissons Ratio (y) = 0.69288 0.45389
# Poissons Ratio (z) = 0.22783 0.18396
#
# Static dielectric constant tensor:
#      x y z
#    x 3.837200 0.000000 0.109200 
#    y 0.000000 3.250390 0.000000 
#    z 0.109200 0.000000 3.977670 
# 
# 
# High freq. dielectric constant tensor:
#      x y z
#    x 1.793870 0.000000 0.003010 
#    y 0.000000 1.743010 0.000000 
#    z 0.003010 0.000000 1.788150 
# 
# From -- ./inp_files/339055.got.cif
#   From: 2010.06.25/outbox.cif.g09.slc.cpg/sg12_170_cif.got.tgz:339055.got - 2010.06.28 00:19:55.
