data_PCOD8092421
_publ_section_title
;
Structure prediction by ZEFSAII (Michael W. Deem and Ramdas Pophale) SiO2 
 PCOD8092421
Probable space group: C 2/M
;
_chemical_formula_sum "Si O2"
_cell_formula_units_Z 40
_cell_length_a 7.365226
_cell_length_b 26.029320
_cell_length_c 11.110031
_cell_angle_alpha 90.000000
_cell_angle_beta 98.009210
_cell_angle_gamma 90.000000
_cell_volume 2109.148359
_symmetry_space_group_name_H-M "C 2/M"
_symmetry_group_IT_number 12
_symmetry_cell_setting 'monoclinic'
loop_
_space_group_symop_operation_xyz
x,y,z
-x,y,-z
-x,-y,-z
x,-y,z
1/2+x,1/2+y,z
1/2-x,1/2+y,-z
1/2-x,1/2-y,-z
1/2+x,1/2-y,z
loop_
_atom_site_type_symbol
_atom_site_label
_atom_site_fract_x
_atom_site_fract_y
_atom_site_fract_z
Si Si1 0.433776 0.555985 0.627722
Si Si2 0.364538 0.704886 0.756959
Si Si3 0.784431 0.350645 0.469848
Si Si4 0.813335 0.135964 0.269309
Si Si5 0.993938 0.689378 0.140335
O O1 0.500000 0.546755 0.500000
O O2 0.372807 0.500000 0.674771
O O3 0.268808 0.597383 0.609175
O O4 0.601151 0.578496 0.725514
O O5 0.284734 0.697754 0.614951
O O6 0.553291 0.674017 0.792354
O O7 0.404502 0.764612 0.780201
O O8 0.215912 0.683591 0.839049
O O9 0.689013 0.347421 0.590582
O O10 0.000000 0.349243 0.500000
O O11 0.612202 0.138708 0.189096
O O12 0.000000 0.699369 0.000000
#
# Coordination Sequence:
#
# PCOD8092421 Si02
#       5
#     8   8   8   8   8
#     4   8  16  32  55  80 110 141 171 214 271 325
#     4  11  22  37  54  76 109 148 178 226 264 313
#     4  10  19  35  54  83 116 138 179 218 270 327
#     4  10  21  37  55  81 112 142 177 222 271 323
#     4  12  24  37  54  77 107 147 194 221 261 313
#
# _framework density 18.965001000000001
#
# number of rings (size 3 to 8) (size 9 to 14) (size 15 to 20)
#    0.000    1.800    4.000    2.400    0.000    1.200 
#    3.600    0.000    0.000    0.600    0.000    5.600 
#    0.000    0.000    0.000    0.000    0.000    0.000 
#
# Total GULP energy -247893.852872 kJ/mol
# GULP energy per Si atom -12394.692644 kJ/mol
# Density = 1.892184 g / cm^3
# Si number density = 18.965001 Si / 1000 Ang^3
#
#
#
# Elastic Constant Matrix: (Units=GPa)
#
#
# Indices 1 2 3 4 5 6 
#
# 1 91.6218 20.4043 20.6736 0.0000 -8.9693 0.0000
# 2 20.4043 78.1176 37.0286 0.0000 16.5075 0.0000
# 3 20.6736 37.0286 73.5203 0.0000 -4.0472 0.0000
# 4 0.0000 0.0000 0.0000 2.3817 0.0000 1.5341
# 5 -8.9693 16.5075 -4.0472 0.0000 26.6298 0.0000
# 6 0.0000 0.0000 0.0000 1.5341 0.0000 17.7989
#
#
#
# Elastic Compliance Matrix: (Units=1/GPa)
#
#
# Indices 1 2 3 4 5 6 
#
# 1 0.012768 -0.004259 -0.001072 0.000000 0.006778 0.000000
# 2 -0.004259 0.022952 -0.011319 0.000000 -0.017383 0.000000
# 3 -0.001072 -0.011319 0.020139 0.000000 0.009716 0.000000
# 4 0.000000 0.000000 0.000000 0.444544 0.000000 -0.038316
# 5 0.006778 -0.017383 0.009716 0.000000 0.052087 0.000000
# 6 0.000000 0.000000 0.000000 -0.038316 0.000000 0.059486
#
#
# Mechanical properties :
#
#
# Convention : Reuss Voigt Hill
#
# Bulk Modulus (GPa) = 44.32888 44.38583 44.35736
# Shear Modulus (GPa) = 7.65934 20.37230 14.01582
#
# Velocity S-wave (km/s) = 2.01183 3.28106 2.72147
# Velocity P-wave (km/s) = 5.36855 6.14888 5.77192
#
# Compressibility (1/GPa) = 0.02255866
#
# Stress axis : x y z
#
# Youngs Moduli (GPa) = 78.31836 43.56842 49.65486
#
# Poissons Ratio (x) = 0.18556 0.05324
# Poissons Ratio (y) = 0.33357 0.56206
# Poissons Ratio (z) = 0.08397 0.49316
#
# Static dielectric constant tensor:
#      x y z
#    x 3.720010 0.000000 -0.015240 
#    y 0.000000 3.617150 0.000000 
#    z -0.015240 0.000000 3.264950 
# 
# 
# High freq. dielectric constant tensor:
#      x y z
#    x 1.751470 0.000000 0.002770 
#    y 0.000000 1.710270 0.000000 
#    z 0.002770 0.000000 1.708660 
# 
# From -- ./inp_files/40531.got.cif
#   From: 2010.06.25/outbox.cif.g09.slc.cpg/sg12_21_cif.got.tgz:40531.got - 2010.06.28 00:19:55.
