data_PCOD8092369
_publ_section_title
;
Structure prediction by ZEFSAII (Michael W. Deem and Ramdas Pophale) SiO2 
 PCOD8092369
Probable space group: C 2/M
;
_chemical_formula_sum "Si O2"
_cell_formula_units_Z 48
_cell_length_a 8.907294
_cell_length_b 21.684178
_cell_length_c 14.668345
_cell_angle_alpha 90.000000
_cell_angle_beta 110.829599
_cell_angle_gamma 90.000000
_cell_volume 2647.983093
_symmetry_space_group_name_H-M "C 2/M"
_symmetry_group_IT_number 12
_symmetry_cell_setting 'monoclinic'
loop_
_space_group_symop_operation_xyz
x,y,z
-x,y,-z
-x,-y,-z
x,-y,z
1/2+x,1/2+y,z
1/2-x,1/2+y,-z
1/2-x,1/2-y,-z
1/2+x,1/2-y,z
loop_
_atom_site_type_symbol
_atom_site_label
_atom_site_fract_x
_atom_site_fract_y
_atom_site_fract_z
Si Si1 0.102055 0.429978 0.609664
Si Si2 0.438098 0.327366 0.388306
Si Si3 0.650936 0.836739 0.772593
Si Si4 0.877294 0.071022 0.894417
Si Si5 0.368892 0.248058 0.705320
Si Si6 0.031994 0.932374 0.290770
O O1 0.058980 0.500000 0.631943
O O2 0.063099 0.380495 0.679475
O O3 0.290693 0.426181 0.627386
O O4 0.000000 0.410502 0.500000
O O5 0.500000 0.348439 0.500000
O O6 0.564137 0.280773 0.370236
O O7 0.265628 0.297143 0.361354
O O8 0.414687 0.385955 0.317113
O O9 0.726049 0.881713 0.866593
O O10 0.514849 0.791097 0.783789
O O11 0.798055 0.797268 0.761312
O O12 0.963376 0.081212 0.816037
O O13 0.817703 0.000000 0.891065
O O14 0.000000 0.088813 0.000000
O O15 0.960921 0.000000 0.292494
#
# Coordination Sequence:
#
# PCOD8092369 Si02
#       6
#     8   8   8   8   8   8
#     4   9  17  29  50  72  98 135 173 215 267 305
#     4  11  21  34  51  74 104 148 184 214 253 307
#     4  10  19  35  53  75 108 136 176 221 259 311
#     4   9  17  34  63  86 100 130 175 221 269 316
#     4  10  22  34  50  72 109 143 182 214 256 303
#     4   9  18  34  51  75 108 135 169 219 264 315
#
# _framework density 18.127003999999999
#
# number of rings (size 3 to 8) (size 9 to 14) (size 15 to 20)
#    0.000    2.333    3.333    2.000    2.333    3.000 
#    0.000    2.500    0.000    0.000    0.000    3.500 
#    0.000    0.000    0.000    0.000    0.000    0.000 
#
# Total GULP energy -297493.750499 kJ/mol
# GULP energy per Si atom -12395.572937 kJ/mol
# Density = 1.808575 g / cm^3
# Si number density = 18.127004 Si / 1000 Ang^3
#
#
#
# Elastic Constant Matrix: (Units=GPa)
#
#
# Indices 1 2 3 4 5 6 
#
# 1 71.9568 40.0551 31.5275 0.0000 3.3575 0.0000
# 2 40.0551 115.9769 50.5763 0.0000 7.4779 0.0000
# 3 31.5275 50.5763 116.6757 0.0000 23.9625 0.0000
# 4 0.0000 0.0000 0.0000 21.1689 0.0000 10.7985
# 5 3.3575 7.4779 23.9625 0.0000 15.8304 0.0000
# 6 0.0000 0.0000 0.0000 10.7985 0.0000 19.4544
#
#
#
# Elastic Compliance Matrix: (Units=1/GPa)
#
#
# Indices 1 2 3 4 5 6 
#
# 1 0.018004 -0.004933 -0.003513 0.000000 0.003829 0.000000
# 2 -0.004933 0.012072 -0.004272 0.000000 0.001810 0.000000
# 3 -0.003513 -0.004272 0.015678 0.000000 -0.020969 0.000000
# 4 0.000000 0.000000 0.000000 0.065898 0.000000 -0.036577
# 5 0.003829 0.001810 -0.020969 0.000000 0.093244 0.000000
# 6 0.000000 0.000000 0.000000 -0.036577 0.000000 0.071705
#
#
# Mechanical properties :
#
#
# Convention : Reuss Voigt Hill
#
# Bulk Modulus (GPa) = 49.21524 60.99191 55.10358
# Shear Modulus (GPa) = 16.19121 23.45411 19.82266
#
# Velocity S-wave (km/s) = 2.99190 3.60095 3.31046
# Velocity P-wave (km/s) = 6.25656 7.14207 6.71393
#
# Compressibility (1/GPa) = 0.02031891
#
# Stress axis : x y z
#
# Youngs Moduli (GPa) = 55.54426 82.83432 63.78189
#
# Poissons Ratio (x) = 0.40861 0.22407
# Poissons Ratio (y) = 0.27399 0.27247
# Poissons Ratio (z) = 0.19513 0.35385
#
# Static dielectric constant tensor:
#      x y z
#    x 3.162370 0.000000 0.190640 
#    y 0.000000 3.747590 0.000000 
#    z 0.190640 0.000000 3.132960 
# 
# 
# High freq. dielectric constant tensor:
#      x y z
#    x 1.672090 0.000000 0.015340 
#    y 0.000000 1.727660 0.000000 
#    z 0.015340 0.000000 1.672960 
# 
# From -- ./inp_files/197192.got.cif
#   From: 2010.06.25/outbox.cif.g09.slc.cpg/sg12_99_cif.got.tgz:197192.got - 2010.06.28 00:19:55.
