data_PCOD8092676
_publ_section_title
;
Structure prediction by ZEFSAII (Michael W. Deem and Ramdas Pophale) SiO2 
 PCOD8092676
Probable space group: C 2/M
;
_chemical_formula_sum "Si O2"
_cell_formula_units_Z 64
_cell_length_a 20.864866
_cell_length_b 8.940344
_cell_length_c 24.687391
_cell_angle_alpha 90.000000
_cell_angle_beta 133.171567
_cell_angle_gamma 90.000000
_cell_volume 3358.583481
_symmetry_space_group_name_H-M "C 2/M"
_symmetry_group_IT_number 12
_symmetry_cell_setting 'monoclinic'
loop_
_space_group_symop_operation_xyz
x,y,z
-x,y,-z
-x,-y,-z
x,-y,z
1/2+x,1/2+y,z
1/2-x,1/2+y,-z
1/2-x,1/2-y,-z
1/2+x,1/2-y,z
loop_
_atom_site_type_symbol
_atom_site_label
_atom_site_fract_x
_atom_site_fract_y
_atom_site_fract_z
Si Si1 0.232193 0.325988 0.143114
Si Si2 0.484599 0.833823 0.347159
Si Si3 0.317990 0.672991 0.687419
Si Si4 0.386339 0.833368 0.179752
Si Si5 0.306506 0.177406 0.289451
Si Si6 0.670599 0.820873 0.421840
Si Si7 0.995882 0.827663 0.155662
Si Si8 0.075064 0.163546 0.000714
O O1 0.235379 0.500000 0.157183
O O2 0.308409 0.281413 0.145696
O O3 0.242682 0.242178 0.206438
O O4 0.142544 0.285846 0.061182
O O5 0.454212 0.834460 0.267962
O O6 0.407314 0.758236 0.339842
O O7 0.581459 0.757893 0.400155
O O8 0.498142 0.000000 0.377930
O O9 0.312538 0.500000 0.666454
O O10 0.231676 0.716872 0.673299
O O11 0.323110 0.773099 0.637042
O O12 0.401566 0.703080 0.773933
O O13 0.437060 0.781172 0.156685
O O14 0.348476 0.000000 0.148338
O O15 0.308217 0.000000 0.280454
O O16 0.750000 0.750000 0.500000
O O17 0.673320 0.000000 0.425640
O O18 0.973622 0.000000 0.155840
O O19 0.972305 0.782138 0.081214
O O20 0.120736 0.000000 0.018809
O O21 0.000000 0.144177 0.000000
#
# Coordination Sequence:
#
# PCOD8092676 Si02
#       8
#     8   8   8   8   8   8   8   8
#     4  11  22  35  53  81 114 146 187 239 288 333
#     4   8  16  33  57  82 108 144 189 228 269 331
#     4  10  20  36  60  89 116 144 184 235 285 340
#     4  10  19  35  57  79 105 145 188 230 281 337
#     4   9  18  36  61  85 112 151 194 232 280 341
#     4  11  22  38  59  86 117 150 188 231 282 339
#     4  10  20  33  54  83 110 139 183 235 285 333
#     4  10  21  38  56  74 105 150 191 231 284 344
#
# _framework density 19.055651999999998
#
# number of rings (size 3 to 8) (size 9 to 14) (size 15 to 20)
#    0.000    2.125    1.250    3.375    0.000    3.750 
#    0.000    2.500    0.000    3.750    0.000    0.000 
#    0.000    0.000    0.000    0.000    0.000    0.000 
#
# Total GULP energy -396603.036624 kJ/mol
# GULP energy per Si atom -12393.844895 kJ/mol
# Density = 1.901228 g / cm^3
# Si number density = 19.055652 Si / 1000 Ang^3
#
#
#
# Elastic Constant Matrix: (Units=GPa)
#
#
# Indices 1 2 3 4 5 6 
#
# 1 118.0064 34.3484 49.6634 0.0000 6.1295 0.0000
# 2 34.3484 65.8928 32.1480 0.0000 4.7057 0.0000
# 3 49.6634 32.1480 78.2909 0.0000 20.6419 0.0000
# 4 0.0000 0.0000 0.0000 30.1988 0.0000 -2.8433
# 5 6.1295 4.7057 20.6419 0.0000 23.9139 0.0000
# 6 0.0000 0.0000 0.0000 -2.8433 0.0000 29.0243
#
#
#
# Elastic Compliance Matrix: (Units=1/GPa)
#
#
# Indices 1 2 3 4 5 6 
#
# 1 0.012368 -0.002986 -0.007689 0.000000 0.004054 0.000000
# 2 -0.002986 0.019980 -0.007089 0.000000 0.002953 0.000000
# 3 -0.007689 -0.007089 0.025470 0.000000 -0.018620 0.000000
# 4 0.000000 0.000000 0.000000 0.033422 0.000000 0.003274
# 5 0.004054 0.002953 -0.018620 0.000000 0.056269 0.000000
# 6 0.000000 0.000000 0.000000 0.003274 0.000000 0.034775
#
#
# Mechanical properties :
#
#
# Convention : Reuss Voigt Hill
#
# Bulk Modulus (GPa) = 44.85845 54.94550 49.90197
# Shear Modulus (GPa) = 22.19843 26.36278 24.28060
#
# Velocity S-wave (km/s) = 3.41680 3.72353 3.57346
# Velocity P-wave (km/s) = 6.25763 6.88353 6.57803
#
# Compressibility (1/GPa) = 0.02229234
#
# Stress axis : x y z
#
# Youngs Moduli (GPa) = 80.85111 50.04956 39.26162
#
# Poissons Ratio (x) = 0.14943 0.30187
# Poissons Ratio (y) = 0.24140 0.27832
# Poissons Ratio (z) = 0.62164 0.35479
#
# Static dielectric constant tensor:
#      x y z
#    x 3.584390 0.000000 0.020060 
#    y 0.000000 3.434110 0.000000 
#    z 0.020060 0.000000 3.238700 
# 
# 
# High freq. dielectric constant tensor:
#      x y z
#    x 1.755000 0.000000 0.006740 
#    y 0.000000 1.722770 0.000000 
#    z 0.006740 0.000000 1.724240 
# 
# From -- ./inp_files/346264.got.cif
#   From: 2010.06.25/outbox.cif.g09.slc.cpg/sg12_174_cif.got.tgz:346264.got - 2010.06.28 00:19:55.
