data_PCOD8092730
_publ_section_title
;
Structure prediction by ZEFSAII (Michael W. Deem and Ramdas Pophale) SiO2 
 PCOD8092730
Probable space group: C 2/M
;
_chemical_formula_sum "Si O2"
_cell_formula_units_Z 64
_cell_length_a 24.109671
_cell_length_b 8.614542
_cell_length_c 31.415796
_cell_angle_alpha 90.000000
_cell_angle_beta 150.453742
_cell_angle_gamma 90.000000
_cell_volume 3217.581240
_symmetry_space_group_name_H-M "C 2/M"
_symmetry_group_IT_number 12
_symmetry_cell_setting 'monoclinic'
loop_
_space_group_symop_operation_xyz
x,y,z
-x,y,-z
-x,-y,-z
x,-y,z
1/2+x,1/2+y,z
1/2-x,1/2+y,-z
1/2-x,1/2-y,-z
1/2+x,1/2-y,z
loop_
_atom_site_type_symbol
_atom_site_label
_atom_site_fract_x
_atom_site_fract_y
_atom_site_fract_z
Si Si1 0.825500 0.319330 0.108249
Si Si2 0.602410 0.318306 0.755614
Si Si3 0.916736 0.180134 0.087250
Si Si4 0.147242 0.319679 0.224959
Si Si5 0.178096 0.316805 0.721921
Si Si6 0.223743 0.819112 0.364043
Si Si7 0.849651 0.818703 0.594335
Si Si8 0.978617 0.681122 0.531779
O O1 0.846729 0.500000 0.113786
O O2 0.855433 0.276725 0.175948
O O3 0.903998 0.223058 0.128487
O O4 0.695482 0.276155 0.013340
O O5 0.613715 0.500000 0.772758
O O6 0.682000 0.269718 0.769737
O O7 0.472485 0.272576 0.658574
O O8 0.016375 0.278469 0.132650
O O9 0.947541 0.000000 0.104666
O O10 0.166936 0.500000 0.229555
O O11 0.213245 0.222825 0.233424
O O12 0.188252 0.279002 0.299679
O O13 0.173069 0.500000 0.726610
O O14 0.067183 0.249329 0.624323
O O15 0.154315 0.763291 0.358969
O O16 0.352758 0.784916 0.462680
O O17 0.205180 0.000000 0.340564
O O18 0.750000 0.750000 0.500000
O O19 0.828844 0.000000 0.579664
O O20 0.005529 0.500000 0.546178
O O21 0.000000 0.758894 0.500000
#
# Coordination Sequence:
#
# PCOD8092730 Si02
#       8
#     8   8   8   8   8   8   8   8
#     4  10  21  39  65  95 120 150 193 236 287 348
#     4  11  23  39  58  85 122 159 197 239 292 352
#     4  10  21  39  64  92 122 152 187 237 291 345
#     4  12  24  37  56  87 120 151 191 240 293 348
#     4  11  22  39  61  82 112 156 202 247 293 347
#     4  10  19  35  57  81 112 152 197 239 290 349
#     4  10  22  37  56  82 115 155 195 239 287 339
#     4   9  16  30  54  81 106 144 197 245 288 339
#
# _framework density 19.890719000000001
#
# number of rings (size 3 to 8) (size 9 to 14) (size 15 to 20)
#    0.000    1.625    1.250    4.125    0.000    5.000 
#    0.000    2.500    0.000    3.750    0.000    0.000 
#    0.000    0.000    0.000    0.000    0.000    0.000 
#
# Total GULP energy -396898.604484 kJ/mol
# GULP energy per Si atom -12403.081390 kJ/mol
# Density = 1.984545 g / cm^3
# Si number density = 19.890719 Si / 1000 Ang^3
#
#
#
# Elastic Constant Matrix: (Units=GPa)
#
#
# Indices 1 2 3 4 5 6 
#
# 1 108.4439 13.7812 33.7289 0.0002 -0.1811 0.0000
# 2 13.7812 49.6917 17.8887 0.0005 0.5681 -0.0005
# 3 33.7289 17.8887 81.8329 0.0004 -1.8703 0.0002
# 4 0.0002 0.0005 0.0004 28.2130 0.0002 -1.5286
# 5 -0.1811 0.5681 -1.8703 0.0002 31.7020 0.0001
# 6 0.0000 -0.0005 0.0002 -1.5286 0.0001 32.2149
#
#
#
# Elastic Compliance Matrix: (Units=1/GPa)
#
#
# Indices 1 2 3 4 5 6 
#
# 1 0.010679 -0.001492 -0.004079 0.000000 -0.000153 0.000000
# 2 -0.001492 0.022066 -0.004224 0.000000 -0.000653 0.000000
# 3 -0.004079 -0.004224 0.014846 0.000000 0.000928 0.000000
# 4 0.000000 0.000000 0.000000 0.035536 0.000000 0.001686
# 5 -0.000153 -0.000653 0.000928 0.000000 0.031609 0.000000
# 6 0.000000 0.000000 0.000000 0.001686 0.000000 0.031122
#
#
# Mechanical properties :
#
#
# Convention : Reuss Voigt Hill
#
# Bulk Modulus (GPa) = 35.71160 41.19624 38.45392
# Shear Modulus (GPa) = 28.60726 30.06395 29.33560
#
# Velocity S-wave (km/s) = 3.79650 3.89196 3.84453
# Velocity P-wave (km/s) = 6.10007 6.39943 6.25154
#
# Compressibility (1/GPa) = 0.02800211
#
# Stress axis : x y z
#
# Youngs Moduli (GPa) = 93.63846 45.31910 67.35894
#
# Poissons Ratio (x) = 0.06760 0.27477
# Poissons Ratio (y) = 0.13967 0.28451
# Poissons Ratio (z) = 0.38196 0.19142
#
# Static dielectric constant tensor:
#      x y z
#    x 3.716620 0.000000 0.089130 
#    y 0.000000 3.441990 0.000000 
#    z 0.089130 0.000000 3.610350 
# 
# 
# High freq. dielectric constant tensor:
#      x y z
#    x 1.781710 0.000000 0.005020 
#    y 0.000000 1.764680 0.000000 
#    z 0.005020 0.000000 1.773820 
# 
# From -- ./inp_files/382479.got.cif
#   From: 2010.06.25/outbox.cif.g09.slc.cpg/sg12_192_cif.got.tgz:382479.got - 2010.06.28 00:19:55.
