data_PCOD8092479
_publ_section_title
;
Structure prediction by ZEFSAII (Michael W. Deem and Ramdas Pophale) SiO2 
 PCOD8092479
Probable space group: C 2/M
;
_chemical_formula_sum "Si O2"
_cell_formula_units_Z 56
_cell_length_a 9.135902
_cell_length_b 21.120920
_cell_length_c 16.564555
_cell_angle_alpha 90.000000
_cell_angle_beta 121.575571
_cell_angle_gamma 90.000000
_cell_volume 2723.066707
_symmetry_space_group_name_H-M "C 2/M"
_symmetry_group_IT_number 12
_symmetry_cell_setting 'monoclinic'
loop_
_space_group_symop_operation_xyz
x,y,z
-x,y,-z
-x,-y,-z
x,-y,z
1/2+x,1/2+y,z
1/2-x,1/2+y,-z
1/2-x,1/2-y,-z
1/2+x,1/2-y,z
loop_
_atom_site_type_symbol
_atom_site_label
_atom_site_fract_x
_atom_site_fract_y
_atom_site_fract_z
Si Si1 0.537015 0.363304 0.185945
Si Si2 0.171683 0.189838 0.591252
Si Si3 0.759177 0.202252 0.883943
Si Si4 0.803560 0.427576 0.363935
Si Si5 0.504673 0.739150 0.696862
Si Si6 0.318695 0.841256 0.966895
Si Si7 0.813772 0.575203 0.546692
O O1 0.584451 0.336015 0.111400
O O2 0.657142 0.419887 0.252864
O O3 0.571320 0.309508 0.261037
O O4 0.336117 0.382096 0.118215
O O5 0.337128 0.229243 0.607522
O O6 0.202294 0.115411 0.579234
O O7 0.000000 0.215919 0.500000
O O8 0.135546 0.201919 0.675558
O O9 0.607958 0.206134 0.774177
O O10 0.820562 0.271746 0.927390
O O11 0.695018 0.161945 0.940986
O O12 0.839414 0.500000 0.389812
O O13 0.751165 0.402644 0.438436
O O14 0.987620 0.401580 0.386775
O O15 0.500000 0.875035 0.000000
O O16 0.786270 0.500000 0.555796
#
# Coordination Sequence:
#
# PCOD8092479 Si02
#       7
#     8   8   8   8   8   8   8
#     4  11  20  35  57  85 116 152 197 237 298 356
#     4  12  24  38  53  84 126 165 197 239 298 357
#     4  10  19  35  55  78 116 155 198 232 281 360
#     4   9  19  39  65  87 109 150 203 254 292 345
#     4  11  23  36  53  84 124 167 192 237 294 365
#     4  10  20  32  54  84 116 153 189 238 288 353
#     4   9  20  40  65  87 112 154 212 259 289 330
#
# _framework density 20.565048000000001
#
# number of rings (size 3 to 8) (size 9 to 14) (size 15 to 20)
#    0.000    1.714    1.429    6.000    2.000    0.286 
#    0.000    0.714    0.000    2.143    0.000    0.000 
#    0.000    0.000    0.000    0.143    0.000    0.000 
#
# Total GULP energy -347034.682749 kJ/mol
# GULP energy per Si atom -12394.095812 kJ/mol
# Density = 2.051824 g / cm^3
# Si number density = 20.565048 Si / 1000 Ang^3
#
#
#
# Elastic Constant Matrix: (Units=GPa)
#
#
# Indices 1 2 3 4 5 6 
#
# 1 122.0712 36.6904 61.6614 0.0000 6.1485 0.0000
# 2 36.6904 40.2139 25.0170 0.0000 -5.6183 0.0000
# 3 61.6614 25.0170 121.7017 0.0000 12.6615 0.0000
# 4 0.0000 0.0000 0.0000 18.8838 0.0000 2.5284
# 5 6.1485 -5.6183 12.6615 0.0000 43.0736 0.0000
# 6 0.0000 0.0000 0.0000 2.5284 0.0000 22.5746
#
#
#
# Elastic Compliance Matrix: (Units=1/GPa)
#
#
# Indices 1 2 3 4 5 6 
#
# 1 0.013575 -0.009724 -0.004689 0.000000 -0.001828 0.000000
# 2 -0.009724 0.036858 -0.003398 0.000000 0.007195 0.000000
# 3 -0.004689 -0.003398 0.011623 0.000000 -0.003191 0.000000
# 4 0.000000 0.000000 0.000000 0.053762 0.000000 -0.006021
# 5 -0.001828 0.007195 -0.003191 0.000000 0.025353 0.000000
# 6 0.000000 0.000000 0.000000 -0.006021 0.000000 0.044972
#
#
# Mechanical properties :
#
#
# Convention : Reuss Voigt Hill
#
# Bulk Modulus (GPa) = 37.83033 58.96938 48.39985
# Shear Modulus (GPa) = 21.68465 27.61427 24.64946
#
# Velocity S-wave (km/s) = 3.25074 3.66837 3.46585
# Velocity P-wave (km/s) = 5.70308 6.83223 6.29303
#
# Compressibility (1/GPa) = 0.02643382
#
# Stress axis : x y z
#
# Youngs Moduli (GPa) = 73.66321 27.13088 86.03621
#
# Poissons Ratio (x) = 0.26383 0.40342
# Poissons Ratio (y) = 0.71632 0.29237
# Poissons Ratio (z) = 0.34541 0.09220
#
# Static dielectric constant tensor:
#      x y z
#    x 3.939390 0.000000 0.077750 
#    y 0.000000 3.206040 0.000000 
#    z 0.077750 0.000000 3.844100 
# 
# 
# High freq. dielectric constant tensor:
#      x y z
#    x 1.817160 0.000000 0.007280 
#    y 0.000000 1.744940 0.000000 
#    z 0.007280 0.000000 1.813370 
# 
# From -- ./inp_files/198971.got.cif
#   From: 2010.06.25/outbox.cif.g09.slc.cpg/sg12_100_cif.got.tgz:198971.got - 2010.06.28 00:19:55.
