data_PCOD8092316
_publ_section_title
;
Structure prediction by ZEFSAII (Michael W. Deem and Ramdas Pophale) SiO2 
 PCOD8092316
Probable space group: C 2/M
;
_chemical_formula_sum "Si O2"
_cell_formula_units_Z 56
_cell_length_a 17.909776
_cell_length_b 13.962254
_cell_length_c 13.077261
_cell_angle_alpha 90.000000
_cell_angle_beta 60.333962
_cell_angle_gamma 90.000000
_cell_volume 2841.481251
_symmetry_space_group_name_H-M "C 2/M"
_symmetry_group_IT_number 12
_symmetry_cell_setting 'monoclinic'
loop_
_space_group_symop_operation_xyz
x,y,z
-x,y,-z
-x,-y,-z
x,-y,z
1/2+x,1/2+y,z
1/2-x,1/2+y,-z
1/2-x,1/2-y,-z
1/2+x,1/2-y,z
loop_
_atom_site_type_symbol
_atom_site_label
_atom_site_fract_x
_atom_site_fract_y
_atom_site_fract_z
Si Si1 0.500539 0.208498 0.206587
Si Si2 0.345860 0.112468 0.205513
Si Si3 0.050383 0.612652 0.563250
Si Si4 0.401961 0.392346 0.313121
Si Si5 0.174746 0.270114 0.974237
Si Si6 0.271611 0.888629 0.472437
Si Si7 0.594831 0.395220 0.921343
O O1 0.431116 0.175160 0.168916
O O2 0.503946 0.135629 0.298845
O O3 0.480118 0.315848 0.264693
O O4 0.592191 0.199139 0.093567
O O5 0.304477 0.150443 0.127427
O O6 0.281792 0.130392 0.344295
O O7 0.368292 0.000000 0.180559
O O8 0.055691 0.500000 0.545244
O O9 0.147472 0.653674 0.516889
O O10 0.000000 0.658510 0.500000
O O11 0.428154 0.500000 0.336684
O O12 0.319881 0.345925 0.428635
O O13 0.374497 0.403284 0.215076
O O14 0.164522 0.167281 0.930175
O O15 0.250000 0.250000 0.000000
O O16 0.267144 0.000000 0.499375
O O17 0.592511 0.500000 0.975154
O O18 0.500000 0.347981 0.000000
#
# Coordination Sequence:
#
# PCOD8092316 Si02
#       7
#     8   8   8   8   8   8   8
#     4  11  21  38  60  86 112 152 203 237 281 349
#     4  10  21  40  63  85 116 153 193 240 287 342
#     4   9  19  36  56  83 121 152 180 232 294 351
#     4  10  19  34  62  89 111 142 190 246 284 328
#     4  12  25  39  54  85 121 151 194 243 292 352
#     4   8  17  34  58  89 112 142 192 234 280 342
#     4  10  19  37  61  81 109 151 197 242 283 331
#
# _framework density 19.708030999999998
#
# number of rings (size 3 to 8) (size 9 to 14) (size 15 to 20)
#    0.000    2.000    2.857    1.714    0.000    5.714 
#    2.571    1.429    0.000    0.429    0.000    0.000 
#    0.000    0.000    0.000    0.000    0.000    0.000 
#
# Total GULP energy -347004.062415 kJ/mol
# GULP energy per Si atom -12393.002229 kJ/mol
# Density = 1.966317 g / cm^3
# Si number density = 19.708031 Si / 1000 Ang^3
#
#
#
# Elastic Constant Matrix: (Units=GPa)
#
#
# Indices 1 2 3 4 5 6 
#
# 1 74.9817 30.5065 48.1511 0.0000 13.4844 0.0000
# 2 30.5065 67.6443 18.6151 0.0000 -3.6106 0.0000
# 3 48.1511 18.6151 116.7563 0.0000 -7.6022 0.0000
# 4 0.0000 0.0000 0.0000 26.8874 0.0000 2.4342
# 5 13.4844 -3.6106 -7.6022 0.0000 27.4380 0.0000
# 6 0.0000 0.0000 0.0000 2.4342 0.0000 18.2158
#
#
#
# Elastic Compliance Matrix: (Units=1/GPa)
#
#
# Indices 1 2 3 4 5 6 
#
# 1 0.028007 -0.010562 -0.011053 0.000000 -0.018216 0.000000
# 2 -0.010562 0.019496 0.001785 0.000000 0.008250 0.000000
# 3 -0.011053 0.001785 0.013450 0.000000 0.009393 0.000000
# 4 0.000000 0.000000 0.000000 0.037648 0.000000 -0.005031
# 5 -0.018216 0.008250 0.009393 0.000000 0.049086 0.000000
# 6 0.000000 0.000000 0.000000 -0.005031 0.000000 0.055570
#
#
# Mechanical properties :
#
#
# Convention : Reuss Voigt Hill
#
# Bulk Modulus (GPa) = 46.96212 50.43642 48.69927
# Shear Modulus (GPa) = 19.99891 25.31554 22.65723
#
# Velocity S-wave (km/s) = 3.18898 3.58792 3.39432
# Velocity P-wave (km/s) = 6.11884 6.54306 6.33450
#
# Compressibility (1/GPa) = 0.02129376
#
# Stress axis : x y z
#
# Youngs Moduli (GPa) = 35.70518 51.29371 74.34902
#
# Poissons Ratio (x) = 0.54174 0.82175
# Poissons Ratio (y) = 0.37710 -0.13268
# Poissons Ratio (z) = 0.39463 -0.09154
#
# Static dielectric constant tensor:
#      x y z
#    x 3.441970 0.000000 -0.025290 
#    y 0.000000 3.819930 0.000000 
#    z -0.025290 0.000000 3.776360 
# 
# 
# High freq. dielectric constant tensor:
#      x y z
#    x 1.724280 0.000000 -0.003460 
#    y 0.000000 1.778130 0.000000 
#    z -0.003460 0.000000 1.779090 
# 
# From -- ./inp_files/156493.got.cif
#   From: 2010.06.25/outbox.cif.g09.slc.cpg/sg12_79_cif.got.tgz:156493.got - 2010.06.28 00:19:55.
