data_PCOD8092096
_publ_section_title
;
Structure prediction by ZEFSAII (Michael W. Deem and Ramdas Pophale) SiO2 
 PCOD8092096
Probable space group: C 2/M
;
_chemical_formula_sum "Si O2"
_cell_formula_units_Z 60
_cell_length_a 14.803016
_cell_length_b 10.143041
_cell_length_c 25.408750
_cell_angle_alpha 90.000000
_cell_angle_beta 125.138735
_cell_angle_gamma 90.000000
_cell_volume 3119.808782
_symmetry_space_group_name_H-M "C 2/M"
_symmetry_group_IT_number 12
_symmetry_cell_setting 'monoclinic'
loop_
_space_group_symop_operation_xyz
x,y,z
-x,y,-z
-x,-y,-z
x,-y,z
1/2+x,1/2+y,z
1/2-x,1/2+y,-z
1/2-x,1/2-y,-z
1/2+x,1/2-y,z
loop_
_atom_site_type_symbol
_atom_site_label
_atom_site_fract_x
_atom_site_fract_y
_atom_site_fract_z
Si Si1 0.583632 0.844845 0.070631
Si Si2 0.420891 0.348520 0.579963
Si Si3 0.334466 0.656779 0.148508
Si Si4 0.197205 0.651201 0.293631
Si Si5 0.494148 0.151652 0.152507
Si Si6 0.109925 0.844167 0.717195
Si Si7 0.240598 0.645476 0.597778
Si Si8 0.000000 0.718249 0.500000
O O1 0.707640 0.801249 0.099905
O O2 0.554635 0.801837 0.119881
O O3 0.575285 0.000000 0.063798
O O4 0.500000 0.779934 0.000000
O O5 0.450478 0.500000 0.585943
O O6 0.502148 0.285258 0.651520
O O7 0.294230 0.325562 0.557592
O O8 0.448409 0.298787 0.531062
O O9 0.352975 0.500000 0.145840
O O10 0.395370 0.744602 0.125461
O O11 0.380866 0.707139 0.220279
O O12 0.221767 0.500000 0.318720
O O13 0.282643 0.701800 0.278634
O O14 0.211096 0.742578 0.348835
O O15 0.075696 0.665177 0.229351
O O16 0.451627 0.000000 0.133997
O O17 0.107297 0.000000 0.719270
O O18 0.282112 0.500000 0.629962
O O19 0.106979 0.635925 0.553812
#
# Coordination Sequence:
#
# PCOD8092096 Si02
#       8
#     8   8   8   8   8   8   8   4
#     4   9  18  34  56  81 113 157 199 228 265 327
#     4  10  21  36  58  83 106 140 188 230 269 329
#     4  10  19  34  59  84 111 149 190 229 277 334
#     4  10  19  36  61  84 107 142 187 230 275 329
#     4  10  20  35  57  85 115 143 182 237 284 324
#     4   9  16  32  57  81 104 136 183 232 271 320
#     4  11  24  40  57  83 116 145 176 226 286 333
#     4  12  22  38  58  78 111 150 183 222 273 332
#
# _framework density 19.231947999999999
#
# number of rings (size 3 to 8) (size 9 to 14) (size 15 to 20)
#    0.000    2.000    2.667    1.600    0.000    2.667 
#    0.000    2.667    0.000    0.800    0.000    0.000 
#    0.000    0.000    0.000    0.000    0.000    0.000 
#
# Total GULP energy -371746.349191 kJ/mol
# GULP energy per Si atom -12391.544973 kJ/mol
# Density = 1.918818 g / cm^3
# Si number density = 19.231948 Si / 1000 Ang^3
#
#
#
# Elastic Constant Matrix: (Units=GPa)
#
#
# Indices 1 2 3 4 5 6 
#
# 1 133.6716 50.3758 29.7489 0.0000 13.7751 0.0000
# 2 50.3758 72.0513 29.9429 0.0000 -0.7194 0.0000
# 3 29.7489 29.9429 81.6306 0.0000 2.4787 0.0000
# 4 0.0000 0.0000 0.0000 8.8446 0.0000 3.5988
# 5 13.7751 -0.7194 2.4787 0.0000 17.6515 0.0000
# 6 0.0000 0.0000 0.0000 3.5988 0.0000 27.7308
#
#
#
# Elastic Compliance Matrix: (Units=1/GPa)
#
#
# Indices 1 2 3 4 5 6 
#
# 1 0.011592 -0.007736 -0.001107 0.000000 -0.009206 0.000000
# 2 -0.007736 0.021579 -0.005329 0.000000 0.007665 0.000000
# 3 -0.001107 -0.005329 0.014651 0.000000 -0.001411 0.000000
# 4 0.000000 0.000000 0.000000 0.119366 0.000000 -0.015491
# 5 -0.009206 0.007665 -0.001411 0.000000 0.064347 0.000000
# 6 0.000000 0.000000 0.000000 -0.015491 0.000000 0.038071
#
#
# Mechanical properties :
#
#
# Convention : Reuss Voigt Hill
#
# Bulk Modulus (GPa) = 51.34117 56.38764 53.86441
# Shear Modulus (GPa) = 16.42344 22.66445 19.54394
#
# Velocity S-wave (km/s) = 2.92544 3.43662 3.19128
# Velocity P-wave (km/s) = 6.17776 6.71793 6.45350
#
# Compressibility (1/GPa) = 0.01947755
#
# Stress axis : x y z
#
# Youngs Moduli (GPa) = 86.26937 46.34139 68.25359
#
# Poissons Ratio (x) = 0.35851 0.07556
# Poissons Ratio (y) = 0.66740 0.36371
# Poissons Ratio (z) = 0.09551 0.24694
#
# Static dielectric constant tensor:
#      x y z
#    x 3.683770 0.000000 0.118290 
#    y 0.000000 3.133980 0.000000 
#    z 0.118290 0.000000 3.753380 
# 
# 
# High freq. dielectric constant tensor:
#      x y z
#    x 1.762000 0.000000 0.004830 
#    y 0.000000 1.709940 0.000000 
#    z 0.004830 0.000000 1.746220 
# 
# From -- ./inp_files/357806.got.cif
#   From: 2010.06.25/outbox.cif.g09.slc.cpg/sg12_179_cif.got.tgz:357806.got - 2010.06.28 00:19:55.
