data_PCOD8092633
_publ_section_title
;
Structure prediction by ZEFSAII (Michael W. Deem and Ramdas Pophale) SiO2 
 PCOD8092633
Probable space group: C 2/M
;
_chemical_formula_sum "Si O2"
_cell_formula_units_Z 56
_cell_length_a 8.711659
_cell_length_b 21.943646
_cell_length_c 29.446641
_cell_angle_alpha 90.000000
_cell_angle_beta 146.572772
_cell_angle_gamma 90.000000
_cell_volume 3100.990126
_symmetry_space_group_name_H-M "C 2/M"
_symmetry_group_IT_number 12
_symmetry_cell_setting 'monoclinic'
loop_
_space_group_symop_operation_xyz
x,y,z
-x,y,-z
-x,-y,-z
x,-y,z
1/2+x,1/2+y,z
1/2-x,1/2+y,-z
1/2-x,1/2-y,-z
1/2+x,1/2-y,z
loop_
_atom_site_type_symbol
_atom_site_label
_atom_site_fract_x
_atom_site_fract_y
_atom_site_fract_z
Si Si1 0.449244 0.500000 0.627315
Si Si2 0.081048 0.706961 0.166110
Si Si3 0.316025 0.628262 0.298431
Si Si4 0.391498 0.000000 0.547295
Si Si5 0.047381 0.726593 0.059082
Si Si6 0.358955 0.797952 0.421150
Si Si7 0.821366 0.628592 0.571085
Si Si8 0.009714 0.693895 0.299797
O O1 0.647996 0.556518 0.687636
O O2 0.186212 0.500000 0.595287
O O3 0.354729 0.500000 0.551199
O O4 0.197147 0.647277 0.219904
O O5 0.152877 0.692411 0.130691
O O6 0.224244 0.770271 0.218729
O O7 0.755200 0.717656 0.096972
O O8 0.614891 0.658870 0.379516
O O9 0.087889 0.649520 0.278382
O O10 0.368411 0.057028 0.575358
O O11 0.000000 0.687688 0.000000
O O12 0.750000 0.750000 0.000000
O O13 0.500000 0.767643 0.500000
O O14 0.588776 0.837571 0.452371
O O15 0.252300 0.744376 0.362741
O O16 0.500000 0.642598 0.500000
O O17 0.011061 0.653819 0.659390
#
# Coordination Sequence:
#
# PCOD8092633 Si02
#       8
#     4   8   8   4   8   8   8   8
#     4  11  22  38  58  72 100 149 209 240 287 318
#     4  10  19  35  56  86 124 144 171 223 274 336
#     4  11  22  36  55  76 108 151 188 231 280 325
#     4  11  23  40  54  70  98 146 206 271 274 313
#     4   9  18  33  58  90 121 145 169 202 266 343
#     4  11  21  35  52  73 104 142 187 231 288 347
#     4  12  24  36  53  74 101 144 196 246 289 319
#     4  11  23  34  52  80 113 146 175 231 292 336
#
# _framework density 18.058748999999999
#
# number of rings (size 3 to 8) (size 9 to 14) (size 15 to 20)
#    0.000    1.286    2.857    4.929    2.000    2.286 
#    0.000    0.000    0.000    0.000    0.000    5.000 
#    0.000    0.143    0.000    0.000    0.000    0.000 
#
# Total GULP energy -347050.803086 kJ/mol
# GULP energy per Si atom -12394.671539 kJ/mol
# Density = 1.801765 g / cm^3
# Si number density = 18.058749 Si / 1000 Ang^3
#
#
#
# Elastic Constant Matrix: (Units=GPa)
#
#
# Indices 1 2 3 4 5 6 
#
# 1 97.8899 32.6071 43.8496 0.0014 -15.6036 0.0013
# 2 32.6071 111.5022 37.4494 0.0022 -10.1272 0.0066
# 3 43.8496 37.4494 90.9591 0.0016 -16.5982 0.0034
# 4 0.0014 0.0022 0.0016 8.3824 0.0033 3.5019
# 5 -15.6036 -10.1272 -16.5982 0.0033 45.3130 0.0011
# 6 0.0013 0.0066 0.0034 3.5019 0.0011 22.8898
#
#
#
# Elastic Compliance Matrix: (Units=1/GPa)
#
#
# Indices 1 2 3 4 5 6 
#
# 1 0.013633 -0.001986 -0.005336 -0.000002 0.002296 0.000001
# 2 -0.001986 0.010725 -0.003371 -0.000001 0.000478 -0.000002
# 3 -0.005336 -0.003371 0.015518 -0.000002 0.003094 -0.000001
# 4 -0.000002 -0.000001 -0.000002 0.127443 -0.000011 -0.019498
# 5 0.002296 0.000478 0.003094 -0.000011 0.024100 0.000000
# 6 0.000001 -0.000002 -0.000001 -0.019498 0.000000 0.046671
#
#
# Mechanical properties :
#
#
# Convention : Reuss Voigt Hill
#
# Bulk Modulus (GPa) = 54.07918 58.68484 56.38201
# Shear Modulus (GPa) = 18.82257 27.74672 23.28465
#
# Velocity S-wave (km/s) = 3.23196 3.92404 3.59469
# Velocity P-wave (km/s) = 6.62863 7.28683 6.96551
#
# Compressibility (1/GPa) = 0.01849141
#
# Stress axis : x y z
#
# Youngs Moduli (GPa) = 73.35007 93.24148 64.43936
#
# Poissons Ratio (x) = 0.18520 0.34382
# Poissons Ratio (y) = 0.14569 0.21721
# Poissons Ratio (z) = 0.39136 0.31430
#
# Static dielectric constant tensor:
#      x y z
#    x 3.842220 -0.000020 -0.371740 
#    y -0.000020 3.166970 -0.000010 
#    z -0.371740 -0.000010 3.671930 
# 
# 
# High freq. dielectric constant tensor:
#      x y z
#    x 1.725220 0.000000 -0.005180 
#    y 0.000000 1.661520 0.000000 
#    z -0.005180 0.000000 1.692170 
# 
# From -- ./inp_files/302101.got.cif
#   From: 2010.06.25/outbox.cif.g09.slc.cpg/sg12_152_cif.got.tgz:302101.got - 2010.06.28 00:19:55.
