data_PCOD8092278
_publ_section_title
;
Structure prediction by ZEFSAII (Michael W. Deem and Ramdas Pophale) SiO2 
 PCOD8092278
Probable space group: C 2/M
;
_chemical_formula_sum "Si O2"
_cell_formula_units_Z 48
_cell_length_a 21.250096
_cell_length_b 13.984345
_cell_length_c 12.870079
_cell_angle_alpha 90.000000
_cell_angle_beta 150.880303
_cell_angle_gamma 90.000000
_cell_volume 1861.179395
_symmetry_space_group_name_H-M "C 2/M"
_symmetry_group_IT_number 12
_symmetry_cell_setting 'monoclinic'
loop_
_space_group_symop_operation_xyz
x,y,z
-x,y,-z
-x,-y,-z
x,-y,z
1/2+x,1/2+y,z
1/2-x,1/2+y,-z
1/2-x,1/2-y,-z
1/2+x,1/2-y,z
loop_
_atom_site_type_symbol
_atom_site_label
_atom_site_fract_x
_atom_site_fract_y
_atom_site_fract_z
Si Si1 0.078729 0.898698 0.720021
Si Si2 0.516294 0.892003 0.775697
Si Si3 0.170381 0.245424 0.121540
Si Si4 0.866696 0.699199 0.246504
Si Si5 0.330208 0.392348 0.478786
Si Si6 0.283102 0.390809 0.643332
O O1 0.171505 0.805604 0.856719
O O2 0.000000 0.902663 0.500000
O O3 0.983801 0.889503 0.682273
O O4 0.156079 0.000000 0.841428
O O5 0.604188 0.879993 0.799139
O O6 0.365123 0.878978 0.532751
O O7 0.540397 0.000000 0.854100
O O8 0.550080 0.806820 0.904927
O O9 0.245717 0.176285 0.147250
O O10 0.269336 0.325524 0.304090
O O11 0.127625 0.174908 0.153095
O O12 0.000000 0.713692 0.500000
O O13 0.275042 0.500000 0.386019
O O14 0.298956 0.353796 0.548569
O O15 0.330492 0.500000 0.720566
#
# Coordination Sequence:
#
# PCOD8092278 Si02
#       6
#     8   8   8   8   8   8
#     4   9  16  30  57  89 120 157 201 251 308 367
#     4  11  25  42  63  95 129 167 212 263 321 381
#     4  12  22  39  64  92 125 168 217 262 312 377
#     4  11  20  38  62  92 126 163 213 260 316 376
#     4  10  19  34  60  93 126 165 211 261 312 372
#     4  10  23  42  63  91 130 170 212 260 318 378
#
# _framework density 25.790096999999999
#
# number of rings (size 3 to 8) (size 9 to 14) (size 15 to 20)
#    0.000    1.500    5.000    1.500    0.000    2.333 
#    0.000    3.333    0.000    2.000    0.000   11.667 
#    0.000    0.000    0.000    0.000    0.000    0.000 
#
# Total GULP energy -297506.419159 kJ/mol
# GULP energy per Si atom -12396.100798 kJ/mol
# Density = 2.573140 g / cm^3
# Si number density = 25.790097 Si / 1000 Ang^3
#
#
#
# Elastic Constant Matrix: (Units=GPa)
#
#
# Indices 1 2 3 4 5 6 
#
# 1 109.0418 22.4735 16.3096 0.0000 -12.8043 0.0000
# 2 22.4735 105.7190 35.9027 0.0000 -0.0470 0.0000
# 3 16.3096 35.9027 50.3426 0.0000 -14.1190 0.0000
# 4 0.0000 0.0000 0.0000 -26.2585 0.0000 26.0119
# 5 -12.8043 -0.0470 -14.1190 0.0000 27.0825 0.0000
# 6 0.0000 0.0000 0.0000 26.0119 0.0000 21.1445
#
#
#
# Elastic Compliance Matrix: (Units=1/GPa)
#
#
# Indices 1 2 3 4 5 6 
#
# 1 0.010195 -0.001939 -0.000667 0.000000 0.004469 0.000000
# 2 -0.001939 0.013566 -0.010890 0.000000 -0.006570 0.000000
# 3 -0.000667 -0.010890 0.032505 0.000000 0.016612 0.000000
# 4 0.000000 0.000000 0.000000 -0.017165 0.000000 0.021116
# 5 0.004469 -0.006570 0.016612 0.000000 0.047686 0.000000
# 6 0.000000 0.000000 0.000000 0.021116 0.000000 0.021316
#
#
# Mechanical properties :
#
#
# Convention : Reuss Voigt Hill
#
# Bulk Modulus (GPa) = 34.15793 46.05278 40.10536
# Shear Modulus (GPa) = 34.51771 17.08822 25.80296
#
# Velocity S-wave (km/s) = 3.66240 2.57687 3.16650
# Velocity P-wave (km/s) = 5.58189 5.17197 5.38084
#
# Compressibility (1/GPa) = 0.02927577
#
# Stress axis : x y z
#
# Youngs Moduli (GPa) = 98.08834 73.71105 30.76442
#
# Poissons Ratio (x) = 0.14291 0.02051
# Poissons Ratio (y) = 0.19017 0.33502
# Poissons Ratio (z) = 0.06540 0.80270
#
# Static dielectric constant tensor:
#      x y z
#    x 4.581430 0.000000 -0.172570 
#    y 0.000000 5.014570 0.000000 
#    z -0.172570 0.000000 4.437100 
# 
# 
# High freq. dielectric constant tensor:
#      x y z
#    x 2.032210 0.000000 -0.007310 
#    y 0.000000 2.040530 0.000000 
#    z -0.007310 0.000000 2.017410 
# 
# From -- ./inp_files/167653.got.cif
#   From: 2010.06.25/outbox.cif.g09.slc.cpg/sg12_84_cif.got.tgz:167653.got - 2010.06.28 00:19:55.
