data_PCOD8092534
_publ_section_title
;
Structure prediction by ZEFSAII (Michael W. Deem and Ramdas Pophale) SiO2 
 PCOD8092534
Probable space group: C 2/M
;
_chemical_formula_sum "Si O2"
_cell_formula_units_Z 64
_cell_length_a 20.366227
_cell_length_b 9.082198
_cell_length_c 19.794250
_cell_angle_alpha 90.000000
_cell_angle_beta 101.480740
_cell_angle_gamma 90.000000
_cell_volume 3588.087122
_symmetry_space_group_name_H-M "C 2/M"
_symmetry_group_IT_number 12
_symmetry_cell_setting 'monoclinic'
loop_
_space_group_symop_operation_xyz
x,y,z
-x,y,-z
-x,-y,-z
x,-y,z
1/2+x,1/2+y,z
1/2-x,1/2+y,-z
1/2-x,1/2-y,-z
1/2+x,1/2-y,z
loop_
_atom_site_type_symbol
_atom_site_label
_atom_site_fract_x
_atom_site_fract_y
_atom_site_fract_z
Si Si1 0.790039 0.329721 0.424079
Si Si2 0.844845 0.669519 0.569236
Si Si3 0.269509 0.174625 0.130535
Si Si4 0.253905 0.829293 0.275903
Si Si5 0.865553 0.670764 0.925949
Si Si6 0.904439 0.330717 0.084901
Si Si7 0.964425 0.172159 0.844241
Si Si8 0.112895 0.170637 0.301356
O O1 0.765898 0.500000 0.427225
O O2 0.852232 0.301624 0.488973
O O3 0.729934 0.220785 0.429144
O O4 0.807646 0.300970 0.348109
O O5 0.853543 0.500000 0.588501
O O6 0.898771 0.753744 0.627476
O O7 0.278235 0.236189 0.209333
O O8 0.206318 0.252430 0.083324
O O9 0.334753 0.222651 0.102581
O O10 0.258668 0.000000 0.124223
O O11 0.181295 0.764653 0.282203
O O12 0.243606 0.000000 0.260067
O O13 0.855678 0.500000 0.906314
O O14 0.910156 0.745012 0.878041
O O15 0.903464 0.690456 0.004504
O O16 0.919357 0.500000 0.107026
O O17 0.961550 0.229182 0.127570
O O18 0.948155 0.202706 0.761991
O O19 0.959498 0.000000 0.860244
O O20 0.121130 0.000000 0.318119
#
# Coordination Sequence:
#
# PCOD8092534 Si02
#       8
#     8   8   8   8   8   8   8   8
#     4   8  14  24  37  59  94 128 158 194 236 284
#     4   9  15  22  37  63  93 125 157 194 242 289
#     4  10  19  35  56  76 101 136 174 203 244 306
#     4   8  13  26  47  67  91 125 163 200 235 282
#     4  11  22  36  54  77 105 131 162 211 262 300
#     4  10  23  38  52  75 106 134 163 210 261 300
#     4  11  22  37  56  75  97 133 175 211 252 307
#     4   9  17  30  46  66  93 125 162 203 246 292
#
# _framework density 17.836803
#
# number of rings (size 3 to 8) (size 9 to 14) (size 15 to 20)
#    0.000    2.500    1.250    2.625    0.000    4.500 
#    0.000    0.000    0.000    0.000    0.000    0.875 
#    0.000    7.000    0.000    0.000    0.000    0.000 
#
# Total GULP energy -396496.293089 kJ/mol
# GULP energy per Si atom -12390.509159 kJ/mol
# Density = 1.779621 g / cm^3
# Si number density = 17.836803 Si / 1000 Ang^3
#
#
#
# Elastic Constant Matrix: (Units=GPa)
#
#
# Indices 1 2 3 4 5 6 
#
# 1 67.3789 35.2093 28.2771 0.0000 16.7623 0.0000
# 2 35.2093 69.1508 45.3021 0.0000 14.3261 0.0000
# 3 28.2771 45.3021 113.6756 0.0000 25.7924 0.0000
# 4 0.0000 0.0000 0.0000 27.4291 0.0000 6.3608
# 5 16.7623 14.3261 25.7924 0.0000 16.4294 0.0000
# 6 0.0000 0.0000 0.0000 6.3608 0.0000 22.9275
#
#
#
# Elastic Compliance Matrix: (Units=1/GPa)
#
#
# Indices 1 2 3 4 5 6 
#
# 1 0.023715 -0.009564 0.002345 0.000000 -0.019538 0.000000
# 2 -0.009564 0.024039 -0.007237 0.000000 0.000156 0.000000
# 3 0.002345 -0.007237 0.015857 0.000000 -0.020976 0.000000
# 4 0.000000 0.000000 0.000000 0.038964 0.000000 -0.010810
# 5 -0.019538 0.000156 -0.020976 0.000000 0.113594 0.000000
# 6 0.000000 0.000000 0.000000 -0.010810 0.000000 0.046615
#
#
# Mechanical properties :
#
#
# Convention : Reuss Voigt Hill
#
# Bulk Modulus (GPa) = 28.81746 51.97580 40.39663
# Shear Modulus (GPa) = 16.48739 22.78500 19.63619
#
# Velocity S-wave (km/s) = 3.04361 3.57797 3.32155
# Velocity P-wave (km/s) = 5.34253 6.80236 6.11616
#
# Compressibility (1/GPa) = 0.03470119
#
# Stress axis : x y z
#
# Youngs Moduli (GPa) = 42.16664 41.59895 63.06401
#
# Poissons Ratio (x) = 0.39784 -0.14790
# Poissons Ratio (y) = 0.40327 0.45637
# Poissons Ratio (z) = -0.09889 0.30103
#
# Static dielectric constant tensor:
#      x y z
#    x 2.907400 0.000000 0.084810 
#    y 0.000000 3.248260 0.000000 
#    z 0.084810 0.000000 3.938900 
# 
# 
# High freq. dielectric constant tensor:
#      x y z
#    x 1.631550 0.000000 0.013070 
#    y 0.000000 1.682380 0.000000 
#    z 0.013070 0.000000 1.718390 
# 
# From -- ./inp_files/319235.got.cif
#   From: 2010.06.25/outbox.cif.g09.slc.cpg/sg12_160_cif.got.tgz:319235.got - 2010.06.28 00:19:55.
