data_PCOD8092163
_publ_section_title
;
Structure prediction by ZEFSAII (Michael W. Deem and Ramdas Pophale) SiO2 
 PCOD8092163
Probable space group: C 2/M
;
_chemical_formula_sum "Si O2"
_cell_formula_units_Z 48
_cell_length_a 29.322845
_cell_length_b 8.557277
_cell_length_c 14.965008
_cell_angle_alpha 90.000000
_cell_angle_beta 140.099933
_cell_angle_gamma 90.000000
_cell_volume 2408.695026
_symmetry_space_group_name_H-M "C 2/M"
_symmetry_group_IT_number 12
_symmetry_cell_setting 'monoclinic'
loop_
_space_group_symop_operation_xyz
x,y,z
-x,y,-z
-x,-y,-z
x,-y,z
1/2+x,1/2+y,z
1/2-x,1/2+y,-z
1/2-x,1/2-y,-z
1/2+x,1/2-y,z
loop_
_atom_site_type_symbol
_atom_site_label
_atom_site_fract_x
_atom_site_fract_y
_atom_site_fract_z
Si Si1 0.348476 0.819886 0.302166
Si Si2 0.403719 0.818073 0.913040
Si Si3 0.590778 0.681585 0.778368
Si Si4 0.695724 0.817899 0.077013
Si Si5 0.930545 0.180986 0.581395
Si Si6 0.049787 0.180639 0.189667
O O1 0.393781 0.714805 0.302043
O O2 0.375072 0.782371 0.441773
O O3 0.361341 0.000000 0.298913
O O4 0.265483 0.784222 0.168810
O O5 0.395334 0.725210 0.806896
O O6 0.400484 0.000000 0.886704
O O7 0.340534 0.767955 0.884148
O O8 0.478419 0.780845 0.072385
O O9 0.602874 0.500000 0.818748
O O10 0.643059 0.785481 0.916241
O O11 0.510579 0.732158 0.678779
O O12 0.715822 0.000000 0.106924
O O13 0.914509 0.216398 0.661327
O O14 0.918450 0.000000 0.540250
O O15 0.027928 0.000000 0.149841
#
# Coordination Sequence:
#
# PCOD8092163 Si02
#       6
#     8   8   8   8   8   8
#     4  12  26  40  58  85 119 156 196 242 293 348
#     4  10  20  34  57  88 118 149 189 239 288 337
#     4  11  22  40  64  87 116 153 197 242 288 345
#     4  11  23  40  61  86 119 156 196 241 289 344
#     4  10  22  40  61  87 118 155 194 237 289 345
#     4  10  19  34  59  88 117 150 190 235 285 344
#
# _framework density 19.927803000000001
#
# number of rings (size 3 to 8) (size 9 to 14) (size 15 to 20)
#    0.000    1.333    1.667    5.500    0.000    6.667 
#    0.000    0.833    0.000    0.000    0.000    0.000 
#    0.000    0.000    0.000    0.000    0.000    0.000 
#
# Total GULP energy -297734.016759 kJ/mol
# GULP energy per Si atom -12405.584032 kJ/mol
# Density = 1.988245 g / cm^3
# Si number density = 19.927803 Si / 1000 Ang^3
#
#
#
# Elastic Constant Matrix: (Units=GPa)
#
#
# Indices 1 2 3 4 5 6 
#
# 1 76.2544 23.5649 15.8859 0.0000 -24.9491 0.0000
# 2 23.5649 49.2091 16.6529 0.0000 -2.5205 0.0000
# 3 15.8859 16.6529 78.5830 0.0000 -13.2175 0.0000
# 4 0.0000 0.0000 0.0000 33.8746 0.0000 -3.7609
# 5 -24.9491 -2.5205 -13.2175 0.0000 27.0188 0.0000
# 6 0.0000 0.0000 0.0000 -3.7609 0.0000 26.1945
#
#
#
# Elastic Compliance Matrix: (Units=1/GPa)
#
#
# Indices 1 2 3 4 5 6 
#
# 1 0.022793 -0.010205 0.001019 0.000000 0.020594 0.000000
# 2 -0.010205 0.026462 -0.005137 0.000000 -0.009468 0.000000
# 3 0.001019 -0.005137 0.014913 0.000000 0.007757 0.000000
# 4 0.000000 0.000000 0.000000 0.029999 0.000000 0.004307
# 5 0.020594 -0.009468 0.007757 0.000000 0.058939 0.000000
# 6 0.000000 0.000000 0.000000 0.004307 0.000000 0.038794
#
#
# Mechanical properties :
#
#
# Convention : Reuss Voigt Hill
#
# Bulk Modulus (GPa) = 28.15244 35.13933 31.64588
# Shear Modulus (GPa) = 21.51582 27.28044 24.39813
#
# Velocity S-wave (km/s) = 3.28943 3.70396 3.50283
# Velocity P-wave (km/s) = 5.34649 5.99701 5.68107
#
# Compressibility (1/GPa) = 0.03552090
#
# Stress axis : x y z
#
# Youngs Moduli (GPa) = 43.87252 37.79026 67.05657
#
# Poissons Ratio (x) = 0.38565 -0.06831
# Poissons Ratio (y) = 0.44772 0.34448
# Poissons Ratio (z) = -0.04469 0.19413
#
# Static dielectric constant tensor:
#      x y z
#    x 3.888500 0.000000 -0.188430 
#    y 0.000000 3.570780 0.000000 
#    z -0.188430 0.000000 3.422800 
# 
# 
# High freq. dielectric constant tensor:
#      x y z
#    x 1.787920 0.000000 -0.015910 
#    y 0.000000 1.782730 0.000000 
#    z -0.015910 0.000000 1.761080 
# 
# From -- ./inp_files/244881.got.cif
#   From: 2010.06.25/outbox.cif.g09.slc.cpg/sg12_123_cif.got.tgz:244881.got - 2010.06.28 00:19:55.
