data_PCOD8092600
_publ_section_title
;
Structure prediction by ZEFSAII (Michael W. Deem and Ramdas Pophale) SiO2 
 PCOD8092600
Probable space group: C 2/M
;
_chemical_formula_sum "Si O2"
_cell_formula_units_Z 56
_cell_length_a 23.443524
_cell_length_b 16.138731
_cell_length_c 8.964258
_cell_angle_alpha 90.000000
_cell_angle_beta 118.670665
_cell_angle_gamma 90.000000
_cell_volume 2975.776128
_symmetry_space_group_name_H-M "C 2/M"
_symmetry_group_IT_number 12
_symmetry_cell_setting 'monoclinic'
loop_
_space_group_symop_operation_xyz
x,y,z
-x,y,-z
-x,-y,-z
x,-y,z
1/2+x,1/2+y,z
1/2-x,1/2+y,-z
1/2-x,1/2-y,-z
1/2+x,1/2-y,z
loop_
_atom_site_type_symbol
_atom_site_label
_atom_site_fract_x
_atom_site_fract_y
_atom_site_fract_z
Si Si1 0.015899 0.821047 0.183586
Si Si2 0.220105 0.687667 0.634197
Si Si3 0.110712 0.000000 0.649765
Si Si4 0.891625 0.735909 0.095527
Si Si5 0.804161 0.156107 0.189598
Si Si6 0.852305 0.755056 0.715046
Si Si7 0.998957 0.000000 0.265962
Si Si8 0.679774 0.095190 0.862153
O O1 0.090496 0.797995 0.311007
O O2 0.006296 0.919047 0.175796
O O3 0.963855 0.772028 0.222304
O O4 0.000000 0.789891 0.000000
O O5 0.209861 0.776880 0.700319
O O6 0.176627 0.683325 0.428848
O O7 0.295444 0.678432 0.680134
O O8 0.200690 0.612722 0.717892
O O9 0.153654 0.082292 0.687344
O O10 0.054971 0.000000 0.458040
O O11 0.074157 0.000000 0.762093
O O12 0.839099 0.801496 0.091975
O O13 0.883605 0.649238 0.173375
O O14 0.879333 0.719376 0.904703
O O15 0.736885 0.118922 0.047124
O O16 0.660811 0.000000 0.853926
#
# Coordination Sequence:
#
# PCOD8092600 Si02
#       8
#     8   8   4   8   8   8   4   8
#     4  10  21  35  57  79 112 153 183 220 273 336
#     4  10  20  35  57  80 114 142 184 228 277 330
#     4  11  22  30  56  80 118 147 177 231 272 318
#     4  10  19  37  58  79 106 145 194 224 266 329
#     4  11  18  35  55  79 108 149 184 225 272 322
#     4  10  19  35  56  81 108 148 182 221 272 333
#     4  11  21  36  44  86 123 145 184 217 269 336
#     4  11  21  36  58  82 107 138 188 237 276 319
#
# _framework density 18.818619999999999
#
# number of rings (size 3 to 8) (size 9 to 14) (size 15 to 20)
#    0.000    1.571    5.000    1.929    0.000    0.000 
#    1.286    0.714    4.714    5.571    0.000    0.000 
#    0.000    0.000    0.000    0.000    0.000    0.000 
#
# Total GULP energy -347095.791445 kJ/mol
# GULP energy per Si atom -12396.278266 kJ/mol
# Density = 1.877579 g / cm^3
# Si number density = 18.818620 Si / 1000 Ang^3
#
#
#
# Elastic Constant Matrix: (Units=GPa)
#
#
# Indices 1 2 3 4 5 6 
#
# 1 124.0102 48.4095 20.2964 0.0000 15.8333 0.0000
# 2 48.4095 116.4111 11.8571 0.0000 8.2180 0.0000
# 3 20.2964 11.8571 56.1794 0.0000 -0.0212 0.0000
# 4 0.0000 0.0000 0.0000 19.1424 0.0000 -2.6563
# 5 15.8333 8.2180 -0.0212 0.0000 23.4345 0.0000
# 6 0.0000 0.0000 0.0000 -2.6563 0.0000 17.1572
#
#
#
# Elastic Compliance Matrix: (Units=1/GPa)
#
#
# Indices 1 2 3 4 5 6 
#
# 1 0.010802 -0.003753 -0.003113 0.000000 -0.005985 0.000000
# 2 -0.003753 0.010311 -0.000821 0.000000 -0.001081 0.000000
# 3 -0.003113 -0.000821 0.019099 0.000000 0.002408 0.000000
# 4 0.000000 0.000000 0.000000 0.053387 0.000000 0.008266
# 5 -0.005985 -0.001081 0.002408 0.000000 0.047097 0.000000
# 6 0.000000 0.000000 0.000000 0.008266 0.000000 0.059564
#
#
# Mechanical properties :
#
#
# Convention : Reuss Voigt Hill
#
# Bulk Modulus (GPa) = 40.25873 50.85854 45.55864
# Shear Modulus (GPa) = 22.33010 26.34934 24.33972
#
# Velocity S-wave (km/s) = 3.44844 3.74595 3.60027
# Velocity P-wave (km/s) = 6.10697 6.76711 6.44550
#
# Compressibility (1/GPa) = 0.02483933
#
# Stress axis : x y z
#
# Youngs Moduli (GPa) = 92.57177 96.98684 52.35901
#
# Poissons Ratio (x) = 0.36395 0.16299
# Poissons Ratio (y) = 0.34738 0.04298
# Poissons Ratio (z) = 0.28817 0.07961
#
# Static dielectric constant tensor:
#      x y z
#    x 3.881650 0.000000 0.045110 
#    y 0.000000 3.263460 0.000000 
#    z 0.045110 0.000000 3.361790 
# 
# 
# High freq. dielectric constant tensor:
#      x y z
#    x 1.743070 0.000000 -0.003620 
#    y 0.000000 1.697540 0.000000 
#    z -0.003620 0.000000 1.726450 
# 
# From -- ./inp_files/97009.got.cif
#   From: 2010.06.25/outbox.cif.g09.slc.cpg/sg12_49_cif.got.tgz:97009.got - 2010.06.28 00:19:55.
