data_PCOD8092128
_publ_section_title
;
Structure prediction by ZEFSAII (Michael W. Deem and Ramdas Pophale) SiO2 
 PCOD8092128
Probable space group: C 2/M
;
_chemical_formula_sum "Si O2"
_cell_formula_units_Z 56
_cell_length_a 15.807820
_cell_length_b 9.180829
_cell_length_c 22.947446
_cell_angle_alpha 90.000000
_cell_angle_beta 57.777290
_cell_angle_gamma 90.000000
_cell_volume 2817.405132
_symmetry_space_group_name_H-M "C 2/M"
_symmetry_group_IT_number 12
_symmetry_cell_setting 'monoclinic'
loop_
_space_group_symop_operation_xyz
x,y,z
-x,y,-z
-x,-y,-z
x,-y,z
1/2+x,1/2+y,z
1/2-x,1/2+y,-z
1/2-x,1/2-y,-z
1/2+x,1/2-y,z
loop_
_atom_site_type_symbol
_atom_site_label
_atom_site_fract_x
_atom_site_fract_y
_atom_site_fract_z
Si Si1 0.207001 0.831430 0.341683
Si Si2 0.084151 0.834003 0.929030
Si Si3 0.566580 0.336227 0.200253
Si Si4 0.779713 0.665515 0.931439
Si Si5 0.985888 0.168402 0.653618
Si Si6 0.195183 0.673219 0.572905
Si Si7 0.865017 0.833489 0.213519
O O1 0.088575 0.801677 0.373856
O O2 0.242342 0.779693 0.392564
O O3 0.266824 0.748636 0.269795
O O4 0.231713 0.000000 0.324689
O O5 0.190649 0.822079 0.919134
O O6 0.092800 0.761798 0.861974
O O7 0.048258 0.000000 0.933200
O O8 0.000000 0.754391 0.000000
O O9 0.603820 0.500000 0.172980
O O10 0.624069 0.229352 0.136110
O O11 0.578484 0.298677 0.264137
O O12 0.448611 0.320438 0.232209
O O13 0.803060 0.500000 0.940245
O O14 0.750000 0.750000 0.000000
O O15 0.080971 0.273300 0.616112
O O16 0.022223 0.000000 0.640128
O O17 0.195953 0.500000 0.564346
O O18 0.250000 0.750000 0.500000
O O19 0.833805 0.000000 0.212959
#
# Coordination Sequence:
#
# PCOD8092128 Si02
#       7
#     8   8   8   8   8   8   8
#     4  10  22  39  61  90 124 158 195 247 306 355
#     4   9  18  33  52  75 106 143 189 240 291 347
#     4  10  20  35  58  85 114 150 190 238 293 354
#     4  11  22  35  53  77 108 148 192 244 299 355
#     4  10  21  40  64  91 123 160 200 245 300 361
#     4  11  24  42  64  91 125 163 201 248 301 359
#     4  10  19  34  59  86 112 151 197 242 292 354
#
# _framework density 19.876445
#
# number of rings (size 3 to 8) (size 9 to 14) (size 15 to 20)
#    0.000    1.857    1.429    2.571    0.000    5.143 
#    0.000    3.571    0.000    3.000    0.000    0.000 
#    0.000    0.000    0.000    0.000    0.000    0.000 
#
# Total GULP energy -347175.045276 kJ/mol
# GULP energy per Si atom -12399.108760 kJ/mol
# Density = 1.983121 g / cm^3
# Si number density = 19.876445 Si / 1000 Ang^3
#
#
#
# Elastic Constant Matrix: (Units=GPa)
#
#
# Indices 1 2 3 4 5 6 
#
# 1 106.5767 41.6770 50.9883 0.0000 8.9476 0.0001
# 2 41.6770 80.0485 53.4531 0.0000 -2.5106 0.0002
# 3 50.9883 53.4531 123.9445 0.0000 7.3327 0.0000
# 4 0.0000 0.0000 0.0000 35.1225 0.0000 -6.2665
# 5 8.9476 -2.5106 7.3327 0.0000 28.5462 0.0000
# 6 0.0001 0.0002 0.0000 -6.2665 0.0000 26.4460
#
#
#
# Elastic Compliance Matrix: (Units=1/GPa)
#
#
# Indices 1 2 3 4 5 6 
#
# 1 0.013065 -0.004885 -0.003046 0.000000 -0.003742 0.000000
# 2 -0.004885 0.019732 -0.006796 0.000000 0.005012 0.000000
# 3 -0.003046 -0.006796 0.012420 0.000000 -0.002833 0.000000
# 4 0.000000 0.000000 0.000000 0.029729 0.000000 0.007044
# 5 -0.003742 0.005012 -0.002833 0.000000 0.037373 0.000000
# 6 0.000000 0.000000 0.000000 0.007044 0.000000 0.039482
#
#
# Mechanical properties :
#
#
# Convention : Reuss Voigt Hill
#
# Bulk Modulus (GPa) = 63.45052 66.97850 65.21451
# Shear Modulus (GPa) = 26.80831 28.98635 27.89733
#
# Velocity S-wave (km/s) = 3.67651 3.82295 3.75045
# Velocity P-wave (km/s) = 7.07207 7.29775 7.18579
#
# Compressibility (1/GPa) = 0.01576031
#
# Stress axis : x y z
#
# Youngs Moduli (GPa) = 76.54060 50.68038 80.51530
#
# Poissons Ratio (x) = 0.24759 0.24528
# Poissons Ratio (y) = 0.37393 0.54721
# Poissons Ratio (z) = 0.23317 0.34444
#
# Static dielectric constant tensor:
#      x y z
#    x 6.960060 0.000000 0.420020 
#    y 0.000000 3.515770 0.000000 
#    z 0.420020 0.000000 3.648990 
# 
# 
# High freq. dielectric constant tensor:
#      x y z
#    x 1.785620 0.000000 0.008220 
#    y 0.000000 1.754650 0.000000 
#    z 0.008220 0.000000 1.779620 
# 
# From -- ./inp_files/308901.got.cif
#   From: 2010.06.25/outbox.cif.g09.slc.cpg/sg12_155_cif.got.tgz:308901.got - 2010.06.28 00:19:55.
