data_PCOD8092290
_publ_section_title
;
Structure prediction by ZEFSAII (Michael W. Deem and Ramdas Pophale) SiO2 
 PCOD8092290
Probable space group: C 2/M
;
_chemical_formula_sum "Si O2"
_cell_formula_units_Z 56
_cell_length_a 15.868129
_cell_length_b 17.304251
_cell_length_c 15.675031
_cell_angle_alpha 90.000000
_cell_angle_beta 38.281283
_cell_angle_gamma 90.000000
_cell_volume 2666.515509
_symmetry_space_group_name_H-M "C 2/M"
_symmetry_group_IT_number 12
_symmetry_cell_setting 'monoclinic'
loop_
_space_group_symop_operation_xyz
x,y,z
-x,y,-z
-x,-y,-z
x,-y,z
1/2+x,1/2+y,z
1/2-x,1/2+y,-z
1/2-x,1/2-y,-z
1/2+x,1/2-y,z
loop_
_atom_site_type_symbol
_atom_site_label
_atom_site_fract_x
_atom_site_fract_y
_atom_site_fract_z
Si Si1 0.550169 0.589552 0.546762
Si Si2 0.642324 0.090147 0.671551
Si Si3 0.101580 0.832531 0.994934
Si Si4 0.869982 0.908677 0.845591
Si Si5 0.688157 0.086792 0.274594
Si Si6 0.573587 0.150949 0.028457
Si Si7 0.370666 0.086338 0.500839
O O1 0.500000 0.630845 0.500000
O O2 0.509572 0.500000 0.579003
O O3 0.709598 0.602128 0.408901
O O4 0.477262 0.623370 0.689407
O O5 0.530082 0.135734 0.812959
O O6 0.654357 0.129559 0.568186
O O7 0.598907 0.000000 0.702463
O O8 0.250542 0.857192 0.844834
O O9 0.082255 0.869461 0.103673
O O10 0.098712 0.741399 0.004022
O O11 0.000000 0.862455 0.000000
O O12 0.880284 0.000000 0.851377
O O13 0.717193 0.889791 0.934489
O O14 0.529614 0.082497 0.388138
O O15 0.709304 0.122253 0.354008
O O16 0.749630 0.000000 0.217454
O O17 0.500000 0.120345 0.000000
O O18 0.311161 0.000000 0.538835
#
# Coordination Sequence:
#
# PCOD8092290 Si02
#       7
#     8   8   8   8   8   8   8
#     4   9  19  35  57  87 120 147 191 261 320 360
#     4  10  19  34  61  89 113 150 203 258 307 358
#     4  11  25  40  59  86 133 173 205 245 306 379
#     4  11  23  40  66  95 121 159 210 264 319 369
#     4   9  17  33  57  85 119 155 199 250 298 355
#     4  11  24  42  63  85 127 169 213 256 305 369
#     4   8  16  30  55  88 115 145 192 254 308 352
#
# _framework density 21.001190000000001
#
# number of rings (size 3 to 8) (size 9 to 14) (size 15 to 20)
#    0.000    2.143    0.000    3.857    2.000    4.571 
#    0.000    0.714   18.857    0.000    0.000    0.000 
#    0.000    0.000    0.000    0.000    0.000    0.000 
#
# Total GULP energy -346871.467318 kJ/mol
# GULP energy per Si atom -12388.266690 kJ/mol
# Density = 2.095339 g / cm^3
# Si number density = 21.001190 Si / 1000 Ang^3
#
#
#
# Elastic Constant Matrix: (Units=GPa)
#
#
# Indices 1 2 3 4 5 6 
#
# 1 92.7110 19.3562 16.5602 0.0007 24.4663 -0.0002
# 2 19.3562 54.0133 30.5550 0.0007 6.7333 -0.0001
# 3 16.5602 30.5550 123.6616 0.0014 21.7322 -0.0005
# 4 0.0007 0.0007 0.0014 -2.0766 -0.0008 7.4474
# 5 24.4663 6.7333 21.7322 -0.0008 36.5617 0.0003
# 6 -0.0002 -0.0001 -0.0005 7.4474 0.0003 32.9367
#
#
#
# Elastic Compliance Matrix: (Units=1/GPa)
#
#
# Indices 1 2 3 4 5 6 
#
# 1 0.013917 -0.004308 0.000779 0.000004 -0.008983 -0.000001
# 2 -0.004308 0.022882 -0.005408 0.000001 0.001883 0.000000
# 3 0.000779 -0.005408 0.010312 0.000005 -0.005655 -0.000001
# 4 0.000004 0.000001 0.000005 -0.265921 -0.000013 0.060128
# 5 -0.008983 0.001883 -0.005655 -0.000013 0.036377 0.000002
# 6 -0.000001 0.000000 -0.000001 0.060128 0.000002 0.016765
#
#
# Mechanical properties :
#
#
# Convention : Reuss Voigt Hill
#
# Bulk Modulus (GPa) = 34.20218 44.81429 39.50824
# Shear Modulus (GPa) = -36.21948 27.07867 -4.57041
#
# Velocity S-wave (km/s) = -4.15738 3.59470 -1.47682
# Velocity P-wave (km/s) = 2.59305 6.21405 3.99315
#
# Compressibility (1/GPa) = 0.02923790
#
# Stress axis : x y z
#
# Youngs Moduli (GPa) = 71.85431 43.70176 96.97186
#
# Poissons Ratio (x) = 0.18829 -0.07559
# Poissons Ratio (y) = 0.30958 0.52442
# Poissons Ratio (z) = -0.05601 0.23634
#
# Static dielectric constant tensor:
#      x y z
#    x 2.384220 -0.000010 -0.784510 
#    y -0.000010 3.327150 0.000000 
#    z -0.784510 0.000000 3.290580 
# 
# 
# High freq. dielectric constant tensor:
#      x y z
#    x 1.840660 0.000000 0.014500 
#    y 0.000000 1.776470 0.000000 
#    z 0.014500 0.000000 1.838650 
# 
# From -- ./inp_files/217685.got.cif
#   From: 2010.06.25/outbox.cif.g09.slc.cpg/sg12_109_cif.got.tgz:217685.got - 2010.06.28 00:19:55.
