data_PCOD8092794
_publ_section_title
;
Structure prediction by ZEFSAII (Michael W. Deem and Ramdas Pophale) SiO2 
 PCOD8092794
Probable space group: C 2/M
;
_chemical_formula_sum "Si O2"
_cell_formula_units_Z 48
_cell_length_a 22.124829
_cell_length_b 14.735298
_cell_length_c 24.080740
_cell_angle_alpha 90.000000
_cell_angle_beta 18.930252
_cell_angle_gamma 90.000000
_cell_volume 2546.901499
_symmetry_space_group_name_H-M "C 2/M"
_symmetry_group_IT_number 12
_symmetry_cell_setting 'monoclinic'
loop_
_space_group_symop_operation_xyz
x,y,z
-x,y,-z
-x,-y,-z
x,-y,z
1/2+x,1/2+y,z
1/2-x,1/2+y,-z
1/2-x,1/2-y,-z
1/2+x,1/2-y,z
loop_
_atom_site_type_symbol
_atom_site_label
_atom_site_fract_x
_atom_site_fract_y
_atom_site_fract_z
Si Si1 0.073070 0.134157 0.653744
Si Si2 0.771818 0.099278 0.837619
Si Si3 0.889181 0.099826 0.929775
Si Si4 0.522160 0.212854 0.849274
Si Si5 0.469024 0.164077 0.284083
Si Si6 0.785941 0.104015 0.698654
O O1 0.293315 0.107550 0.461653
O O2 0.035798 0.240894 0.680156
O O3 0.983285 0.091360 0.676072
O O4 0.972275 0.095764 0.795753
O O5 0.755846 0.132605 0.788431
O O6 0.677090 0.000000 0.923734
O O7 0.672952 0.169804 0.964000
O O8 0.995570 0.177388 0.872913
O O9 0.921516 0.000000 0.928689
O O10 0.666631 0.116073 0.121337
O O11 0.573062 0.179792 0.744007
O O12 0.678619 0.178409 0.755582
O O13 0.000000 0.113689 0.500000
O O14 0.719548 0.000000 0.744996
#
# Coordination Sequence:
#
# PCOD8092794 Si02
#       6
#     8   8   8   8   8   8
#     4  10  19  35  57  85 114 146 185 232 280 332
#     4  11  20  33  56  83 111 142 178 225 284 344
#     4  11  22  37  56  82 117 153 193 232 272 326
#     4  11  20  37  55  81 114 150 186 230 280 331
#     4  10  20  35  57  81 114 152 188 226 280 331
#     4  10  22  37  56  85 112 141 183 229 287 348
#
# _framework density 18.846430000000002
#
# number of rings (size 3 to 8) (size 9 to 14) (size 15 to 20)
#    0.000    1.500    3.333    3.500    0.000    3.333 
#    0.000    0.000    0.000    2.500    0.000    0.000 
#    0.000    0.000    0.000    0.000    0.000    0.000 
#
# Total GULP energy -297429.595415 kJ/mol
# GULP energy per Si atom -12392.899809 kJ/mol
# Density = 1.880353 g / cm^3
# Si number density = 18.846430 Si / 1000 Ang^3
#
#
#
# Elastic Constant Matrix: (Units=GPa)
#
#
# Indices 1 2 3 4 5 6 
#
# 1 96.1340 49.9652 32.8347 -0.0022 -10.4293 0.0005
# 2 49.9652 123.7848 38.7864 0.0110 -6.2773 0.0003
# 3 32.8347 38.7864 126.2513 0.0198 -3.7188 0.0476
# 4 -0.0022 0.0110 0.0198 14.2680 -0.0018 -5.3769
# 5 -10.4293 -6.2773 -3.7188 -0.0018 25.6614 -0.0112
# 6 0.0005 0.0003 0.0476 -5.3769 -0.0112 22.9843
#
#
#
# Elastic Compliance Matrix: (Units=1/GPa)
#
#
# Indices 1 2 3 4 5 6 
#
# 1 0.014069 -0.004820 -0.002053 0.000013 0.004241 0.000009
# 2 -0.004820 0.010674 -0.002015 -0.000005 0.000360 0.000003
# 3 -0.002053 -0.002015 0.009073 -0.000020 -0.000012 -0.000023
# 4 0.000013 -0.000005 -0.000020 0.076863 0.000014 0.017981
# 5 0.004241 0.000360 -0.000012 0.000014 0.040779 0.000023
# 6 0.000009 0.000003 -0.000023 0.017981 0.000023 0.047715
#
#
# Mechanical properties :
#
#
# Convention : Reuss Voigt Hill
#
# Bulk Modulus (GPa) = 62.34740 65.48251 63.91496
# Shear Modulus (GPa) = 22.49250 27.55499 25.02375
#
# Velocity S-wave (km/s) = 3.45840 3.82786 3.64781
# Velocity P-wave (km/s) = 7.00721 7.37275 7.19230
#
# Compressibility (1/GPa) = 0.01603916
#
# Stress axis : x y z
#
# Youngs Moduli (GPa) = 71.07869 93.68646 110.21314
#
# Poissons Ratio (x) = 0.45161 0.22628
# Poissons Ratio (y) = 0.34263 0.22207
# Poissons Ratio (z) = 0.14593 0.18877
#
# Static dielectric constant tensor:
#      x y z
#    x 3.734950 -0.000170 0.110840 
#    y -0.000170 3.521090 0.000160 
#    z 0.110840 0.000160 3.688460 
# 
# 
# High freq. dielectric constant tensor:
#      x y z
#    x 1.706860 0.000000 0.004600 
#    y 0.000000 1.723250 0.000010 
#    z 0.004600 0.000010 1.750410 
# 
# From -- ./inp_files/325717.got.cif
#   From: 2010.06.25/outbox.cif.g09.slc.cpg/sg12_163_cif.got.tgz:325717.got - 2010.06.28 00:19:55.
