data_PCOD8092902
_publ_section_title
;
Structure prediction by ZEFSAII (Michael W. Deem and Ramdas Pophale) SiO2 
 PCOD8092902
Probable space group: C 2/M
;
_chemical_formula_sum "Si O2"
_cell_formula_units_Z 48
_cell_length_a 19.340582
_cell_length_b 12.764567
_cell_length_c 10.903412
_cell_angle_alpha 90.000000
_cell_angle_beta 117.007429
_cell_angle_gamma 90.000000
_cell_volume 2398.226715
_symmetry_space_group_name_H-M "C 2/M"
_symmetry_group_IT_number 12
_symmetry_cell_setting 'monoclinic'
loop_
_space_group_symop_operation_xyz
x,y,z
-x,y,-z
-x,-y,-z
x,-y,z
1/2+x,1/2+y,z
1/2-x,1/2+y,-z
1/2-x,1/2-y,-z
1/2+x,1/2-y,z
loop_
_atom_site_type_symbol
_atom_site_label
_atom_site_fract_x
_atom_site_fract_y
_atom_site_fract_z
Si Si1 0.366668 0.204562 0.673595
Si Si2 0.244914 0.881016 0.407892
Si Si3 0.581882 0.238514 0.023851
Si Si4 0.028617 0.621482 0.753899
Si Si5 0.680027 0.805185 0.777402
Si Si6 0.810022 0.880632 0.045554
O O1 0.303861 0.122675 0.569959
O O2 0.335637 0.322905 0.622942
O O3 0.373624 0.186839 0.825254
O O4 0.449577 0.188220 0.674002
O O5 0.284056 0.818858 0.327077
O O6 0.226417 0.000000 0.356476
O O7 0.500000 0.288088 0.000000
O O8 0.567653 0.144777 0.916821
O O9 0.630278 0.333053 0.005013
O O10 0.007616 0.500000 0.725368
O O11 0.090532 0.655986 0.700080
O O12 0.686014 0.683451 0.823474
O O13 0.724688 0.873791 0.916613
O O14 0.832000 0.000000 0.091958
#
# Coordination Sequence:
#
# PCOD8092902 Si02
#       6
#     8   8   8   8   8   8
#     4  10  22  37  54  85 118 149 196 230 277 357
#     4  11  22  39  61  82 116 159 195 238 285 335
#     4   9  19  34  55  86 119 146 190 242 282 346
#     4  10  20  36  58  86 118 149 186 246 302 332
#     4  10  21  36  57  87 115 145 199 239 281 350
#     4  10  19  35  58  83 117 153 188 239 292 339
#
# _framework density 20.014789
#
# number of rings (size 3 to 8) (size 9 to 14) (size 15 to 20)
#    0.000    2.000    1.667    2.000    0.000    4.667 
#    0.000   12.500    0.000    0.000    0.000   15.167 
#    0.000    0.000    0.000    0.000    0.000    0.000 
#
# Total GULP energy -297558.758920 kJ/mol
# GULP energy per Si atom -12398.281622 kJ/mol
# Density = 1.996923 g / cm^3
# Si number density = 20.014789 Si / 1000 Ang^3
#
#
#
# Elastic Constant Matrix: (Units=GPa)
#
#
# Indices 1 2 3 4 5 6 
#
# 1 124.3968 69.3388 30.4092 0.0000 18.4829 0.0000
# 2 69.3388 133.0989 32.6001 0.0000 -5.5609 0.0000
# 3 30.4092 32.6001 79.6306 0.0000 9.9346 0.0000
# 4 0.0000 0.0000 0.0000 16.3520 0.0000 0.4967
# 5 18.4829 -5.5609 9.9346 0.0000 25.7677 0.0000
# 6 0.0000 0.0000 0.0000 0.4967 0.0000 20.3157
#
#
#
# Elastic Compliance Matrix: (Units=1/GPa)
#
#
# Indices 1 2 3 4 5 6 
#
# 1 0.014258 -0.007703 -0.000849 0.000000 -0.011562 0.000000
# 2 -0.007703 0.012784 -0.003494 0.000000 0.009631 0.000000
# 3 -0.000849 -0.003494 0.015055 0.000000 -0.005949 0.000000
# 4 0.000000 0.000000 0.000000 0.061200 0.000000 -0.001496
# 5 -0.011562 0.009631 -0.005949 0.000000 0.051474 0.000000
# 6 0.000000 0.000000 0.000000 -0.001496 0.000000 0.049260
#
#
# Mechanical properties :
#
#
# Convention : Reuss Voigt Hill
#
# Bulk Modulus (GPa) = 55.53754 66.86916 61.20335
# Shear Modulus (GPa) = 21.35631 26.13895 23.74763
#
# Velocity S-wave (km/s) = 3.27008 3.61776 3.44830
# Velocity P-wave (km/s) = 6.48586 7.13676 6.81908
#
# Compressibility (1/GPa) = 0.01800584
#
# Stress axis : x y z
#
# Youngs Moduli (GPa) = 70.13746 78.22178 66.42460
#
# Poissons Ratio (x) = 0.60253 0.05638
# Poissons Ratio (y) = 0.54026 0.23207
# Poissons Ratio (z) = 0.05953 0.27329
#
# Static dielectric constant tensor:
#      x y z
#    x 3.929790 0.000000 0.159960 
#    y 0.000000 3.373740 0.000000 
#    z 0.159960 0.000000 3.639400 
# 
# 
# High freq. dielectric constant tensor:
#      x y z
#    x 1.791110 0.000000 0.008400 
#    y 0.000000 1.756920 0.000000 
#    z 0.008400 0.000000 1.773750 
# 
# From -- ./inp_files/165164.got.cif
#   From: 2010.06.25/outbox.cif.g09.slc.cpg/sg12_83_cif.got.tgz:165164.got - 2010.06.28 00:19:55.
