data_PCOD8092318
_publ_section_title
;
Structure prediction by ZEFSAII (Michael W. Deem and Ramdas Pophale) SiO2 
 PCOD8092318
Probable space group: C 2/M
;
_chemical_formula_sum "Si O2"
_cell_formula_units_Z 64
_cell_length_a 18.026374
_cell_length_b 14.413969
_cell_length_c 16.167918
_cell_angle_alpha 90.000000
_cell_angle_beta 133.798778
_cell_angle_gamma 90.000000
_cell_volume 3032.130494
_symmetry_space_group_name_H-M "C 2/M"
_symmetry_group_IT_number 12
_symmetry_cell_setting 'monoclinic'
loop_
_space_group_symop_operation_xyz
x,y,z
-x,y,-z
-x,-y,-z
x,-y,z
1/2+x,1/2+y,z
1/2-x,1/2+y,-z
1/2-x,1/2-y,-z
1/2+x,1/2-y,z
loop_
_atom_site_type_symbol
_atom_site_label
_atom_site_fract_x
_atom_site_fract_y
_atom_site_fract_z
Si Si1 0.574276 0.901505 0.819691
Si Si2 0.093550 0.216942 0.729041
Si Si3 0.288733 0.646262 0.034751
Si Si4 0.976691 0.140095 0.073111
Si Si5 0.538498 0.155281 0.113523
Si Si6 0.764048 0.220584 0.313392
Si Si7 0.891632 0.107806 0.539901
Si Si8 0.675164 0.602738 0.328204
O O1 0.563068 0.812476 0.752193
O O2 0.487402 0.900758 0.823878
O O3 0.556193 0.000000 0.757736
O O4 0.685525 0.913204 0.949931
O O5 0.147387 0.140641 0.830306
O O6 0.168852 0.245560 0.714091
O O7 0.993901 0.169055 0.614160
O O8 0.363655 0.611667 0.018239
O O9 0.250000 0.750000 0.000000
O O10 0.973033 0.250559 0.068074
O O11 0.061565 0.103975 0.202027
O O12 0.000000 0.098267 0.000000
O O13 0.658683 0.176197 0.200737
O O14 0.500000 0.103251 0.000000
O O15 0.816655 0.144301 0.411218
O O16 0.748176 0.318673 0.347097
O O17 0.834387 0.122462 0.582219
O O18 0.917803 0.000000 0.543839
O O19 0.722810 0.500000 0.349861
#
# Coordination Sequence:
#
# PCOD8092318 Si02
#       8
#     8   8   8   8   8   8   8   8
#     4  11  24  38  59  92 132 176 211 248 309 392
#     4  11  22  42  64  91 129 166 207 265 321 376
#     4  10  19  36  59  89 125 169 213 253 315 368
#     4  10  19  34  62  90 125 167 213 265 311 362
#     4  10  20  39  62  89 125 169 214 261 316 370
#     4  11  24  39  67  95 124 164 208 265 321 374
#     4  11  24  46  71  93 118 155 215 275 323 373
#     4  10  22  40  62  92 128 167 209 258 313 375
#
# _framework density 21.107271000000001
#
# number of rings (size 3 to 8) (size 9 to 14) (size 15 to 20)
#    0.000    1.500    3.750    2.250    8.750    3.500 
#    0.000    3.125    0.000    1.500    0.000    0.000 
#    0.000    0.000    0.000    0.000    0.000    0.000 
#
# Total GULP energy -396670.509073 kJ/mol
# GULP energy per Si atom -12395.953409 kJ/mol
# Density = 2.105923 g / cm^3
# Si number density = 21.107271 Si / 1000 Ang^3
#
#
#
# Elastic Constant Matrix: (Units=GPa)
#
#
# Indices 1 2 3 4 5 6 
#
# 1 141.5076 49.3955 33.5740 0.0000 -11.6305 0.0000
# 2 49.3955 113.2254 28.7225 0.0000 4.7330 0.0000
# 3 33.5740 28.7225 91.8485 0.0000 -3.1433 0.0000
# 4 0.0000 0.0000 0.0000 61.3375 0.0000 -32.0394
# 5 -11.6305 4.7330 -3.1433 0.0000 32.1586 0.0000
# 6 0.0000 0.0000 0.0000 -32.0394 0.0000 24.7251
#
#
#
# Elastic Compliance Matrix: (Units=1/GPa)
#
#
# Indices 1 2 3 4 5 6 
#
# 1 0.009115 -0.003600 -0.002082 0.000000 0.003623 0.000000
# 2 -0.003600 0.011109 -0.002266 0.000000 -0.003158 0.000000
# 3 -0.002082 -0.002266 0.012384 0.000000 0.000791 0.000000
# 4 0.000000 0.000000 0.000000 0.050454 0.000000 0.065380
# 5 0.003623 -0.003158 0.000791 0.000000 0.032948 0.000000
# 6 0.000000 0.000000 0.000000 0.065380 0.000000 0.125166
#
#
# Mechanical properties :
#
#
# Convention : Reuss Voigt Hill
#
# Bulk Modulus (GPa) = 59.83641 63.32950 61.58296
# Shear Modulus (GPa) = 19.03715 39.30353 29.17034
#
# Velocity S-wave (km/s) = 3.00646 4.31987 3.72157
# Velocity P-wave (km/s) = 6.36098 7.41286 6.90697
#
# Compressibility (1/GPa) = 0.01671223
#
# Stress axis : x y z
#
# Youngs Moduli (GPa) = 109.70794 90.01467 80.74675
#
# Poissons Ratio (x) = 0.32403 0.16813
# Poissons Ratio (y) = 0.39492 0.18300
# Poissons Ratio (z) = 0.22844 0.20400
#
# Static dielectric constant tensor:
#      x y z
#    x 3.977070 0.000000 -0.001450 
#    y 0.000000 3.942430 0.000000 
#    z -0.001450 0.000000 3.996770 
# 
# 
# High freq. dielectric constant tensor:
#      x y z
#    x 1.832260 0.000000 -0.003350 
#    y 0.000000 1.822730 0.000000 
#    z -0.003350 0.000000 1.817990 
# 
# From -- ./inp_files/225760.got.cif
#   From: 2010.06.25/outbox.cif.g09.slc.cpg/sg12_113_cif.got.tgz:225760.got - 2010.06.28 00:19:55.
