data_PCOD8092605
_publ_section_title
;
Structure prediction by ZEFSAII (Michael W. Deem and Ramdas Pophale) SiO2 
 PCOD8092605
Probable space group: C 2/M
;
_chemical_formula_sum "Si O2"
_cell_formula_units_Z 64
_cell_length_a 19.245608
_cell_length_b 14.333223
_cell_length_c 24.340597
_cell_angle_alpha 90.000000
_cell_angle_beta 29.561623
_cell_angle_gamma 90.000000
_cell_volume 3312.608369
_symmetry_space_group_name_H-M "C 2/M"
_symmetry_group_IT_number 12
_symmetry_cell_setting 'monoclinic'
loop_
_space_group_symop_operation_xyz
x,y,z
-x,y,-z
-x,-y,-z
x,-y,z
1/2+x,1/2+y,z
1/2-x,1/2+y,-z
1/2-x,1/2-y,-z
1/2+x,1/2-y,z
loop_
_atom_site_type_symbol
_atom_site_label
_atom_site_fract_x
_atom_site_fract_y
_atom_site_fract_z
Si Si1 0.278942 0.715673 0.124182
Si Si2 0.088379 0.109675 0.743260
Si Si3 0.567654 0.286406 0.870264
Si Si4 0.296256 0.393776 0.888295
Si Si5 0.185536 0.398991 0.635968
Si Si6 0.696957 0.779639 0.476898
Si Si7 0.515747 0.103486 0.325811
Si Si8 0.000708 0.603105 0.864754
O O1 0.317705 0.701030 0.161212
O O2 0.231336 0.821941 0.142969
O O3 0.149894 0.645906 0.202260
O O4 0.410773 0.682841 0.996633
O O5 0.112728 0.155701 0.785939
O O6 0.198809 0.146776 0.622961
O O7 0.934145 0.135790 0.827034
O O8 0.109610 0.000000 0.735343
O O9 0.569354 0.175650 0.859252
O O10 0.309762 0.500000 0.855584
O O11 0.168545 0.386790 0.019709
O O12 0.255665 0.500000 0.601265
O O13 0.303441 0.317284 0.558041
O O14 0.115462 0.404099 0.624754
O O15 0.057540 0.375965 0.765055
O O16 0.750000 0.750000 0.500000
O O17 0.541340 0.826859 0.586658
O O18 0.552184 0.000000 0.323702
O O19 0.044513 0.500000 0.855011
#
# Coordination Sequence:
#
# PCOD8092605 Si02
#       8
#     8   8   8   8   8   8   8   8
#     4  10  22  38  56  81 114 156 194 231 284 344
#     4  11  22  36  57  86 117 150 191 240 288 336
#     4  10  22  37  56  83 116 153 189 233 290 344
#     4   9  19  33  55  87 116 145 184 234 290 341
#     4   9  17  30  54  85 110 136 175 226 284 333
#     4  10  19  35  56  81 114 146 185 232 287 335
#     4  10  21  35  54  77 107 148 190 228 267 327
#     4   9  17  31  54  83 112 140 178 227 282 340
#
# _framework density 19.320122000000001
#
# number of rings (size 3 to 8) (size 9 to 14) (size 15 to 20)
#    0.000    2.250    1.250    1.875    1.750    3.000 
#    0.000    5.000    0.000    1.500    0.000    1.750 
#    0.000    0.000    0.000    0.000    0.000    0.000 
#
# Total GULP energy -396572.299208 kJ/mol
# GULP energy per Si atom -12392.884350 kJ/mol
# Density = 1.927615 g / cm^3
# Si number density = 19.320122 Si / 1000 Ang^3
#
#
#
# Elastic Constant Matrix: (Units=GPa)
#
#
# Indices 1 2 3 4 5 6 
#
# 1 58.7167 25.8315 17.2044 -0.0002 14.7221 -0.0004
# 2 25.8315 132.7548 59.9387 0.0004 6.3367 -0.0003
# 3 17.2044 59.9387 89.4353 0.0068 20.0099 -0.0015
# 4 -0.0002 0.0004 0.0068 34.4332 -0.0024 5.1850
# 5 14.7221 6.3367 20.0099 -0.0024 18.6020 0.0007
# 6 -0.0004 -0.0003 -0.0015 5.1850 0.0007 19.5905
#
#
#
# Elastic Compliance Matrix: (Units=1/GPa)
#
#
# Indices 1 2 3 4 5 6 
#
# 1 0.023442 -0.005199 0.003594 -0.000002 -0.020648 0.000002
# 2 -0.005199 0.012384 -0.009582 0.000003 0.010203 -0.000002
# 3 0.003594 -0.009582 0.022148 -0.000007 -0.023405 0.000004
# 4 -0.000002 0.000003 -0.000007 0.030247 0.000012 -0.008006
# 5 -0.020648 0.010203 -0.023405 0.000012 0.091799 -0.000009
# 6 0.000002 -0.000002 0.000004 -0.008006 -0.000009 0.053164
#
#
# Mechanical properties :
#
#
# Convention : Reuss Voigt Hill
#
# Bulk Modulus (GPa) = 28.08930 54.09513 41.09221
# Shear Modulus (GPa) = 18.69691 26.38730 22.54211
#
# Velocity S-wave (km/s) = 3.11423 3.69967 3.41951
# Velocity P-wave (km/s) = 5.24421 6.80517 6.07503
#
# Compressibility (1/GPa) = 0.03560075
#
# Stress axis : x y z
#
# Youngs Moduli (GPa) = 42.65872 80.75258 45.15039
#
# Poissons Ratio (x) = 0.41980 -0.16228
# Poissons Ratio (y) = 0.22176 0.43264
# Poissons Ratio (z) = -0.15333 0.77378
#
# Static dielectric constant tensor:
#      x y z
#    x 3.091660 0.000000 0.180760 
#    y 0.000000 4.084970 0.000010 
#    z 0.180760 0.000010 3.645470 
# 
# 
# High freq. dielectric constant tensor:
#      x y z
#    x 1.704910 0.000000 0.018060 
#    y 0.000000 1.772560 0.000000 
#    z 0.018060 0.000000 1.752880 
# 
# From -- ./inp_files/344013.got.cif
#   From: 2010.06.25/outbox.cif.g09.slc.cpg/sg12_173_cif.got.tgz:344013.got - 2010.06.28 00:19:55.
