data_PCOD8092134
_publ_section_title
;
Structure prediction by ZEFSAII (Michael W. Deem and Ramdas Pophale) SiO2 
 PCOD8092134
Probable space group: C 2/M
;
_chemical_formula_sum "Si O2"
_cell_formula_units_Z 56
_cell_length_a 11.748585
_cell_length_b 13.937230
_cell_length_c 18.211649
_cell_angle_alpha 90.000000
_cell_angle_beta 63.729931
_cell_angle_gamma 90.000000
_cell_volume 2674.034930
_symmetry_space_group_name_H-M "C 2/M"
_symmetry_group_IT_number 12
_symmetry_cell_setting 'monoclinic'
loop_
_space_group_symop_operation_xyz
x,y,z
-x,y,-z
-x,-y,-z
x,-y,z
1/2+x,1/2+y,z
1/2-x,1/2+y,-z
1/2-x,1/2-y,-z
1/2+x,1/2-y,z
loop_
_atom_site_type_symbol
_atom_site_label
_atom_site_fract_x
_atom_site_fract_y
_atom_site_fract_z
Si Si1 0.912455 0.306020 0.597269
Si Si2 0.757207 0.891679 0.012928
Si Si3 0.735055 0.770582 0.882738
Si Si4 0.358065 0.607985 0.333388
Si Si5 0.046766 0.899911 0.406521
Si Si6 0.482523 0.215447 0.736421
Si Si7 0.030255 0.393948 0.863493
O O1 0.792775 0.374597 0.621162
O O2 0.865125 0.194636 0.621159
O O3 0.990453 0.327076 0.650672
O O4 0.000000 0.317751 0.500000
O O5 0.809755 0.828757 0.065840
O O6 0.604968 0.891551 0.058532
O O7 0.811471 0.000000 0.002485
O O8 0.797747 0.842317 0.924863
O O9 0.838475 0.750109 0.790714
O O10 0.613854 0.815829 0.879804
O O11 0.379787 0.500000 0.294385
O O12 0.417901 0.615577 0.397122
O O13 0.427362 0.693256 0.269283
O O14 0.000000 0.917295 0.500000
O O15 0.116376 0.000000 0.360524
O O16 0.518286 0.129702 0.780726
O O17 0.090639 0.500000 0.853515
#
# Coordination Sequence:
#
# PCOD8092134 Si02
#       7
#     8   8   8   8   8   8   8
#     4  10  21  37  60  82 108 145 193 247 297 348
#     4   9  19  35  58  88 119 154 194 235 279 329
#     4  10  19  34  59  86 119 154 193 236 278 337
#     4  10  21  37  54  75 107 144 181 228 290 348
#     4   8  16  32  54  78 103 133 171 219 278 340
#     4  10  22  38  55  82 115 149 191 237 288 344
#     4  10  20  36  59  85 115 152 192 235 283 335
#
# _framework density 20.942133999999999
#
# number of rings (size 3 to 8) (size 9 to 14) (size 15 to 20)
#    0.000    2.429    0.000    1.714    0.000    8.286 
#    0.000    7.143    0.000   14.571    0.000    0.000 
#    0.000    0.000    0.000    0.000    0.000    0.000 
#
# Total GULP energy -346890.922517 kJ/mol
# GULP energy per Si atom -12388.961518 kJ/mol
# Density = 2.089447 g / cm^3
# Si number density = 20.942134 Si / 1000 Ang^3
#
#
#
# Elastic Constant Matrix: (Units=GPa)
#
#
# Indices 1 2 3 4 5 6 
#
# 1 55.8484 29.1522 13.5069 0.0000 7.4346 0.0000
# 2 29.1522 112.4393 12.0799 0.0000 7.0584 0.0000
# 3 13.5069 12.0799 83.2920 0.0000 15.6938 0.0000
# 4 0.0000 0.0000 0.0000 18.1661 0.0000 0.1309
# 5 7.4346 7.0584 15.6938 0.0000 17.1708 0.0000
# 6 0.0000 0.0000 0.0000 0.1309 0.0000 17.9028
#
#
#
# Elastic Compliance Matrix: (Units=1/GPa)
#
#
# Indices 1 2 3 4 5 6 
#
# 1 0.021743 -0.005093 -0.001701 0.000000 -0.005766 0.000000
# 2 -0.005093 0.010361 -0.000350 0.000000 -0.001734 0.000000
# 3 -0.001701 -0.000350 0.014698 0.000000 -0.012553 0.000000
# 4 0.000000 0.000000 0.000000 0.055050 0.000000 -0.000402
# 5 -0.005766 -0.001734 -0.012553 0.000000 0.072921 0.000000
# 6 0.000000 0.000000 0.000000 -0.000402 0.000000 0.055860
#
#
# Mechanical properties :
#
#
# Convention : Reuss Voigt Hill
#
# Bulk Modulus (GPa) = 30.75575 40.11752 35.43664
# Shear Modulus (GPa) = 19.54975 23.77067 21.66021
#
# Velocity S-wave (km/s) = 3.05866 3.37273 3.21952
# Velocity P-wave (km/s) = 5.21458 5.86217 5.54783
#
# Compressibility (1/GPa) = 0.03251424
#
# Stress axis : x y z
#
# Youngs Moduli (GPa) = 45.99217 96.52042 68.03739
#
# Poissons Ratio (x) = 0.49154 0.11572
# Poissons Ratio (y) = 0.23422 0.02382
# Poissons Ratio (z) = 0.07822 0.03379
#
# Static dielectric constant tensor:
#      x y z
#    x 3.495360 0.000000 0.197930 
#    y 0.000000 4.334880 0.000000 
#    z 0.197930 0.000000 3.742170 
# 
# 
# High freq. dielectric constant tensor:
#      x y z
#    x 1.796880 0.000000 0.022110 
#    y 0.000000 1.833930 0.000000 
#    z 0.022110 0.000000 1.809270 
# 
# From -- ./inp_files/263220.got.cif
#   From: 2010.06.25/outbox.cif.g09.slc.cpg/sg12_132_cif.got.tgz:263220.got - 2010.06.28 00:19:55.
