data_PCOD8092007
_publ_section_title
;
Structure prediction by ZEFSAII (Michael W. Deem and Ramdas Pophale) SiO2 
 PCOD8092007
Probable space group: C 2/M
;
_chemical_formula_sum "Si O2"
_cell_formula_units_Z 64
_cell_length_a 19.839654
_cell_length_b 9.081651
_cell_length_c 24.099124
_cell_angle_alpha 90.000000
_cell_angle_beta 51.739509
_cell_angle_gamma 90.000000
_cell_volume 3409.435026
_symmetry_space_group_name_H-M "C 2/M"
_symmetry_group_IT_number 12
_symmetry_cell_setting 'monoclinic'
loop_
_space_group_symop_operation_xyz
x,y,z
-x,y,-z
-x,-y,-z
x,-y,z
1/2+x,1/2+y,z
1/2-x,1/2+y,-z
1/2-x,1/2-y,-z
1/2+x,1/2-y,z
loop_
_atom_site_type_symbol
_atom_site_label
_atom_site_fract_x
_atom_site_fract_y
_atom_site_fract_z
Si Si1 0.096904 0.829089 0.796691
Si Si2 0.998062 0.674053 0.937950
Si Si3 0.073865 0.827271 0.418816
Si Si4 0.535057 0.831126 0.210865
Si Si5 0.998373 0.672131 0.648063
Si Si6 0.161515 0.330574 0.053277
Si Si7 0.176498 0.169767 0.570614
Si Si8 0.256600 0.833636 0.646951
O O1 0.197201 0.803346 0.731053
O O2 0.076793 0.747115 0.864588
O O3 0.039588 0.769734 0.775390
O O4 0.075984 0.000000 0.814482
O O5 0.010277 0.500000 0.927817
O O6 0.908473 0.724415 0.955972
O O7 0.000000 0.730444 0.000000
O O8 0.165561 0.780798 0.397037
O O9 0.000000 0.783556 0.500000
O O10 0.062968 0.738612 0.367425
O O11 0.073155 0.000000 0.406824
O O12 0.547661 0.799048 0.269468
O O13 0.624841 0.799199 0.133705
O O14 0.507219 0.000000 0.214396
O O15 0.013008 0.500000 0.629621
O O16 0.088548 0.753204 0.599153
O O17 0.181050 0.500000 0.033594
O O18 0.250000 0.250000 0.000000
O O19 0.250000 0.250000 0.500000
O O20 0.194201 0.187096 0.626496
O O21 0.171238 0.000000 0.554888
O O22 0.293717 0.000000 0.629436
#
# Coordination Sequence:
#
# PCOD8092007 Si02
#       8
#     8   8   8   8   8   8   8   8
#     4  10  19  34  58  87 115 145 186 236 284 329
#     4   9  19  37  58  80 113 151 189 229 275 333
#     4  11  25  42  59  81 112 151 193 238 286 343
#     4   9  19  36  58  83 113 150 188 227 280 338
#     4  11  22  38  61  85 113 150 189 234 289 342
#     4   9  18  34  55  81 111 145 182 223 271 325
#     4  11  22  37  58  87 117 145 186 235 281 336
#     4  10  22  39  58  82 115 150 185 232 286 339
#
# _framework density 18.771438
#
# number of rings (size 3 to 8) (size 9 to 14) (size 15 to 20)
#    0.000    2.000    1.250    3.000    0.000    7.750 
#    2.250    0.000    0.000    0.000    0.000    0.000 
#    0.000    0.000    0.000    0.000    0.000    0.000 
#
# Total GULP energy -396867.675540 kJ/mol
# GULP energy per Si atom -12402.114861 kJ/mol
# Density = 1.872871 g / cm^3
# Si number density = 18.771438 Si / 1000 Ang^3
#
#
#
# Elastic Constant Matrix: (Units=GPa)
#
#
# Indices 1 2 3 4 5 6 
#
# 1 52.5053 26.6347 27.4404 -0.0001 -0.0838 -0.0004
# 2 26.6347 80.2377 44.0267 -0.0003 -0.2088 -0.0008
# 3 27.4404 44.0267 113.8537 0.0000 2.1614 -0.0002
# 4 -0.0001 -0.0003 0.0000 33.3935 0.0000 -2.7494
# 5 -0.0838 -0.2088 2.1614 0.0000 34.5856 0.0000
# 6 -0.0004 -0.0008 -0.0002 -2.7494 0.0000 32.7887
#
#
#
# Elastic Compliance Matrix: (Units=1/GPa)
#
#
# Indices 1 2 3 4 5 6 
#
# 1 0.023908 -0.006057 -0.003425 0.000000 0.000235 0.000000
# 2 -0.006057 0.017362 -0.005262 0.000000 0.000419 0.000000
# 3 -0.003425 -0.005262 0.011658 0.000000 -0.000769 0.000000
# 4 0.000000 0.000000 0.000000 0.030154 0.000000 0.002529
# 5 0.000235 0.000419 -0.000769 0.000000 0.028965 0.000000
# 6 0.000000 0.000000 0.000000 0.002529 0.000000 0.030710
#
#
# Mechanical properties :
#
#
# Convention : Reuss Voigt Hill
#
# Bulk Modulus (GPa) = 42.65914 49.20003 45.92959
# Shear Modulus (GPa) = 27.76892 30.05323 28.91108
#
# Velocity S-wave (km/s) = 3.85036 4.00560 3.92875
# Velocity P-wave (km/s) = 6.52242 6.90363 6.71573
#
# Compressibility (1/GPa) = 0.02344163
#
# Stress axis : x y z
#
# Youngs Moduli (GPa) = 41.82663 57.59783 85.77830
#
# Poissons Ratio (x) = 0.34884 0.29376
# Poissons Ratio (y) = 0.25332 0.45136
# Poissons Ratio (z) = 0.14324 0.30308
#
# Static dielectric constant tensor:
#      x y z
#    x 3.345220 0.000000 0.268450 
#    y 0.000000 3.174860 0.000000 
#    z 0.268450 0.000000 3.645990 
# 
# 
# High freq. dielectric constant tensor:
#      x y z
#    x 1.712990 0.000000 0.003320 
#    y 0.000000 1.734300 0.000000 
#    z 0.003320 0.000000 1.740970 
# 
# From -- ./inp_files/345935.got.cif
#   From: 2010.06.25/outbox.cif.g09.slc.cpg/sg12_173_cif.got.tgz:345935.got - 2010.06.28 00:19:55.
