data_PCOD8092942
_publ_section_title
;
Structure prediction by ZEFSAII (Michael W. Deem and Ramdas Pophale) SiO2 
 PCOD8092942
Probable space group: C 2/M
;
_chemical_formula_sum "Si O2"
_cell_formula_units_Z 56
_cell_length_a 19.175079
_cell_length_b 8.890866
_cell_length_c 19.092819
_cell_angle_alpha 90.000000
_cell_angle_beta 59.766123
_cell_angle_gamma 90.000000
_cell_volume 2812.247765
_symmetry_space_group_name_H-M "C 2/M"
_symmetry_group_IT_number 12
_symmetry_cell_setting 'monoclinic'
loop_
_space_group_symop_operation_xyz
x,y,z
-x,y,-z
-x,-y,-z
x,-y,z
1/2+x,1/2+y,z
1/2-x,1/2+y,-z
1/2-x,1/2-y,-z
1/2+x,1/2-y,z
loop_
_atom_site_type_symbol
_atom_site_label
_atom_site_fract_x
_atom_site_fract_y
_atom_site_fract_z
Si Si1 0.955963 0.321204 0.308363
Si Si2 0.199176 0.167917 0.318028
Si Si3 0.964810 0.322847 0.591064
Si Si4 0.782206 0.332587 0.417594
Si Si5 0.176603 0.821100 0.993125
Si Si6 0.013588 0.321727 0.130985
Si Si7 0.844733 0.676221 0.143566
O O1 0.960649 0.500000 0.304312
O O2 0.864844 0.260635 0.346924
O O3 0.987876 0.256223 0.365982
O O4 0.004281 0.264403 0.215789
O O5 0.127325 0.284398 0.344872
O O6 0.215633 0.170766 0.391884
O O7 0.278958 0.216651 0.235875
O O8 0.172454 0.000000 0.308468
O O9 0.974301 0.500000 0.582545
O O10 0.000000 0.253665 0.500000
O O11 0.802351 0.500000 0.432607
O O12 0.750000 0.250000 0.500000
O O13 0.090268 0.766163 0.063875
O O14 0.182940 0.000000 0.995921
O O15 0.250000 0.750000 0.000000
O O16 0.181890 0.772092 0.909839
O O17 0.029030 0.500000 0.118327
O O18 0.933746 0.279329 0.126447
O O19 0.843157 0.500000 0.125479
#
# Coordination Sequence:
#
# PCOD8092942 Si02
#       7
#     8   8   8   8   8   8   8
#     4   9  18  35  59  84 115 156 202 242 288 350
#     4  10  21  37  59  87 120 155 198 247 297 353
#     4  10  21  36  55  83 119 161 206 251 298 350
#     4  10  19  35  58  85 116 154 197 245 291 344
#     4  12  27  44  64  93 126 158 197 247 300 360
#     4  10  20  40  67  91 120 162 204 244 298 362
#     4  10  21  41  66  92 123 161 202 245 302 367
#
# _framework density 19.912896
#
# number of rings (size 3 to 8) (size 9 to 14) (size 15 to 20)
#    0.000    1.857    1.429    2.571    2.000    4.857 
#    0.000    1.429    0.000    0.000    0.000    0.000 
#    0.000    0.000    0.000    0.000    0.000    0.000 
#
# Total GULP energy -347084.331958 kJ/mol
# GULP energy per Si atom -12395.868999 kJ/mol
# Density = 1.986757 g / cm^3
# Si number density = 19.912896 Si / 1000 Ang^3
#
#
#
# Elastic Constant Matrix: (Units=GPa)
#
#
# Indices 1 2 3 4 5 6 
#
# 1 116.0751 36.8774 39.0696 -0.0001 3.7169 -0.0002
# 2 36.8774 57.7166 38.1264 -0.0001 4.2655 -0.0006
# 3 39.0696 38.1264 121.4711 0.0000 8.9852 0.0000
# 4 -0.0001 -0.0001 0.0000 30.0318 0.0000 -4.5477
# 5 3.7169 4.2655 8.9852 0.0000 39.0379 0.0000
# 6 -0.0002 -0.0006 0.0000 -4.5477 0.0000 29.4540
#
#
#
# Elastic Compliance Matrix: (Units=1/GPa)
#
#
# Indices 1 2 3 4 5 6 
#
# 1 0.011078 -0.005960 -0.001691 0.000000 -0.000014 0.000000
# 2 -0.005960 0.025090 -0.005898 0.000000 -0.000817 0.000001
# 3 -0.001691 -0.005898 0.010751 0.000000 -0.001669 0.000000
# 4 0.000000 0.000000 0.000000 0.034095 0.000000 0.005264
# 5 -0.000014 -0.000817 -0.001669 0.000000 0.026091 0.000000
# 6 0.000000 0.000001 0.000000 0.005264 0.000000 0.034764
#
#
# Mechanical properties :
#
#
# Convention : Reuss Voigt Hill
#
# Bulk Modulus (GPa) = 50.45083 58.15663 54.30373
# Shear Modulus (GPa) = 28.47772 31.78403 30.13087
#
# Velocity S-wave (km/s) = 3.78579 3.99952 3.89412
# Velocity P-wave (km/s) = 6.67086 7.11317 6.89556
#
# Compressibility (1/GPa) = 0.01982128
#
# Stress axis : x y z
#
# Youngs Moduli (GPa) = 90.26564 39.85581 93.01385
#
# Poissons Ratio (x) = 0.23754 0.15733
# Poissons Ratio (y) = 0.53798 0.54858
# Poissons Ratio (z) = 0.15268 0.23506
#
# Static dielectric constant tensor:
#      x y z
#    x 3.771460 0.000000 -0.040130 
#    y 0.000000 3.378290 0.000000 
#    z -0.040130 0.000000 3.922360 
# 
# 
# High freq. dielectric constant tensor:
#      x y z
#    x 1.787030 0.000000 0.000370 
#    y 0.000000 1.743540 0.000000 
#    z 0.000370 0.000000 1.795980 
# 
# From -- ./inp_files/275156.got.cif
#   From: 2010.06.25/outbox.cif.g09.slc.cpg/sg12_138_cif.got.tgz:275156.got - 2010.06.28 00:19:55.
