data_PCOD8092716
_publ_section_title
;
Structure prediction by ZEFSAII (Michael W. Deem and Ramdas Pophale) SiO2 
 PCOD8092716
Probable space group: C 2/M
;
_chemical_formula_sum "Si O2"
_cell_formula_units_Z 40
_cell_length_a 20.329582
_cell_length_b 9.120570
_cell_length_c 12.383517
_cell_angle_alpha 90.000000
_cell_angle_beta 66.875549
_cell_angle_gamma 90.000000
_cell_volume 2111.635191
_symmetry_space_group_name_H-M "C 2/M"
_symmetry_group_IT_number 12
_symmetry_cell_setting 'monoclinic'
loop_
_space_group_symop_operation_xyz
x,y,z
-x,y,-z
-x,-y,-z
x,-y,z
1/2+x,1/2+y,z
1/2-x,1/2+y,-z
1/2-x,1/2-y,-z
1/2+x,1/2-y,z
loop_
_atom_site_type_symbol
_atom_site_label
_atom_site_fract_x
_atom_site_fract_y
_atom_site_fract_z
Si Si1 0.413084 0.170904 0.367868
Si Si2 0.360563 0.326778 0.608623
Si Si3 0.698433 0.826530 0.733831
Si Si4 0.424656 0.167360 0.768172
Si Si5 0.313837 0.170052 0.018128
O O1 0.406667 0.254164 0.484836
O O2 0.356665 0.238162 0.318584
O O3 0.491734 0.199265 0.269998
O O4 0.398783 0.000000 0.398523
O O5 0.368627 0.500000 0.595949
O O6 0.278202 0.276574 0.650669
O O7 0.390589 0.275795 0.703668
O O8 0.691234 0.000000 0.738498
O O9 0.678150 0.766272 0.865809
O O10 0.387980 0.196255 0.907473
O O11 0.411807 0.000000 0.737972
O O12 0.292862 0.000000 0.036548
O O13 0.250000 0.250000 0.000000
#
# Coordination Sequence:
#
# PCOD8092716 Si02
#       5
#     8   8   8   8   8
#     4  10  21  37  54  78 111 142 177 221 265 313
#     4  11  21  35  56  80 108 144 181 218 262 315
#     4   9  19  35  56  80 107 139 177 221 266 311
#     4  10  21  35  56  82 107 140 179 219 265 315
#     4  10  19  35  57  81 106 136 176 219 265 317
#
# _framework density 18.942665999999999
#
# number of rings (size 3 to 8) (size 9 to 14) (size 15 to 20)
#    0.000    2.000    2.000    1.800    0.000    4.000 
#    0.000    6.000    0.000    0.000    0.000    4.200 
#    0.000    0.000    0.000    0.000    0.000    0.000 
#
# Total GULP energy -248051.455025 kJ/mol
# GULP energy per Si atom -12402.572751 kJ/mol
# Density = 1.889955 g / cm^3
# Si number density = 18.942666 Si / 1000 Ang^3
#
#
#
# Elastic Constant Matrix: (Units=GPa)
#
#
# Indices 1 2 3 4 5 6 
#
# 1 89.1290 27.7413 14.4910 0.0000 -13.5266 0.0000
# 2 27.7413 47.7022 28.2450 0.0000 -6.9103 0.0000
# 3 14.4910 28.2450 95.8421 0.0000 -17.8848 0.0000
# 4 0.0000 0.0000 0.0000 18.6292 0.0000 1.2668
# 5 -13.5266 -6.9103 -17.8848 0.0000 35.3203 0.0000
# 6 0.0000 0.0000 0.0000 1.2668 0.0000 25.6684
#
#
#
# Elastic Compliance Matrix: (Units=1/GPa)
#
#
# Indices 1 2 3 4 5 6 
#
# 1 0.014304 -0.008342 0.001119 0.000000 0.004413 0.000000
# 2 -0.008342 0.030314 -0.007909 0.000000 -0.001269 0.000000
# 3 0.001119 -0.007909 0.013679 0.000000 0.005808 0.000000
# 4 0.000000 0.000000 0.000000 0.053860 0.000000 -0.002658
# 5 0.004413 -0.001269 0.005808 0.000000 0.032695 0.000000
# 6 0.000000 0.000000 0.000000 -0.002658 0.000000 0.039090
#
#
# Mechanical properties :
#
#
# Convention : Reuss Voigt Hill
#
# Bulk Modulus (GPa) = 35.67189 41.51419 38.59304
# Shear Modulus (GPa) = 22.36643 26.73665 24.55154
#
# Velocity S-wave (km/s) = 3.43992 3.76100 3.60404
# Velocity P-wave (km/s) = 5.88641 6.38933 6.14302
#
# Compressibility (1/GPa) = 0.02803328
#
# Stress axis : x y z
#
# Youngs Moduli (GPa) = 69.91159 32.98822 73.10355
#
# Poissons Ratio (x) = 0.27518 -0.08181
# Poissons Ratio (y) = 0.58319 0.57818
# Poissons Ratio (z) = -0.07824 0.26091
#
# Static dielectric constant tensor:
#      x y z
#    x 3.620810 0.000000 -0.045080 
#    y 0.000000 3.252040 0.000000 
#    z -0.045080 0.000000 3.757380 
# 
# 
# High freq. dielectric constant tensor:
#      x y z
#    x 1.740130 0.000000 -0.006170 
#    y 0.000000 1.710900 0.000000 
#    z -0.006170 0.000000 1.750230 
# 
# From -- ./inp_files/151694.got.cif
#   From: 2010.06.25/outbox.cif.g09.slc.cpg/sg12_76_cif.got.tgz:151694.got - 2010.06.28 00:19:55.
