data_PCOD8092266
_publ_section_title
;
Structure prediction by ZEFSAII (Michael W. Deem and Ramdas Pophale) SiO2 
 PCOD8092266
Probable space group: C 2/M
;
_chemical_formula_sum "Si O2"
_cell_formula_units_Z 52
_cell_length_a 7.625870
_cell_length_b 18.452909
_cell_length_c 16.816847
_cell_angle_alpha 90.000000
_cell_angle_beta 72.086681
_cell_angle_gamma 90.000000
_cell_volume 2251.739099
_symmetry_space_group_name_H-M "C 2/M"
_symmetry_group_IT_number 12
_symmetry_cell_setting 'monoclinic'
loop_
_space_group_symop_operation_xyz
x,y,z
-x,y,-z
-x,-y,-z
x,-y,z
1/2+x,1/2+y,z
1/2-x,1/2+y,-z
1/2-x,1/2-y,-z
1/2+x,1/2-y,z
loop_
_atom_site_type_symbol
_atom_site_label
_atom_site_fract_x
_atom_site_fract_y
_atom_site_fract_z
Si Si1 0.183895 0.081475 0.134512
Si Si2 0.000000 0.631119 0.500000
Si Si3 0.845519 0.832265 0.708654
Si Si4 0.229145 0.324879 0.323884
Si Si5 0.746942 0.917526 0.175879
Si Si6 0.188882 0.081257 0.436994
Si Si7 0.214406 0.832902 0.981824
O O1 0.240348 0.126868 0.204102
O O2 0.965944 0.082760 0.152661
O O3 0.257473 0.000000 0.133984
O O4 0.284201 0.118169 0.045395
O O5 0.906523 0.680422 0.581331
O O6 0.845923 0.580584 0.482225
O O7 0.778726 0.749905 0.723163
O O8 0.754525 0.867329 0.643356
O O9 0.065606 0.840296 0.674095
O O10 0.165238 0.387241 0.270654
O O11 0.685315 0.864050 0.111796
O O12 0.675655 0.000000 0.171938
O O13 0.000000 0.111432 0.500000
O O14 0.159373 0.000000 0.408938
O O15 0.250000 0.750000 0.000000
O O16 0.000000 0.844412 0.000000
#
# Coordination Sequence:
#
# PCOD8092266 Si02
#       7
#     8   4   8   8   8   8   8
#     4   9  18  34  60  89 119 161 209 254 307 375
#     4  12  25  44  66  94 125 168 220 268 323 388
#     4  11  22  40  60  89 126 163 211 262 322 377
#     4  11  24  38  62  88 123 167 213 266 321 383
#     4   9  19  36  58  88 122 160 207 261 311 369
#     4  11  24  42  65  93 126 164 210 264 322 382
#     4  10  19  34  60  90 123 159 203 249 306 374
#
# _framework density 23.093261999999999
#
# number of rings (size 3 to 8) (size 9 to 14) (size 15 to 20)
#    0.000    1.692    1.538    3.000    1.077    4.923 
#    0.000    1.538    0.000    5.538    0.000    0.000 
#    0.000    0.000    0.000    0.000    0.000    0.000 
#
# Total GULP energy -322431.027068 kJ/mol
# GULP energy per Si atom -12401.193349 kJ/mol
# Density = 2.304070 g / cm^3
# Si number density = 23.093262 Si / 1000 Ang^3
#
#
#
# Elastic Constant Matrix: (Units=GPa)
#
#
# Indices 1 2 3 4 5 6 
#
# 1 63.2062 10.0077 33.8264 0.0000 16.9476 0.0000
# 2 10.0077 168.6819 73.9631 0.0000 21.5845 0.0000
# 3 33.8264 73.9631 156.8471 0.0000 26.0011 0.0000
# 4 0.0000 0.0000 0.0000 40.8180 0.0000 7.8855
# 5 16.9476 21.5845 26.0011 0.0000 27.3243 0.0000
# 6 0.0000 0.0000 0.0000 7.8855 0.0000 27.0420
#
#
#
# Elastic Compliance Matrix: (Units=1/GPa)
#
#
# Indices 1 2 3 4 5 6 
#
# 1 0.020215 0.001638 -0.003371 0.000000 -0.010624 0.000000
# 2 0.001638 0.007823 -0.003383 0.000000 -0.003977 0.000000
# 3 -0.003371 -0.003383 0.009390 0.000000 -0.004172 0.000000
# 4 0.000000 0.000000 0.000000 0.025962 0.000000 -0.007570
# 5 -0.010624 -0.003977 -0.004172 0.000000 0.050298 0.000000
# 6 0.000000 0.000000 0.000000 -0.007570 0.000000 0.039187
#
#
# Mechanical properties :
#
#
# Convention : Reuss Voigt Hill
#
# Bulk Modulus (GPa) = 36.77051 69.36997 53.07024
# Shear Modulus (GPa) = 29.04083 37.09939 33.07011
#
# Velocity S-wave (km/s) = 3.55004 4.01247 3.78831
# Velocity P-wave (km/s) = 5.72371 7.18128 6.49352
#
# Compressibility (1/GPa) = 0.02719571
#
# Stress axis : x y z
#
# Youngs Moduli (GPa) = 49.46925 127.82019 106.50087
#
# Poissons Ratio (x) = -0.20940 0.35900
# Poissons Ratio (y) = -0.08104 0.36033
# Poissons Ratio (z) = 0.16675 0.43246
#
# Static dielectric constant tensor:
#      x y z
#    x 3.909820 0.000000 0.220830 
#    y 0.000000 4.263350 0.000000 
#    z 0.220830 0.000000 4.299770 
# 
# 
# High freq. dielectric constant tensor:
#      x y z
#    x 1.900010 0.000000 0.014300 
#    y 0.000000 1.911850 0.000000 
#    z 0.014300 0.000000 1.918610 
# 
# From -- ./inp_files/256524.got.cif
#   From: 2010.06.25/outbox.cif.g09.slc.cpg/sg12_129_cif.got.tgz:256524.got - 2010.06.28 00:19:55.
