data_PCOD8092467
_publ_section_title
;
Structure prediction by ZEFSAII (Michael W. Deem and Ramdas Pophale) SiO2 
 PCOD8092467
Probable space group: C 2/M
;
_chemical_formula_sum "Si O2"
_cell_formula_units_Z 56
_cell_length_a 27.038965
_cell_length_b 9.347124
_cell_length_c 11.727020
_cell_angle_alpha 90.000000
_cell_angle_beta 76.661624
_cell_angle_gamma 90.000000
_cell_volume 2883.895640
_symmetry_space_group_name_H-M "C 2/M"
_symmetry_group_IT_number 12
_symmetry_cell_setting 'monoclinic'
loop_
_space_group_symop_operation_xyz
x,y,z
-x,y,-z
-x,-y,-z
x,-y,z
1/2+x,1/2+y,z
1/2-x,1/2+y,-z
1/2-x,1/2-y,-z
1/2+x,1/2-y,z
loop_
_atom_site_type_symbol
_atom_site_label
_atom_site_fract_x
_atom_site_fract_y
_atom_site_fract_z
Si Si1 0.865009 0.834934 0.425263
Si Si2 0.754820 0.666991 0.114567
Si Si3 0.482367 0.335913 0.381957
Si Si4 0.443921 0.166039 0.020391
Si Si5 0.931539 0.334099 0.769726
Si Si6 0.850330 0.669594 0.212921
Si Si7 0.156005 0.165987 0.309940
O O1 0.923890 0.794009 0.403622
O O2 0.839376 0.740492 0.340685
O O3 0.837831 0.798803 0.559487
O O4 0.857687 0.000000 0.396899
O O5 0.755699 0.500000 0.085393
O O6 0.805964 0.715820 0.150337
O O7 0.708157 0.707016 0.221260
O O8 0.750000 0.750000 0.000000
O O9 0.500000 0.305745 0.500000
O O10 0.492462 0.500000 0.342109
O O11 0.513202 0.233097 0.281512
O O12 0.419432 0.188432 0.909175
O O13 0.450446 0.000000 0.045165
O O14 0.500000 0.239278 0.000000
O O15 0.403749 0.229317 0.133059
O O16 0.932809 0.500000 0.735646
O O17 0.889174 0.257705 0.717924
O O18 0.850738 0.500000 0.228702
O O19 0.141270 0.000000 0.301600
#
# Coordination Sequence:
#
# PCOD8092467 Si02
#       7
#     8   8   8   8   8   8   8
#     4  10  21  37  57  81 112 152 194 229 277 345
#     4  10  22  40  63  86 112 149 191 238 291 343
#     4  10  19  35  55  77 114 159 190 224 280 339
#     4   9  18  33  52  76 111 148 177 220 285 342
#     4  11  21  33  56  87 113 144 192 242 283 331
#     4  10  21  38  58  82 114 148 187 238 293 336
#     4  10  21  39  58  79 112 153 189 228 287 349
#
# _framework density 19.41818
#
# number of rings (size 3 to 8) (size 9 to 14) (size 15 to 20)
#    0.000    2.000    1.429    2.143    0.000    5.429 
#    0.000    1.429    0.000    3.857    0.000    0.000 
#    0.000    0.000    0.000    0.000    0.000    0.000 
#
# Total GULP energy -347263.166155 kJ/mol
# GULP energy per Si atom -12402.255934 kJ/mol
# Density = 1.937398 g / cm^3
# Si number density = 19.418180 Si / 1000 Ang^3
#
#
#
# Elastic Constant Matrix: (Units=GPa)
#
#
# Indices 1 2 3 4 5 6 
#
# 1 111.0022 41.7099 68.0900 0.0000 2.5225 0.0000
# 2 41.7099 58.6289 55.8586 0.0000 2.2176 0.0000
# 3 68.0900 55.8586 144.0757 0.0000 -3.4735 0.0000
# 4 0.0000 0.0000 0.0000 31.7369 0.0000 6.0245
# 5 2.5225 2.2176 -3.4735 0.0000 35.7890 0.0000
# 6 0.0000 0.0000 0.0000 6.0245 0.0000 21.1054
#
#
#
# Elastic Compliance Matrix: (Units=1/GPa)
#
#
# Indices 1 2 3 4 5 6 
#
# 1 0.013835 -0.005628 -0.004382 0.000000 -0.001052 0.000000
# 2 -0.005628 0.029600 -0.008871 0.000000 -0.002298 0.000000
# 3 -0.004382 -0.008871 0.012501 0.000000 0.002072 0.000000
# 4 0.000000 0.000000 0.000000 0.033314 0.000000 -0.009510
# 5 -0.001052 -0.002298 0.002072 0.000000 0.028359 0.000000
# 6 0.000000 0.000000 0.000000 -0.009510 0.000000 0.050096
#
#
# Mechanical properties :
#
#
# Convention : Reuss Voigt Hill
#
# Bulk Modulus (GPa) = 55.02623 71.66930 63.34777
# Shear Modulus (GPa) = 23.63776 27.59616 25.61696
#
# Velocity S-wave (km/s) = 3.49277 3.77390 3.63605
# Velocity P-wave (km/s) = 6.68318 7.48186 7.09377
#
# Compressibility (1/GPa) = 0.01817315
#
# Stress axis : x y z
#
# Youngs Moduli (GPa) = 72.27790 33.78426 79.99306
#
# Poissons Ratio (x) = 0.19015 0.35052
# Poissons Ratio (y) = 0.40680 0.70965
# Poissons Ratio (z) = 0.31671 0.29971
#
# Static dielectric constant tensor:
#      x y z
#    x 3.710530 0.000000 -0.152170 
#    y 0.000000 3.332740 0.000000 
#    z -0.152170 0.000000 3.695870 
# 
# 
# High freq. dielectric constant tensor:
#      x y z
#    x 1.759750 0.000000 -0.001870 
#    y 0.000000 1.734050 0.000000 
#    z -0.001870 0.000000 1.768630 
# 
# From -- ./inp_files/180690.got.cif
#   From: 2010.06.25/outbox.cif.g09.slc.cpg/sg12_91_cif.got.tgz:180690.got - 2010.06.28 00:19:55.
