data_PCOD8092838
_publ_section_title
;
Structure prediction by ZEFSAII (Michael W. Deem and Ramdas Pophale) SiO2 
 PCOD8092838
Probable space group: C 2/M
;
_chemical_formula_sum "Si O2"
_cell_formula_units_Z 48
_cell_length_a 20.777854
_cell_length_b 8.663905
_cell_length_c 14.991727
_cell_angle_alpha 90.000000
_cell_angle_beta 110.228959
_cell_angle_gamma 90.000000
_cell_volume 2532.306443
_symmetry_space_group_name_H-M "C 2/M"
_symmetry_group_IT_number 12
_symmetry_cell_setting 'monoclinic'
loop_
_space_group_symop_operation_xyz
x,y,z
-x,y,-z
-x,-y,-z
x,-y,z
1/2+x,1/2+y,z
1/2-x,1/2+y,-z
1/2-x,1/2-y,-z
1/2+x,1/2-y,z
loop_
_atom_site_type_symbol
_atom_site_label
_atom_site_fract_x
_atom_site_fract_y
_atom_site_fract_z
Si Si1 0.458977 0.818569 0.604183
Si Si2 0.797087 0.180435 0.211408
Si Si3 0.348727 0.317706 0.884644
Si Si4 0.905985 0.819925 0.408781
Si Si5 0.892113 0.816337 0.097499
Si Si6 0.954996 0.183428 0.787525
O O1 0.530409 0.731481 0.621686
O O2 0.404649 0.773143 0.501074
O O3 0.429295 0.763799 0.684493
O O4 0.471630 0.000000 0.608445
O O5 0.725574 0.266741 0.183042
O O6 0.836367 0.215241 0.322349
O O7 0.841321 0.246109 0.149734
O O8 0.783960 0.000000 0.192056
O O9 0.351485 0.500000 0.890870
O O10 0.404999 0.257787 0.841574
O O11 0.366281 0.248978 0.990559
O O12 0.914040 0.000000 0.433174
O O13 0.968869 0.756892 0.152592
O O14 0.892591 0.000000 0.097437
O O15 0.952375 0.000000 0.774461
#
# Coordination Sequence:
#
# PCOD8092838 Si02
#       6
#     8   8   8   8   8   8
#     4  11  21  33  54  85 112 136 173 231 280 314
#     4  10  20  35  56  80 111 146 178 219 270 327
#     4  10  21  34  55  82 111 145 182 228 270 314
#     4  10  19  35  58  81 106 144 183 218 265 327
#     4   9  17  34  57  81 105 142 191 226 261 315
#     4  10  19  36  57  79 109 147 187 221 264 325
#
# _framework density 18.95505
#
# number of rings (size 3 to 8) (size 9 to 14) (size 15 to 20)
#    0.000    2.000    1.667    4.000    0.000    4.000 
#    0.000    1.667    0.000    2.000    0.000    0.000 
#    0.000    0.000    0.000    0.000    0.000    0.000 
#
# Total GULP energy -297652.311771 kJ/mol
# GULP energy per Si atom -12402.179657 kJ/mol
# Density = 1.891191 g / cm^3
# Si number density = 18.955050 Si / 1000 Ang^3
#
#
#
# Elastic Constant Matrix: (Units=GPa)
#
#
# Indices 1 2 3 4 5 6 
#
# 1 109.2147 14.5898 47.9171 0.0000 8.8067 0.0000
# 2 14.5898 24.4491 21.7671 0.0000 -0.4442 0.0000
# 3 47.9171 21.7671 125.2445 0.0000 3.3349 0.0000
# 4 0.0000 0.0000 0.0000 16.5634 0.0000 6.4263
# 5 8.8067 -0.4442 3.3349 0.0000 16.0303 0.0000
# 6 0.0000 0.0000 0.0000 6.4263 0.0000 24.0413
#
#
#
# Elastic Compliance Matrix: (Units=1/GPa)
#
#
# Indices 1 2 3 4 5 6 
#
# 1 0.011749 -0.003847 -0.003672 0.000000 -0.005797 0.000000
# 2 -0.003847 0.049803 -0.007317 0.000000 0.005016 0.000000
# 3 -0.003672 -0.007317 0.010672 0.000000 -0.000406 0.000000
# 4 0.000000 0.000000 0.000000 0.067360 0.000000 -0.018005
# 5 -0.005797 0.005016 -0.000406 0.000000 0.065790 0.000000
# 6 0.000000 0.000000 0.000000 -0.018005 0.000000 0.046408
#
#
# Mechanical properties :
#
#
# Convention : Reuss Voigt Hill
#
# Bulk Modulus (GPa) = 23.50150 47.49515 35.49832
# Shear Modulus (GPa) = 16.91262 22.96928 19.94095
#
# Velocity S-wave (km/s) = 2.99029 3.48483 3.24699
# Velocity P-wave (km/s) = 4.93436 6.42676 5.72936
#
# Compressibility (1/GPa) = 0.04255048
#
# Stress axis : x y z
#
# Youngs Moduli (GPa) = 85.11577 20.07926 93.70545
#
# Poissons Ratio (x) = 0.07725 0.34408
# Poissons Ratio (y) = 0.32745 0.68566
# Poissons Ratio (z) = 0.31254 0.14692
#
# Static dielectric constant tensor:
#      x y z
#    x 3.358880 0.000000 -0.076510 
#    y 0.000000 3.172360 0.000000 
#    z -0.076510 0.000000 3.756860 
# 
# 
# High freq. dielectric constant tensor:
#      x y z
#    x 1.720430 0.000000 -0.001030 
#    y 0.000000 1.714390 0.000000 
#    z -0.001030 0.000000 1.755480 
# 
# From -- ./inp_files/229812.got.cif
#   From: 2010.06.25/outbox.cif.g09.slc.cpg/sg12_115_cif.got.tgz:229812.got - 2010.06.28 00:19:55.
