data_PCOD8092554
_publ_section_title
;
Structure prediction by ZEFSAII (Michael W. Deem and Ramdas Pophale) SiO2 
 PCOD8092554
Probable space group: C 2/M
;
_chemical_formula_sum "Si O2"
_cell_formula_units_Z 64
_cell_length_a 14.189485
_cell_length_b 8.783470
_cell_length_c 29.310840
_cell_angle_alpha 90.000000
_cell_angle_beta 105.567190
_cell_angle_gamma 90.000000
_cell_volume 3519.086776
_symmetry_space_group_name_H-M "C 2/M"
_symmetry_group_IT_number 12
_symmetry_cell_setting 'monoclinic'
loop_
_space_group_symop_operation_xyz
x,y,z
-x,y,-z
-x,-y,-z
x,-y,z
1/2+x,1/2+y,z
1/2-x,1/2+y,-z
1/2-x,1/2-y,-z
1/2+x,1/2-y,z
loop_
_atom_site_type_symbol
_atom_site_label
_atom_site_fract_x
_atom_site_fract_y
_atom_site_fract_z
Si Si1 0.275348 0.680322 0.551535
Si Si2 0.855552 0.180162 0.698587
Si Si3 0.011042 0.178596 0.052211
Si Si4 0.798708 0.820683 0.867762
Si Si5 0.968558 0.821059 0.625752
Si Si6 0.179487 0.181516 0.625808
Si Si7 0.093375 0.322060 0.880693
Si Si8 0.097395 0.321754 0.200146
O O1 0.261811 0.500000 0.548999
O O2 0.250000 0.750000 0.500000
O O3 0.386578 0.727237 0.578247
O O4 0.202985 0.749118 0.579674
O O5 0.935445 0.234562 0.671657
O O6 0.753341 0.262133 0.674429
O O7 0.894227 0.228652 0.752511
O O8 0.838654 0.000000 0.694098
O O9 0.118052 0.222461 0.084831
O O10 0.926237 0.245971 0.073083
O O11 0.994961 0.000000 0.049246
O O12 0.000000 0.247230 0.000000
O O13 0.695741 0.761888 0.874048
O O14 0.817796 0.731708 0.823273
O O15 0.797291 0.000000 0.857091
O O16 0.073144 0.751898 0.625836
O O17 0.979441 0.000000 0.627914
O O18 0.182158 0.000000 0.623094
O O19 0.098343 0.500000 0.890104
O O20 0.008105 0.279329 0.834190
O O21 0.108697 0.500000 0.211260
#
# Coordination Sequence:
#
# PCOD8092554 Si02
#       8
#     8   8   8   8   8   8   8   8
#     4  10  20  36  54  77 106 138 172 209 252 299
#     4  10  20  36  54  75 103 135 166 202 250 303
#     4   9  18  32  50  73 101 132 166 203 247 301
#     4   9  18  34  52  71  99 133 165 203 251 298
#     4   8  18  35  54  74 102 136 169 203 248 301
#     4  10  19  35  56  78 102 133 171 212 251 294
#     4   9  19  34  51  72  99 130 167 209 250 292
#     4  10  20  34  51  74 100 128 166 209 248 293
#
# _framework density 18.186537000000001
#
# number of rings (size 3 to 8) (size 9 to 14) (size 15 to 20)
#    0.000    2.625    0.000    2.250    0.000    3.250 
#    0.000   12.500    0.000    0.000    0.000    0.000 
#    0.000    0.000    0.000    0.000    0.000    0.000 
#
# Total GULP energy -396817.982476 kJ/mol
# GULP energy per Si atom -12400.561952 kJ/mol
# Density = 1.814514 g / cm^3
# Si number density = 18.186537 Si / 1000 Ang^3
#
#
#
# Elastic Constant Matrix: (Units=GPa)
#
#
# Indices 1 2 3 4 5 6 
#
# 1 160.1661 37.3804 62.7134 0.0000 -12.9252 0.0000
# 2 37.3804 54.8400 40.0546 0.0000 -4.6179 0.0000
# 3 62.7134 40.0546 139.0623 0.0000 -6.6704 0.0000
# 4 0.0000 0.0000 0.0000 31.8823 0.0000 -4.1413
# 5 -12.9252 -4.6179 -6.6704 0.0000 14.4682 0.0000
# 6 0.0000 0.0000 0.0000 -4.1413 0.0000 25.3469
#
#
#
# Elastic Compliance Matrix: (Units=1/GPa)
#
#
# Indices 1 2 3 4 5 6 
#
# 1 0.008486 -0.003456 -0.002578 0.000000 0.005290 0.000000
# 2 -0.003456 0.024778 -0.005468 0.000000 0.002300 0.000000
# 3 -0.002578 -0.005468 0.009954 0.000000 0.000541 0.000000
# 4 0.000000 0.000000 0.000000 0.032045 0.000000 0.005236
# 5 0.005290 0.002300 0.000541 0.000000 0.074826 0.000000
# 6 0.000000 0.000000 0.000000 0.005236 0.000000 0.040308
#
#
# Mechanical properties :
#
#
# Convention : Reuss Voigt Hill
#
# Bulk Modulus (GPa) = 49.46851 70.48499 59.97675
# Shear Modulus (GPa) = 22.71271 28.60082 25.65676
#
# Velocity S-wave (km/s) = 3.53778 3.96995 3.76008
# Velocity P-wave (km/s) = 6.62929 7.73659 7.20425
#
# Compressibility (1/GPa) = 0.02021488
#
# Stress axis : x y z
#
# Youngs Moduli (GPa) = 117.83547 40.35818 100.45725
#
# Poissons Ratio (x) = 0.13949 0.25897
# Poissons Ratio (y) = 0.40727 0.54929
# Poissons Ratio (z) = 0.30377 0.22068
#
# Static dielectric constant tensor:
#      x y z
#    x 3.627150 0.000000 -0.050050 
#    y 0.000000 3.250360 0.000000 
#    z -0.050050 0.000000 3.401550 
# 
# 
# High freq. dielectric constant tensor:
#      x y z
#    x 1.708260 0.000000 -0.003690 
#    y 0.000000 1.698590 0.000000 
#    z -0.003690 0.000000 1.708540 
# 
# From -- ./inp_files/359892.got.cif
#   From: 2010.06.25/outbox.cif.g09.slc.cpg/sg12_180_cif.got.tgz:359892.got - 2010.06.28 00:19:55.
