data_PCOD8092626
_publ_section_title
;
Structure prediction by ZEFSAII (Michael W. Deem and Ramdas Pophale) SiO2 
 PCOD8092626
Probable space group: C 2/M
;
_chemical_formula_sum "Si O2"
_cell_formula_units_Z 40
_cell_length_a 14.780908
_cell_length_b 18.043879
_cell_length_c 14.343705
_cell_angle_alpha 90.000000
_cell_angle_beta 32.348852
_cell_angle_gamma 90.000000
_cell_volume 2046.940784
_symmetry_space_group_name_H-M "C 2/M"
_symmetry_group_IT_number 12
_symmetry_cell_setting 'monoclinic'
loop_
_space_group_symop_operation_xyz
x,y,z
-x,y,-z
-x,-y,-z
x,-y,z
1/2+x,1/2+y,z
1/2-x,1/2+y,-z
1/2-x,1/2-y,-z
1/2+x,1/2-y,z
loop_
_atom_site_type_symbol
_atom_site_label
_atom_site_fract_x
_atom_site_fract_y
_atom_site_fract_z
Si Si1 0.617461 0.178515 0.485736
Si Si2 0.883161 0.916835 0.347763
Si Si3 0.821485 0.287523 0.187903
Si Si4 0.824481 0.080605 0.613246
Si Si5 0.892038 0.221426 0.805937
O O1 0.500000 0.155900 0.500000
O O2 0.719802 0.105775 0.428548
O O3 0.753602 0.236809 0.329625
O O4 0.524913 0.214463 0.657492
O O5 0.823794 0.924266 0.504096
O O6 0.024339 0.851590 0.219358
O O7 0.946122 0.000000 0.260033
O O8 0.836106 0.369557 0.218666
O O9 0.696477 0.300056 0.212026
O O10 0.000000 0.255318 0.000000
O O11 0.000000 0.115873 0.500000
O O12 0.800805 0.000000 0.679789
O O13 0.750000 0.250000 0.000000
#
# Coordination Sequence:
#
# PCOD8092626 Si02
#       5
#     8   8   8   8   8
#     4  10  22  41  61  86 118 155 206 250 293 346
#     4  11  22  38  63  88 121 162 195 243 305 353
#     4  11  21  35  59  89 118 156 197 246 296 347
#     4  10  19  35  56  84 122 159 191 234 300 364
#     4  11  22  37  62  90 118 155 204 249 292 353
#
# _framework density 19.541356
#
# number of rings (size 3 to 8) (size 9 to 14) (size 15 to 20)
#    0.000    1.400    4.000    2.400    2.800    0.800 
#    0.000    1.000    0.000   11.400    0.000    0.000 
#    0.000    0.000    0.000    0.000    0.000    0.000 
#
# Total GULP energy -247774.563117 kJ/mol
# GULP energy per Si atom -12388.728156 kJ/mol
# Density = 1.949688 g / cm^3
# Si number density = 19.541356 Si / 1000 Ang^3
#
#
#
# Elastic Constant Matrix: (Units=GPa)
#
#
# Indices 1 2 3 4 5 6 
#
# 1 77.5469 49.4025 18.4905 -0.0034 -5.3068 0.0024
# 2 49.4025 118.3959 46.7586 -0.0043 -2.0155 0.0030
# 3 18.4905 46.7586 113.1330 -0.0049 10.3782 0.0019
# 4 -0.0034 -0.0043 -0.0049 21.5678 0.0037 -10.5983
# 5 -5.3068 -2.0155 10.3782 0.0037 27.6732 -0.0023
# 6 0.0024 0.0030 0.0019 -10.5983 -0.0023 33.7072
#
#
#
# Elastic Compliance Matrix: (Units=1/GPa)
#
#
# Indices 1 2 3 4 5 6 
#
# 1 0.017792 -0.007313 -0.000155 0.000001 0.002937 0.000000
# 2 -0.007313 0.013253 -0.004394 0.000000 0.001211 0.000000
# 3 -0.000155 -0.004394 0.011094 0.000003 -0.004510 0.000000
# 4 0.000001 0.000000 0.000003 0.054838 -0.000007 0.017243
# 5 0.002937 0.001211 -0.004510 -0.000007 0.038479 0.000000
# 6 0.000000 0.000000 0.000000 0.017243 0.000000 0.035089
#
#
# Mechanical properties :
#
#
# Convention : Reuss Voigt Hill
#
# Bulk Modulus (GPa) = 54.29786 59.81988 57.05887
# Shear Modulus (GPa) = 24.94916 29.55124 27.25020
#
# Velocity S-wave (km/s) = 3.57702 3.89297 3.73834
# Velocity P-wave (km/s) = 6.70124 7.13340 6.92069
#
# Compressibility (1/GPa) = 0.01841693
#
# Stress axis : x y z
#
# Youngs Moduli (GPa) = 56.20456 75.45235 90.13792
#
# Poissons Ratio (x) = 0.55177 0.01397
# Poissons Ratio (y) = 0.41101 0.39603
# Poissons Ratio (z) = 0.00871 0.33150
#
# Static dielectric constant tensor:
#      x y z
#    x 3.421410 -0.000070 -0.423130 
#    y -0.000070 3.870550 -0.000110 
#    z -0.423130 -0.000110 3.001040 
# 
# 
# High freq. dielectric constant tensor:
#      x y z
#    x 1.772820 0.000000 0.001660 
#    y 0.000000 1.754710 0.000000 
#    z 0.001660 0.000000 1.740800 
# 
# From -- ./inp_files/63140.got.cif
#   From: 2010.06.25/outbox.cif.g09.slc.cpg/sg12_32_cif.got.tgz:63140.got - 2010.06.28 00:19:55.
