data_PCOD8092347
_publ_section_title
;
Structure prediction by ZEFSAII (Michael W. Deem and Ramdas Pophale) SiO2 
 PCOD8092347
Probable space group: C 2/M
;
_chemical_formula_sum "Si O2"
_cell_formula_units_Z 64
_cell_length_a 18.166222
_cell_length_b 28.200141
_cell_length_c 12.259160
_cell_angle_alpha 90.000000
_cell_angle_beta 146.839798
_cell_angle_gamma 90.000000
_cell_volume 3435.180341
_symmetry_space_group_name_H-M "C 2/M"
_symmetry_group_IT_number 12
_symmetry_cell_setting 'monoclinic'
loop_
_space_group_symop_operation_xyz
x,y,z
-x,y,-z
-x,-y,-z
x,-y,z
1/2+x,1/2+y,z
1/2-x,1/2+y,-z
1/2-x,1/2-y,-z
1/2+x,1/2-y,z
loop_
_atom_site_type_symbol
_atom_site_label
_atom_site_fract_x
_atom_site_fract_y
_atom_site_fract_z
Si Si1 0.478784 0.944970 0.645470
Si Si2 0.153960 0.265826 0.511377
Si Si3 0.278621 0.944316 0.211165
Si Si4 0.617830 0.799603 0.910625
Si Si5 0.948380 0.130653 0.056265
Si Si6 0.261889 0.791239 0.162798
Si Si7 0.299193 0.327702 0.528245
Si Si8 0.525211 0.119131 0.153910
O O1 0.353975 0.926722 0.415641
O O2 0.620467 0.934246 0.763378
O O3 0.478211 0.923254 0.764556
O O4 0.458140 0.000000 0.635553
O O5 0.133751 0.286710 0.607603
O O6 0.275971 0.295078 0.606886
O O7 0.179583 0.209152 0.545456
O O8 0.021518 0.272608 0.276380
O O9 0.241370 0.000000 0.171281
O O10 0.143786 0.914066 0.023057
O O11 0.670466 0.816857 0.857116
O O12 0.592777 0.843825 0.959595
O O13 0.723758 0.763258 0.092007
O O14 0.074101 0.137254 0.294861
O O15 0.866185 0.179332 0.957486
O O16 0.000000 0.119962 0.000000
O O17 0.172441 0.359131 0.341300
O O18 0.500000 0.100407 0.000000
#
# Coordination Sequence:
#
# PCOD8092347 Si02
#       8
#     8   8   8   8   8   8   8   8
#     4   9  19  39  63  88 113 144 189 234 280 336
#     4  10  19  35  51  70 107 150 194 233 269 322
#     4   9  20  38  62  88 117 146 178 233 292 343
#     4  10  22  35  51  76 107 144 196 237 272 327
#     4  12  21  33  53  83 115 149 186 230 289 350
#     4  11  21  34  52  77 106 151 194 235 279 325
#     4  10  21  34  51  78 112 149 188 228 281 335
#     4  11  22  37  58  83 111 149 190 234 284 337
#
# _framework density 18.630754
#
# number of rings (size 3 to 8) (size 9 to 14) (size 15 to 20)
#    0.000    1.750    2.500    3.375    1.750    1.000 
#    0.000    0.625    0.000    0.000    0.000    1.750 
#    0.000    0.000    0.000    0.000    0.000    0.000 
#
# Total GULP energy -396700.227722 kJ/mol
# GULP energy per Si atom -12396.882116 kJ/mol
# Density = 1.858835 g / cm^3
# Si number density = 18.630754 Si / 1000 Ang^3
#
#
#
# Elastic Constant Matrix: (Units=GPa)
#
#
# Indices 1 2 3 4 5 6 
#
# 1 88.9339 30.0397 40.0920 0.0000 -10.9253 0.0000
# 2 30.0397 59.9390 34.6834 0.0000 -1.1980 0.0000
# 3 40.0920 34.6834 79.2683 0.0000 -4.0823 0.0000
# 4 0.0000 0.0000 0.0000 30.4531 0.0000 4.8888
# 5 -10.9253 -1.1980 -4.0823 0.0000 33.2598 0.0000
# 6 0.0000 0.0000 0.0000 4.8888 0.0000 33.2552
#
#
#
# Elastic Compliance Matrix: (Units=1/GPa)
#
#
# Indices 1 2 3 4 5 6 
#
# 1 0.015948 -0.004510 -0.005869 0.000000 0.004356 0.000000
# 2 -0.004510 0.023620 -0.008138 0.000000 -0.001629 0.000000
# 3 -0.005869 -0.008138 0.019151 0.000000 0.000130 0.000000
# 4 0.000000 0.000000 0.000000 0.033631 0.000000 -0.004944
# 5 0.004356 -0.001629 0.000130 0.000000 0.031454 0.000000
# 6 0.000000 0.000000 0.000000 -0.004944 0.000000 0.030797
#
#
# Mechanical properties :
#
#
# Convention : Reuss Voigt Hill
#
# Bulk Modulus (GPa) = 46.11112 48.64125 47.37619
# Shear Modulus (GPa) = 25.14281 27.61537 26.37909
#
# Velocity S-wave (km/s) = 3.67758 3.85417 3.76691
# Velocity P-wave (km/s) = 6.54496 6.78019 6.66361
#
# Compressibility (1/GPa) = 0.02168674
#
# Stress axis : x y z
#
# Youngs Moduli (GPa) = 62.70214 42.33667 52.21674
#
# Poissons Ratio (x) = 0.19094 0.30644
# Poissons Ratio (y) = 0.28278 0.42493
# Poissons Ratio (z) = 0.36798 0.34453
#
# Static dielectric constant tensor:
#      x y z
#    x 3.536630 0.000000 0.009140 
#    y 0.000000 3.251390 0.000000 
#    z 0.009140 0.000000 3.346510 
# 
# 
# High freq. dielectric constant tensor:
#      x y z
#    x 1.724060 0.000000 0.006530 
#    y 0.000000 1.708250 0.000000 
#    z 0.006530 0.000000 1.713540 
# 
# From -- ./inp_files/161242.got.cif
#   From: 2010.06.25/outbox.cif.g09.slc.cpg/sg12_81_cif.got.tgz:161242.got - 2010.06.28 00:19:55.
