data_PCOD8092703
_publ_section_title
;
Structure prediction by ZEFSAII (Michael W. Deem and Ramdas Pophale) SiO2 
 PCOD8092703
Probable space group: C 2/M
;
_chemical_formula_sum "Si O2"
_cell_formula_units_Z 56
_cell_length_a 18.490222
_cell_length_b 9.237585
_cell_length_c 18.100136
_cell_angle_alpha 90.000000
_cell_angle_beta 112.028107
_cell_angle_gamma 90.000000
_cell_volume 2865.907270
_symmetry_space_group_name_H-M "C 2/M"
_symmetry_group_IT_number 12
_symmetry_cell_setting 'monoclinic'
loop_
_space_group_symop_operation_xyz
x,y,z
-x,y,-z
-x,-y,-z
x,-y,z
1/2+x,1/2+y,z
1/2-x,1/2+y,-z
1/2-x,1/2-y,-z
1/2+x,1/2-y,z
loop_
_atom_site_type_symbol
_atom_site_label
_atom_site_fract_x
_atom_site_fract_y
_atom_site_fract_z
Si Si1 0.327990 0.330436 0.233088
Si Si2 0.421337 0.832421 0.510671
Si Si3 0.978352 0.170240 0.201629
Si Si4 0.891282 0.333016 0.667026
Si Si5 0.771578 0.662257 0.937434
Si Si6 0.055582 0.663944 0.958910
Si Si7 0.786864 0.171626 0.377984
O O1 0.313413 0.500000 0.233435
O O2 0.416119 0.294210 0.242311
O O3 0.267154 0.265364 0.149967
O O4 0.309098 0.263938 0.305885
O O5 0.500000 0.776317 0.500000
O O6 0.429151 0.808133 0.601235
O O7 0.346057 0.742694 0.457889
O O8 0.407004 0.000000 0.485883
O O9 0.060730 0.240077 0.255112
O O10 0.945077 0.235572 0.113102
O O11 0.989681 0.000000 0.195166
O O12 0.897132 0.500000 0.693153
O O13 0.801159 0.282623 0.634700
O O14 0.737885 0.500000 0.933657
O O15 0.750000 0.750000 0.000000
O O16 0.863676 0.663290 0.966261
O O17 0.032309 0.500000 0.926583
O O18 0.000000 0.729521 0.000000
O O19 0.797692 0.000000 0.386992
#
# Coordination Sequence:
#
# PCOD8092703 Si02
#       7
#     8   8   8   8   8   8   8
#     4   9  19  35  55  80 110 143 184 231 278 326
#     4  10  21  38  59  85 118 150 181 226 279 329
#     4  11  22  37  57  81 112 147 184 233 282 328
#     4  10  22  38  58  83 114 150 186 226 276 333
#     4  10  19  35  57  80 109 145 185 232 278 325
#     4  10  22  37  58  83 109 148 191 230 277 333
#     4  10  21  37  60  85 110 146 188 231 273 326
#
# _framework density 19.54006
#
# number of rings (size 3 to 8) (size 9 to 14) (size 15 to 20)
#    0.000    2.000    1.429    1.714    2.000    1.714 
#    0.000    1.429    0.000    0.000    0.000    0.000 
#    0.000    0.000    0.000    0.000    0.000    0.000 
#
# Total GULP energy -347205.908598 kJ/mol
# GULP energy per Si atom -12400.211021 kJ/mol
# Density = 1.949559 g / cm^3
# Si number density = 19.540060 Si / 1000 Ang^3
#
#
#
# Elastic Constant Matrix: (Units=GPa)
#
#
# Indices 1 2 3 4 5 6 
#
# 1 98.3390 28.9694 17.5405 0.0000 4.1415 0.0000
# 2 28.9694 54.0512 28.7315 0.0000 8.1219 0.0000
# 3 17.5405 28.7315 73.0813 0.0000 12.7654 0.0000
# 4 0.0000 0.0000 0.0000 30.9575 0.0000 4.0073
# 5 4.1415 8.1219 12.7654 0.0000 41.2386 0.0000
# 6 0.0000 0.0000 0.0000 4.0073 0.0000 25.0922
#
#
#
# Elastic Compliance Matrix: (Units=1/GPa)
#
#
# Indices 1 2 3 4 5 6 
#
# 1 0.012088 -0.006253 -0.000472 0.000000 0.000163 0.000000
# 2 -0.006253 0.026759 -0.008678 0.000000 -0.001956 0.000000
# 3 -0.000472 -0.008678 0.017867 0.000000 -0.003774 0.000000
# 4 0.000000 0.000000 0.000000 0.032984 0.000000 -0.005268
# 5 0.000163 -0.001956 -0.003774 0.000000 0.025786 0.000000
# 6 0.000000 0.000000 0.000000 -0.005268 0.000000 0.040694
#
#
# Mechanical properties :
#
#
# Convention : Reuss Voigt Hill
#
# Bulk Modulus (GPa) = 38.59457 41.77272 40.18364
# Shear Modulus (GPa) = 25.55977 29.47301 27.51639
#
# Velocity S-wave (km/s) = 3.62065 3.88795 3.75668
# Velocity P-wave (km/s) = 6.10518 6.44820 6.27903
#
# Compressibility (1/GPa) = 0.02591038
#
# Stress axis : x y z
#
# Youngs Moduli (GPa) = 82.72609 37.37091 55.96760
#
# Poissons Ratio (x) = 0.23367 0.02640
# Poissons Ratio (y) = 0.51725 0.48567
# Poissons Ratio (z) = 0.03902 0.32429
#
# Static dielectric constant tensor:
#      x y z
#    x 3.970140 0.000000 0.396460 
#    y 0.000000 2.900650 0.000000 
#    z 0.396460 0.000000 4.339520 
# 
# 
# High freq. dielectric constant tensor:
#      x y z
#    x 1.772530 0.000000 0.002140 
#    y 0.000000 1.737040 0.000000 
#    z 0.002140 0.000000 1.769120 
# 
# From -- ./inp_files/275083.got.cif
#   From: 2010.06.25/outbox.cif.g09.slc.cpg/sg12_138_cif.got.tgz:275083.got - 2010.06.28 00:19:55.
