data_PCOD8092867
_publ_section_title
;
Structure prediction by ZEFSAII (Michael W. Deem and Ramdas Pophale) SiO2 
 PCOD8092867
Probable space group: C 2/M
;
_chemical_formula_sum "Si O2"
_cell_formula_units_Z 48
_cell_length_a 20.482608
_cell_length_b 14.774430
_cell_length_c 8.720531
_cell_angle_alpha 90.000000
_cell_angle_beta 64.354330
_cell_angle_gamma 90.000000
_cell_volume 2379.023794
_symmetry_space_group_name_H-M "C 2/M"
_symmetry_group_IT_number 12
_symmetry_cell_setting 'monoclinic'
loop_
_space_group_symop_operation_xyz
x,y,z
-x,y,-z
-x,-y,-z
x,-y,z
1/2+x,1/2+y,z
1/2-x,1/2+y,-z
1/2-x,1/2-y,-z
1/2+x,1/2-y,z
loop_
_atom_site_type_symbol
_atom_site_label
_atom_site_fract_x
_atom_site_fract_y
_atom_site_fract_z
Si Si1 0.154600 0.604062 0.021074
Si Si2 0.083393 0.228184 0.591082
Si Si3 0.082097 0.228717 0.234254
Si Si4 0.717087 0.657338 0.596683
Si Si5 0.852967 0.598397 0.323628
Si Si6 0.302207 0.605448 0.041071
O O1 0.131730 0.500000 0.074121
O O2 0.100286 0.668552 0.168193
O O3 0.236624 0.620914 0.990806
O O4 0.149742 0.631420 0.848640
O O5 0.097345 0.218741 0.397538
O O6 0.133840 0.153048 0.623693
O O7 0.102116 0.330386 0.622727
O O8 0.001177 0.207930 0.720428
O O9 0.127826 0.155085 0.095910
O O10 0.750000 0.750000 0.500000
O O11 0.770633 0.583167 0.469615
O O12 0.719616 0.651074 0.776829
O O13 0.891143 0.500000 0.296844
O O14 0.320417 0.500000 0.046201
#
# Coordination Sequence:
#
# PCOD8092867 Si02
#       6
#     8   8   8   8   8   8
#     4  10  21  36  60  89 116 149 190 234 287 346
#     4  10  23  38  57  82 112 153 195 233 288 346
#     4  11  22  40  59  80 116 156 190 237 289 340
#     4  10  19  35  58  82 110 144 184 232 280 332
#     4  10  20  36  58  86 117 148 185 236 289 344
#     4  11  23  39  60  87 115 150 195 240 284 338
#
# _framework density 20.176342000000002
#
# number of rings (size 3 to 8) (size 9 to 14) (size 15 to 20)
#    0.000    1.667    0.000    6.000    0.000    5.333 
#    0.000    8.333    0.000    0.000    0.000    0.000 
#    0.000    0.000    0.000    0.000    0.000    0.000 
#
# Total GULP energy -297571.434591 kJ/mol
# GULP energy per Si atom -12398.809775 kJ/mol
# Density = 2.013042 g / cm^3
# Si number density = 20.176342 Si / 1000 Ang^3
#
#
#
# Elastic Constant Matrix: (Units=GPa)
#
#
# Indices 1 2 3 4 5 6 
#
# 1 74.5119 11.1928 25.9411 0.0000 2.4350 0.0000
# 2 11.1928 75.5450 31.7450 0.0000 0.4314 0.0000
# 3 25.9411 31.7450 100.4777 0.0000 -13.4228 0.0000
# 4 0.0000 0.0000 0.0000 21.8759 0.0000 4.5496
# 5 2.4350 0.4314 -13.4228 0.0000 22.4171 0.0000
# 6 0.0000 0.0000 0.0000 4.5496 0.0000 23.0136
#
#
#
# Elastic Compliance Matrix: (Units=1/GPa)
#
#
# Indices 1 2 3 4 5 6 
#
# 1 0.015132 -0.000390 -0.004350 0.000000 -0.004241 0.000000
# 2 -0.000390 0.015524 -0.005259 0.000000 -0.003405 0.000000
# 3 -0.004350 -0.005259 0.013928 0.000000 0.008913 0.000000
# 4 0.000000 0.000000 0.000000 0.047672 0.000000 -0.009424
# 5 -0.004241 -0.003405 0.008913 0.000000 0.050472 0.000000
# 6 0.000000 0.000000 0.000000 -0.009424 0.000000 0.045316
#
#
# Mechanical properties :
#
#
# Convention : Reuss Voigt Hill
#
# Bulk Modulus (GPa) = 40.67296 43.14361 41.90829
# Shear Modulus (GPa) = 23.12263 25.57170 24.34717
#
# Velocity S-wave (km/s) = 3.38897 3.56393 3.47755
# Velocity P-wave (km/s) = 5.95953 6.19396 6.07788
#
# Compressibility (1/GPa) = 0.02458636
#
# Stress axis : x y z
#
# Youngs Moduli (GPa) = 66.08361 64.41539 71.79845
#
# Poissons Ratio (x) = 0.02511 0.31234
# Poissons Ratio (y) = 0.02576 0.37759
# Poissons Ratio (z) = 0.28748 0.33876
#
# Static dielectric constant tensor:
#      x y z
#    x 3.860980 0.000000 -0.054800 
#    y 0.000000 3.782450 0.000000 
#    z -0.054800 0.000000 3.767870 
# 
# 
# High freq. dielectric constant tensor:
#      x y z
#    x 1.785680 0.000000 0.006850 
#    y 0.000000 1.784960 0.000000 
#    z 0.006850 0.000000 1.800860 
# 
# From -- ./inp_files/97258.got.cif
#   From: 2010.06.25/outbox.cif.g09.slc.cpg/sg12_49_cif.got.tgz:97258.got - 2010.06.28 00:19:55.
