data_PCOD8092560
_publ_section_title
;
Structure prediction by ZEFSAII (Michael W. Deem and Ramdas Pophale) SiO2 
 PCOD8092560
Probable space group: C 2/M
;
_chemical_formula_sum "Si O2"
_cell_formula_units_Z 48
_cell_length_a 9.676197
_cell_length_b 16.599883
_cell_length_c 21.186929
_cell_angle_alpha 90.000000
_cell_angle_beta 131.215713
_cell_angle_gamma 90.000000
_cell_volume 2559.946193
_symmetry_space_group_name_H-M "C 2/M"
_symmetry_group_IT_number 12
_symmetry_cell_setting 'monoclinic'
loop_
_space_group_symop_operation_xyz
x,y,z
-x,y,-z
-x,-y,-z
x,-y,z
1/2+x,1/2+y,z
1/2-x,1/2+y,-z
1/2-x,1/2-y,-z
1/2+x,1/2-y,z
loop_
_atom_site_type_symbol
_atom_site_label
_atom_site_fract_x
_atom_site_fract_y
_atom_site_fract_z
Si Si1 0.433395 0.092120 0.700217
Si Si2 0.644226 0.408888 0.189372
Si Si3 0.290952 0.724384 0.442065
Si Si4 0.960602 0.768355 0.060227
Si Si5 0.911766 0.180267 0.711539
Si Si6 0.815476 0.680337 0.778880
O O1 0.647313 0.115861 0.763941
O O2 0.331810 0.149820 0.619457
O O3 0.358230 0.101021 0.749882
O O4 0.403092 0.000000 0.669770
O O5 0.602090 0.500000 0.156381
O O6 0.507903 0.351402 0.110068
O O7 0.611290 0.402158 0.255801
O O8 0.500000 0.696858 0.500000
O O9 0.250000 0.750000 0.500000
O O10 0.251006 0.803964 0.387657
O O11 0.072558 0.690995 0.122018
O O12 0.750000 0.750000 0.000000
O O13 0.000000 0.781554 0.000000
O O14 0.893467 0.248366 0.759061
O O15 0.100698 0.184356 0.729555
#
# Coordination Sequence:
#
# PCOD8092560 Si02
#       6
#     8   8   8   8   8   8
#     4  10  21  38  57  78 109 149 188 223 266 326
#     4  10  21  38  57  77 107 147 187 222 265 327
#     4  11  20  33  55  82 110 139 179 231 278 320
#     4  11  20  33  55  82 108 134 174 226 276 320
#     4  10  19  35  56  78 106 144 188 222 261 322
#     4  10  19  35  56  78 106 143 185 220 260 325
#
# _framework density 18.750392999999999
#
# number of rings (size 3 to 8) (size 9 to 14) (size 15 to 20)
#    0.000    1.667    0.000   10.000    0.000    1.333 
#    0.000    1.667    0.000    5.000    0.000    0.000 
#    0.000    0.000    0.000    0.000    0.000    0.000 
#
# Total GULP energy -297421.776252 kJ/mol
# GULP energy per Si atom -12392.574011 kJ/mol
# Density = 1.870772 g / cm^3
# Si number density = 18.750393 Si / 1000 Ang^3
#
#
#
# Elastic Constant Matrix: (Units=GPa)
#
#
# Indices 1 2 3 4 5 6 
#
# 1 124.4725 49.2459 40.7523 0.0000 6.2112 0.0000
# 2 49.2459 84.0905 58.0538 0.0000 2.0623 0.0000
# 3 40.7523 58.0538 128.2321 0.0000 -1.5796 0.0000
# 4 0.0000 0.0000 0.0000 28.3233 0.0000 0.4289
# 5 6.2112 2.0623 -1.5796 0.0000 45.2942 0.0000
# 6 0.0000 0.0000 0.0000 0.4289 0.0000 22.2754
#
#
#
# Elastic Compliance Matrix: (Units=1/GPa)
#
#
# Indices 1 2 3 4 5 6 
#
# 1 0.010581 -0.005578 -0.000853 0.000000 -0.001227 0.000000
# 2 -0.005578 0.020290 -0.007418 0.000000 -0.000418 0.000000
# 3 -0.000853 -0.007418 0.011438 0.000000 0.000854 0.000000
# 4 0.000000 0.000000 0.000000 0.035317 0.000000 -0.000680
# 5 -0.001227 -0.000418 0.000854 0.000000 0.022295 0.000000
# 6 0.000000 0.000000 0.000000 -0.000680 0.000000 0.044906
#
#
# Mechanical properties :
#
#
# Convention : Reuss Voigt Hill
#
# Bulk Modulus (GPa) = 68.43714 70.32213 69.37964
# Shear Modulus (GPa) = 28.18562 31.76144 29.97353
#
# Velocity S-wave (km/s) = 3.88132 4.12018 4.00253
# Velocity P-wave (km/s) = 7.52758 7.76017 7.64476
#
# Compressibility (1/GPa) = 0.01461195
#
# Stress axis : x y z
#
# Youngs Moduli (GPa) = 94.50844 49.28481 87.42582
#
# Poissons Ratio (x) = 0.27491 0.07453
# Poissons Ratio (y) = 0.52716 0.64856
# Poissons Ratio (z) = 0.08057 0.36561
#
# Static dielectric constant tensor:
#      x y z
#    x 3.815510 0.000000 -0.307360 
#    y 0.000000 3.580240 0.000000 
#    z -0.307360 0.000000 3.706410 
# 
# 
# High freq. dielectric constant tensor:
#      x y z
#    x 1.748030 0.000000 -0.002690 
#    y 0.000000 1.702750 0.000000 
#    z -0.002690 0.000000 1.732340 
# 
# From -- ./inp_files/256204.got.cif
#   From: 2010.06.25/outbox.cif.g09.slc.cpg/sg12_129_cif.got.tgz:256204.got - 2010.06.28 00:19:55.
