data_PCOD8092027
_publ_section_title
;
Structure prediction by ZEFSAII (Michael W. Deem and Ramdas Pophale) SiO2 
 PCOD8092027
Probable space group: C 2/M
;
_chemical_formula_sum "Si O2"
_cell_formula_units_Z 64
_cell_length_a 32.251296
_cell_length_b 8.618319
_cell_length_c 15.023360
_cell_angle_alpha 90.000000
_cell_angle_beta 47.161985
_cell_angle_gamma 90.000000
_cell_volume 3062.005740
_symmetry_space_group_name_H-M "C 2/M"
_symmetry_group_IT_number 12
_symmetry_cell_setting 'monoclinic'
loop_
_space_group_symop_operation_xyz
x,y,z
-x,y,-z
-x,-y,-z
x,-y,z
1/2+x,1/2+y,z
1/2-x,1/2+y,-z
1/2-x,1/2-y,-z
1/2+x,1/2-y,z
loop_
_atom_site_type_symbol
_atom_site_label
_atom_site_fract_x
_atom_site_fract_y
_atom_site_fract_z
Si Si1 0.669498 0.318389 0.763751
Si Si2 0.503894 0.820230 0.226311
Si Si3 0.385728 0.182376 0.318074
Si Si4 0.629154 0.181594 0.002731
Si Si5 0.149853 0.816891 0.336987
Si Si6 0.027448 0.183488 0.548894
Si Si7 0.687541 0.314923 0.090705
Si Si8 0.712025 0.682345 0.418235
O O1 0.659843 0.500000 0.767860
O O2 0.623505 0.228374 0.771161
O O3 0.662425 0.267334 0.875839
O O4 0.731918 0.275467 0.636402
O O5 0.449471 0.763777 0.249490
O O6 0.507938 0.734008 0.314206
O O7 0.498258 0.000000 0.255753
O O8 0.562126 0.784626 0.089281
O O9 0.340631 0.273782 0.443337
O O10 0.377342 0.000000 0.343951
O O11 0.642863 0.000000 0.977066
O O12 0.650861 0.245377 0.064750
O O13 0.091081 0.749329 0.460986
O O14 0.161201 0.753038 0.221836
O O15 0.198688 0.770644 0.335344
O O16 0.144903 0.000000 0.338360
O O17 0.000000 0.253581 0.500000
O O18 0.026762 0.000000 0.545915
O O19 0.687951 0.500000 0.083284
O O20 0.750000 0.250000 0.000000
O O21 0.723648 0.500000 0.411414
#
# Coordination Sequence:
#
# PCOD8092027 Si02
#       8
#     8   8   8   8   8   8   8   8
#     4  12  26  43  64  92 121 160 211 263 320 381
#     4  10  23  41  63  90 125 165 206 256 312 370
#     4  11  23  42  65  93 126 164 207 258 318 377
#     4  11  24  44  64  89 126 168 211 260 316 376
#     4   9  19  34  56  87 121 158 199 245 301 360
#     4  10  19  34  58  87 119 158 202 249 301 360
#     4  11  22  39  62  91 126 168 215 261 312 370
#     4  11  21  39  65  94 128 165 205 258 315 374
#
# _framework density 20.901333000000001
#
# number of rings (size 3 to 8) (size 9 to 14) (size 15 to 20)
#    0.000    1.375    1.250    4.500    0.000    4.250 
#    0.000    5.625    0.000    0.000    0.000    0.000 
#    0.000    0.000    0.000    0.000    0.000    0.000 
#
# Total GULP energy -396879.227793 kJ/mol
# GULP energy per Si atom -12402.475869 kJ/mol
# Density = 2.085376 g / cm^3
# Si number density = 20.901333 Si / 1000 Ang^3
#
#
#
# Elastic Constant Matrix: (Units=GPa)
#
#
# Indices 1 2 3 4 5 6 
#
# 1 115.4051 30.6569 21.0495 0.0000 -3.7600 0.0000
# 2 30.6569 54.0395 16.4778 -0.0001 -6.1375 0.0001
# 3 21.0495 16.4778 77.2306 0.0000 -4.4546 0.0000
# 4 0.0000 -0.0001 0.0000 30.2083 0.0000 3.0656
# 5 -3.7600 -6.1375 -4.4546 0.0000 40.7382 0.0000
# 6 0.0000 0.0001 0.0000 3.0656 0.0000 30.9717
#
#
#
# Elastic Compliance Matrix: (Units=1/GPa)
#
#
# Indices 1 2 3 4 5 6 
#
# 1 0.010404 -0.005392 -0.001687 0.000000 -0.000037 0.000000
# 2 -0.005392 0.022851 -0.003257 0.000000 0.002589 0.000000
# 3 -0.001687 -0.003257 0.014155 0.000000 0.000901 0.000000
# 4 0.000000 0.000000 0.000000 0.033439 0.000000 -0.003310
# 5 -0.000037 0.002589 0.000901 0.000000 0.025032 0.000000
# 6 0.000000 0.000000 0.000000 -0.003310 0.000000 0.032615
#
#
# Mechanical properties :
#
#
# Convention : Reuss Voigt Hill
#
# Bulk Modulus (GPa) = 37.39956 42.56038 39.97997
# Shear Modulus (GPa) = 29.74755 32.28301 31.01528
#
# Velocity S-wave (km/s) = 3.77667 3.93433 3.85631
# Velocity P-wave (km/s) = 6.07864 6.40666 6.24481
#
# Compressibility (1/GPa) = 0.02673828
#
# Stress axis : x y z
#
# Youngs Moduli (GPa) = 96.11640 43.76199 70.64674
#
# Poissons Ratio (x) = 0.23596 0.11921
# Poissons Ratio (y) = 0.51825 0.23006
# Poissons Ratio (z) = 0.16218 0.14251
#
# Static dielectric constant tensor:
#      x y z
#    x 4.200640 0.000000 0.072860 
#    y 0.000000 3.618210 0.000000 
#    z 0.072860 0.000000 3.947570 
# 
# 
# High freq. dielectric constant tensor:
#      x y z
#    x 1.835940 0.000000 -0.000570 
#    y 0.000000 1.806560 0.000000 
#    z -0.000570 0.000000 1.822440 
# 
# From -- ./inp_files/249835.got.cif
#   From: 2010.06.25/outbox.cif.g09.slc.cpg/sg12_125_cif.got.tgz:249835.got - 2010.06.28 00:19:55.
