data_PCOD8092847
_publ_section_title
;
Structure prediction by ZEFSAII (Michael W. Deem and Ramdas Pophale) SiO2 
 PCOD8092847
Probable space group: C 2/M
;
_chemical_formula_sum "Si O2"
_cell_formula_units_Z 52
_cell_length_a 12.043708
_cell_length_b 27.879137
_cell_length_c 17.209668
_cell_angle_alpha 90.000000
_cell_angle_beta 150.904527
_cell_angle_gamma 90.000000
_cell_volume 2809.870113
_symmetry_space_group_name_H-M "C 2/M"
_symmetry_group_IT_number 12
_symmetry_cell_setting 'monoclinic'
loop_
_space_group_symop_operation_xyz
x,y,z
-x,y,-z
-x,-y,-z
x,-y,z
1/2+x,1/2+y,z
1/2-x,1/2+y,-z
1/2-x,1/2-y,-z
1/2+x,1/2-y,z
loop_
_atom_site_type_symbol
_atom_site_label
_atom_site_fract_x
_atom_site_fract_y
_atom_site_fract_z
Si Si1 0.605554 0.500000 0.900259
Si Si2 0.284801 0.000000 0.215034
Si Si3 0.292613 0.500000 0.561021
Si Si4 0.136885 0.081240 0.514257
Si Si5 0.885003 0.819102 0.354855
Si Si6 0.849681 0.577904 0.128347
Si Si7 0.256403 0.264621 0.128161
Si Si8 0.125549 0.320824 0.902451
O O1 0.440918 0.500000 0.873554
O O2 0.438142 0.500000 0.726699
O O3 0.771007 0.546489 0.005263
O O4 0.272629 0.048939 0.157573
O O5 0.519545 0.000000 0.408768
O O6 0.365588 0.547862 0.561723
O O7 0.383695 0.087200 0.702328
O O8 0.000000 0.055765 0.500000
O O9 0.025775 0.132260 0.423761
O O10 0.901079 0.785348 0.288971
O O11 0.625968 0.831622 0.218557
O O12 0.000000 0.792807 0.500000
O O13 0.748844 0.631249 0.053425
O O14 0.374969 0.216064 0.170184
O O15 0.268955 0.301550 0.063720
O O16 0.000000 0.253749 0.000000
#
# Coordination Sequence:
#
# PCOD8092847 Si02
#       8
#     4   4   4   8   8   8   8   8
#     4  11  23  37  55  88 109 148 185 231 276 329
#     4   9  21  40  58  77 113 149 180 229 277 331
#     4  10  22  35  60  83 112 143 188 230 274 334
#     4  10  19  37  55  80 113 152 179 230 284 326
#     4  10  19  36  58  81 110 150 187 226 285 330
#     4  10  19  35  58  81 108 146 192 219 277 340
#     4   9  21  35  56  82 116 145 184 238 288 327
#     4  10  19  37  57  83 110 150 187 232 282 339
#
# _framework density 18.506194000000001
#
# number of rings (size 3 to 8) (size 9 to 14) (size 15 to 20)
#    0.000    2.154    3.077    1.846    2.154    1.846 
#    0.000    1.538    0.000    0.000    0.000    0.000 
#    0.000    0.000    0.000    0.000    0.000    0.000 
#
# Total GULP energy -322113.752624 kJ/mol
# GULP energy per Si atom -12388.990486 kJ/mol
# Density = 1.846407 g / cm^3
# Si number density = 18.506194 Si / 1000 Ang^3
#
#
#
# Elastic Constant Matrix: (Units=GPa)
#
#
# Indices 1 2 3 4 5 6 
#
# 1 66.3498 52.2580 23.5223 0.0005 -7.3788 -0.0027
# 2 52.2580 148.0043 59.1806 0.0004 -10.1194 -0.0031
# 3 23.5223 59.1806 98.5931 0.0023 -19.1079 -0.0171
# 4 0.0005 0.0004 0.0023 27.2343 0.0001 5.5467
# 5 -7.3788 -10.1194 -19.1079 0.0001 33.4690 -0.0008
# 6 -0.0027 -0.0031 -0.0171 5.5467 -0.0008 -31.2744
#
#
#
# Elastic Compliance Matrix: (Units=1/GPa)
#
#
# Indices 1 2 3 4 5 6 
#
# 1 0.021077 -0.007174 -0.000272 0.000000 0.002322 -0.000001
# 2 -0.007174 0.011337 -0.005325 0.000000 -0.001194 0.000002
# 3 -0.000272 -0.005325 0.014708 0.000000 0.006727 -0.000008
# 4 0.000000 0.000000 0.000000 0.035438 0.000000 0.006285
# 5 0.002322 -0.001194 0.006727 0.000000 0.033870 -0.000005
# 6 -0.000001 0.000002 -0.000008 0.006285 -0.000005 -0.030860
#
#
# Mechanical properties :
#
#
# Convention : Reuss Voigt Hill
#
# Bulk Modulus (GPa) = 46.34108 64.76322 55.55215
# Shear Modulus (GPa) = 42.26345 17.75155 30.00750
#
# Velocity S-wave (km/s) = 4.78404 3.10049 4.03113
# Velocity P-wave (km/s) = 7.45730 6.92017 7.19375
#
# Compressibility (1/GPa) = 0.02157913
#
# Stress axis : x y z
#
# Youngs Moduli (GPa) = 47.44506 88.20429 67.99211
#
# Poissons Ratio (x) = 0.63281 0.01850
# Poissons Ratio (y) = 0.34039 0.36206
# Poissons Ratio (z) = 0.01291 0.46968
#
# Static dielectric constant tensor:
#      x y z
#    x 3.409900 0.000000 -0.061380 
#    y 0.000000 3.658140 0.000000 
#    z -0.061380 0.000000 3.536440 
# 
# 
# High freq. dielectric constant tensor:
#      x y z
#    x 1.705640 0.000000 -0.003270 
#    y 0.000000 1.716970 0.000000 
#    z -0.003270 0.000000 1.723890 
# 
# From -- ./inp_files/266161.got.cif
#   From: 2010.06.25/outbox.cif.g09.slc.cpg/sg12_134_cif.got.tgz:266161.got - 2010.06.28 00:19:55.
