data_PCOD8092019
_publ_section_title
;
Structure prediction by ZEFSAII (Michael W. Deem and Ramdas Pophale) SiO2 
 PCOD8092019
Probable space group: C 2/M
;
_chemical_formula_sum "Si O2"
_cell_formula_units_Z 64
_cell_length_a 15.436759
_cell_length_b 8.895528
_cell_length_c 33.165606
_cell_angle_alpha 90.000000
_cell_angle_beta 133.784840
_cell_angle_gamma 90.000000
_cell_volume 3287.902311
_symmetry_space_group_name_H-M "C 2/M"
_symmetry_group_IT_number 12
_symmetry_cell_setting 'monoclinic'
loop_
_space_group_symop_operation_xyz
x,y,z
-x,y,-z
-x,-y,-z
x,-y,z
1/2+x,1/2+y,z
1/2-x,1/2+y,-z
1/2-x,1/2-y,-z
1/2+x,1/2-y,z
loop_
_atom_site_type_symbol
_atom_site_label
_atom_site_fract_x
_atom_site_fract_y
_atom_site_fract_z
Si Si1 0.842745 0.177937 0.060229
Si Si2 0.542721 0.677687 0.635856
Si Si3 0.200911 0.673794 0.869431
Si Si4 0.888975 0.822024 0.865245
Si Si5 0.593500 0.321168 0.562755
Si Si6 0.639948 0.825930 0.369528
Si Si7 0.270766 0.677087 0.745766
Si Si8 0.547457 0.170728 0.252843
O O1 0.811368 0.223834 0.095488
O O2 0.974762 0.238870 0.090557
O O3 0.835524 0.000000 0.054321
O O4 0.750000 0.250000 0.000000
O O5 0.550856 0.500000 0.639568
O O6 0.557538 0.739527 0.595227
O O7 0.414641 0.731940 0.611176
O O8 0.645286 0.744083 0.697268
O O9 0.211129 0.500000 0.886034
O O10 0.319983 0.726904 0.883719
O O11 0.089390 0.698600 0.803681
O O12 0.820962 0.758181 0.804139
O O13 0.890276 0.000000 0.862078
O O14 0.500000 0.255995 0.500000
O O15 0.591196 0.500000 0.562123
O O16 0.726430 0.263522 0.595034
O O17 0.558298 0.799890 0.303815
O O18 0.642908 0.000000 0.382839
O O19 0.249084 0.500000 0.740306
O O20 0.366726 0.714119 0.742244
O O21 0.588396 0.000000 0.255903
#
# Coordination Sequence:
#
# PCOD8092019 Si02
#       8
#     8   8   8   8   8   8   8   8
#     4  11  23  41  60  83 114 149 194 238 283 330
#     4  11  22  37  57  86 117 148 191 239 288 341
#     4  10  20  37  61  85 112 148 188 229 280 337
#     4   9  20  38  60  84 114 151 187 225 277 346
#     4   9  19  37  59  80 110 154 197 238 289 345
#     4  10  20  37  59  84 116 154 192 232 288 348
#     4  11  20  35  60  87 117 153 190 229 284 345
#     4  10  19  34  58  87 118 150 186 230 286 347
#
# _framework density 19.465298000000001
#
# number of rings (size 3 to 8) (size 9 to 14) (size 15 to 20)
#    0.000    1.875    2.500    1.875    0.000    3.500 
#    0.000    6.250    0.000    2.625    0.000    0.000 
#    0.000    0.000    0.000    0.000    0.000    0.000 
#
# Total GULP energy -396883.289205 kJ/mol
# GULP energy per Si atom -12402.602788 kJ/mol
# Density = 1.942099 g / cm^3
# Si number density = 19.465298 Si / 1000 Ang^3
#
#
#
# Elastic Constant Matrix: (Units=GPa)
#
#
# Indices 1 2 3 4 5 6 
#
# 1 167.5251 39.0925 72.9343 0.0000 1.8900 0.0000
# 2 39.0925 53.0767 34.9282 0.0000 0.5313 0.0000
# 3 72.9343 34.9282 147.3754 0.0000 10.6071 0.0000
# 4 0.0000 0.0000 0.0000 19.7304 0.0000 -0.5530
# 5 1.8900 0.5313 10.6071 0.0000 15.3200 0.0000
# 6 0.0000 0.0000 0.0000 -0.5530 0.0000 34.5339
#
#
#
# Elastic Compliance Matrix: (Units=1/GPa)
#
#
# Indices 1 2 3 4 5 6 
#
# 1 0.008304 -0.003982 -0.003265 0.000000 0.001374 0.000000
# 2 -0.003982 0.024366 -0.003977 0.000000 0.002400 0.000000
# 3 -0.003265 -0.003977 0.009793 0.000000 -0.006240 0.000000
# 4 0.000000 0.000000 0.000000 0.050706 0.000000 0.000812
# 5 0.001374 0.002400 -0.006240 0.000000 0.069341 0.000000
# 6 0.000000 0.000000 0.000000 0.000812 0.000000 0.028970
#
#
# Mechanical properties :
#
#
# Convention : Reuss Voigt Hill
#
# Bulk Modulus (GPa) = 49.95957 73.54304 61.75130
# Shear Modulus (GPa) = 22.66538 28.65166 25.65852
#
# Velocity S-wave (km/s) = 3.41603 3.84074 3.63460
# Velocity P-wave (km/s) = 6.42501 7.58499 7.02897
#
# Compressibility (1/GPa) = 0.02001619
#
# Stress axis : x y z
#
# Youngs Moduli (GPa) = 120.41953 41.04007 102.11512
#
# Poissons Ratio (x) = 0.16340 0.33340
# Poissons Ratio (y) = 0.47945 0.40613
# Poissons Ratio (z) = 0.39317 0.16322
#
# Static dielectric constant tensor:
#      x y z
#    x 3.853780 0.000000 -0.002400 
#    y 0.000000 3.295290 0.000000 
#    z -0.002400 0.000000 3.734620 
# 
# 
# High freq. dielectric constant tensor:
#      x y z
#    x 1.771590 0.000000 0.002130 
#    y 0.000000 1.729890 0.000000 
#    z 0.002130 0.000000 1.760230 
# 
# From -- ./inp_files/375657.got.cif
#   From: 2010.06.25/outbox.cif.g09.slc.cpg/sg12_188_cif.got.tgz:375657.got - 2010.06.28 00:19:55.
