data_PCOD8092351
_publ_section_title
;
Structure prediction by ZEFSAII (Michael W. Deem and Ramdas Pophale) SiO2 
 PCOD8092351
Probable space group: C 2/M
;
_chemical_formula_sum "Si O2"
_cell_formula_units_Z 56
_cell_length_a 8.540964
_cell_length_b 23.933805
_cell_length_c 19.119691
_cell_angle_alpha 90.000000
_cell_angle_beta 127.145892
_cell_angle_gamma 90.000000
_cell_volume 3115.391304
_symmetry_space_group_name_H-M "C 2/M"
_symmetry_group_IT_number 12
_symmetry_cell_setting 'monoclinic'
loop_
_space_group_symop_operation_xyz
x,y,z
-x,y,-z
-x,-y,-z
x,-y,z
1/2+x,1/2+y,z
1/2-x,1/2+y,-z
1/2-x,1/2-y,-z
1/2+x,1/2-y,z
loop_
_atom_site_type_symbol
_atom_site_label
_atom_site_fract_x
_atom_site_fract_y
_atom_site_fract_z
Si Si1 0.650451 0.295000 0.321783
Si Si2 0.490296 0.392109 0.810992
Si Si3 0.697317 0.803809 0.091491
Si Si4 0.966043 0.772245 0.563971
Si Si5 0.308990 0.608035 0.906948
Si Si6 0.526644 0.789365 0.833921
Si Si7 0.789189 0.000000 0.140324
Si Si8 0.656771 0.000000 0.945006
O O1 0.634821 0.352909 0.275203
O O2 0.531303 0.306474 0.362536
O O3 0.548381 0.241495 0.256506
O O4 0.878559 0.279292 0.393300
O O5 0.674396 0.357697 0.889174
O O6 0.359617 0.409752 0.841690
O O7 0.580206 0.447222 0.799311
O O8 0.657444 0.794937 0.163442
O O9 0.805377 0.750326 0.087634
O O10 0.500000 0.817568 0.000000
O O11 0.750000 0.750000 0.500000
O O12 0.000000 0.807210 0.500000
O O13 0.130485 0.651578 0.850311
O O14 0.232939 0.554368 0.926698
O O15 0.500000 0.632456 0.000000
O O16 0.579088 0.000000 0.121359
O O17 0.751459 0.000000 0.047208
#
# Coordination Sequence:
#
# PCOD8092351 Si02
#       8
#     8   8   8   8   8   8   4   4
#     4  10  19  35  51  83 113 139 169 212 264 325
#     4  11  22  34  55  73 106 140 185 234 280 311
#     4  11  21  33  45  71  99 145 187 232 268 321
#     4   9  18  33  57  82 110 138 163 193 247 332
#     4  12  21  35  50  73  97 146 191 238 273 307
#     4  11  21  32  50  71 108 141 177 223 277 318
#     4  11  23  40  53  74  95 145 194 240 286 303
#     4  11  24  37  54  67 100 138 205 256 268 311
#
# _framework density 17.975269000000001
#
# number of rings (size 3 to 8) (size 9 to 14) (size 15 to 20)
#    0.000    1.286    1.429    7.500    2.000    0.000 
#    0.000    0.000    0.000    0.000    0.000    5.000 
#    0.000    4.571    0.000    1.429    0.000    0.000 
#
# Total GULP energy -346962.881662 kJ/mol
# GULP energy per Si atom -12391.531488 kJ/mol
# Density = 1.793436 g / cm^3
# Si number density = 17.975269 Si / 1000 Ang^3
#
#
#
# Elastic Constant Matrix: (Units=GPa)
#
#
# Indices 1 2 3 4 5 6 
#
# 1 105.5638 29.8882 32.2965 0.0000 -12.1911 0.0000
# 2 29.8882 95.1156 22.9287 0.0000 8.0552 0.0000
# 3 32.2965 22.9287 82.0423 0.0000 -3.7500 0.0000
# 4 0.0000 0.0000 0.0000 14.6214 0.0000 -5.3375
# 5 -12.1911 8.0552 -3.7500 0.0000 36.5922 0.0000
# 6 0.0000 0.0000 0.0000 -5.3375 0.0000 26.9069
#
#
#
# Elastic Compliance Matrix: (Units=1/GPa)
#
#
# Indices 1 2 3 4 5 6 
#
# 1 0.012007 -0.003270 -0.003614 0.000000 0.004350 0.000000
# 2 -0.003270 0.012460 -0.002381 0.000000 -0.004076 0.000000
# 3 -0.003614 -0.002381 0.014313 0.000000 0.000787 0.000000
# 4 0.000000 0.000000 0.000000 0.073732 0.000000 0.014626
# 5 0.004350 -0.004076 0.000787 0.000000 0.029755 0.000000
# 6 0.000000 0.000000 0.000000 0.014626 0.000000 0.040067
#
#
# Mechanical properties :
#
#
# Convention : Reuss Voigt Hill
#
# Bulk Modulus (GPa) = 49.38397 50.32759 49.85578
# Shear Modulus (GPa) = 24.08309 28.79799 26.44054
#
# Velocity S-wave (km/s) = 3.66429 4.00695 3.83944
# Velocity P-wave (km/s) = 6.74059 7.03325 6.88847
#
# Compressibility (1/GPa) = 0.02024949
#
# Stress axis : x y z
#
# Youngs Moduli (GPa) = 83.28644 80.25443 69.86680
#
# Poissons Ratio (x) = 0.26244 0.25249
# Poissons Ratio (y) = 0.27235 0.16638
# Poissons Ratio (z) = 0.30098 0.19112
#
# Static dielectric constant tensor:
#      x y z
#    x 4.205950 0.000000 -0.417990 
#    y 0.000000 3.241940 0.000000 
#    z -0.417990 0.000000 3.742740 
# 
# 
# High freq. dielectric constant tensor:
#      x y z
#    x 1.728740 0.000000 0.003010 
#    y 0.000000 1.666590 0.000000 
#    z 0.003010 0.000000 1.676690 
# 
# From -- ./inp_files/302171.got.cif
#   From: 2010.06.25/outbox.cif.g09.slc.cpg/sg12_152_cif.got.tgz:302171.got - 2010.06.28 00:19:55.
