data_PCOD8092433
_publ_section_title
;
Structure prediction by ZEFSAII (Michael W. Deem and Ramdas Pophale) SiO2 
 PCOD8092433
Probable space group: C 2/M
;
_chemical_formula_sum "Si O2"
_cell_formula_units_Z 56
_cell_length_a 18.084239
_cell_length_b 29.268336
_cell_length_c 8.937574
_cell_angle_alpha 90.000000
_cell_angle_beta 138.054717
_cell_angle_gamma 90.000000
_cell_volume 3162.042838
_symmetry_space_group_name_H-M "C 2/M"
_symmetry_group_IT_number 12
_symmetry_cell_setting 'monoclinic'
loop_
_space_group_symop_operation_xyz
x,y,z
-x,y,-z
-x,-y,-z
x,-y,z
1/2+x,1/2+y,z
1/2-x,1/2+y,-z
1/2-x,1/2-y,-z
1/2+x,1/2-y,z
loop_
_atom_site_type_symbol
_atom_site_label
_atom_site_fract_x
_atom_site_fract_y
_atom_site_fract_z
Si Si1 0.073181 0.625545 0.321107
Si Si2 0.316553 0.120690 0.951774
Si Si3 0.740338 0.371370 0.167425
Si Si4 0.873317 0.051769 0.828516
Si Si5 0.198118 0.692967 0.309422
Si Si6 0.805314 0.447286 0.683602
Si Si7 0.370340 0.706850 0.820803
O O1 0.139680 0.627172 0.575702
O O2 0.101537 0.669899 0.263600
O O3 0.100263 0.580197 0.265136
O O4 0.946459 0.626293 0.175563
O O5 0.270141 0.161717 0.782077
O O6 0.292012 0.072731 0.830893
O O7 0.250940 0.124444 0.006554
O O8 0.672784 0.415717 0.113652
O O9 0.676609 0.325079 0.117638
O O10 0.811017 0.059387 0.577160
O O11 0.857771 0.000000 0.861318
O O12 0.000000 0.064782 0.000000
O O13 0.310657 0.696286 0.573972
O O14 0.154910 0.740650 0.178107
O O15 0.841151 0.500000 0.747026
O O16 0.500000 0.697586 0.000000
#
# Coordination Sequence:
#
# PCOD8092433 Si02
#       7
#     8   8   8   8   8   8   8
#     4   9  18  34  52  70  98 135 166 192 237 295
#     4  11  20  32  49  73 107 131 154 200 249 290
#     4  10  21  32  49  77 101 126 161 202 247 292
#     4   9  18  36  56  69  91 130 169 202 240 290
#     4   9  19  34  54  76  94 128 172 199 233 290
#     4   9  18  32  52  76  96 124 169 205 233 284
#     4  10  19  35  55  72  97 130 167 205 238 282
#
# _framework density 17.710070999999999
#
# number of rings (size 3 to 8) (size 9 to 14) (size 15 to 20)
#    0.000    2.429    0.000    4.286    0.000    2.286 
#    0.000    2.857    0.000    6.857    0.000    0.000 
#    0.000    0.000    0.000    0.000    0.000    0.000 
#
# Total GULP energy -347213.439403 kJ/mol
# GULP energy per Si atom -12400.479979 kJ/mol
# Density = 1.766976 g / cm^3
# Si number density = 17.710071 Si / 1000 Ang^3
#
#
#
# Elastic Constant Matrix: (Units=GPa)
#
#
# Indices 1 2 3 4 5 6 
#
# 1 103.7161 53.2808 49.1857 0.0000 -9.7264 0.0000
# 2 53.2808 114.4958 41.2385 0.0000 -0.3371 0.0000
# 3 49.1857 41.2385 63.4600 0.0000 7.7739 0.0000
# 4 0.0000 0.0000 0.0000 -18.6470 0.0000 11.4405
# 5 -9.7264 -0.3371 7.7739 0.0000 33.8209 0.0000
# 6 0.0000 0.0000 0.0000 11.4405 0.0000 10.8084
#
#
#
# Elastic Compliance Matrix: (Units=1/GPa)
#
#
# Indices 1 2 3 4 5 6 
#
# 1 0.018518 -0.003996 -0.012762 0.000000 0.008219 0.000000
# 2 -0.003996 0.012381 -0.004962 0.000000 0.000115 0.000000
# 3 -0.012762 -0.004962 0.030180 0.000000 -0.010657 0.000000
# 4 0.000000 0.000000 0.000000 -0.032513 0.000000 0.034415
# 5 0.008219 0.000115 -0.010657 0.000000 0.034382 0.000000
# 6 0.000000 0.000000 0.000000 0.034415 0.000000 0.056093
#
#
# Mechanical properties :
#
#
# Convention : Reuss Voigt Hill
#
# Bulk Modulus (GPa) = 56.70015 63.23133 59.96574
# Shear Modulus (GPa) = 29.69782 14.39424 22.04603
#
# Velocity S-wave (km/s) = 4.09943 2.85401 3.53204
# Velocity P-wave (km/s) = 7.38189 6.82946 7.11104
#
# Compressibility (1/GPa) = 0.01763664
#
# Stress axis : x y z
#
# Youngs Moduli (GPa) = 54.00174 80.76659 33.13462
#
# Poissons Ratio (x) = 0.32278 0.42288
# Poissons Ratio (y) = 0.21581 0.16443
# Poissons Ratio (z) = 0.68919 0.40079
#
# Static dielectric constant tensor:
#      x y z
#    x 2.924020 0.000000 0.019510 
#    y 0.000000 3.553640 0.000000 
#    z 0.019510 0.000000 3.418460 
# 
# 
# High freq. dielectric constant tensor:
#      x y z
#    x 1.653330 0.000000 0.005660 
#    y 0.000000 1.699320 0.000000 
#    z 0.005660 0.000000 1.696320 
# 
# From -- ./inp_files/54301.got.cif
#   From: 2010.06.25/outbox.cif.g09.slc.cpg/sg12_28_cif.got.tgz:54301.got - 2010.06.28 00:19:55.
