data_PCOD8092916
_publ_section_title
;
Structure prediction by ZEFSAII (Michael W. Deem and Ramdas Pophale) SiO2 
 PCOD8092916
Probable space group: C 2/M
;
_chemical_formula_sum "Si O2"
_cell_formula_units_Z 64
_cell_length_a 19.607051
_cell_length_b 13.023740
_cell_length_c 20.218007
_cell_angle_alpha 90.000000
_cell_angle_beta 40.564847
_cell_angle_gamma 90.000000
_cell_volume 3357.419477
_symmetry_space_group_name_H-M "C 2/M"
_symmetry_group_IT_number 12
_symmetry_cell_setting 'monoclinic'
loop_
_space_group_symop_operation_xyz
x,y,z
-x,y,-z
-x,-y,-z
x,-y,z
1/2+x,1/2+y,z
1/2-x,1/2+y,-z
1/2-x,1/2-y,-z
1/2+x,1/2-y,z
loop_
_atom_site_type_symbol
_atom_site_label
_atom_site_fract_x
_atom_site_fract_y
_atom_site_fract_z
Si Si1 0.622406 0.786296 0.402122
Si Si2 0.752656 0.377866 0.804121
Si Si3 0.689712 0.881728 0.483063
Si Si4 0.727317 0.116428 0.059473
Si Si5 0.615541 0.247575 0.649782
Si Si6 0.570140 0.239429 0.888754
Si Si7 0.213799 0.620278 0.694663
Si Si8 0.574012 0.719509 0.126521
O O1 0.500000 0.770623 0.500000
O O2 0.650621 0.832765 0.309634
O O3 0.665328 0.867896 0.423868
O O4 0.675013 0.675471 0.375457
O O5 0.747945 0.500000 0.801735
O O6 0.768127 0.342416 0.868515
O O7 0.643639 0.333197 0.857239
O O8 0.608397 0.812171 0.585280
O O9 0.807895 0.845333 0.412289
O O10 0.678132 0.000000 0.511516
O O11 0.639088 0.174958 0.082736
O O12 0.691771 0.000000 0.084004
O O13 0.840967 0.128140 0.940501
O O14 0.658668 0.164678 0.670210
O O15 0.500989 0.290294 0.754047
O O16 0.638632 0.143776 0.812425
O O17 0.496623 0.284967 0.886272
O O18 0.500000 0.197154 0.000000
O O19 0.233296 0.500000 0.672604
#
# Coordination Sequence:
#
# PCOD8092916 Si02
#       8
#     8   8   8   8   8   8   8   8
#     4  10  22  36  53  81 117 146 182 233 279 331
#     4  10  21  37  59  87 116 148 189 233 286 345
#     4  10  20  35  56  84 114 145 184 230 282 332
#     4  10  22  38  58  84 115 153 189 228 283 347
#     4   9  20  36  57  82 110 145 185 234 277 328
#     4  10  19  35  58  84 113 143 186 237 283 327
#     4   9  19  36  56  78 106 144 189 231 272 327
#     4  10  21  37  57  82 116 148 185 236 280 334
#
# _framework density 19.062259000000001
#
# number of rings (size 3 to 8) (size 9 to 14) (size 15 to 20)
#    0.000    2.250    1.250    1.500    1.750    5.250 
#    0.000    0.000    0.000    0.000    0.000    0.000 
#    0.000    0.000    0.000    0.000    0.000    0.000 
#
# Total GULP energy -396811.128438 kJ/mol
# GULP energy per Si atom -12400.347764 kJ/mol
# Density = 1.901887 g / cm^3
# Si number density = 19.062259 Si / 1000 Ang^3
#
#
#
# Elastic Constant Matrix: (Units=GPa)
#
#
# Indices 1 2 3 4 5 6 
#
# 1 39.3414 19.6628 15.4787 0.0000 -12.4283 0.0000
# 2 19.6628 60.0197 11.2332 0.0000 6.4151 0.0000
# 3 15.4787 11.2332 130.7517 0.0000 -3.4641 0.0000
# 4 0.0000 0.0000 0.0000 18.5060 0.0000 6.5433
# 5 -12.4283 6.4151 -3.4641 0.0000 27.7255 0.0000
# 6 0.0000 0.0000 0.0000 6.5433 0.0000 16.6784
#
#
#
# Elastic Compliance Matrix: (Units=1/GPa)
#
#
# Indices 1 2 3 4 5 6 
#
# 1 0.040956 -0.015158 -0.002977 0.000000 0.021494 0.000000
# 2 -0.015158 0.023024 -0.000506 0.000000 -0.012185 0.000000
# 3 -0.002977 -0.000506 0.008038 0.000000 -0.000213 0.000000
# 4 0.000000 0.000000 0.000000 0.062740 0.000000 -0.024614
# 5 0.021494 -0.012185 -0.000213 0.000000 0.048496 0.000000
# 6 0.000000 0.000000 0.000000 -0.024614 0.000000 0.069614
#
#
# Mechanical properties :
#
#
# Convention : Reuss Voigt Hill
#
# Bulk Modulus (GPa) = 28.78816 35.87356 32.33086
# Shear Modulus (GPa) = 16.57121 24.83120 20.70121
#
# Velocity S-wave (km/s) = 2.95162 3.61312 3.29899
# Velocity P-wave (km/s) = 5.17214 6.02214 5.61326
#
# Compressibility (1/GPa) = 0.03473651
#
# Stress axis : x y z
#
# Youngs Moduli (GPa) = 24.41667 43.43275 124.40364
#
# Poissons Ratio (x) = 0.65833 0.37032
# Poissons Ratio (y) = 0.37010 0.06301
# Poissons Ratio (z) = 0.07268 0.02200
#
# Static dielectric constant tensor:
#      x y z
#    x 3.431270 0.000000 0.125250 
#    y 0.000000 3.191420 0.000000 
#    z 0.125250 0.000000 3.868570 
# 
# 
# High freq. dielectric constant tensor:
#      x y z
#    x 1.734190 0.000000 0.003970 
#    y 0.000000 1.720460 0.000000 
#    z 0.003970 0.000000 1.759700 
# 
# From -- ./inp_files/321243.got.cif
#   From: 2010.06.25/outbox.cif.g09.slc.cpg/sg12_161_cif.got.tgz:321243.got - 2010.06.28 00:19:55.
