data_PCOD8092521
_publ_section_title
;
Structure prediction by ZEFSAII (Michael W. Deem and Ramdas Pophale) SiO2 
 PCOD8092521
Probable space group: C 2/M
;
_chemical_formula_sum "Si O2"
_cell_formula_units_Z 52
_cell_length_a 21.598555
_cell_length_b 17.849169
_cell_length_c 8.231996
_cell_angle_alpha 90.000000
_cell_angle_beta 124.151433
_cell_angle_gamma 90.000000
_cell_volume 2626.307800
_symmetry_space_group_name_H-M "C 2/M"
_symmetry_group_IT_number 12
_symmetry_cell_setting 'monoclinic'
loop_
_space_group_symop_operation_xyz
x,y,z
-x,y,-z
-x,-y,-z
x,-y,z
1/2+x,1/2+y,z
1/2-x,1/2+y,-z
1/2-x,1/2-y,-z
1/2+x,1/2-y,z
loop_
_atom_site_type_symbol
_atom_site_label
_atom_site_fract_x
_atom_site_fract_y
_atom_site_fract_z
Si Si1 0.236135 0.356073 0.089341
Si Si2 0.951594 0.766604 0.587391
Si Si3 0.210529 0.708435 0.708224
Si Si4 0.371728 0.584168 0.433612
Si Si5 0.500000 0.795348 0.000000
Si Si6 0.122578 0.580822 0.145796
Si Si7 0.759729 0.080995 0.566604
O O1 0.245758 0.287023 0.230768
O O2 0.317941 0.396395 0.199549
O O3 0.174578 0.413400 0.063334
O O4 0.204504 0.324630 0.877626
O O5 0.874125 0.720073 0.479340
O O6 0.938552 0.856065 0.547573
O O7 0.991986 0.753575 0.822057
O O8 0.000000 0.740523 0.500000
O O9 0.264134 0.651645 0.690892
O O10 0.404766 0.500000 0.464179
O O11 0.319861 0.591574 0.514890
O O12 0.569710 0.848637 0.075232
O O13 0.080352 0.500000 0.072059
O O14 0.174932 0.580333 0.379589
O O15 0.774433 0.000000 0.675007
#
# Coordination Sequence:
#
# PCOD8092521 Si02
#       7
#     8   8   8   8   4   8   8
#     4   9  19  32  59  84 111 145 185 238 298 353
#     4  11  24  40  59  86 118 156 203 238 280 347
#     4  10  19  35  55  87 117 142 188 242 291 342
#     4   9  20  39  60  85 114 148 189 241 299 348
#     4  12  23  38  61  80 114 166 196 236 285 336
#     4  10  20  35  54  79 111 149 190 229 284 349
#     4   9  18  33  57  84 112 140 180 236 292 344
#
# _framework density 19.799658999999998
#
# number of rings (size 3 to 8) (size 9 to 14) (size 15 to 20)
#    0.000    2.154    1.538    2.538    2.154    3.385 
#    0.000    0.385    0.000    2.308    0.000    0.000 
#    0.000    0.000    0.000    0.000    0.000    0.000 
#
# Total GULP energy -322131.533878 kJ/mol
# GULP energy per Si atom -12389.674380 kJ/mol
# Density = 1.975459 g / cm^3
# Si number density = 19.799659 Si / 1000 Ang^3
#
#
#
# Elastic Constant Matrix: (Units=GPa)
#
#
# Indices 1 2 3 4 5 6 
#
# 1 43.3622 16.9553 22.0118 0.0000 -1.0734 0.0000
# 2 16.9553 109.3468 26.1175 0.0000 -6.4178 0.0000
# 3 22.0118 26.1175 69.7864 0.0000 -9.3949 0.0000
# 4 0.0000 0.0000 0.0000 3.9498 0.0000 -0.6615
# 5 -1.0734 -6.4178 -9.3949 0.0000 17.2638 0.0000
# 6 0.0000 0.0000 0.0000 -0.6615 0.0000 22.3760
#
#
#
# Elastic Compliance Matrix: (Units=1/GPa)
#
#
# Indices 1 2 3 4 5 6 
#
# 1 0.028275 -0.002586 -0.008463 0.000000 -0.003809 0.000000
# 2 -0.002586 0.010333 -0.002758 0.000000 0.002180 0.000000
# 3 -0.008463 -0.002758 0.019231 0.000000 0.008914 0.000000
# 4 0.000000 0.000000 0.000000 0.254438 0.000000 0.007521
# 5 -0.003809 0.002180 0.008914 0.000000 0.063349 0.000000
# 6 0.000000 0.000000 0.000000 0.007521 0.000000 0.044913
#
#
# Mechanical properties :
#
#
# Convention : Reuss Voigt Hill
#
# Bulk Modulus (GPa) = 33.08650 39.18494 36.13572
# Shear Modulus (GPa) = 10.91158 19.21198 15.06178
#
# Velocity S-wave (km/s) = 2.35010 3.11837 2.76109
# Velocity P-wave (km/s) = 4.91028 5.72707 5.33433
#
# Compressibility (1/GPa) = 0.03022381
#
# Stress axis : x y z
#
# Youngs Moduli (GPa) = 35.36734 96.77818 51.99934
#
# Poissons Ratio (x) = 0.25031 0.44008
# Poissons Ratio (y) = 0.09147 0.14341
# Poissons Ratio (z) = 0.29932 0.26690
#
# Static dielectric constant tensor:
#      x y z
#    x 3.326490 0.000000 0.011350 
#    y 0.000000 3.958600 0.000000 
#    z 0.011350 0.000000 3.562770 
# 
# 
# High freq. dielectric constant tensor:
#      x y z
#    x 1.751880 0.000000 0.000030 
#    y 0.000000 1.789470 0.000000 
#    z 0.000030 0.000000 1.752440 
# 
# From -- ./inp_files/88502.got.cif
#   From: 2010.06.25/outbox.cif.g09.slc.cpg/sg12_45_cif.got.tgz:88502.got - 2010.06.28 00:19:55.
