data_PCOD8092018
_publ_section_title
;
Structure prediction by ZEFSAII (Michael W. Deem and Ramdas Pophale) SiO2 
 PCOD8092018
Probable space group: C 2/M
;
_chemical_formula_sum "Si O2"
_cell_formula_units_Z 44
_cell_length_a 17.218792
_cell_length_b 14.718214
_cell_length_c 12.054685
_cell_angle_alpha 90.000000
_cell_angle_beta 132.428739
_cell_angle_gamma 90.000000
_cell_volume 2254.960203
_symmetry_space_group_name_H-M "C 2/M"
_symmetry_group_IT_number 12
_symmetry_cell_setting 'monoclinic'
loop_
_space_group_symop_operation_xyz
x,y,z
-x,y,-z
-x,-y,-z
x,-y,z
1/2+x,1/2+y,z
1/2-x,1/2+y,-z
1/2-x,1/2-y,-z
1/2+x,1/2-y,z
loop_
_atom_site_type_symbol
_atom_site_label
_atom_site_fract_x
_atom_site_fract_y
_atom_site_fract_z
Si Si1 0.000000 0.833006 0.000000
Si Si2 0.230034 0.899561 0.214512
Si Si3 0.014764 0.232934 0.773341
Si Si4 0.391046 0.244300 0.450850
Si Si5 0.163314 0.399199 0.909731
Si Si6 0.650721 0.605044 0.760798
O O1 0.104728 0.892857 0.107668
O O2 0.003782 0.771279 0.113594
O O3 0.296177 0.826800 0.348507
O O4 0.252566 0.885080 0.106954
O O5 0.264072 0.000000 0.287403
O O6 0.073153 0.326969 0.806611
O O7 0.079181 0.146827 0.789585
O O8 0.907099 0.238529 0.597890
O O9 0.500000 0.207416 0.500000
O O10 0.362490 0.340391 0.366235
O O11 0.112968 0.500000 0.856882
O O12 0.227370 0.385806 0.085686
O O13 0.618722 0.500000 0.712048
#
# Coordination Sequence:
#
# PCOD8092018 Si02
#       6
#     4   8   8   8   8   8
#     4  12  25  38  61  84 126 164 193 236 295 362
#     4  11  22  38  61  91 122 154 196 245 297 353
#     4  11  22  38  58  89 119 158 195 244 296 352
#     4  10  21  37  60  89 119 150 199 249 298 341
#     4  10  19  36  64  89 114 152 208 253 282 336
#     4  10  19  34  58  87 117 151 196 247 290 338
#
# _framework density 19.512539
#
# number of rings (size 3 to 8) (size 9 to 14) (size 15 to 20)
#    0.000    1.455    5.455    1.909    0.000    5.818 
#    0.000    0.455    0.000    3.273    0.000    0.000 
#    0.000    0.000    0.000    0.000    0.000    0.000 
#
# Total GULP energy -272724.085861 kJ/mol
# GULP energy per Si atom -12396.549357 kJ/mol
# Density = 1.946813 g / cm^3
# Si number density = 19.512539 Si / 1000 Ang^3
#
#
#
# Elastic Constant Matrix: (Units=GPa)
#
#
# Indices 1 2 3 4 5 6 
#
# 1 56.2124 49.8771 38.0631 0.0000 -9.5244 0.0000
# 2 49.8771 153.7441 77.0188 0.0000 1.8076 0.0000
# 3 38.0631 77.0188 145.5564 0.0000 -10.2149 0.0000
# 4 0.0000 0.0000 0.0000 4.8682 0.0000 -11.4573
# 5 -9.5244 1.8076 -10.2149 0.0000 21.2072 0.0000
# 6 0.0000 0.0000 0.0000 -11.4573 0.0000 -2.2426
#
#
#
# Elastic Compliance Matrix: (Units=1/GPa)
#
#
# Indices 1 2 3 4 5 6 
#
# 1 0.028894 -0.008410 -0.002220 0.000000 0.012624 0.000000
# 2 -0.008410 0.011502 -0.004368 0.000000 -0.006861 0.000000
# 3 -0.002220 -0.004368 0.010058 0.000000 0.004220 0.000000
# 4 0.000000 0.000000 0.000000 0.015772 0.000000 -0.080579
# 5 0.012624 -0.006861 0.004220 0.000000 0.055441 0.000000
# 6 0.000000 0.000000 0.000000 -0.080579 0.000000 -0.034238
#
#
# Mechanical properties :
#
#
# Convention : Reuss Voigt Hill
#
# Bulk Modulus (GPa) = 48.88138 76.15900 62.52019
# Shear Modulus (GPa) = 40.24316 17.47015 28.85665
#
# Velocity S-wave (km/s) = 4.54632 2.99545 3.84979
# Velocity P-wave (km/s) = 7.25702 7.14697 7.20221
#
# Compressibility (1/GPa) = 0.02045769
#
# Stress axis : x y z
#
# Youngs Moduli (GPa) = 34.60919 86.94426 99.42165
#
# Poissons Ratio (x) = 0.73121 0.22070
# Poissons Ratio (y) = 0.29107 0.43429
# Poissons Ratio (z) = 0.07683 0.37979
#
# Static dielectric constant tensor:
#      x y z
#    x 3.330150 0.000000 -0.064600 
#    y 0.000000 3.569580 0.000000 
#    z -0.064600 0.000000 3.842640 
# 
# 
# High freq. dielectric constant tensor:
#      x y z
#    x 1.717090 0.000000 0.002480 
#    y 0.000000 1.762970 0.000000 
#    z 0.002480 0.000000 1.777800 
# 
# From -- ./inp_files/156299.got.cif
#   From: 2010.06.25/outbox.cif.g09.slc.cpg/sg12_79_cif.got.tgz:156299.got - 2010.06.28 00:19:55.
