data_PCOD8092507
_publ_section_title
;
Structure prediction by ZEFSAII (Michael W. Deem and Ramdas Pophale) SiO2 
 PCOD8092507
Probable space group: C 2/M
;
_chemical_formula_sum "Si O2"
_cell_formula_units_Z 64
_cell_length_a 31.922605
_cell_length_b 18.682091
_cell_length_c 11.559142
_cell_angle_alpha 90.000000
_cell_angle_beta 31.273926
_cell_angle_gamma 90.000000
_cell_volume 3578.703449
_symmetry_space_group_name_H-M "C 2/M"
_symmetry_group_IT_number 12
_symmetry_cell_setting 'monoclinic'
loop_
_space_group_symop_operation_xyz
x,y,z
-x,y,-z
-x,-y,-z
x,-y,z
1/2+x,1/2+y,z
1/2-x,1/2+y,-z
1/2-x,1/2-y,-z
1/2+x,1/2-y,z
loop_
_atom_site_type_symbol
_atom_site_label
_atom_site_fract_x
_atom_site_fract_y
_atom_site_fract_z
Si Si1 0.074968 0.318043 0.895843
Si Si2 0.469738 0.083057 0.793490
Si Si3 0.701013 0.175104 0.414120
Si Si4 0.328071 0.660338 0.517868
Si Si5 0.488723 0.418746 0.163019
Si Si6 0.860178 0.171163 0.179456
Si Si7 0.684284 0.916517 0.984061
Si Si8 0.849231 0.416487 0.679129
O O1 0.140805 0.353826 0.655323
O O2 0.112060 0.253191 0.880770
O O3 0.043770 0.379084 0.053064
O O4 0.000000 0.286375 0.000000
O O5 0.556599 0.104048 0.537902
O O6 0.464269 0.000000 0.834333
O O7 0.403718 0.105869 0.854744
O O8 0.674048 0.255831 0.448438
O O9 0.791980 0.167598 0.243606
O O10 0.696605 0.128131 0.309838
O O11 0.407881 0.625026 0.386034
O O12 0.325685 0.646959 0.385542
O O13 0.249992 0.625099 0.756216
O O14 0.482464 0.500000 0.225654
O O15 0.500000 0.418977 0.000000
O O16 0.566364 0.379571 0.035435
O O17 0.699757 0.000000 0.929069
O O18 0.689784 0.895929 0.105800
O O19 0.837761 0.500000 0.678749
#
# Coordination Sequence:
#
# PCOD8092507 Si02
#       8
#     8   8   8   8   8   8   8   8
#     4  11  19  33  54  78 112 144 173 215 274 326
#     4  10  20  34  54  79 107 140 181 220 262 322
#     4  11  21  34  52  80 111 143 177 218 270 326
#     4  10  19  35  55  82 105 135 181 228 269 319
#     4   9  18  32  52  77 105 136 173 220 268 316
#     4  10  20  33  53  80 111 141 175 215 271 332
#     4  10  20  36  57  77 103 141 183 228 269 311
#     4  10  22  37  52  75 108 146 182 220 268 316
#
# _framework density 17.883572000000001
#
# number of rings (size 3 to 8) (size 9 to 14) (size 15 to 20)
#    0.000    1.875    1.250    5.625    0.000    3.750 
#    0.000    0.000    0.000    0.750    0.000    2.625 
#    0.000    0.000    0.000    0.000    0.000    0.000 
#
# Total GULP energy -396871.084525 kJ/mol
# GULP energy per Si atom -12402.221391 kJ/mol
# Density = 1.784287 g / cm^3
# Si number density = 17.883572 Si / 1000 Ang^3
#
#
#
# Elastic Constant Matrix: (Units=GPa)
#
#
# Indices 1 2 3 4 5 6 
#
# 1 95.2399 54.0272 49.3566 0.0000 -16.7694 0.0000
# 2 54.0272 66.2407 44.7636 0.0000 -4.5247 0.0000
# 3 49.3566 44.7636 87.2540 0.0000 -15.7449 0.0000
# 4 0.0000 0.0000 0.0000 29.0486 0.0000 -3.5234
# 5 -16.7694 -4.5247 -15.7449 0.0000 30.1526 0.0000
# 6 0.0000 0.0000 0.0000 -3.5234 0.0000 24.4445
#
#
#
# Elastic Compliance Matrix: (Units=1/GPa)
#
#
# Indices 1 2 3 4 5 6 
#
# 1 0.022516 -0.015634 -0.003179 0.000000 0.008516 0.000000
# 2 -0.015634 0.034213 -0.010324 0.000000 -0.008952 0.000000
# 3 -0.003179 -0.010324 0.019825 0.000000 0.007035 0.000000
# 4 0.000000 0.000000 0.000000 0.035038 0.000000 0.005050
# 5 0.008516 -0.008952 0.007035 0.000000 0.040231 0.000000
# 6 0.000000 0.000000 0.000000 0.005050 0.000000 0.041637
#
#
# Mechanical properties :
#
#
# Convention : Reuss Voigt Hill
#
# Bulk Modulus (GPa) = 54.70542 60.55883 57.63212
# Shear Modulus (GPa) = 19.39291 23.43495 21.41393
#
# Velocity S-wave (km/s) = 3.29659 3.62390 3.46411
# Velocity P-wave (km/s) = 6.71909 7.17262 6.94956
#
# Compressibility (1/GPa) = 0.01827973
#
# Stress axis : x y z
#
# Youngs Moduli (GPa) = 44.41374 29.22848 50.44199
#
# Poissons Ratio (x) = 0.45697 0.16034
# Poissons Ratio (y) = 0.69438 0.52076
# Poissons Ratio (z) = 0.14118 0.30175
#
# Static dielectric constant tensor:
#      x y z
#    x 3.156080 0.000000 -0.170170 
#    y 0.000000 3.318420 0.000000 
#    z -0.170170 0.000000 3.419270 
# 
# 
# High freq. dielectric constant tensor:
#      x y z
#    x 1.673450 0.000000 -0.018110 
#    y 0.000000 1.690130 0.000000 
#    z -0.018110 0.000000 1.696130 
# 
# From -- ./inp_files/190053.got.cif
#   From: 2010.06.25/outbox.cif.g09.slc.cpg/sg12_96_cif.got.tgz:190053.got - 2010.06.28 00:19:55.
