data_PCOD8092480
_publ_section_title
;
Structure prediction by ZEFSAII (Michael W. Deem and Ramdas Pophale) SiO2 
 PCOD8092480
Probable space group: C 2/M
;
_chemical_formula_sum "Si O2"
_cell_formula_units_Z 48
_cell_length_a 12.620087
_cell_length_b 13.604822
_cell_length_c 22.687734
_cell_angle_alpha 90.000000
_cell_angle_beta 142.044968
_cell_angle_gamma 90.000000
_cell_volume 2395.806231
_symmetry_space_group_name_H-M "C 2/M"
_symmetry_group_IT_number 12
_symmetry_cell_setting 'monoclinic'
loop_
_space_group_symop_operation_xyz
x,y,z
-x,y,-z
-x,-y,-z
x,-y,z
1/2+x,1/2+y,z
1/2-x,1/2+y,-z
1/2-x,1/2-y,-z
1/2+x,1/2-y,z
loop_
_atom_site_type_symbol
_atom_site_label
_atom_site_fract_x
_atom_site_fract_y
_atom_site_fract_z
Si Si1 0.774086 0.113126 0.744220
Si Si2 0.026677 0.286304 0.715824
Si Si3 0.952918 0.114150 0.043619
Si Si4 0.821574 0.763159 0.392101
Si Si5 0.797988 0.887354 0.270701
Si Si6 0.924044 0.388149 0.142033
O O1 0.596818 0.131411 0.701857
O O2 0.764093 0.170789 0.678812
O O3 0.929798 0.158840 0.852481
O O4 0.800151 0.000000 0.740297
O O5 0.106448 0.179386 0.735605
O O6 0.075731 0.312781 0.803944
O O7 0.818408 0.288939 0.618786
O O8 0.002705 0.000000 0.063218
O O9 0.751995 0.131775 0.971555
O O10 0.000000 0.160087 0.000000
O O11 0.851613 0.853703 0.360309
O O12 0.000000 0.732922 0.500000
O O13 0.590519 0.874294 0.173228
O O14 0.854551 0.000000 0.286102
O O15 0.921369 0.500000 0.165794
#
# Coordination Sequence:
#
# PCOD8092480 Si02
#       6
#     8   8   8   8   8   8
#     4  10  20  35  57  85 110 139 180 220 267 320
#     4  10  19  35  55  79 108 139 178 224 268 320
#     4   9  15  27  53  85 112 140 175 216 260 312
#     4  10  23  40  55  77 109 142 180 227 275 322
#     4   9  20  36  55  79 107 144 184 222 265 315
#     4   9  16  31  55  81 111 142 174 216 264 315
#
# _framework density 20.035008999999999
#
# number of rings (size 3 to 8) (size 9 to 14) (size 15 to 20)
#    0.000    2.500    1.667    0.500    0.000    4.667 
#    0.000   10.833    0.000    0.000    0.000   14.000 
#    0.000    0.000    0.000    0.000    0.000    0.000 
#
# Total GULP energy -297479.620498 kJ/mol
# GULP energy per Si atom -12394.984187 kJ/mol
# Density = 1.998941 g / cm^3
# Si number density = 20.035009 Si / 1000 Ang^3
#
#
#
# Elastic Constant Matrix: (Units=GPa)
#
#
# Indices 1 2 3 4 5 6 
#
# 1 78.8349 20.3039 41.2378 -0.0001 17.1993 0.0000
# 2 20.3039 96.3985 26.7781 -0.0001 1.3072 0.0000
# 3 41.2378 26.7781 134.7878 -0.0004 20.5195 0.0000
# 4 -0.0001 -0.0001 -0.0004 23.5003 -0.0001 -3.8774
# 5 17.1993 1.3072 20.5195 -0.0001 23.5639 0.0000
# 6 0.0000 0.0000 0.0000 -3.8774 0.0000 28.4000
#
#
#
# Elastic Compliance Matrix: (Units=1/GPa)
#
#
# Indices 1 2 3 4 5 6 
#
# 1 0.017139 -0.002568 -0.003286 0.000000 -0.009506 0.000000
# 2 -0.002568 0.011410 -0.001925 0.000000 0.002918 0.000000
# 3 -0.003286 -0.001925 0.009713 0.000000 -0.005953 0.000000
# 4 0.000000 0.000000 0.000000 0.043533 0.000000 0.005944
# 5 -0.009506 0.002918 -0.005953 0.000000 0.054398 0.000000
# 6 0.000000 0.000000 0.000000 0.005944 0.000000 0.036023
#
#
# Mechanical properties :
#
#
# Convention : Reuss Voigt Hill
#
# Bulk Modulus (GPa) = 44.04787 54.07340 49.06064
# Shear Modulus (GPa) = 25.59603 29.87293 27.73448
#
# Velocity S-wave (km/s) = 3.57818 3.86558 3.72466
# Velocity P-wave (km/s) = 6.25335 6.85359 6.56034
#
# Compressibility (1/GPa) = 0.02270257
#
# Stress axis : x y z
#
# Youngs Moduli (GPa) = 58.34643 87.64424 102.95241
#
# Poissons Ratio (x) = 0.22508 0.33833
# Poissons Ratio (y) = 0.14984 0.19821
# Poissons Ratio (z) = 0.19174 0.16874
#
# Static dielectric constant tensor:
#      x y z
#    x 3.634820 0.000000 0.271560 
#    y 0.000000 3.559770 0.000000 
#    z 0.271560 0.000000 3.540660 
# 
# 
# High freq. dielectric constant tensor:
#      x y z
#    x 1.775390 0.000000 0.022060 
#    y 0.000000 1.773340 0.000000 
#    z 0.022060 0.000000 1.762620 
# 
# From -- ./inp_files/204563.got.cif
#   From: 2010.06.25/outbox.cif.g09.slc.cpg/sg12_103_cif.got.tgz:204563.got - 2010.06.28 00:19:55.
