data_PCOD8092156
_publ_section_title
;
Structure prediction by ZEFSAII (Michael W. Deem and Ramdas Pophale) SiO2 
 PCOD8092156
Probable space group: C 2/M
;
_chemical_formula_sum "Si O2"
_cell_formula_units_Z 56
_cell_length_a 27.422477
_cell_length_b 8.942908
_cell_length_c 18.958210
_cell_angle_alpha 90.000000
_cell_angle_beta 35.964515
_cell_angle_gamma 90.000000
_cell_volume 2730.429767
_symmetry_space_group_name_H-M "C 2/M"
_symmetry_group_IT_number 12
_symmetry_cell_setting 'monoclinic'
loop_
_space_group_symop_operation_xyz
x,y,z
-x,y,-z
-x,-y,-z
x,-y,z
1/2+x,1/2+y,z
1/2-x,1/2+y,-z
1/2-x,1/2-y,-z
1/2+x,1/2-y,z
loop_
_atom_site_type_symbol
_atom_site_label
_atom_site_fract_x
_atom_site_fract_y
_atom_site_fract_z
Si Si1 0.222881 0.175234 0.105748
Si Si2 0.592917 0.677450 0.372386
Si Si3 0.859128 0.832451 0.186303
Si Si4 0.328450 0.826721 0.444127
Si Si5 0.861271 0.832540 0.024013
Si Si6 0.691861 0.674956 0.392811
Si Si7 0.455865 0.667798 0.207594
O O1 0.135659 0.228582 0.246715
O O2 0.217924 0.000000 0.097202
O O3 0.250000 0.250000 0.000000
O O4 0.295760 0.209955 0.075732
O O5 0.500000 0.740990 0.500000
O O6 0.588135 0.500000 0.376431
O O7 0.653867 0.732810 0.363353
O O8 0.788596 0.712557 0.286711
O O9 0.938012 0.810146 0.144974
O O10 0.821936 0.000000 0.239240
O O11 0.887353 0.806463 0.073845
O O12 0.250000 0.750000 0.500000
O O13 0.353325 0.758841 0.490565
O O14 0.408224 0.797933 0.303320
O O15 0.308928 0.000000 0.474049
O O16 0.948435 0.812078 0.882308
O O17 0.825352 0.000000 0.052993
O O18 0.677441 0.500000 0.418437
O O19 0.426796 0.500000 0.263851
#
# Coordination Sequence:
#
# PCOD8092156 Si02
#       7
#     8   8   8   8   8   8   8
#     4  11  23  41  65  93 123 159 206 260 321 380
#     4   9  20  40  65  91 119 155 203 256 308 369
#     4  10  19  34  59  87 119 156 198 243 291 351
#     4  12  24  38  56  83 120 161 203 249 301 355
#     4  10  21  38  61  89 122 160 202 246 302 364
#     4  11  21  36  61  89 116 154 201 246 300 359
#     4  10  21  37  58  87 122 164 205 244 292 358
#
# _framework density 20.509591
#
# number of rings (size 3 to 8) (size 9 to 14) (size 15 to 20)
#    0.000    1.571    2.857    2.571    0.000    3.429 
#    0.000    2.857    0.000    8.571    0.000    0.000 
#    0.000    0.000    0.000    0.000    0.000    0.000 
#
# Total GULP energy -346973.741980 kJ/mol
# GULP energy per Si atom -12391.919356 kJ/mol
# Density = 2.046291 g / cm^3
# Si number density = 20.509591 Si / 1000 Ang^3
#
#
#
# Elastic Constant Matrix: (Units=GPa)
#
#
# Indices 1 2 3 4 5 6 
#
# 1 71.1121 26.5962 45.3064 0.0120 5.3035 -0.0009
# 2 26.5962 79.2371 37.3239 0.0297 8.5425 -0.0171
# 3 45.3064 37.3239 132.5359 0.0279 8.5619 -0.0168
# 4 0.0120 0.0297 0.0279 29.9642 -0.0199 2.8198
# 5 5.3035 8.5425 8.5619 -0.0199 35.3465 0.0096
# 6 -0.0009 -0.0171 -0.0168 2.8198 0.0096 29.4010
#
#
#
# Elastic Compliance Matrix: (Units=1/GPa)
#
#
# Indices 1 2 3 4 5 6 
#
# 1 0.018939 -0.003757 -0.005375 0.000001 -0.000632 -0.000005
# 2 -0.003757 0.015528 -0.002928 -0.000014 -0.002480 0.000009
# 3 -0.005375 -0.002928 0.010270 -0.000006 -0.000973 0.000005
# 4 0.000001 -0.000014 -0.000006 0.033677 0.000024 -0.003230
# 5 -0.000632 -0.002480 -0.000973 0.000024 0.029221 -0.000014
# 6 -0.000005 0.000009 0.000005 -0.003230 -0.000014 0.034322
#
#
# Mechanical properties :
#
#
# Convention : Reuss Voigt Hill
#
# Bulk Modulus (GPa) = 48.50582 55.70422 52.10502
# Shear Modulus (GPa) = 28.90977 30.51959 29.71468
#
# Velocity S-wave (km/s) = 3.75850 3.86173 3.81046
# Velocity P-wave (km/s) = 6.52202 6.86316 6.69476
#
# Compressibility (1/GPa) = 0.02061608
#
# Stress axis : x y z
#
# Youngs Moduli (GPa) = 52.80036 64.39923 97.36846
#
# Poissons Ratio (x) = 0.24194 0.52340
# Poissons Ratio (y) = 0.19836 0.28514
# Poissons Ratio (z) = 0.28383 0.18859
#
# Static dielectric constant tensor:
#      x y z
#    x 3.716140 -0.000020 0.153160 
#    y -0.000020 3.564990 0.000030 
#    z 0.153160 0.000030 4.096810 
# 
# 
# High freq. dielectric constant tensor:
#      x y z
#    x 1.794440 0.000000 0.009250 
#    y 0.000000 1.778910 0.000000 
#    z 0.009250 0.000000 1.811790 
# 
# From -- ./inp_files/292382.got.cif
#   From: 2010.06.25/outbox.cif.g09.slc.cpg/sg12_147_cif.got.tgz:292382.got - 2010.06.28 00:19:55.
