data_PCOD8092380
_publ_section_title
;
Structure prediction by ZEFSAII (Michael W. Deem and Ramdas Pophale) SiO2 
 PCOD8092380
Probable space group: C 2/M
;
_chemical_formula_sum "Si O2"
_cell_formula_units_Z 56
_cell_length_a 14.382147
_cell_length_b 17.735103
_cell_length_c 14.685419
_cell_angle_alpha 90.000000
_cell_angle_beta 125.992570
_cell_angle_gamma 90.000000
_cell_volume 3030.695732
_symmetry_space_group_name_H-M "C 2/M"
_symmetry_group_IT_number 12
_symmetry_cell_setting 'monoclinic'
loop_
_space_group_symop_operation_xyz
x,y,z
-x,y,-z
-x,-y,-z
x,-y,z
1/2+x,1/2+y,z
1/2-x,1/2+y,-z
1/2-x,1/2-y,-z
1/2+x,1/2-y,z
loop_
_atom_site_type_symbol
_atom_site_label
_atom_site_fract_x
_atom_site_fract_y
_atom_site_fract_z
Si Si1 0.388445 0.411723 0.497159
Si Si2 0.556248 0.681634 0.296909
Si Si3 0.730484 0.130671 0.973699
Si Si4 0.305520 0.189825 0.702841
Si Si5 0.803272 0.237161 0.173870
Si Si6 0.992714 0.416257 0.892210
Si Si7 0.979011 0.915699 0.089093
O O1 0.500000 0.398100 0.500000
O O2 0.357640 0.500000 0.484923
O O3 0.410040 0.381177 0.610514
O O4 0.282686 0.367014 0.394050
O O5 0.655028 0.745176 0.344937
O O6 0.438190 0.720779 0.257694
O O7 0.544182 0.640887 0.193027
O O8 0.717256 0.178625 0.873759
O O9 0.618989 0.078899 0.920666
O O10 0.737544 0.181740 0.067784
O O11 0.843483 0.079847 0.032047
O O12 0.248612 0.229873 0.756193
O O13 0.417532 0.142972 0.794137
O O14 0.937645 0.500000 0.855592
O O15 0.000000 0.388567 0.000000
O O16 0.029507 0.000000 0.128801
O O17 0.000000 0.884299 0.000000
#
# Coordination Sequence:
#
# PCOD8092380 Si02
#       7
#     8   8   8   8   8   8   8
#     4  11  24  42  63  87 117 151 195 250 303 354
#     4  11  22  39  61  86 115 155 195 246 297 345
#     4  10  19  35  53  82 119 157 190 240 282 339
#     4  12  22  39  60  87 117 153 197 245 295 355
#     4  10  20  33  56  85 115 148 199 233 283 342
#     4  11  22  34  53  84 120 158 193 234 293 353
#     4  10  21  36  57  87 119 157 201 237 289 351
#
# _framework density 18.477606000000002
#
# number of rings (size 3 to 8) (size 9 to 14) (size 15 to 20)
#    0.000    1.286    4.286    2.571    0.000    0.571 
#    0.000    0.000    0.000    0.000    0.000    1.000 
#    0.000    0.000    0.000    0.000    0.000    0.000 
#
# Total GULP energy -347270.786639 kJ/mol
# GULP energy per Si atom -12402.528094 kJ/mol
# Density = 1.843555 g / cm^3
# Si number density = 18.477606 Si / 1000 Ang^3
#
#
#
# Elastic Constant Matrix: (Units=GPa)
#
#
# Indices 1 2 3 4 5 6 
#
# 1 96.9989 43.5980 43.9524 0.0000 -3.7478 0.0000
# 2 43.5980 97.9621 44.0868 0.0000 -0.2471 0.0000
# 3 43.9524 44.0868 89.6808 0.0000 -1.8007 0.0000
# 4 0.0000 0.0000 0.0000 -13.4360 0.0000 14.8333
# 5 -3.7478 -0.2471 -1.8007 0.0000 27.1227 0.0000
# 6 0.0000 0.0000 0.0000 14.8333 0.0000 18.2958
#
#
#
# Elastic Compliance Matrix: (Units=1/GPa)
#
#
# Indices 1 2 3 4 5 6 
#
# 1 0.014540 -0.004205 -0.005026 0.000000 0.001637 0.000000
# 2 -0.004205 0.014327 -0.004998 0.000000 -0.000782 0.000000
# 3 -0.005026 -0.004998 0.016077 0.000000 0.000327 0.000000
# 4 0.000000 0.000000 0.000000 -0.039274 0.000000 0.031841
# 5 0.001637 -0.000782 0.000327 0.000000 0.037110 0.000000
# 6 0.000000 0.000000 0.000000 0.031841 0.000000 0.028842
#
#
# Mechanical properties :
#
#
# Convention : Reuss Voigt Hill
#
# Bulk Modulus (GPa) = 60.65577 60.87960 60.76769
# Shear Modulus (GPa) = 47.35940 16.59679 31.97810
#
# Velocity S-wave (km/s) = 5.06817 3.00027 4.16461
# Velocity P-wave (km/s) = 8.19429 6.70980 7.48892
#
# Compressibility (1/GPa) = 0.01648648
#
# Stress axis : x y z
#
# Youngs Moduli (GPa) = 68.77538 69.79969 62.19917
#
# Poissons Ratio (x) = 0.29351 0.31261
# Poissons Ratio (y) = 0.28920 0.31086
# Poissons Ratio (z) = 0.34567 0.34884
#
# Static dielectric constant tensor:
#      x y z
#    x 3.404390 0.000000 -0.000680 
#    y 0.000000 3.312350 0.000000 
#    z -0.000680 0.000000 3.318590 
# 
# 
# High freq. dielectric constant tensor:
#      x y z
#    x 1.724250 0.000000 0.001020 
#    y 0.000000 1.720860 0.000000 
#    z 0.001020 0.000000 1.705700 
# 
# From -- ./inp_files/133872.got.cif
#   From: 2010.06.25/outbox.cif.g09.slc.cpg/sg12_67_cif.got.tgz:133872.got - 2010.06.28 00:19:55.
