data_PCOD8092122
_publ_section_title
;
Structure prediction by ZEFSAII (Michael W. Deem and Ramdas Pophale) SiO2 
 PCOD8092122
Probable space group: C 2/M
;
_chemical_formula_sum "Si O2"
_cell_formula_units_Z 52
_cell_length_a 16.109399
_cell_length_b 17.448666
_cell_length_c 8.930471
_cell_angle_alpha 90.000000
_cell_angle_beta 81.238234
_cell_angle_gamma 90.000000
_cell_volume 2480.950050
_symmetry_space_group_name_H-M "C 2/M"
_symmetry_group_IT_number 12
_symmetry_cell_setting 'monoclinic'
loop_
_space_group_symop_operation_xyz
x,y,z
-x,y,-z
-x,-y,-z
x,-y,z
1/2+x,1/2+y,z
1/2-x,1/2+y,-z
1/2-x,1/2-y,-z
1/2+x,1/2-y,z
loop_
_atom_site_type_symbol
_atom_site_label
_atom_site_fract_x
_atom_site_fract_y
_atom_site_fract_z
Si Si1 0.293937 0.854638 0.111785
Si Si2 0.937407 0.586775 0.891799
Si Si3 0.625232 0.816380 0.350296
Si Si4 0.111812 0.088994 0.663181
Si Si5 0.218431 0.413333 0.557238
Si Si6 0.000000 0.190364 0.500000
Si Si7 0.301209 0.689064 0.131414
O O1 0.273809 0.896268 0.270434
O O2 0.342960 0.773750 0.127056
O O3 0.346222 0.912037 0.992719
O O4 0.210072 0.835369 0.039029
O O5 0.962585 0.500000 0.843101
O O6 0.938139 0.635270 0.738173
O O7 0.000000 0.621208 0.000000
O O8 0.648310 0.861843 0.495679
O O9 0.576834 0.740099 0.413500
O O10 0.711314 0.799827 0.239353
O O11 0.189028 0.100505 0.530199
O O12 0.138454 0.125726 0.813890
O O13 0.032227 0.134967 0.622970
O O14 0.088408 0.000000 0.693085
O O15 0.189265 0.500000 0.538742
#
# Coordination Sequence:
#
# PCOD8092122 Si02
#       7
#     8   8   8   8   8   4   8
#     4  10  19  34  59  86 110 146 189 234 280 333
#     4  10  22  37  52  79 119 153 182 224 282 341
#     4  10  22  37  56  85 114 153 188 231 281 335
#     4  10  22  39  60  84 115 150 190 239 290 338
#     4  10  20  36  60  86 113 146 190 237 278 335
#     4  12  23  36  61  86 114 152 192 240 281 340
#     4   9  20  38  59  83 113 145 193 237 278 336
#
# _framework density 20.959713000000001
#
# number of rings (size 3 to 8) (size 9 to 14) (size 15 to 20)
#    0.000    2.000    0.000    3.000    4.308    6.769 
#    0.000    0.769    0.000    0.000    0.000   12.923 
#    0.000    0.000    0.000    0.000    0.000    0.000 
#
# Total GULP energy -322334.642957 kJ/mol
# GULP energy per Si atom -12397.486268 kJ/mol
# Density = 2.091201 g / cm^3
# Si number density = 20.959713 Si / 1000 Ang^3
#
#
#
# Elastic Constant Matrix: (Units=GPa)
#
#
# Indices 1 2 3 4 5 6 
#
# 1 51.1967 45.1814 22.7945 0.0000 24.5414 0.0000
# 2 45.1814 121.3019 37.0226 0.0000 19.3150 0.0000
# 3 22.7945 37.0226 106.6564 0.0000 18.8372 0.0000
# 4 0.0000 0.0000 0.0000 33.8259 0.0000 7.8270
# 5 24.5414 19.3150 18.8372 0.0000 23.2465 0.0000
# 6 0.0000 0.0000 0.0000 7.8270 0.0000 35.7593
#
#
#
# Elastic Compliance Matrix: (Units=1/GPa)
#
#
# Indices 1 2 3 4 5 6 
#
# 1 0.051553 -0.012398 0.001259 0.000000 -0.045144 0.000000
# 2 -0.012398 0.012956 -0.002635 0.000000 0.004459 0.000000
# 3 0.001259 -0.002635 0.011518 0.000000 -0.008473 0.000000
# 4 0.000000 0.000000 0.000000 0.031140 0.000000 -0.006816
# 5 -0.045144 0.004459 -0.008473 0.000000 0.093836 0.000000
# 6 0.000000 0.000000 0.000000 -0.006816 0.000000 0.029457
#
#
# Mechanical properties :
#
#
# Convention : Reuss Voigt Hill
#
# Bulk Modulus (GPa) = 20.62773 54.35024 37.48899
# Shear Modulus (GPa) = 18.23695 30.17676 24.20685
#
# Velocity S-wave (km/s) = 2.95294 3.79852 3.40210
# Velocity P-wave (km/s) = 4.63567 6.72499 5.77559
#
# Compressibility (1/GPa) = 0.04847843
#
# Stress axis : x y z
#
# Youngs Moduli (GPa) = 19.39747 77.18415 86.82062
#
# Poissons Ratio (x) = 0.95693 -0.10928
# Poissons Ratio (y) = 0.24049 0.22879
# Poissons Ratio (z) = -0.02442 0.20339
#
# Static dielectric constant tensor:
#      x y z
#    x 3.502560 0.000000 0.254390 
#    y 0.000000 3.901190 0.000000 
#    z 0.254390 0.000000 3.889750 
# 
# 
# High freq. dielectric constant tensor:
#      x y z
#    x 1.789340 0.000000 0.019800 
#    y 0.000000 1.831430 0.000000 
#    z 0.019800 0.000000 1.830340 
# 
# From -- ./inp_files/75313.got.cif
#   From: 2010.06.25/outbox.cif.g09.slc.cpg/sg12_38_cif.got.tgz:75313.got - 2010.06.28 00:19:55.
