data_PCOD8092107
_publ_section_title
;
Structure prediction by ZEFSAII (Michael W. Deem and Ramdas Pophale) SiO2 
 PCOD8092107
Probable space group: C 2/M
;
_chemical_formula_sum "Si O2"
_cell_formula_units_Z 56
_cell_length_a 18.960399
_cell_length_b 9.227785
_cell_length_c 24.752444
_cell_angle_alpha 90.000000
_cell_angle_beta 41.686169
_cell_angle_gamma 90.000000
_cell_volume 2880.165136
_symmetry_space_group_name_H-M "C 2/M"
_symmetry_group_IT_number 12
_symmetry_cell_setting 'monoclinic'
loop_
_space_group_symop_operation_xyz
x,y,z
-x,y,-z
-x,-y,-z
x,-y,z
1/2+x,1/2+y,z
1/2-x,1/2+y,-z
1/2-x,1/2-y,-z
1/2+x,1/2-y,z
loop_
_atom_site_type_symbol
_atom_site_label
_atom_site_fract_x
_atom_site_fract_y
_atom_site_fract_z
Si Si1 0.828118 0.170752 0.496459
Si Si2 0.072379 0.829599 0.341668
Si Si3 0.423103 0.835334 0.184360
Si Si4 0.386297 0.835710 0.082792
Si Si5 0.717345 0.327192 0.356962
Si Si6 0.649218 0.165389 0.079875
Si Si7 0.185511 0.664624 0.181139
O O1 0.750000 0.250000 0.500000
O O2 0.808561 0.229235 0.568384
O O3 0.948781 0.209694 0.413655
O O4 0.806546 0.000000 0.504968
O O5 0.128938 0.773306 0.364361
O O6 0.119345 0.753485 0.262361
O O7 0.091419 0.000000 0.324029
O O8 0.371651 0.827732 0.155057
O O9 0.334112 0.764791 0.274367
O O10 0.540066 0.762783 0.118854
O O11 0.442149 0.000000 0.192027
O O12 0.301005 0.731789 0.104824
O O13 0.370979 0.000000 0.070188
O O14 0.500000 0.776022 0.000000
O O15 0.718139 0.500000 0.355068
O O16 0.630534 0.174070 0.154627
O O17 0.664555 0.000000 0.051754
O O18 0.750000 0.250000 0.000000
O O19 0.196053 0.500000 0.195445
#
# Coordination Sequence:
#
# PCOD8092107 Si02
#       7
#     8   8   8   8   8   8   8
#     4  10  22  37  60  90 117 146 182 231 283 336
#     4  10  20  38  61  85 111 146 195 234 270 329
#     4   9  17  32  56  82 105 141 191 230 265 322
#     4  10  19  34  59  85 109 144 192 238 273 322
#     4   9  17  34  61  85 108 143 191 238 273 320
#     4  10  22  38  56  80 110 148 192 232 281 335
#     4  11  23  36  55  85 119 151 182 228 291 343
#
# _framework density 19.44333
#
# number of rings (size 3 to 8) (size 9 to 14) (size 15 to 20)
#    0.000    2.143    1.429    1.714    2.000    4.857 
#    0.000    1.429    0.000    1.714    0.000    0.000 
#    0.000    0.000    0.000    0.000    0.000    0.000 
#
# Total GULP energy -347134.131181 kJ/mol
# GULP energy per Si atom -12397.647542 kJ/mol
# Density = 1.939908 g / cm^3
# Si number density = 19.443330 Si / 1000 Ang^3
#
#
#
# Elastic Constant Matrix: (Units=GPa)
#
#
# Indices 1 2 3 4 5 6 
#
# 1 97.5986 28.1417 35.6049 0.0000 -10.8695 -0.0001
# 2 28.1417 43.9251 34.4875 0.0002 -6.5518 -0.0004
# 3 35.6049 34.4875 122.1778 0.0000 -7.6634 0.0000
# 4 0.0000 0.0002 0.0000 24.8731 0.0000 -1.8482
# 5 -10.8695 -6.5518 -7.6634 0.0000 39.3578 0.0000
# 6 -0.0001 -0.0004 0.0000 -1.8482 0.0000 26.5024
#
#
#
# Elastic Compliance Matrix: (Units=1/GPa)
#
#
# Indices 1 2 3 4 5 6 
#
# 1 0.013053 -0.006631 -0.001797 0.000000 0.002151 0.000000
# 2 -0.006631 0.033047 -0.007254 0.000000 0.002257 0.000000
# 3 -0.001797 -0.007254 0.010781 0.000000 0.000395 0.000000
# 4 0.000000 0.000000 0.000000 0.040413 0.000000 0.002818
# 5 0.002151 0.002257 0.000395 0.000000 0.026455 0.000000
# 6 0.000000 0.000000 0.000000 0.002818 0.000000 0.037929
#
#
# Mechanical properties :
#
#
# Convention : Reuss Voigt Hill
#
# Bulk Modulus (GPa) = 39.19099 51.12997 45.16048
# Shear Modulus (GPa) = 24.80796 29.17783 26.99290
#
# Velocity S-wave (km/s) = 3.57587 3.87804 3.73001
# Velocity P-wave (km/s) = 6.10323 6.81221 6.46744
#
# Compressibility (1/GPa) = 0.02551607
#
# Stress axis : x y z
#
# Youngs Moduli (GPa) = 76.60924 30.26030 92.75570
#
# Poissons Ratio (x) = 0.20065 0.16671
# Poissons Ratio (y) = 0.50799 0.67287
# Poissons Ratio (z) = 0.13769 0.21951
#
# Static dielectric constant tensor:
#      x y z
#    x 3.669210 0.000000 -0.066000 
#    y 0.000000 3.210560 0.000000 
#    z -0.066000 0.000000 3.716480 
# 
# 
# High freq. dielectric constant tensor:
#      x y z
#    x 1.767560 0.000000 -0.003060 
#    y 0.000000 1.710760 0.000000 
#    z -0.003060 0.000000 1.776220 
# 
# From -- ./inp_files/230884.got.cif
#   From: 2010.06.25/outbox.cif.g09.slc.cpg/sg12_116_cif.got.tgz:230884.got - 2010.06.28 00:19:55.
