data_PCOD8092470
_publ_section_title
;
Structure prediction by ZEFSAII (Michael W. Deem and Ramdas Pophale) SiO2 
 PCOD8092470
Probable space group: C 2/M
;
_chemical_formula_sum "Si O2"
_cell_formula_units_Z 64
_cell_length_a 21.449160
_cell_length_b 18.172204
_cell_length_c 9.223360
_cell_angle_alpha 90.000000
_cell_angle_beta 100.657448
_cell_angle_gamma 90.000000
_cell_volume 3533.054106
_symmetry_space_group_name_H-M "C 2/M"
_symmetry_group_IT_number 12
_symmetry_cell_setting 'monoclinic'
loop_
_space_group_symop_operation_xyz
x,y,z
-x,y,-z
-x,-y,-z
x,-y,z
1/2+x,1/2+y,z
1/2-x,1/2+y,-z
1/2-x,1/2-y,-z
1/2+x,1/2-y,z
loop_
_atom_site_type_symbol
_atom_site_label
_atom_site_fract_x
_atom_site_fract_y
_atom_site_fract_z
Si Si1 0.226489 0.083705 0.373383
Si Si2 0.845283 0.366904 0.598501
Si Si3 0.842632 0.416682 0.898123
Si Si4 0.244655 0.862926 0.070009
Si Si5 0.483687 0.916719 0.652322
Si Si6 0.052930 0.318033 0.915097
Si Si7 0.335956 0.728777 0.166407
Si Si8 0.819200 0.782525 0.491682
O O1 0.298355 0.102289 0.454656
O O2 0.220387 0.092731 0.198403
O O3 0.175469 0.138524 0.426737
O O4 0.209442 0.000000 0.408209
O O5 0.812723 0.376578 0.742792
O O6 0.908143 0.415278 0.635613
O O7 0.864743 0.281398 0.576015
O O8 0.862500 0.500000 0.872716
O O9 0.789104 0.416900 0.997554
O O10 0.904898 0.372902 0.971645
O O11 0.284590 0.793122 0.139018
O O12 0.184848 0.837666 0.947638
O O13 0.500000 0.888394 0.500000
O O14 0.519288 0.864058 0.776637
O O15 0.507689 0.000000 0.687894
O O16 0.094904 0.254576 0.858508
O O17 0.000000 0.282989 0.000000
O O18 0.336841 0.702462 0.332765
O O19 0.750000 0.750000 0.500000
#
# Coordination Sequence:
#
# PCOD8092470 Si02
#       8
#     8   8   8   8   8   8   8   8
#     4  11  22  34  54  83 114 142 180 230 284 344
#     4  11  21  35  51  75 107 153 191 226 267 325
#     4  11  22  34  52  77 114 155 191 232 280 328
#     4  10  20  33  55  78 108 139 190 237 289 333
#     4  11  23  35  50  73 109 153 196 233 267 314
#     4  11  23  37  53  76 112 152 202 240 267 323
#     4  10  20  36  55  78 104 148 188 242 284 326
#     4  10  19  35  55  78 106 146 187 233 285 337
#
# _framework density 18.114640000000001
#
# number of rings (size 3 to 8) (size 9 to 14) (size 15 to 20)
#    0.000    1.375    3.750    4.125    5.250    0.500 
#    0.000    0.625    0.000    0.000    0.000    0.000 
#    0.000   23.000    0.000    0.000    0.000    0.000 
#
# Total GULP energy -396752.558570 kJ/mol
# GULP energy per Si atom -12398.517455 kJ/mol
# Density = 1.807341 g / cm^3
# Si number density = 18.114640 Si / 1000 Ang^3
#
#
#
# Elastic Constant Matrix: (Units=GPa)
#
#
# Indices 1 2 3 4 5 6 
#
# 1 69.4907 25.3120 38.8689 0.0000 -14.5213 0.0000
# 2 25.3120 93.9239 42.9204 0.0000 -10.9662 0.0000
# 3 38.8689 42.9204 133.9578 0.0000 -20.1754 0.0000
# 4 0.0000 0.0000 0.0000 11.9558 0.0000 -11.1585
# 5 -14.5213 -10.9662 -20.1754 0.0000 24.7566 0.0000
# 6 0.0000 0.0000 0.0000 -11.1585 0.0000 11.9900
#
#
#
# Elastic Compliance Matrix: (Units=1/GPa)
#
#
# Indices 1 2 3 4 5 6 
#
# 1 0.018794 -0.002624 -0.003565 0.000000 0.006956 0.000000
# 2 -0.002624 0.012986 -0.003152 0.000000 0.001645 0.000000
# 3 -0.003565 -0.003152 0.010241 0.000000 0.004859 0.000000
# 4 0.000000 0.000000 0.000000 0.636462 0.000000 0.592323
# 5 0.006956 0.001645 0.004859 0.000000 0.049162 0.000000
# 6 0.000000 0.000000 0.000000 0.592323 0.000000 0.634647
#
#
# Mechanical properties :
#
#
# Convention : Reuss Voigt Hill
#
# Bulk Modulus (GPa) = 42.84398 56.84168 49.84283
# Shear Modulus (GPa) = 3.60035 22.42523 13.01279
#
# Velocity S-wave (km/s) = 1.41133 3.52229 2.68313
# Velocity P-wave (km/s) = 5.13407 6.92741 6.09704
#
# Compressibility (1/GPa) = 0.02334050
#
# Stress axis : x y z
#
# Youngs Moduli (GPa) = 53.20942 77.00418 97.64625
#
# Poissons Ratio (x) = 0.20203 0.34809
# Poissons Ratio (y) = 0.13960 0.30777
# Poissons Ratio (z) = 0.18968 0.24271
#
# Static dielectric constant tensor:
#      x y z
#    x 3.644840 0.000000 0.556960 
#    y 0.000000 3.455480 0.000000 
#    z 0.556960 0.000000 4.540160 
# 
# 
# High freq. dielectric constant tensor:
#      x y z
#    x 1.664250 0.000000 -0.016280 
#    y 0.000000 1.683990 0.000000 
#    z -0.016280 0.000000 1.724850 
# 
# From -- ./inp_files/97779.got.cif
#   From: 2010.06.25/outbox.cif.g09.slc.cpg/sg12_49_cif.got.tgz:97779.got - 2010.06.28 00:19:55.
