data_PCOD8092537
_publ_section_title
;
Structure prediction by ZEFSAII (Michael W. Deem and Ramdas Pophale) SiO2 
 PCOD8092537
Probable space group: C 2/M
;
_chemical_formula_sum "Si O2"
_cell_formula_units_Z 56
_cell_length_a 20.641969
_cell_length_b 9.307884
_cell_length_c 17.831618
_cell_angle_alpha 90.000000
_cell_angle_beta 52.049020
_cell_angle_gamma 90.000000
_cell_volume 2701.562519
_symmetry_space_group_name_H-M "C 2/M"
_symmetry_group_IT_number 12
_symmetry_cell_setting 'monoclinic'
loop_
_space_group_symop_operation_xyz
x,y,z
-x,y,-z
-x,-y,-z
x,-y,z
1/2+x,1/2+y,z
1/2-x,1/2+y,-z
1/2-x,1/2-y,-z
1/2+x,1/2-y,z
loop_
_atom_site_type_symbol
_atom_site_label
_atom_site_fract_x
_atom_site_fract_y
_atom_site_fract_z
Si Si1 0.465555 0.330747 0.246956
Si Si2 0.254891 0.836567 0.071813
Si Si3 0.910928 0.838685 0.715405
Si Si4 0.538689 0.830755 0.891551
Si Si5 0.172620 0.158551 0.860201
Si Si6 0.224101 0.829763 0.592863
Si Si7 0.331284 0.156503 0.655095
O O1 0.479444 0.500000 0.221927
O O2 0.512527 0.281846 0.289457
O O3 0.506184 0.239506 0.148881
O O4 0.370035 0.289868 0.322702
O O5 0.169475 0.831297 0.176007
O O6 0.327608 0.759239 0.066213
O O7 0.282704 0.000000 0.036638
O O8 0.250000 0.750000 0.000000
O O9 0.902319 0.753269 0.642595
O O10 0.928529 0.000000 0.677209
O O11 0.624706 0.745003 0.829940
O O12 0.550088 0.000000 0.871893
O O13 0.500000 0.793608 0.000000
O O14 0.264339 0.135849 0.767276
O O15 0.133920 0.000000 0.903868
O O16 0.250000 0.750000 0.500000
O O17 0.286772 0.775912 0.613583
O O18 0.232411 0.000000 0.577115
O O19 0.368918 0.000000 0.608566
#
# Coordination Sequence:
#
# PCOD8092537 Si02
#       7
#     8   8   8   8   8   8   8
#     4  10  21  41  62  84 117 154 197 244 289 350
#     4  10  20  33  49  77 111 146 194 244 287 341
#     4   9  20  36  57  82 109 149 194 236 286 340
#     4  11  24  37  52  82 118 152 193 243 294 346
#     4  10  19  35  56  76 103 149 195 237 286 335
#     4  10  21  39  63  91 117 148 191 239 291 352
#     4   9  18  36  59  83 113 147 186 231 283 340
#
# _framework density 20.728746000000001
#
# number of rings (size 3 to 8) (size 9 to 14) (size 15 to 20)
#    0.000    2.143    1.429    1.286    2.000    4.000 
#    0.000    0.714    0.000    4.286    0.000    0.000 
#    0.000    0.000    0.000    0.000    0.000    0.000 
#
# Total GULP energy -346986.409707 kJ/mol
# GULP energy per Si atom -12392.371775 kJ/mol
# Density = 2.068157 g / cm^3
# Si number density = 20.728746 Si / 1000 Ang^3
#
#
#
# Elastic Constant Matrix: (Units=GPa)
#
#
# Indices 1 2 3 4 5 6 
#
# 1 158.5157 67.6395 41.3706 0.0000 44.5951 0.0001
# 2 67.6395 118.6766 40.2824 -0.0001 25.9849 0.0005
# 3 41.3706 40.2824 61.6259 0.0000 24.9579 0.0001
# 4 0.0000 -0.0001 0.0000 29.7258 0.0000 10.6461
# 5 44.5951 25.9849 24.9579 0.0000 33.3822 0.0000
# 6 0.0001 0.0005 0.0001 10.6461 0.0000 34.8330
#
#
#
# Elastic Compliance Matrix: (Units=1/GPa)
#
#
# Indices 1 2 3 4 5 6 
#
# 1 0.011377 -0.003739 -0.000311 0.000000 -0.012055 0.000000
# 2 -0.003739 0.012550 -0.005393 0.000000 -0.000742 0.000000
# 3 -0.000311 -0.005393 0.025950 0.000000 -0.014787 0.000000
# 4 0.000000 0.000000 0.000000 0.037776 0.000000 -0.011546
# 5 -0.012055 -0.000742 -0.014787 0.000000 0.057693 0.000000
# 6 0.000000 0.000000 0.000000 -0.011546 0.000000 0.032237
#
#
# Mechanical properties :
#
#
# Convention : Reuss Voigt Hill
#
# Bulk Modulus (GPa) = 32.26800 70.82257 51.54529
# Shear Modulus (GPa) = 24.17799 32.22323 28.20061
#
# Velocity S-wave (km/s) = 3.41896 3.94702 3.69244
# Velocity P-wave (km/s) = 5.58447 7.41704 6.56501
#
# Compressibility (1/GPa) = 0.03099045
#
# Stress axis : x y z
#
# Youngs Moduli (GPa) = 87.90031 79.67898 38.53586
#
# Poissons Ratio (x) = 0.29792 0.01199
# Poissons Ratio (y) = 0.32865 0.20782
# Poissons Ratio (z) = 0.02736 0.42971
#
# Static dielectric constant tensor:
#      x y z
#    x 4.357120 0.000000 -0.066480 
#    y 0.000000 4.230390 0.000000 
#    z -0.066480 0.000000 4.133200 
# 
# 
# High freq. dielectric constant tensor:
#      x y z
#    x 1.820980 0.000000 0.021960 
#    y 0.000000 1.811120 0.000000 
#    z 0.021960 0.000000 1.779460 
# 
# From -- ./inp_files/280889.got.cif
#   From: 2010.06.25/outbox.cif.g09.slc.cpg/sg12_141_cif.got.tgz:280889.got - 2010.06.28 00:19:55.
