data_PCOD8092918
_publ_section_title
;
Structure prediction by ZEFSAII (Michael W. Deem and Ramdas Pophale) SiO2 
 PCOD8092918
Probable space group: C 2/M
;
_chemical_formula_sum "Si O2"
_cell_formula_units_Z 56
_cell_length_a 27.089493
_cell_length_b 9.007990
_cell_length_c 18.768250
_cell_angle_alpha 90.000000
_cell_angle_beta 140.463054
_cell_angle_gamma 90.000000
_cell_volume 2915.429723
_symmetry_space_group_name_H-M "C 2/M"
_symmetry_group_IT_number 12
_symmetry_cell_setting 'monoclinic'
loop_
_space_group_symop_operation_xyz
x,y,z
-x,y,-z
-x,-y,-z
x,-y,z
1/2+x,1/2+y,z
1/2-x,1/2+y,-z
1/2-x,1/2-y,-z
1/2+x,1/2-y,z
loop_
_atom_site_type_symbol
_atom_site_label
_atom_site_fract_x
_atom_site_fract_y
_atom_site_fract_z
Si Si1 0.142569 0.671333 0.553398
Si Si2 0.287052 0.173270 0.893823
Si Si3 0.067264 0.172058 0.884747
Si Si4 0.295223 0.169176 0.738991
Si Si5 0.004183 0.827606 0.657994
Si Si6 0.966168 0.671696 0.887212
Si Si7 0.129982 0.672452 0.705918
O O1 0.135597 0.500000 0.524612
O O2 0.229563 0.725558 0.632728
O O3 0.124404 0.699982 0.615732
O O4 0.083033 0.764995 0.439651
O O5 0.311059 0.207475 0.839260
O O6 0.204986 0.246563 0.821871
O O7 0.280582 0.000000 0.902658
O O8 0.352217 0.242137 0.016733
O O9 0.039579 0.201449 0.774365
O O10 0.001134 0.231067 0.863486
O O11 0.081191 0.000000 0.916312
O O12 0.373803 0.195118 0.782775
O O13 0.266415 0.000000 0.700691
O O14 0.052912 0.739595 0.653609
O O15 0.003527 0.000000 0.637091
O O16 0.989282 0.500000 0.900995
O O17 0.000000 0.727045 0.000000
O O18 0.135655 0.500000 0.731084
#
# Coordination Sequence:
#
# PCOD8092918 Si02
#       7
#     8   8   8   8   8   8   8
#     4  10  21  37  59  86 113 142 185 236 281 327
#     4  10  19  35  58  84 114 149 186 227 279 336
#     4  11  24  38  54  82 117 150 188 233 279 330
#     4   9  18  34  58  86 114 143 181 228 275 331
#     4  11  24  40  56  78 112 154 194 229 275 335
#     4  10  19  36  60  87 114 145 186 227 275 338
#     4  10  21  37  59  87 114 142 185 237 284 330
#
# _framework density 19.208144999999998
#
# number of rings (size 3 to 8) (size 9 to 14) (size 15 to 20)
#    0.000    1.857    1.429    2.571    0.000    7.714 
#    0.000    0.714    0.000    0.000    0.000    0.000 
#    0.000    0.000    0.000    0.000    0.000    0.000 
#
# Total GULP energy -347365.846206 kJ/mol
# GULP energy per Si atom -12405.923079 kJ/mol
# Density = 1.916443 g / cm^3
# Si number density = 19.208145 Si / 1000 Ang^3
#
#
#
# Elastic Constant Matrix: (Units=GPa)
#
#
# Indices 1 2 3 4 5 6 
#
# 1 35.7721 21.7625 15.6897 0.0000 15.2894 0.0000
# 2 21.7625 109.7996 62.4835 0.0000 7.7180 0.0000
# 3 15.6897 62.4835 104.0203 0.0000 23.2532 0.0000
# 4 0.0000 0.0000 0.0000 35.5503 0.0000 6.5948
# 5 15.2894 7.7180 23.2532 0.0000 20.6857 0.0000
# 6 0.0000 0.0000 0.0000 6.5948 0.0000 33.9707
#
#
#
# Elastic Compliance Matrix: (Units=1/GPa)
#
#
# Indices 1 2 3 4 5 6 
#
# 1 0.049374 -0.012100 0.009309 0.000000 -0.042444 0.000000
# 2 -0.012100 0.017303 -0.012188 0.000000 0.016188 0.000000
# 3 0.009309 -0.012188 0.021439 0.000000 -0.026434 0.000000
# 4 0.000000 0.000000 0.000000 0.029180 0.000000 -0.005665
# 5 -0.042444 0.016188 -0.026434 0.000000 0.103390 0.000000
# 6 0.000000 0.000000 0.000000 -0.005665 0.000000 0.030537
#
#
# Mechanical properties :
#
#
# Convention : Reuss Voigt Hill
#
# Bulk Modulus (GPa) = 17.19387 49.94036 33.56712
# Shear Modulus (GPa) = 16.63521 28.01844 22.32683
#
# Velocity S-wave (km/s) = 2.94607 3.82340 3.41304
# Velocity P-wave (km/s) = 4.53246 6.74887 5.74850
#
# Compressibility (1/GPa) = 0.05816025
#
# Stress axis : x y z
#
# Youngs Moduli (GPa) = 20.25350 57.79189 46.64299
#
# Poissons Ratio (x) = 0.69930 -0.43422
# Poissons Ratio (y) = 0.24507 0.56846
# Poissons Ratio (z) = -0.18855 0.70434
#
# Static dielectric constant tensor:
#      x y z
#    x 3.372850 0.000000 0.171390 
#    y 0.000000 3.589270 0.000000 
#    z 0.171390 0.000000 3.477510 
# 
# 
# High freq. dielectric constant tensor:
#      x y z
#    x 1.735530 0.000000 0.019980 
#    y 0.000000 1.756490 0.000000 
#    z 0.019980 0.000000 1.748340 
# 
# From -- ./inp_files/280869.got.cif
#   From: 2010.06.25/outbox.cif.g09.slc.cpg/sg12_141_cif.got.tgz:280869.got - 2010.06.28 00:19:55.
