data_PCOD8093220
_publ_section_title
;
Structure prediction by ZEFSAII (Michael W. Deem and Ramdas Pophale) SiO2 
 PCOD8093220
Probable space group: C 2/M
;
_chemical_formula_sum "Si O2"
_cell_formula_units_Z 56
_cell_length_a 20.469015
_cell_length_b 8.326647
_cell_length_c 17.355798
_cell_angle_alpha 90.000000
_cell_angle_beta 74.864637
_cell_angle_gamma 90.000000
_cell_volume 2855.480760
_symmetry_space_group_name_H-M "C 2/M"
_symmetry_group_IT_number 12
_symmetry_cell_setting 'monoclinic'
loop_
_space_group_symop_operation_xyz
x,y,z
-x,y,-z
-x,-y,-z
x,-y,z
1/2+x,1/2+y,z
1/2-x,1/2+y,-z
1/2-x,1/2-y,-z
1/2+x,1/2-y,z
loop_
_atom_site_type_symbol
_atom_site_label
_atom_site_fract_x
_atom_site_fract_y
_atom_site_fract_z
Si Si1 0.048571 0.686580 0.764601
Si Si2 0.816802 0.689752 0.741323
Si Si3 0.404076 0.809999 0.577366
Si Si4 0.333235 0.686337 0.171608
Si Si5 0.320477 0.814243 0.009930
Si Si6 0.953359 0.309414 0.405213
Si Si7 0.905957 0.184405 0.850483
O O1 0.028485 0.500000 0.767530
O O2 0.112364 0.709819 0.799656
O O3 0.067611 0.752767 0.673076
O O4 0.985311 0.783774 0.817070
O O5 0.824221 0.500000 0.752529
O O6 0.838772 0.742148 0.647695
O O7 0.740395 0.746579 0.778249
O O8 0.866560 0.777049 0.784579
O O9 0.402301 0.746317 0.488918
O O10 0.471481 0.744903 0.598831
O O11 0.408536 0.000000 0.573831
O O12 0.344128 0.500000 0.187129
O O13 0.341770 0.715013 0.078430
O O14 0.378161 0.793250 0.928306
O O15 0.313078 0.000000 0.034050
O O16 0.250000 0.750000 0.000000
O O17 0.952612 0.500000 0.405298
O O18 0.894255 0.000000 0.876114
#
# Coordination Sequence:
#
# PCOD8093220 Si02
#       7
#     8   8   8   8   8   8   8
#     4  11  22  39  60  85 119 159 200 245 297 354
#     4  10  19  35  60  86 116 154 199 244 290 348
#     4   8  13  26  52  87 114 144 194 246 289 341
#     4  11  24  40  59  86 121 159 196 242 296 351
#     4  12  24  41  64  91 119 152 194 241 291 345
#     4   8  14  26  52  85 115 147 193 245 291 344
#     4  12  24  38  61  89 119 153 194 244 293 351
#
# _framework density 19.611408999999998
#
# number of rings (size 3 to 8) (size 9 to 14) (size 15 to 20)
#    0.000    1.714    2.857    4.286    0.000    1.143 
#    0.000    3.571    0.000    2.571    0.000    0.000 
#    0.000    0.000    0.000    0.000    0.000    0.000 
#
# Total GULP energy -347150.865642 kJ/mol
# GULP energy per Si atom -12398.245201 kJ/mol
# Density = 1.956677 g / cm^3
# Si number density = 19.611409 Si / 1000 Ang^3
#
#
#
# Elastic Constant Matrix: (Units=GPa)
#
#
# Indices 1 2 3 4 5 6 
#
# 1 101.9805 8.2166 54.8147 0.0000 1.7101 0.0000
# 2 8.2166 44.7089 3.1238 0.0000 -4.3157 0.0000
# 3 54.8147 3.1238 162.4257 0.0000 -4.4359 0.0000
# 4 0.0000 0.0000 0.0000 17.4393 0.0000 0.4268
# 5 1.7101 -4.3157 -4.4359 0.0000 32.4574 0.0000
# 6 0.0000 0.0000 0.0000 0.4268 0.0000 25.8679
#
#
#
# Elastic Compliance Matrix: (Units=1/GPa)
#
#
# Indices 1 2 3 4 5 6 
#
# 1 0.012216 -0.002100 -0.004123 0.000000 -0.001486 0.000000
# 2 -0.002100 0.023039 0.000354 0.000000 0.003222 0.000000
# 3 -0.004123 0.000354 0.007577 0.000000 0.001300 0.000000
# 4 0.000000 0.000000 0.000000 0.057365 0.000000 -0.000947
# 5 -0.001486 0.003222 0.001300 0.000000 0.031494 0.000000
# 6 0.000000 0.000000 0.000000 -0.000947 0.000000 0.038674
#
#
# Mechanical properties :
#
#
# Convention : Reuss Voigt Hill
#
# Bulk Modulus (GPa) = 32.16164 49.04727 40.60445
# Shear Modulus (GPa) = 25.97840 31.35027 28.66434
#
# Velocity S-wave (km/s) = 3.64353 4.00255 3.82726
# Velocity P-wave (km/s) = 5.84256 6.81355 6.34665
#
# Compressibility (1/GPa) = 0.03109294
#
# Stress axis : x y z
#
# Youngs Moduli (GPa) = 81.86007 43.40417 131.98371
#
# Poissons Ratio (x) = 0.09117 0.54414
# Poissons Ratio (y) = 0.17194 -0.04669
# Poissons Ratio (z) = 0.33749 -0.01535
#
# Static dielectric constant tensor:
#      x y z
#    x 3.381460 0.000000 -0.141040 
#    y 0.000000 3.350870 0.000000 
#    z -0.141040 0.000000 4.001860 
# 
# 
# High freq. dielectric constant tensor:
#      x y z
#    x 1.739560 0.000000 -0.005600 
#    y 0.000000 1.741820 0.000000 
#    z -0.005600 0.000000 1.786950 
# 
# From -- ./inp_files/275100.got.cif
#   From: 2010.06.25/outbox.cif.g09.slc.cpg/sg12_138_cif.got.tgz:275100.got - 2010.06.28 00:19:55.
