data_PCOD8093953
_publ_section_title
;
Structure prediction by ZEFSAII (Michael W. Deem and Ramdas Pophale) SiO2 
 PCOD8093953
Probable space group: C 2/M
;
_chemical_formula_sum "Si O2"
_cell_formula_units_Z 48
_cell_length_a 33.174666
_cell_length_b 7.740781
_cell_length_c 9.173022
_cell_angle_alpha 90.000000
_cell_angle_beta 89.073795
_cell_angle_gamma 90.000000
_cell_volume 2355.304316
_symmetry_space_group_name_H-M "C 2/M"
_symmetry_group_IT_number 12
_symmetry_cell_setting 'monoclinic'
loop_
_space_group_symop_operation_xyz
x,y,z
-x,y,-z
-x,-y,-z
x,-y,z
1/2+x,1/2+y,z
1/2-x,1/2+y,-z
1/2-x,1/2-y,-z
1/2+x,1/2-y,z
loop_
_atom_site_type_symbol
_atom_site_label
_atom_site_fract_x
_atom_site_fract_y
_atom_site_fract_z
Si Si1 0.918844 0.693798 0.862932
Si Si2 0.683272 0.296258 0.847128
Si Si3 0.758775 0.701951 0.663358
Si Si4 0.404156 0.804390 0.198333
Si Si5 0.945741 0.000000 0.364602
Si Si6 0.960533 0.000000 0.696383
Si Si7 0.166569 0.803939 0.169343
O O1 0.936260 0.500000 0.842268
O O2 0.873801 0.695296 0.797155
O O3 0.948010 0.827050 0.781631
O O4 0.916369 0.746008 0.032927
O O5 0.679190 0.500000 0.823710
O O6 0.722774 0.221958 0.764633
O O7 0.643992 0.207758 0.780113
O O8 0.687288 0.244949 0.016745
O O9 0.762428 0.500000 0.687003
O O10 0.750000 0.750000 0.500000
O O11 0.801339 0.785399 0.703686
O O12 0.425274 0.673621 0.307122
O O13 0.417710 0.000000 0.234969
O O14 0.940416 0.000000 0.538684
O O15 0.991728 0.000000 0.314131
O O16 0.151614 0.000000 0.158400
#
# Coordination Sequence:
#
# PCOD8093953 Si02
#       7
#     8   8   8   8   4   4   8
#     4  10  21  40  66  95 122 155 207 258 308 367
#     4   9  19  37  60  83 114 154 199 249 301 358
#     4  11  23  36  51  79 119 160 201 248 297 352
#     4  10  21  39  67  95 120 157 205 259 310 364
#     4  11  25  43  63  89 131 163 207 247 307 381
#     4  11  25  43  63  91 125 173 199 249 311 375
#     4  10  19  36  61  85 113 153 198 249 306 356
#
# _framework density 20.379532999999999
#
# number of rings (size 3 to 8) (size 9 to 14) (size 15 to 20)
#    0.000    1.833    1.667    2.000    0.000    6.000 
#    0.000    3.333    0.000    0.000    0.000    0.000 
#    0.000    0.000    0.000    0.000    0.000    0.000 
#
# Total GULP energy -297671.350236 kJ/mol
# GULP energy per Si atom -12402.972927 kJ/mol
# Density = 2.033315 g / cm^3
# Si number density = 20.379533 Si / 1000 Ang^3
#
#
#
# Elastic Constant Matrix: (Units=GPa)
#
#
# Indices 1 2 3 4 5 6 
#
# 1 42.5060 17.9562 5.2237 0.0000 10.7302 0.0000
# 2 17.9562 93.6178 14.8631 0.0000 2.3211 0.0000
# 3 5.2237 14.8631 42.9168 0.0000 13.8363 0.0000
# 4 0.0000 0.0000 0.0000 25.4411 0.0000 2.1037
# 5 10.7302 2.3211 13.8363 0.0000 35.8540 0.0000
# 6 0.0000 0.0000 0.0000 2.1037 0.0000 9.8831
#
#
#
# Elastic Compliance Matrix: (Units=1/GPa)
#
#
# Indices 1 2 3 4 5 6 
#
# 1 0.027744 -0.005299 0.001170 0.000000 -0.008412 0.000000
# 2 -0.005299 0.012340 -0.004434 0.000000 0.002498 0.000000
# 3 0.001170 -0.004434 0.028226 0.000000 -0.010956 0.000000
# 4 0.000000 0.000000 0.000000 0.040011 0.000000 -0.008517
# 5 -0.008412 0.002498 -0.010956 0.000000 0.034474 0.000000
# 6 0.000000 0.000000 0.000000 -0.008517 0.000000 0.102995
#
#
# Mechanical properties :
#
#
# Convention : Reuss Voigt Hill
#
# Bulk Modulus (GPa) = 19.53699 28.34740 23.94219
# Shear Modulus (GPa) = 17.85857 23.63551 20.74704
#
# Velocity S-wave (km/s) = 2.96345 3.40923 3.19412
# Velocity P-wave (km/s) = 4.61701 5.42559 5.03755
#
# Compressibility (1/GPa) = 0.05118496
#
# Stress axis : x y z
#
# Youngs Moduli (GPa) = 36.04378 81.03693 35.42803
#
# Poissons Ratio (x) = 0.42938 -0.04145
# Poissons Ratio (y) = 0.19098 0.15709
# Poissons Ratio (z) = -0.04217 0.35932
#
# Static dielectric constant tensor:
#      x y z
#    x 3.630390 0.000000 -0.048470 
#    y 0.000000 3.810550 0.000000 
#    z -0.048470 0.000000 3.625420 
# 
# 
# High freq. dielectric constant tensor:
#      x y z
#    x 1.793890 0.000000 0.001120 
#    y 0.000000 1.804500 0.000000 
#    z 0.001120 0.000000 1.785690 
# 
# From -- ./inp_files/108801.got.cif
#   From: 2010.06.25/outbox.cif.g09.slc.cpg/sg12_55_cif.got.tgz:108801.got - 2010.06.28 00:19:55.
