data_PCOD8093172
_publ_section_title
;
Structure prediction by ZEFSAII (Michael W. Deem and Ramdas Pophale) SiO2 
 PCOD8093172
Probable space group: C 2/M
;
_chemical_formula_sum "Si O2"
_cell_formula_units_Z 56
_cell_length_a 16.126195
_cell_length_b 8.910186
_cell_length_c 23.141496
_cell_angle_alpha 90.000000
_cell_angle_beta 57.919269
_cell_angle_gamma 90.000000
_cell_volume 2817.394193
_symmetry_space_group_name_H-M "C 2/M"
_symmetry_group_IT_number 12
_symmetry_cell_setting 'monoclinic'
loop_
_space_group_symop_operation_xyz
x,y,z
-x,y,-z
-x,-y,-z
x,-y,z
1/2+x,1/2+y,z
1/2-x,1/2+y,-z
1/2-x,1/2-y,-z
1/2+x,1/2-y,z
loop_
_atom_site_type_symbol
_atom_site_label
_atom_site_fract_x
_atom_site_fract_y
_atom_site_fract_z
Si Si1 0.231940 0.176827 0.157863
Si Si2 0.373677 0.322742 0.293068
Si Si3 0.994999 0.670150 0.569534
Si Si4 0.191432 0.672808 0.286746
Si Si5 0.549969 0.677990 0.154564
Si Si6 0.054775 0.822191 0.921972
Si Si7 0.835761 0.175031 0.433085
O O1 0.173481 0.224654 0.237359
O O2 0.336279 0.256639 0.116359
O O3 0.161540 0.225270 0.129662
O O4 0.248711 0.000000 0.151736
O O5 0.377459 0.500000 0.299889
O O6 0.295127 0.277246 0.274128
O O7 0.477836 0.260949 0.231743
O O8 0.344416 0.252896 0.365769
O O9 0.029199 0.500000 0.571242
O O10 0.062824 0.793683 0.573161
O O11 0.000000 0.698198 0.500000
O O12 0.887068 0.700066 0.633818
O O13 0.192544 0.500000 0.266431
O O14 0.542726 0.500000 0.155340
O O15 0.511474 0.740046 0.106896
O O16 0.066126 0.000000 0.913607
O O17 0.000000 0.770827 0.000000
O O18 0.750000 0.250000 0.500000
O O19 0.813570 0.000000 0.438607
#
# Coordination Sequence:
#
# PCOD8093172 Si02
#       7
#     8   8   8   8   8   8   8
#     4  11  22  36  58  89 122 155 191 241 299 349
#     4   9  17  33  58  80 105 149 194 232 284 348
#     4  10  21  37  56  80 111 149 194 242 296 353
#     4  10  19  35  60  83 110 151 196 241 283 343
#     4   9  18  35  59  85 116 152 191 233 288 352
#     4  10  21  40  65  88 114 155 202 240 283 354
#     4  11  22  36  55  79 109 149 193 240 297 356
#
# _framework density 19.876521
#
# number of rings (size 3 to 8) (size 9 to 14) (size 15 to 20)
#    0.000    2.000    1.429    2.571    0.000    5.143 
#    0.000    4.286    0.000    0.000    0.000    0.000 
#    0.000    0.000    0.000    0.000    0.000    0.000 
#
# Total GULP energy -347106.387755 kJ/mol
# GULP energy per Si atom -12396.656706 kJ/mol
# Density = 1.983128 g / cm^3
# Si number density = 19.876521 Si / 1000 Ang^3
#
#
#
# Elastic Constant Matrix: (Units=GPa)
#
#
# Indices 1 2 3 4 5 6 
#
# 1 132.2658 24.3764 61.6760 0.0000 6.7567 0.0001
# 2 24.3764 32.3362 25.7204 0.0001 3.1050 0.0003
# 3 61.6760 25.7204 145.3695 0.0000 10.1307 0.0000
# 4 0.0000 0.0001 0.0000 23.9537 0.0000 -2.3894
# 5 6.7567 3.1050 10.1307 0.0000 28.7328 0.0000
# 6 0.0001 0.0003 0.0000 -2.3894 0.0000 30.4464
#
#
#
# Elastic Compliance Matrix: (Units=1/GPa)
#
#
# Indices 1 2 3 4 5 6 
#
# 1 0.010055 -0.004841 -0.003364 0.000000 -0.000655 0.000000
# 2 -0.004841 0.038401 -0.004645 0.000000 -0.001374 0.000000
# 3 -0.003364 -0.004645 0.009265 0.000000 -0.001974 0.000000
# 4 0.000000 0.000000 0.000000 0.042077 0.000000 0.003302
# 5 -0.000655 -0.001374 -0.001974 0.000000 0.035802 0.000000
# 6 0.000000 0.000000 0.000000 0.003302 0.000000 0.033104
#
#
# Mechanical properties :
#
#
# Convention : Reuss Voigt Hill
#
# Bulk Modulus (GPa) = 31.22848 59.27966 45.25407
# Shear Modulus (GPa) = 24.38113 29.83982 27.11048
#
# Velocity S-wave (km/s) = 3.50613 3.87881 3.69717
# Velocity P-wave (km/s) = 5.66885 7.06746 6.40644
#
# Compressibility (1/GPa) = 0.03202205
#
# Stress axis : x y z
#
# Youngs Moduli (GPa) = 99.45547 26.04103 107.92762
#
# Poissons Ratio (x) = 0.12607 0.36304
# Poissons Ratio (y) = 0.48149 0.50128
# Poissons Ratio (z) = 0.33454 0.12095
#
# Static dielectric constant tensor:
#      x y z
#    x 3.453080 0.000000 0.380390 
#    y 0.000000 3.220970 0.000000 
#    z 0.380390 0.000000 3.653210 
# 
# 
# High freq. dielectric constant tensor:
#      x y z
#    x 1.787040 0.000000 0.000700 
#    y 0.000000 1.737380 0.000000 
#    z 0.000700 0.000000 1.785940 
# 
# From -- ./inp_files/337869.got.cif
#   From: 2010.06.25/outbox.cif.g09.slc.cpg/sg12_169_cif.got.tgz:337869.got - 2010.06.28 00:19:55.
