data_PCOD8093971
_publ_section_title
;
Structure prediction by ZEFSAII (Michael W. Deem and Ramdas Pophale) SiO2 
 PCOD8093971
Probable space group: C 2/M
;
_chemical_formula_sum "Si O2"
_cell_formula_units_Z 48
_cell_length_a 20.429428
_cell_length_b 8.540181
_cell_length_c 19.464530
_cell_angle_alpha 90.000000
_cell_angle_beta 130.880751
_cell_angle_gamma 90.000000
_cell_volume 2567.622415
_symmetry_space_group_name_H-M "C 2/M"
_symmetry_group_IT_number 12
_symmetry_cell_setting 'monoclinic'
loop_
_space_group_symop_operation_xyz
x,y,z
-x,y,-z
-x,-y,-z
x,-y,z
1/2+x,1/2+y,z
1/2-x,1/2+y,-z
1/2-x,1/2-y,-z
1/2+x,1/2-y,z
loop_
_atom_site_type_symbol
_atom_site_label
_atom_site_fract_x
_atom_site_fract_y
_atom_site_fract_z
Si Si1 0.276807 0.185015 0.730221
Si Si2 0.531453 0.817542 0.446052
Si Si3 0.130215 0.185323 0.732442
Si Si4 0.784346 0.182874 0.453635
Si Si5 0.256249 0.314312 0.928074
Si Si6 0.901093 0.313751 0.931308
O O1 0.191338 0.239514 0.711854
O O2 0.270942 0.254181 0.648876
O O3 0.361331 0.241797 0.830477
O O4 0.277817 0.000000 0.727287
O O5 0.500000 0.768561 0.500000
O O6 0.460606 0.772289 0.340335
O O7 0.615530 0.718835 0.486508
O O8 0.553252 0.000000 0.456171
O O9 0.173846 0.241419 0.832709
O O10 0.116021 0.000000 0.724884
O O11 0.750000 0.250000 0.500000
O O12 0.770332 0.000000 0.446107
O O13 0.249873 0.500000 0.923064
O O14 0.347125 0.262585 0.956212
O O15 0.250000 0.250000 0.000000
O O16 0.894282 0.500000 0.935446
O O17 0.000000 0.255373 0.000000
#
# Coordination Sequence:
#
# PCOD8093971 Si02
#       6
#     8   8   8   8   8   8
#     4   8  16  32  56  81 107 145 187 230 283 340
#     4  11  22  36  58  88 117 147 192 238 280 340
#     4  10  19  36  61  87 112 147 194 236 286 343
#     4  11  22  38  56  79 115 155 193 236 290 342
#     4  11  22  38  59  85 119 154 189 236 290 339
#     4   9  18  36  61  86 111 146 191 236 286 346
#
# _framework density 18.694337999999998
#
# number of rings (size 3 to 8) (size 9 to 14) (size 15 to 20)
#    0.000    2.000    1.667    4.000    0.000    1.000 
#    3.000    0.833    0.000    0.000    0.000    0.000 
#    0.000    0.000    0.000    0.000    0.000    0.000 
#
# Total GULP energy -297561.335971 kJ/mol
# GULP energy per Si atom -12398.388999 kJ/mol
# Density = 1.865179 g / cm^3
# Si number density = 18.694338 Si / 1000 Ang^3
#
#
#
# Elastic Constant Matrix: (Units=GPa)
#
#
# Indices 1 2 3 4 5 6 
#
# 1 91.4915 14.9672 77.5453 0.0000 -10.4473 0.0000
# 2 14.9672 49.2037 20.2249 0.0000 -7.3472 0.0000
# 3 77.5453 20.2249 160.2239 0.0000 -10.1903 0.0000
# 4 0.0000 0.0000 0.0000 27.0380 0.0000 -1.6689
# 5 -10.4473 -7.3472 -10.1903 0.0000 38.0454 0.0000
# 6 0.0000 0.0000 0.0000 -1.6689 0.0000 27.9442
#
#
#
# Elastic Compliance Matrix: (Units=1/GPa)
#
#
# Indices 1 2 3 4 5 6 
#
# 1 0.018959 -0.001779 -0.008792 0.000000 0.002508 0.000000
# 2 -0.001779 0.022064 -0.001713 0.000000 0.003313 0.000000
# 3 -0.008792 -0.001713 0.010721 0.000000 0.000126 0.000000
# 4 0.000000 0.000000 0.000000 0.037122 0.000000 0.002217
# 5 0.002508 0.003313 0.000126 0.000000 0.027647 0.000000
# 6 0.000000 0.000000 0.000000 0.002217 0.000000 0.035918
#
#
# Mechanical properties :
#
#
# Convention : Reuss Voigt Hill
#
# Bulk Modulus (GPa) = 36.79796 58.48821 47.64309
# Shear Modulus (GPa) = 26.87356 31.15096 29.01226
#
# Velocity S-wave (km/s) = 3.79558 4.08650 3.94373
# Velocity P-wave (km/s) = 6.23982 7.32260 6.80279
#
# Compressibility (1/GPa) = 0.02717542
#
# Stress axis : x y z
#
# Youngs Moduli (GPa) = 52.74562 45.32297 93.27826
#
# Poissons Ratio (x) = 0.08062 0.82008
# Poissons Ratio (y) = 0.09383 0.15983
# Poissons Ratio (z) = 0.46372 0.07766
#
# Static dielectric constant tensor:
#      x y z
#    x 3.454370 0.000000 -0.141130 
#    y 0.000000 3.343170 0.000000 
#    z -0.141130 0.000000 3.915620 
# 
# 
# High freq. dielectric constant tensor:
#      x y z
#    x 1.708650 0.000000 0.001210 
#    y 0.000000 1.719370 0.000000 
#    z 0.001210 0.000000 1.743530 
# 
# From -- ./inp_files/281809.got.cif
#   From: 2010.06.25/outbox.cif.g09.slc.cpg/sg12_141_cif.got.tgz:281809.got - 2010.06.28 00:19:55.
