data_PCOD8093147
_publ_section_title
;
Structure prediction by ZEFSAII (Michael W. Deem and Ramdas Pophale) SiO2 
 PCOD8093147
Probable space group: C 2/M
;
_chemical_formula_sum "Si O2"
_cell_formula_units_Z 64
_cell_length_a 29.820830
_cell_length_b 8.855736
_cell_length_c 23.674493
_cell_angle_alpha 90.000000
_cell_angle_beta 29.823588
_cell_angle_gamma 90.000000
_cell_volume 3109.358177
_symmetry_space_group_name_H-M "C 2/M"
_symmetry_group_IT_number 12
_symmetry_cell_setting 'monoclinic'
loop_
_space_group_symop_operation_xyz
x,y,z
-x,y,-z
-x,-y,-z
x,-y,z
1/2+x,1/2+y,z
1/2-x,1/2+y,-z
1/2-x,1/2-y,-z
1/2+x,1/2-y,z
loop_
_atom_site_type_symbol
_atom_site_label
_atom_site_fract_x
_atom_site_fract_y
_atom_site_fract_z
Si Si1 0.668533 0.178274 0.741977
Si Si2 0.507575 0.832142 0.425781
Si Si3 0.639640 0.819977 0.497241
Si Si4 0.202801 0.678467 0.202940
Si Si5 0.860986 0.175610 0.107758
Si Si6 0.315410 0.676102 0.886116
Si Si7 0.510378 0.676833 0.851746
Si Si8 0.005375 0.822758 0.726049
O O1 0.763121 0.250427 0.620858
O O2 0.627888 0.232931 0.846603
O O3 0.597983 0.226583 0.771345
O O4 0.679444 0.000000 0.731809
O O5 0.500000 0.838858 0.500000
O O6 0.423787 0.756617 0.484760
O O7 0.602650 0.749625 0.314474
O O8 0.514105 0.000000 0.393148
O O9 0.594285 0.764065 0.605496
O O10 0.650822 0.000000 0.485661
O O11 0.204944 0.500000 0.188775
O O12 0.260137 0.712211 0.196144
O O13 0.237464 0.771294 0.112152
O O14 0.873433 0.000000 0.108918
O O15 0.929661 0.223721 0.982822
O O16 0.313960 0.500000 0.895076
O O17 0.418826 0.732179 0.783729
O O18 0.250000 0.750000 0.000000
O O19 0.531496 0.500000 0.835565
O O20 0.486892 0.715509 0.812283
O O21 0.023109 0.000000 0.699195
#
# Coordination Sequence:
#
# PCOD8093147 Si02
#       8
#     8   8   8   8   8   8   8   8
#     4  12  26  42  62  90 124 161 204 263 323 369
#     4   9  17  31  55  86 118 153 195 239 284 346
#     4  11  22  39  64  91 123 165 209 254 306 369
#     4  10  19  35  59  89 122 156 197 239 291 355
#     4  10  21  40  67  94 124 162 206 254 307 375
#     4  11  22  36  57  86 124 163 202 245 296 355
#     4  10  22  42  66  90 118 161 211 257 312 375
#     4  10  22  41  63  90 126 163 204 258 311 363
#
# _framework density 20.583024999999999
#
# number of rings (size 3 to 8) (size 9 to 14) (size 15 to 20)
#    0.000    1.625    1.250    3.750    0.000    8.000 
#    0.000    1.250    0.000    1.875    0.000    0.000 
#    0.000    0.000    0.000    0.000    0.000    0.000 
#
# Total GULP energy -396514.195694 kJ/mol
# GULP energy per Si atom -12391.068615 kJ/mol
# Density = 2.053618 g / cm^3
# Si number density = 20.583025 Si / 1000 Ang^3
#
#
#
# Elastic Constant Matrix: (Units=GPa)
#
#
# Indices 1 2 3 4 5 6 
#
# 1 93.3712 32.7951 18.0013 0.0016 -5.6943 0.0009
# 2 32.7951 66.6062 30.5546 0.0080 -6.2729 -0.0091
# 3 18.0013 30.5546 86.6271 0.0051 -7.5293 -0.0032
# 4 0.0016 0.0080 0.0051 31.7460 -0.0047 4.1357
# 5 -5.6943 -6.2729 -7.5293 -0.0047 32.4977 0.0023
# 6 0.0009 -0.0091 -0.0032 4.1357 0.0023 30.5712
#
#
#
# Elastic Compliance Matrix: (Units=1/GPa)
#
#
# Indices 1 2 3 4 5 6 
#
# 1 0.013001 -0.006094 -0.000466 0.000001 0.000994 -0.000003
# 2 -0.006094 0.020901 -0.005968 -0.000005 0.001584 0.000006
# 3 -0.000466 -0.005968 0.013919 0.000000 0.001991 0.000000
# 4 0.000001 -0.000005 0.000000 0.032065 0.000004 -0.004338
# 5 0.000994 0.001584 0.001991 0.000004 0.031713 -0.000002
# 6 -0.000003 0.000006 0.000000 -0.004338 -0.000002 0.033297
#
#
# Mechanical properties :
#
#
# Convention : Reuss Voigt Hill
#
# Bulk Modulus (GPa) = 43.92752 45.47849 44.70300
# Shear Modulus (GPa) = 28.16276 29.97989 29.07132
#
# Velocity S-wave (km/s) = 3.70300 3.82060 3.76226
# Velocity P-wave (km/s) = 6.29849 6.45025 6.37482
#
# Compressibility (1/GPa) = 0.02276477
#
# Stress axis : x y z
#
# Youngs Moduli (GPa) = 76.91865 47.84445 71.84622
#
# Poissons Ratio (x) = 0.29156 0.03346
# Poissons Ratio (y) = 0.46874 0.42879
# Poissons Ratio (z) = 0.03583 0.28554
#
# Static dielectric constant tensor:
#      x y z
#    x 3.840700 0.000040 -0.131900 
#    y 0.000040 3.598150 0.000080 
#    z -0.131900 0.000080 4.016950 
# 
# 
# High freq. dielectric constant tensor:
#      x y z
#    x 1.815420 0.000000 0.000150 
#    y 0.000000 1.779920 0.000000 
#    z 0.000150 0.000000 1.817640 
# 
# From -- ./inp_files/249684.got.cif
#   From: 2010.06.25/outbox.cif.g09.slc.cpg/sg12_125_cif.got.tgz:249684.got - 2010.06.28 00:19:55.
