data_PCOD8093641
_publ_section_title
;
Structure prediction by ZEFSAII (Michael W. Deem and Ramdas Pophale) SiO2 
 PCOD8093641
Probable space group: C 2/M
;
_chemical_formula_sum "Si O2"
_cell_formula_units_Z 56
_cell_length_a 20.312441
_cell_length_b 9.244110
_cell_length_c 29.654532
_cell_angle_alpha 90.000000
_cell_angle_beta 146.618451
_cell_angle_gamma 90.000000
_cell_volume 3063.714186
_symmetry_space_group_name_H-M "C 2/M"
_symmetry_group_IT_number 12
_symmetry_cell_setting 'monoclinic'
loop_
_space_group_symop_operation_xyz
x,y,z
-x,y,-z
-x,-y,-z
x,-y,z
1/2+x,1/2+y,z
1/2-x,1/2+y,-z
1/2-x,1/2-y,-z
1/2+x,1/2-y,z
loop_
_atom_site_type_symbol
_atom_site_label
_atom_site_fract_x
_atom_site_fract_y
_atom_site_fract_z
Si Si1 0.316369 0.331895 0.916244
Si Si2 0.666061 0.666321 0.325431
Si Si3 0.917299 0.169154 0.226520
Si Si4 0.300028 0.168749 0.745081
Si Si5 0.821815 0.331307 0.502411
Si Si6 0.054976 0.168607 0.101226
Si Si7 0.053843 0.831290 0.654226
O O1 0.285651 0.500000 0.897147
O O2 0.196912 0.246446 0.860801
O O3 0.365070 0.280990 0.895445
O O4 0.416036 0.299658 0.011143
O O5 0.668567 0.500000 0.311214
O O6 0.532684 0.712011 0.263570
O O7 0.709396 0.767095 0.310010
O O8 0.755488 0.692511 0.417562
O O9 0.936825 0.220921 0.288892
O O10 0.892121 0.000000 0.211230
O O11 0.409365 0.241238 0.834476
O O12 0.177212 0.202923 0.700165
O O13 0.326096 0.000000 0.756745
O O14 0.830036 0.500000 0.519610
O O15 0.750000 0.250000 0.500000
O O16 0.953004 0.263380 0.572113
O O17 0.075176 0.000000 0.122533
O O18 0.018844 0.000000 0.631389
#
# Coordination Sequence:
#
# PCOD8093641 Si02
#       7
#     8   8   8   8   8   8   8
#     4   9  18  32  55  87 115 144 188 235 276 330
#     4  10  23  41  58  79 114 153 186 228 284 340
#     4  10  19  36  58  82 114 149 186 234 283 330
#     4  11  23  38  58  85 116 150 188 234 282 334
#     4  11  22  38  61  87 114 148 190 236 282 332
#     4   9  18  34  55  82 118 151 182 229 284 335
#     4  10  21  38  58  84 117 147 186 236 283 332
#
# _framework density 18.278466999999999
#
# number of rings (size 3 to 8) (size 9 to 14) (size 15 to 20)
#    0.000    2.000    2.857    1.714    0.000    4.571 
#    0.000    5.000    0.000    0.000    0.000    0.000 
#    0.000    0.000    0.000    0.000    0.000    0.000 
#
# Total GULP energy -347306.475034 kJ/mol
# GULP energy per Si atom -12403.802680 kJ/mol
# Density = 1.823686 g / cm^3
# Si number density = 18.278467 Si / 1000 Ang^3
#
#
#
# Elastic Constant Matrix: (Units=GPa)
#
#
# Indices 1 2 3 4 5 6 
#
# 1 74.2877 44.4397 33.8567 0.0000 -9.2153 0.0000
# 2 44.4397 81.0287 60.5326 0.0000 -2.0228 0.0000
# 3 33.8567 60.5326 112.2328 0.0000 5.7628 0.0000
# 4 0.0000 0.0000 0.0000 38.4707 0.0000 1.6338
# 5 -9.2153 -2.0228 5.7628 0.0000 24.2264 0.0000
# 6 0.0000 0.0000 0.0000 1.6338 0.0000 32.0893
#
#
#
# Elastic Compliance Matrix: (Units=1/GPa)
#
#
# Indices 1 2 3 4 5 6 
#
# 1 0.021254 -0.010713 -0.001015 0.000000 0.007432 0.000000
# 2 -0.010713 0.026550 -0.011129 0.000000 0.000789 0.000000
# 3 -0.001015 -0.011129 0.015475 0.000000 -0.004997 0.000000
# 4 0.000000 0.000000 0.000000 0.026050 0.000000 -0.001326
# 5 0.007432 0.000789 -0.004997 0.000000 0.045359 0.000000
# 6 0.000000 0.000000 0.000000 -0.001326 0.000000 0.031231
#
#
# Mechanical properties :
#
#
# Convention : Reuss Voigt Hill
#
# Bulk Modulus (GPa) = 56.92807 60.57858 58.75332
# Shear Modulus (GPa) = 22.98984 27.53862 25.26423
#
# Velocity S-wave (km/s) = 3.55033 3.88573 3.72181
# Velocity P-wave (km/s) = 6.92957 7.30382 7.11916
#
# Compressibility (1/GPa) = 0.01756603
#
# Stress axis : x y z
#
# Youngs Moduli (GPa) = 47.04934 37.66491 64.62000
#
# Poissons Ratio (x) = 0.40349 0.06561
# Poissons Ratio (y) = 0.50402 0.71913
# Poissons Ratio (z) = 0.04777 0.41916
#
# Static dielectric constant tensor:
#      x y z
#    x 3.232210 0.000000 0.054720 
#    y 0.000000 3.331240 0.000000 
#    z 0.054720 0.000000 3.474390 
# 
# 
# High freq. dielectric constant tensor:
#      x y z
#    x 1.694850 0.000000 0.006030 
#    y 0.000000 1.708170 0.000000 
#    z 0.006030 0.000000 1.719010 
# 
# From -- ./inp_files/380772.got.cif
#   From: 2010.06.25/outbox.cif.g09.slc.cpg/sg12_191_cif.got.tgz:380772.got - 2010.06.28 00:19:55.
