data_PCOD8093456
_publ_section_title
;
Structure prediction by ZEFSAII (Michael W. Deem and Ramdas Pophale) SiO2 
 PCOD8093456
Probable space group: C 2/M
;
_chemical_formula_sum "Si O2"
_cell_formula_units_Z 40
_cell_length_a 18.666913
_cell_length_b 15.471020
_cell_length_c 13.050467
_cell_angle_alpha 90.000000
_cell_angle_beta 145.392232
_cell_angle_gamma 90.000000
_cell_volume 2140.581115
_symmetry_space_group_name_H-M "C 2/M"
_symmetry_group_IT_number 12
_symmetry_cell_setting 'monoclinic'
loop_
_space_group_symop_operation_xyz
x,y,z
-x,y,-z
-x,-y,-z
x,-y,z
1/2+x,1/2+y,z
1/2-x,1/2+y,-z
1/2-x,1/2-y,-z
1/2+x,1/2-y,z
loop_
_atom_site_type_symbol
_atom_site_label
_atom_site_fract_x
_atom_site_fract_y
_atom_site_fract_z
Si Si1 0.774019 0.840895 0.310351
Si Si2 0.062032 0.595329 0.933127
Si Si3 0.087432 0.239877 0.197703
Si Si4 0.541824 0.402887 0.308468
Si Si5 0.211098 0.163657 0.898916
O O1 0.641580 0.893713 0.133942
O O2 0.730029 0.756981 0.324522
O O3 0.833979 0.814170 0.271069
O O4 0.874575 0.896797 0.490561
O O5 0.998934 0.500000 0.854618
O O6 0.164692 0.602903 0.961496
O O7 0.961852 0.672818 0.803652
O O8 0.093949 0.161465 0.284302
O O9 0.000000 0.211775 0.000000
O O10 0.550747 0.500000 0.276181
O O11 0.397380 0.383479 0.165716
O O12 0.250000 0.250000 0.000000
#
# Coordination Sequence:
#
# PCOD8093456 Si02
#       5
#     8   8   8   8   8
#     4   9  21  33  54  80 111 136 178 224 275 320
#     4   9  18  32  54  77 104 135 176 223 265 317
#     4  10  20  38  53  77 111 147 187 218 266 329
#     4  12  22  34  55  83 113 143 180 229 277 318
#     4  10  19  36  53  77 110 140 174 219 276 328
#
# _framework density 18.686515
#
# number of rings (size 3 to 8) (size 9 to 14) (size 15 to 20)
#    1.200    0.800    2.000    2.400    0.000    5.600 
#    0.000    0.000    0.000    0.000    0.000    1.400 
#    0.000    0.000    0.000    0.000    0.000    0.000 
#
# Total GULP energy -247800.699056 kJ/mol
# GULP energy per Si atom -12390.034953 kJ/mol
# Density = 1.864398 g / cm^3
# Si number density = 18.686515 Si / 1000 Ang^3
#
#
#
# Elastic Constant Matrix: (Units=GPa)
#
#
# Indices 1 2 3 4 5 6 
#
# 1 61.8551 37.3644 -10.4905 0.0000 -13.1657 0.0000
# 2 37.3644 145.8635 29.5433 0.0000 -17.9437 0.0000
# 3 -10.4905 29.5433 41.2644 0.0000 -7.9356 0.0000
# 4 0.0000 0.0000 0.0000 20.0498 0.0000 -1.0464
# 5 -13.1657 -17.9437 -7.9356 0.0000 19.4040 0.0000
# 6 0.0000 0.0000 0.0000 -1.0464 0.0000 21.1114
#
#
#
# Elastic Compliance Matrix: (Units=1/GPa)
#
#
# Indices 1 2 3 4 5 6 
#
# 1 0.027714 -0.008212 0.016368 0.000000 0.017904 0.000000
# 2 -0.008212 0.011032 -0.009872 0.000000 0.000592 0.000000
# 3 0.016368 -0.009872 0.038903 0.000000 0.017887 0.000000
# 4 0.000000 0.000000 0.000000 0.050005 0.000000 0.002478
# 5 0.017904 0.000592 0.017887 0.000000 0.071547 0.000000
# 6 0.000000 0.000000 0.000000 0.002478 0.000000 0.047491
#
#
# Mechanical properties :
#
#
# Convention : Reuss Voigt Hill
#
# Bulk Modulus (GPa) = 13.47387 40.20194 26.83791
# Shear Modulus (GPa) = 18.19095 24.95076 21.57086
#
# Velocity S-wave (km/s) = 3.12345 3.65804 3.40126
# Velocity P-wave (km/s) = 4.49823 6.27712 5.46060
#
# Compressibility (1/GPa) = 0.07421772
#
# Stress axis : x y z
#
# Youngs Moduli (GPa) = 36.08238 90.64834 25.70497
#
# Poissons Ratio (x) = 0.74441 -0.42075
# Poissons Ratio (y) = 0.29631 0.25376
# Poissons Ratio (z) = -0.59061 0.89488
#
# Static dielectric constant tensor:
#      x y z
#    x 3.655140 0.000000 0.107780 
#    y 0.000000 3.219960 0.000000 
#    z 0.107780 0.000000 3.166560 
# 
# 
# High freq. dielectric constant tensor:
#      x y z
#    x 1.735250 0.000000 0.009680 
#    y 0.000000 1.707020 0.000000 
#    z 0.009680 0.000000 1.695520 
# 
# From -- ./inp_files/240291.got.cif
#   From: 2010.06.25/outbox.cif.g09.slc.cpg/sg12_121_cif.got.tgz:240291.got - 2010.06.28 00:19:55.
