data_PCOD8093634
_publ_section_title
;
Structure prediction by ZEFSAII (Michael W. Deem and Ramdas Pophale) SiO2 
 PCOD8093634
Probable space group: C 2/M
;
_chemical_formula_sum "Si O2"
_cell_formula_units_Z 56
_cell_length_a 19.697265
_cell_length_b 8.727264
_cell_length_c 28.183178
_cell_angle_alpha 90.000000
_cell_angle_beta 37.311121
_cell_angle_gamma 90.000000
_cell_volume 2936.628083
_symmetry_space_group_name_H-M "C 2/M"
_symmetry_group_IT_number 12
_symmetry_cell_setting 'monoclinic'
loop_
_space_group_symop_operation_xyz
x,y,z
-x,y,-z
-x,-y,-z
x,-y,z
1/2+x,1/2+y,z
1/2-x,1/2+y,-z
1/2-x,1/2-y,-z
1/2+x,1/2-y,z
loop_
_atom_site_type_symbol
_atom_site_label
_atom_site_fract_x
_atom_site_fract_y
_atom_site_fract_z
Si Si1 0.437801 0.324518 0.123781
Si Si2 0.404048 0.678715 0.707998
Si Si3 0.724164 0.320118 0.871213
Si Si4 0.360865 0.680967 0.458072
Si Si5 0.127329 0.175914 0.443128
Si Si6 0.274249 0.175462 0.698346
Si Si7 0.824673 0.680212 0.000640
O O1 0.476849 0.500000 0.095946
O O2 0.375739 0.270904 0.109500
O O3 0.354745 0.305514 0.214459
O O4 0.544971 0.222949 0.076522
O O5 0.390610 0.500000 0.727364
O O6 0.343593 0.777669 0.782020
O O7 0.533594 0.730488 0.633015
O O8 0.350954 0.710925 0.686205
O O9 0.719502 0.500000 0.882902
O O10 0.716548 0.234867 0.925165
O O11 0.356043 0.500000 0.462517
O O12 0.250000 0.750000 0.500000
O O13 0.367909 0.745595 0.507155
O O14 0.210919 0.276804 0.364431
O O15 0.000000 0.195479 0.500000
O O16 0.166742 0.000000 0.418063
O O17 0.311764 0.000000 0.686017
O O18 0.811087 0.500000 0.004805
O O19 0.750000 0.750000 0.000000
#
# Coordination Sequence:
#
# PCOD8093634 Si02
#       7
#     8   8   8   8   8   8   8
#     4   9  20  39  61  87 121 153 189 239 288 339
#     4  10  19  36  59  84 116 154 194 238 287 340
#     4  10  21  39  64  92 119 151 191 238 289 342
#     4  10  22  38  56  80 113 155 194 239 290 339
#     4  10  19  36  58  81 113 152 194 239 287 340
#     4  10  20  34  57  90 118 148 189 242 293 334
#     4  12  25  41  62  88 119 156 194 234 287 346
#
# _framework density 19.069489000000001
#
# number of rings (size 3 to 8) (size 9 to 14) (size 15 to 20)
#    0.000    1.857    1.429    3.857    0.000    7.143 
#    2.571    0.000    0.000    0.000    0.000    0.000 
#    0.000    0.000    0.000    0.000    0.000    0.000 
#
# Total GULP energy -347186.586889 kJ/mol
# GULP energy per Si atom -12399.520960 kJ/mol
# Density = 1.902609 g / cm^3
# Si number density = 19.069489 Si / 1000 Ang^3
#
#
#
# Elastic Constant Matrix: (Units=GPa)
#
#
# Indices 1 2 3 4 5 6 
#
# 1 113.3982 43.2383 64.2844 -0.0033 -3.2686 0.0056
# 2 43.2383 80.6318 49.8162 -0.0039 -1.2079 0.0118
# 3 64.2844 49.8162 134.4034 -0.0029 -0.1908 0.0086
# 4 -0.0033 -0.0039 -0.0029 35.5100 0.0006 -0.1732
# 5 -3.2686 -1.2079 -0.1908 0.0006 29.4863 -0.0035
# 6 0.0056 0.0118 0.0086 -0.1732 -0.0035 31.2338
#
#
#
# Elastic Compliance Matrix: (Units=1/GPa)
#
#
# Indices 1 2 3 4 5 6 
#
# 1 0.013103 -0.004068 -0.004757 0.000000 0.001255 0.000001
# 2 -0.004068 0.017360 -0.004488 0.000001 0.000231 -0.000005
# 3 -0.004757 -0.004488 0.011378 0.000000 -0.000638 -0.000001
# 4 0.000000 0.000001 0.000000 0.028162 0.000000 0.000156
# 5 0.001255 0.000231 -0.000638 0.000000 0.034059 0.000004
# 6 0.000001 -0.000005 -0.000001 0.000156 0.000004 0.032017
#
#
# Mechanical properties :
#
#
# Convention : Reuss Voigt Hill
#
# Bulk Modulus (GPa) = 65.73145 71.45680 68.59412
# Shear Modulus (GPa) = 29.80132 30.65234 30.22683
#
# Velocity S-wave (km/s) = 3.95748 4.01359 3.98564
# Velocity P-wave (km/s) = 7.44490 7.68321 7.56499
#
# Compressibility (1/GPa) = 0.01521342
#
# Stress axis : x y z
#
# Youngs Moduli (GPa) = 76.31992 57.60342 87.88628
#
# Poissons Ratio (x) = 0.23435 0.41810
# Poissons Ratio (y) = 0.31049 0.39446
# Poissons Ratio (z) = 0.36308 0.25854
#
# Static dielectric constant tensor:
#      x y z
#    x 3.272510 0.000000 0.052060 
#    y 0.000000 3.492220 0.000020 
#    z 0.052060 0.000020 3.670520 
# 
# 
# High freq. dielectric constant tensor:
#      x y z
#    x 1.722590 0.000000 0.006030 
#    y 0.000000 1.742120 0.000000 
#    z 0.006030 0.000000 1.758790 
# 
# From -- ./inp_files/275018.got.cif
#   From: 2010.06.25/outbox.cif.g09.slc.cpg/sg12_138_cif.got.tgz:275018.got - 2010.06.28 00:19:55.
