data_PCOD8093341
_publ_section_title
;
Structure prediction by ZEFSAII (Michael W. Deem and Ramdas Pophale) SiO2 
 PCOD8093341
Probable space group: C 2/M
;
_chemical_formula_sum "Si O2"
_cell_formula_units_Z 64
_cell_length_a 17.960398
_cell_length_b 13.327917
_cell_length_c 16.290350
_cell_angle_alpha 90.000000
_cell_angle_beta 125.224113
_cell_angle_gamma 90.000000
_cell_volume 3185.508254
_symmetry_space_group_name_H-M "C 2/M"
_symmetry_group_IT_number 12
_symmetry_cell_setting 'monoclinic'
loop_
_space_group_symop_operation_xyz
x,y,z
-x,y,-z
-x,-y,-z
x,-y,z
1/2+x,1/2+y,z
1/2-x,1/2+y,-z
1/2-x,1/2-y,-z
1/2+x,1/2-y,z
loop_
_atom_site_type_symbol
_atom_site_label
_atom_site_fract_x
_atom_site_fract_y
_atom_site_fract_z
Si Si1 0.600959 0.809141 0.533540
Si Si2 0.429612 0.768243 0.814601
Si Si3 0.804856 0.887190 0.373840
Si Si4 0.817598 0.384837 0.857739
Si Si5 0.368865 0.247134 0.041862
Si Si6 0.774940 0.615366 0.098591
Si Si7 0.268126 0.385829 0.741543
Si Si8 0.125472 0.615580 0.366198
O O1 0.500000 0.839551 0.500000
O O2 0.614304 0.689603 0.553792
O O3 0.677205 0.868921 0.631939
O O4 0.617424 0.839484 0.450858
O O5 0.407788 0.859075 0.862885
O O6 0.526239 0.724386 0.905502
O O7 0.352106 0.682860 0.766314
O O8 0.440513 0.816104 0.731427
O O9 0.766897 0.862490 0.258126
O O10 0.726820 0.874634 0.393190
O O11 0.844206 0.000000 0.401497
O O12 0.819575 0.500000 0.886437
O O13 0.817910 0.316490 0.938193
O O14 0.358869 0.183261 0.119458
O O15 0.315167 0.352562 0.010655
O O16 0.797332 0.500000 0.096327
O O17 0.757274 0.638917 0.181824
O O18 0.300601 0.500000 0.751246
O O19 0.093351 0.500000 0.345445
#
# Coordination Sequence:
#
# PCOD8093341 Si02
#       8
#     8   8   8   8   8   8   8   8
#     4  12  24  40  64  90 123 160 204 249 306 373
#     4  11  22  39  62  89 123 156 204 254 303 350
#     4   9  19  39  65  89 121 159 201 253 306 354
#     4  10  19  35  61  90 120 156 200 250 298 349
#     4  11  22  37  62  91 122 163 208 246 292 363
#     4  10  23  41  60  88 129 166 197 246 305 360
#     4  11  24  43  63  88 124 162 204 251 306 362
#     4  10  22  40  62  88 118 156 200 254 305 355
#
# _framework density 20.090985
#
# number of rings (size 3 to 8) (size 9 to 14) (size 15 to 20)
#    0.000    1.500    3.750    2.625    1.750    4.250 
#    0.000    1.250    0.000    0.000    0.000    0.000 
#    0.000    0.000    0.000    0.000    0.000    0.000 
#
# Total GULP energy -396658.918086 kJ/mol
# GULP energy per Si atom -12395.591190 kJ/mol
# Density = 2.004526 g / cm^3
# Si number density = 20.090985 Si / 1000 Ang^3
#
#
#
# Elastic Constant Matrix: (Units=GPa)
#
#
# Indices 1 2 3 4 5 6 
#
# 1 69.7452 28.1799 49.6290 0.0000 7.9582 0.0000
# 2 28.1799 82.1248 39.7430 0.0000 -9.7696 0.0000
# 3 49.6290 39.7430 81.0256 0.0000 -10.3106 0.0000
# 4 0.0000 0.0000 0.0000 23.2869 0.0000 -6.3676
# 5 7.9582 -9.7696 -10.3106 0.0000 16.8581 0.0000
# 6 0.0000 0.0000 0.0000 -6.3676 0.0000 16.6316
#
#
#
# Elastic Compliance Matrix: (Units=1/GPa)
#
#
# Indices 1 2 3 4 5 6 
#
# 1 0.039757 -0.005303 -0.026600 0.000000 -0.038110 0.000000
# 2 -0.005303 0.017047 -0.003836 0.000000 0.010036 0.000000
# 3 -0.026600 -0.003836 0.034517 0.000000 0.031445 0.000000
# 4 0.000000 0.000000 0.000000 0.047964 0.000000 0.018364
# 5 -0.038110 0.010036 0.031445 0.000000 0.102357 0.000000
# 6 0.000000 0.000000 0.000000 0.018364 0.000000 0.067157
#
#
# Mechanical properties :
#
#
# Convention : Reuss Voigt Hill
#
# Bulk Modulus (GPa) = 50.39565 51.99991 51.19778
# Shear Modulus (GPa) = 12.92352 19.04490 15.98421
#
# Velocity S-wave (km/s) = 2.53899 3.08219 2.82368
# Velocity P-wave (km/s) = 5.80805 6.21329 6.01408
#
# Compressibility (1/GPa) = 0.01984298
#
# Stress axis : x y z
#
# Youngs Moduli (GPa) = 25.15299 58.66298 28.97089
#
# Poissons Ratio (x) = 0.31109 0.77062
# Poissons Ratio (y) = 0.13338 0.11114
# Poissons Ratio (z) = 0.66906 0.22504
#
# Static dielectric constant tensor:
#      x y z
#    x 3.516560 0.000000 -0.140480 
#    y 0.000000 3.828620 0.000000 
#    z -0.140480 0.000000 3.736470 
# 
# 
# High freq. dielectric constant tensor:
#      x y z
#    x 1.772580 0.000000 -0.017060 
#    y 0.000000 1.792760 0.000000 
#    z -0.017060 0.000000 1.780460 
# 
# From -- ./inp_files/225764.got.cif
#   From: 2010.06.25/outbox.cif.g09.slc.cpg/sg12_113_cif.got.tgz:225764.got - 2010.06.28 00:19:55.
