data_PCOD8093693
_publ_section_title
;
Structure prediction by ZEFSAII (Michael W. Deem and Ramdas Pophale) SiO2 
 PCOD8093693
Probable space group: C 2/M
;
_chemical_formula_sum "Si O2"
_cell_formula_units_Z 56
_cell_length_a 27.942354
_cell_length_b 9.298070
_cell_length_c 11.897922
_cell_angle_alpha 90.000000
_cell_angle_beta 73.441489
_cell_angle_gamma 90.000000
_cell_volume 2963.004185
_symmetry_space_group_name_H-M "C 2/M"
_symmetry_group_IT_number 12
_symmetry_cell_setting 'monoclinic'
loop_
_space_group_symop_operation_xyz
x,y,z
-x,y,-z
-x,-y,-z
x,-y,z
1/2+x,1/2+y,z
1/2-x,1/2+y,-z
1/2-x,1/2-y,-z
1/2+x,1/2-y,z
loop_
_atom_site_type_symbol
_atom_site_label
_atom_site_fract_x
_atom_site_fract_y
_atom_site_fract_z
Si Si1 0.735854 0.666521 0.346559
Si Si2 0.896885 0.830424 0.838959
Si Si3 0.570437 0.169073 0.726917
Si Si4 0.215431 0.169016 0.109786
Si Si5 0.324143 0.166022 0.445704
Si Si6 0.440980 0.334757 0.043914
Si Si7 0.010383 0.830484 0.364939
O O1 0.724529 0.500000 0.371506
O O2 0.738798 0.705998 0.214442
O O3 0.689268 0.747960 0.433196
O O4 0.788021 0.714433 0.367630
O O5 0.841244 0.769642 0.856590
O O6 0.933232 0.788112 0.710332
O O7 0.894670 0.000000 0.847536
O O8 0.918481 0.772640 0.942774
O O9 0.619435 0.201463 0.622181
O O10 0.579780 0.235091 0.843278
O O11 0.525247 0.245795 0.694975
O O12 0.559620 0.000000 0.745624
O O13 0.216485 0.000000 0.082662
O O14 0.250000 0.250000 0.000000
O O15 0.316026 0.000000 0.477549
O O16 0.424879 0.500000 0.075970
O O17 0.500000 0.321365 0.000000
O O18 0.000000 0.782271 0.500000
O O19 0.000373 0.000000 0.356111
#
# Coordination Sequence:
#
# PCOD8093693 Si02
#       7
#     8   8   8   8   8   8   8
#     4   9  19  37  59  80 106 143 189 235 275 325
#     4   9  19  37  57  83 112 143 187 240 281 320
#     4  11  23  36  55  84 119 148 179 226 283 342
#     4  10  22  38  58  83 113 147 187 233 283 334
#     4   9  20  37  55  80 113 146 179 227 283 333
#     4  10  19  36  59  79 108 145 188 234 272 320
#     4  10  21  38  62  86 112 149 194 233 273 331
#
# _framework density 18.899736999999998
#
# number of rings (size 3 to 8) (size 9 to 14) (size 15 to 20)
#    0.000    2.286    1.429    0.429    4.000    2.286 
#    0.000    0.714    0.000    0.000    0.000    0.000 
#    0.000    0.000    0.000    0.000    0.000    0.000 
#
# Total GULP energy -347212.677211 kJ/mol
# GULP energy per Si atom -12400.452758 kJ/mol
# Density = 1.885672 g / cm^3
# Si number density = 18.899737 Si / 1000 Ang^3
#
#
#
# Elastic Constant Matrix: (Units=GPa)
#
#
# Indices 1 2 3 4 5 6 
#
# 1 94.7535 27.3273 50.9552 0.0000 -13.4002 0.0000
# 2 27.3273 46.5252 48.1835 0.0000 -7.7565 0.0000
# 3 50.9552 48.1835 144.9275 0.0000 -10.8326 0.0000
# 4 0.0000 0.0000 0.0000 31.6420 0.0000 -5.2802
# 5 -13.4002 -7.7565 -10.8326 0.0000 25.8416 0.0000
# 6 0.0000 0.0000 0.0000 -5.2802 0.0000 21.7504
#
#
#
# Elastic Compliance Matrix: (Units=1/GPa)
#
#
# Indices 1 2 3 4 5 6 
#
# 1 0.014171 -0.004180 -0.003239 0.000000 0.004736 0.000000
# 2 -0.004180 0.034772 -0.009779 0.000000 0.004170 0.000000
# 3 -0.003239 -0.009779 0.011299 0.000000 0.000122 0.000000
# 4 0.000000 0.000000 0.000000 0.032938 0.000000 0.007996
# 5 0.004736 0.004170 0.000122 0.000000 0.042456 0.000000
# 6 0.000000 0.000000 0.000000 0.007996 0.000000 0.047917
#
#
# Mechanical properties :
#
#
# Convention : Reuss Voigt Hill
#
# Bulk Modulus (GPa) = 38.69024 59.90424 49.29724
# Shear Modulus (GPa) = 22.06893 26.49614 24.28254
#
# Velocity S-wave (km/s) = 3.42085 3.74830 3.58831
# Velocity P-wave (km/s) = 6.00988 7.10617 6.58089
#
# Compressibility (1/GPa) = 0.02584631
#
# Stress axis : x y z
#
# Youngs Moduli (GPa) = 70.56894 28.75899 88.50316
#
# Poissons Ratio (x) = 0.12020 0.28663
# Poissons Ratio (y) = 0.29495 0.86549
# Poissons Ratio (z) = 0.22855 0.28124
#
# Static dielectric constant tensor:
#      x y z
#    x 3.703560 0.000000 0.050740 
#    y 0.000000 3.278210 0.000000 
#    z 0.050740 0.000000 3.640490 
# 
# 
# High freq. dielectric constant tensor:
#      x y z
#    x 1.739220 0.000000 -0.000370 
#    y 0.000000 1.712580 0.000000 
#    z -0.000370 0.000000 1.744170 
# 
# From -- ./inp_files/186436.got.cif
#   From: 2010.06.25/outbox.cif.g09.slc.cpg/sg12_94_cif.got.tgz:186436.got - 2010.06.28 00:19:55.
