data_PCOD8093906
_publ_section_title
;
Structure prediction by ZEFSAII (Michael W. Deem and Ramdas Pophale) SiO2 
 PCOD8093906
Probable space group: C 2/M
;
_chemical_formula_sum "Si O2"
_cell_formula_units_Z 52
_cell_length_a 10.449155
_cell_length_b 21.671670
_cell_length_c 19.143583
_cell_angle_alpha 90.000000
_cell_angle_beta 35.733865
_cell_angle_gamma 90.000000
_cell_volume 2531.776188
_symmetry_space_group_name_H-M "C 2/M"
_symmetry_group_IT_number 12
_symmetry_cell_setting 'monoclinic'
loop_
_space_group_symop_operation_xyz
x,y,z
-x,y,-z
-x,-y,-z
x,-y,z
1/2+x,1/2+y,z
1/2-x,1/2+y,-z
1/2-x,1/2-y,-z
1/2+x,1/2-y,z
loop_
_atom_site_type_symbol
_atom_site_label
_atom_site_fract_x
_atom_site_fract_y
_atom_site_fract_z
Si Si1 0.646974 0.132512 0.664513
Si Si2 0.783863 0.669166 0.054530
Si Si3 0.000000 0.298619 0.500000
Si Si4 0.255999 0.687083 0.085626
Si Si5 0.549359 0.313119 0.570220
Si Si6 0.905787 0.127914 0.309566
Si Si7 0.732454 0.000000 0.435778
Si Si8 0.245290 0.500000 0.594786
O O1 0.408141 0.160697 0.783378
O O2 0.823018 0.164817 0.636341
O O3 0.738908 0.145459 0.545512
O O4 0.634163 0.059038 0.680614
O O5 0.728858 0.739794 0.095473
O O6 0.581455 0.627249 0.169619
O O7 0.809013 0.658319 0.960601
O O8 0.000000 0.647481 0.000000
O O9 0.907387 0.257240 0.476131
O O10 0.177569 0.343050 0.384973
O O11 0.500000 0.667737 0.000000
O O12 0.510398 0.323183 0.669049
O O13 0.876830 0.058950 0.350288
O O14 0.500000 0.000000 0.500000
O O15 0.696007 0.000000 0.534476
O O16 0.500000 0.500000 0.500000
#
# Coordination Sequence:
#
# PCOD8093906 Si02
#       8
#     8   8   4   8   8   8   4   4
#     4  10  19  36  60  88 118 152 211 260 300 357
#     4  10  22  39  61  85 119 161 203 252 306 364
#     4  10  22  33  58  93 124 156 200 264 322 370
#     4  10  22  39  59  86 119 161 203 251 310 363
#     4  10  20  35  61  94 120 150 206 268 319 361
#     4  12  22  40  60  88 131 165 204 247 317 380
#     4  12  26  42  58  92 134 172 196 240 320 388
#     4  12  20  40  64  90 116 166 214 258 300 356
#
# _framework density 20.538941000000001
#
# number of rings (size 3 to 8) (size 9 to 14) (size 15 to 20)
#    0.000    1.538    3.846    3.231    0.000    4.923 
#    0.000    1.538    0.000    0.000    0.000    0.000 
#    0.000    0.000    0.000    0.000    0.000    0.000 
#
# Total GULP energy -322389.584732 kJ/mol
# GULP energy per Si atom -12399.599413 kJ/mol
# Density = 2.049219 g / cm^3
# Si number density = 20.538941 Si / 1000 Ang^3
#
#
#
# Elastic Constant Matrix: (Units=GPa)
#
#
# Indices 1 2 3 4 5 6 
#
# 1 84.8771 -3.0819 22.9945 -0.0052 -6.7038 -0.0067
# 2 -3.0819 85.1800 21.8402 -0.0064 -10.8595 -0.0139
# 3 22.9945 21.8402 113.7009 0.0072 -20.9704 -0.0029
# 4 -0.0052 -0.0064 0.0072 30.9599 -0.0002 -2.4378
# 5 -6.7038 -10.8595 -20.9704 -0.0002 29.1239 -0.0071
# 6 -0.0067 -0.0139 -0.0029 -2.4378 -0.0071 14.0078
#
#
#
# Elastic Compliance Matrix: (Units=1/GPa)
#
#
# Indices 1 2 3 4 5 6 
#
# 1 0.012635 0.001304 -0.002513 0.000004 0.001585 0.000008
# 2 0.001304 0.012771 -0.002056 0.000005 0.003581 0.000016
# 3 -0.002513 -0.002056 0.010897 -0.000003 0.006501 0.000002
# 4 0.000004 0.000005 -0.000003 0.032749 0.000002 0.005699
# 5 0.001585 0.003581 0.006501 0.000002 0.040717 0.000027
# 6 0.000008 0.000016 0.000002 0.005699 0.000027 0.072381
#
#
# Mechanical properties :
#
#
# Convention : Reuss Voigt Hill
#
# Bulk Modulus (GPa) = 33.58933 40.80707 37.19820
# Shear Modulus (GPa) = 25.17550 30.95200 28.06375
#
# Velocity S-wave (km/s) = 3.50486 3.88621 3.70045
# Velocity P-wave (km/s) = 5.72435 6.32836 6.03392
#
# Compressibility (1/GPa) = 0.02977136
#
# Stress axis : x y z
#
# Youngs Moduli (GPa) = 79.14415 78.30360 91.76558
#
# Poissons Ratio (x) = -0.10208 0.23065
# Poissons Ratio (y) = -0.10317 0.18869
# Poissons Ratio (z) = 0.19892 0.16101
#
# Static dielectric constant tensor:
#      x y z
#    x 3.781180 -0.000020 -0.004130 
#    y -0.000020 3.726430 0.000030 
#    z -0.004130 0.000030 3.594470 
# 
# 
# High freq. dielectric constant tensor:
#      x y z
#    x 1.810100 0.000000 -0.004990 
#    y 0.000000 1.789940 0.000000 
#    z -0.004990 0.000000 1.792340 
# 
# From -- ./inp_files/134071.got.cif
#   From: 2010.06.25/outbox.cif.g09.slc.cpg/sg12_68_cif.got.tgz:134071.got - 2010.06.28 00:19:55.
