data_PCOD8093132
_publ_section_title
;
Structure prediction by ZEFSAII (Michael W. Deem and Ramdas Pophale) SiO2 
 PCOD8093132
Probable space group: C 2/M
;
_chemical_formula_sum "Si O2"
_cell_formula_units_Z 40
_cell_length_a 9.448403
_cell_length_b 26.722962
_cell_length_c 12.238954
_cell_angle_alpha 90.000000
_cell_angle_beta 44.730164
_cell_angle_gamma 90.000000
_cell_volume 2174.789980
_symmetry_space_group_name_H-M "C 2/M"
_symmetry_group_IT_number 12
_symmetry_cell_setting 'monoclinic'
loop_
_space_group_symop_operation_xyz
x,y,z
-x,y,-z
-x,-y,-z
x,-y,z
1/2+x,1/2+y,z
1/2-x,1/2+y,-z
1/2-x,1/2-y,-z
1/2+x,1/2-y,z
loop_
_atom_site_type_symbol
_atom_site_label
_atom_site_fract_x
_atom_site_fract_y
_atom_site_fract_z
Si Si1 0.664007 0.284374 0.815384
Si Si2 0.326708 0.867456 0.178597
Si Si3 0.522755 0.444619 0.358789
Si Si4 0.905427 0.155384 0.345357
Si Si5 0.096667 0.301772 0.678000
O O1 0.620520 0.335008 0.769785
O O2 0.658111 0.239258 0.733116
O O3 0.881802 0.288388 0.748297
O O4 0.500000 0.277212 0.000000
O O5 0.251747 0.925176 0.211097
O O6 0.406577 0.854830 0.256071
O O7 0.134176 0.831682 0.256577
O O8 0.500000 0.855201 0.000000
O O9 0.500000 0.445866 0.500000
O O10 0.490962 0.500000 0.325458
O O11 0.366870 0.404178 0.391220
O O12 0.758236 0.192776 0.491981
#
# Coordination Sequence:
#
# PCOD8093132 Si02
#       5
#     8   8   8   8   8
#     4  12  25  38  59  85 121 155 195 241 297 344
#     4  10  19  35  59  87 121 146 192 245 292 339
#     4   9  18  36  64  89 117 150 197 244 290 343
#     4  10  21  39  57  85 116 154 197 237 291 345
#     4  12  22  38  56  86 116 160 195 236 284 359
#
# _framework density 18.392581
#
# number of rings (size 3 to 8) (size 9 to 14) (size 15 to 20)
#    1.200    0.200    2.000    5.400    0.000    2.000 
#    0.000    0.000    0.000    4.200    0.000    0.000 
#    0.000    0.000    0.000    0.000    0.000    0.000 
#
# Total GULP energy -247778.041171 kJ/mol
# GULP energy per Si atom -12388.902059 kJ/mol
# Density = 1.835072 g / cm^3
# Si number density = 18.392581 Si / 1000 Ang^3
#
#
#
# Elastic Constant Matrix: (Units=GPa)
#
#
# Indices 1 2 3 4 5 6 
#
# 1 111.0827 45.7050 46.8698 0.0000 -12.1588 0.0000
# 2 45.7050 113.4953 28.2728 0.0000 -0.4700 0.0000
# 3 46.8698 28.2728 140.0815 0.0000 -14.3035 0.0000
# 4 0.0000 0.0000 0.0000 14.7345 0.0000 1.3130
# 5 -12.1588 -0.4700 -14.3035 0.0000 34.1308 0.0000
# 6 0.0000 0.0000 0.0000 1.3130 0.0000 26.6744
#
#
#
# Elastic Compliance Matrix: (Units=1/GPa)
#
#
# Indices 1 2 3 4 5 6 
#
# 1 0.012322 -0.004213 -0.002957 0.000000 0.003092 0.000000
# 2 -0.004213 0.010733 -0.000935 0.000000 -0.001745 0.000000
# 3 -0.002957 -0.000935 0.008575 0.000000 0.002527 0.000000
# 4 0.000000 0.000000 0.000000 0.068167 0.000000 -0.003356
# 5 0.003092 -0.001745 0.002527 0.000000 0.031436 0.000000
# 6 0.000000 0.000000 0.000000 -0.003356 0.000000 0.037654
#
#
# Mechanical properties :
#
#
# Convention : Reuss Voigt Hill
#
# Bulk Modulus (GPa) = 64.84683 67.37274 66.10979
# Shear Modulus (GPa) = 26.28329 31.36208 28.82268
#
# Velocity S-wave (km/s) = 3.78433 4.13382 3.96293
# Velocity P-wave (km/s) = 7.37757 7.71327 7.54729
#
# Compressibility (1/GPa) = 0.01542095
#
# Stress axis : x y z
#
# Youngs Moduli (GPa) = 81.15846 93.17032 116.62167
#
# Poissons Ratio (x) = 0.39249 0.34481
# Poissons Ratio (y) = 0.34189 0.10903
# Poissons Ratio (z) = 0.23996 0.08711
#
# Static dielectric constant tensor:
#      x y z
#    x 3.480400 0.000000 0.124970 
#    y 0.000000 3.556740 0.000000 
#    z 0.124970 0.000000 3.413150 
# 
# 
# High freq. dielectric constant tensor:
#      x y z
#    x 1.701300 0.000000 0.005790 
#    y 0.000000 1.698850 0.000000 
#    z 0.005790 0.000000 1.720900 
# 
# From -- ./inp_files/124993.got.cif
#   From: 2010.06.25/outbox.cif.g09.slc.cpg/sg12_63_cif.got.tgz:124993.got - 2010.06.28 00:19:55.
