data_PCOD8093170
_publ_section_title
;
Structure prediction by ZEFSAII (Michael W. Deem and Ramdas Pophale) SiO2 
 PCOD8093170
Probable space group: C 2/M
;
_chemical_formula_sum "Si O2"
_cell_formula_units_Z 48
_cell_length_a 24.357371
_cell_length_b 10.166636
_cell_length_c 12.102742
_cell_angle_alpha 90.000000
_cell_angle_beta 114.213084
_cell_angle_gamma 90.000000
_cell_volume 2733.373064
_symmetry_space_group_name_H-M "C 2/M"
_symmetry_group_IT_number 12
_symmetry_cell_setting 'monoclinic'
loop_
_space_group_symop_operation_xyz
x,y,z
-x,y,-z
-x,-y,-z
x,-y,z
1/2+x,1/2+y,z
1/2-x,1/2+y,-z
1/2-x,1/2-y,-z
1/2+x,1/2-y,z
loop_
_atom_site_type_symbol
_atom_site_label
_atom_site_fract_x
_atom_site_fract_y
_atom_site_fract_z
Si Si1 0.485939 0.500000 0.320568
Si Si2 0.328936 0.249533 0.452172
Si Si3 0.415520 0.653573 0.894496
Si Si4 0.600543 0.500000 0.544978
Si Si5 0.092191 0.500000 0.535706
Si Si6 0.523991 0.261180 0.842852
Si Si7 0.700314 0.346895 0.334734
Si Si8 0.972383 0.500000 0.293947
O O1 0.558561 0.500000 0.400304
O O2 0.447242 0.500000 0.398076
O O3 0.466937 0.370910 0.240997
O O4 0.356417 0.374327 0.412524
O O5 0.325829 0.274081 0.580154
O O6 0.262750 0.219526 0.348932
O O7 0.371528 0.128085 0.466040
O O8 0.434259 0.500000 0.911954
O O9 0.457911 0.728041 0.841965
O O10 0.346142 0.671798 0.803982
O O11 0.424761 0.718718 0.021781
O O12 0.033448 0.500000 0.412497
O O13 0.080150 0.500000 0.657411
O O14 0.533159 0.123105 0.791447
O O15 0.710426 0.500000 0.372219
#
# Coordination Sequence:
#
# PCOD8093170 Si02
#       8
#     4   8   8   4   4   8   8   4
#     4  11  20  35  57  81 107 149 185 226 266 317
#     4  11  21  36  56  82 111 144 182 224 273 325
#     4  10  19  35  60  83 107 142 185 228 273 324
#     4  11  22  33  55  83 113 139 187 232 266 313
#     4  11  22  39  53  79 111 157 175 212 278 335
#     4  11  20  36  56  84 109 143 180 228 276 323
#     4  10  20  35  58  83 110 144 179 225 277 327
#     4  11  24  35  55  79 119 143 179 220 274 337
#
# _framework density 17.560721000000001
#
# number of rings (size 3 to 8) (size 9 to 14) (size 15 to 20)
#    0.000    1.333    3.333    4.500    0.000    4.000 
#    0.000    2.500    0.000    6.000    0.000    0.000 
#    0.000    0.000    0.000    0.000    0.000    0.000 
#
# Total GULP energy -297648.449538 kJ/mol
# GULP energy per Si atom -12402.018731 kJ/mol
# Density = 1.752075 g / cm^3
# Si number density = 17.560721 Si / 1000 Ang^3
#
#
#
# Elastic Constant Matrix: (Units=GPa)
#
#
# Indices 1 2 3 4 5 6 
#
# 1 105.7731 61.5001 51.8992 0.0000 8.7789 0.0000
# 2 61.5001 157.7335 58.2189 0.0000 -2.3775 0.0000
# 3 51.8992 58.2189 106.5931 0.0000 8.3729 0.0000
# 4 0.0000 0.0000 0.0000 101.4723 0.0000 -54.1592
# 5 8.7789 -2.3775 8.3729 0.0000 27.5743 0.0000
# 6 0.0000 0.0000 0.0000 -54.1592 0.0000 66.6145
#
#
#
# Elastic Compliance Matrix: (Units=1/GPa)
#
#
# Indices 1 2 3 4 5 6 
#
# 1 0.014252 -0.003946 -0.004508 0.000000 -0.003509 0.000000
# 2 -0.003946 0.009148 -0.003315 0.000000 0.003051 0.000000
# 3 -0.004508 -0.003315 0.013622 0.000000 -0.002987 0.000000
# 4 0.000000 0.000000 0.000000 0.017410 0.000000 0.014154
# 5 -0.003509 0.003051 -0.002987 0.000000 0.038553 0.000000
# 6 0.000000 0.000000 0.000000 0.014154 0.000000 0.026520
#
#
# Mechanical properties :
#
#
# Convention : Reuss Voigt Hill
#
# Bulk Modulus (GPa) = 74.16596 79.25957 76.71276
# Shear Modulus (GPa) = 33.89026 52.36432 43.12729
#
# Velocity S-wave (km/s) = 4.39782 5.46660 4.96108
# Velocity P-wave (km/s) = 8.25309 9.22375 8.75188
#
# Compressibility (1/GPa) = 0.01348327
#
# Stress axis : x y z
#
# Youngs Moduli (GPa) = 70.16761 109.31734 73.41214
#
# Poissons Ratio (x) = 0.43131 0.33097
# Poissons Ratio (y) = 0.27685 0.24336
# Poissons Ratio (z) = 0.31634 0.36238
#
# Static dielectric constant tensor:
#      x y z
#    x 3.311330 0.000000 0.067680 
#    y 0.000000 3.253550 0.000000 
#    z 0.067680 0.000000 3.315610 
# 
# 
# High freq. dielectric constant tensor:
#      x y z
#    x 1.676720 0.000000 0.002780 
#    y 0.000000 1.688210 0.000000 
#    z 0.002780 0.000000 1.674200 
# 
# From -- ./inp_files/173139.got.cif
#   From: 2010.06.25/outbox.cif.g09.slc.cpg/sg12_87_cif.got.tgz:173139.got - 2010.06.28 00:19:55.
