data_PCOD8093164
_publ_section_title
;
Structure prediction by ZEFSAII (Michael W. Deem and Ramdas Pophale) SiO2 
 PCOD8093164
Probable space group: C 2/M
;
_chemical_formula_sum "Si O2"
_cell_formula_units_Z 56
_cell_length_a 9.095596
_cell_length_b 29.869452
_cell_length_c 13.589565
_cell_angle_alpha 90.000000
_cell_angle_beta 48.169746
_cell_angle_gamma 90.000000
_cell_volume 2751.012047
_symmetry_space_group_name_H-M "C 2/M"
_symmetry_group_IT_number 12
_symmetry_cell_setting 'monoclinic'
loop_
_space_group_symop_operation_xyz
x,y,z
-x,y,-z
-x,-y,-z
x,-y,z
1/2+x,1/2+y,z
1/2-x,1/2+y,-z
1/2-x,1/2-y,-z
1/2+x,1/2-y,z
loop_
_atom_site_type_symbol
_atom_site_label
_atom_site_fract_x
_atom_site_fract_y
_atom_site_fract_z
Si Si1 0.087574 0.126201 0.352157
Si Si2 0.465629 0.707599 0.129866
Si Si3 0.072233 0.548577 0.358814
Si Si4 0.606064 0.050127 0.754327
Si Si5 0.096603 0.114313 0.758545
Si Si6 0.296217 0.204677 0.141544
Si Si7 0.842069 0.949234 0.983644
O O1 0.234139 0.084344 0.277503
O O2 0.205466 0.168690 0.256785
O O3 0.000000 0.135025 0.500000
O O4 0.905061 0.116257 0.359833
O O5 0.363056 0.663674 0.218624
O O6 0.326456 0.751373 0.196307
O O7 0.659117 0.716491 0.109389
O O8 0.500000 0.697926 0.000000
O O9 0.172568 0.500000 0.292070
O O10 0.229673 0.586513 0.270923
O O11 0.000000 0.550942 0.500000
O O12 0.888340 0.554340 0.367099
O O13 0.665395 0.000000 0.762597
O O14 0.381615 0.061445 0.884742
O O15 0.892743 0.089637 0.881748
O O16 0.500000 0.188307 0.000000
O O17 0.852251 0.000000 0.935663
O O18 0.000000 0.944030 0.000000
#
# Coordination Sequence:
#
# PCOD8093164 Si02
#       7
#     8   8   8   8   8   8   8
#     4  11  26  43  60  86 125 163 203 250 302 356
#     4  10  21  37  61  95 120 148 195 245 303 365
#     4  10  20  35  55  81 116 163 212 249 291 354
#     4  10  22  37  59  87 120 162 203 246 301 353
#     4  11  22  36  60  88 121 157 202 246 306 356
#     4  10  22  41  65  90 120 155 198 246 305 361
#     4  10  19  35  59  92 125 153 194 255 308 352
#
# _framework density 20.356145999999999
#
# number of rings (size 3 to 8) (size 9 to 14) (size 15 to 20)
#    0.000    1.714    1.429    3.429    4.000    2.571 
#    0.000    5.000    0.000    0.000    0.000    0.000 
#    0.000    0.000    0.000    0.000    0.000    0.000 
#
# Total GULP energy -346922.022513 kJ/mol
# GULP energy per Si atom -12390.072233 kJ/mol
# Density = 2.030981 g / cm^3
# Si number density = 20.356146 Si / 1000 Ang^3
#
#
#
# Elastic Constant Matrix: (Units=GPa)
#
#
# Indices 1 2 3 4 5 6 
#
# 1 91.8994 50.8481 31.0529 0.0000 7.4336 0.0000
# 2 50.8481 126.5823 48.5034 0.0000 -0.8702 0.0000
# 3 31.0529 48.5034 76.3130 0.0000 19.3253 0.0000
# 4 0.0000 0.0000 0.0000 13.2193 0.0000 15.7982
# 5 7.4336 -0.8702 19.3253 0.0000 26.7474 0.0000
# 6 0.0000 0.0000 0.0000 15.7982 0.0000 2.3744
#
#
#
# Elastic Compliance Matrix: (Units=1/GPa)
#
#
# Indices 1 2 3 4 5 6 
#
# 1 0.014616 -0.005134 -0.001975 0.000000 -0.002802 0.000000
# 2 -0.005134 0.013188 -0.008277 0.000000 0.007836 0.000000
# 3 -0.001975 -0.008277 0.023375 0.000000 -0.016609 0.000000
# 4 0.000000 0.000000 0.000000 -0.010882 0.000000 0.072404
# 5 -0.002802 0.007836 -0.016609 0.000000 0.050421 0.000000
# 6 0.000000 0.000000 0.000000 0.072404 0.000000 -0.060585
#
#
# Mechanical properties :
#
#
# Convention : Reuss Voigt Hill
#
# Bulk Modulus (GPa) = 49.00486 61.73373 55.36929
# Shear Modulus (GPa) = 73.84844 19.42757 46.63801
#
# Velocity S-wave (km/s) = 6.02967 3.09266 4.79174
# Velocity P-wave (km/s) = 8.52068 6.56852 7.60748
#
# Compressibility (1/GPa) = 0.02040614
#
# Stress axis : x y z
#
# Youngs Moduli (GPa) = 68.41829 75.82749 42.78157
#
# Poissons Ratio (x) = 0.38928 0.08449
# Poissons Ratio (y) = 0.35124 0.35412
# Poissons Ratio (z) = 0.13512 0.62766
#
# Static dielectric constant tensor:
#      x y z
#    x 3.828990 0.000000 0.121220 
#    y 0.000000 3.953540 0.000000 
#    z 0.121220 0.000000 3.760600 
# 
# 
# High freq. dielectric constant tensor:
#      x y z
#    x 1.797110 0.000000 0.019050 
#    y 0.000000 1.805470 0.000000 
#    z 0.019050 0.000000 1.781730 
# 
# From -- ./inp_files/125625.got.cif
#   From: 2010.06.25/outbox.cif.g09.slc.cpg/sg12_63_cif.got.tgz:125625.got - 2010.06.28 00:19:55.
