data_PCOD8093917
_publ_section_title
;
Structure prediction by ZEFSAII (Michael W. Deem and Ramdas Pophale) SiO2 
 PCOD8093917
Probable space group: C 2/M
;
_chemical_formula_sum "Si O2"
_cell_formula_units_Z 44
_cell_length_a 11.742800
_cell_length_b 24.300540
_cell_length_c 12.791100
_cell_angle_alpha 90.000000
_cell_angle_beta 37.370589
_cell_angle_gamma 90.000000
_cell_volume 2215.446454
_symmetry_space_group_name_H-M "C 2/M"
_symmetry_group_IT_number 12
_symmetry_cell_setting 'monoclinic'
loop_
_space_group_symop_operation_xyz
x,y,z
-x,y,-z
-x,-y,-z
x,-y,z
1/2+x,1/2+y,z
1/2-x,1/2+y,-z
1/2-x,1/2-y,-z
1/2+x,1/2-y,z
loop_
_atom_site_type_symbol
_atom_site_label
_atom_site_fract_x
_atom_site_fract_y
_atom_site_fract_z
Si Si1 0.000000 0.369082 0.000000
Si Si2 0.542853 0.613555 0.858916
Si Si3 0.171986 0.562816 0.502476
Si Si4 0.804354 0.687334 0.953296
Si Si5 0.288111 0.563922 0.653662
Si Si6 0.594306 0.838726 0.336035
O O1 0.917535 0.329167 0.972620
O O2 0.836420 0.406228 0.168140
O O3 0.637120 0.575193 0.702175
O O4 0.364150 0.643792 0.938976
O O5 0.687103 0.660101 0.793943
O O6 0.500000 0.580541 0.000000
O O7 0.113460 0.500000 0.526072
O O8 0.205301 0.574284 0.599903
O O9 0.998634 0.600228 0.593527
O O10 0.750000 0.750000 0.000000
O O11 0.939551 0.686774 0.752761
O O12 0.500000 0.587338 0.500000
O O13 0.288685 0.500000 0.683849
O O14 0.500000 0.803752 0.500000
#
# Coordination Sequence:
#
# PCOD8093917 Si02
#       6
#     4   8   8   8   8   8
#     4  12  23  40  68  92 128 164 213 264 314 386
#     4   9  20  37  59  84 123 156 201 255 302 366
#     4  10  19  36  60  90 124 159 198 247 308 377
#     4  11  24  41  62  88 118 160 211 259 316 360
#     4  10  21  38  62  92 130 167 205 256 316 380
#     4   9  19  39  62  84 121 157 195 250 303 369
#
# _framework density 19.860557
#
# number of rings (size 3 to 8) (size 9 to 14) (size 15 to 20)
#    0.000    2.000    1.818    1.364    3.818    3.636 
#    0.000   10.000    0.000    0.000    0.000    0.000 
#    0.000    0.000    0.000    0.000    0.000    0.000 
#
# Total GULP energy -272597.188533 kJ/mol
# GULP energy per Si atom -12390.781297 kJ/mol
# Density = 1.981535 g / cm^3
# Si number density = 19.860557 Si / 1000 Ang^3
#
#
#
# Elastic Constant Matrix: (Units=GPa)
#
#
# Indices 1 2 3 4 5 6 
#
# 1 121.0935 33.8901 49.9611 0.0000 13.6346 0.0001
# 2 33.8901 79.2053 45.7575 0.0000 12.0908 0.0000
# 3 49.9611 45.7575 158.1528 0.0000 26.3861 0.0001
# 4 0.0000 0.0000 0.0000 16.8449 0.0000 -3.7281
# 5 13.6346 12.0908 26.3861 0.0000 44.1703 0.0000
# 6 0.0001 0.0000 0.0001 -3.7281 0.0000 13.1824
#
#
#
# Elastic Compliance Matrix: (Units=1/GPa)
#
#
# Indices 1 2 3 4 5 6 
#
# 1 0.010082 -0.002902 -0.002176 0.000000 -0.001018 0.000000
# 2 -0.002902 0.016110 -0.003508 0.000000 -0.001419 0.000000
# 3 -0.002176 -0.003508 0.008611 0.000000 -0.003512 0.000000
# 4 0.000000 0.000000 0.000000 0.063329 0.000000 0.017910
# 5 -0.001018 -0.001419 -0.003512 0.000000 0.025440 0.000000
# 6 0.000000 0.000000 0.000000 0.017910 0.000000 0.080924
#
#
# Mechanical properties :
#
#
# Convention : Reuss Voigt Hill
#
# Bulk Modulus (GPa) = 56.71016 68.62989 62.67002
# Shear Modulus (GPa) = 21.97368 30.09572 26.03470
#
# Velocity S-wave (km/s) = 3.32986 3.89697 3.62453
# Velocity P-wave (km/s) = 6.58788 7.40807 7.00998
#
# Compressibility (1/GPa) = 0.01763353
#
# Stress axis : x y z
#
# Youngs Moduli (GPa) = 99.18200 62.07350 116.12875
#
# Poissons Ratio (x) = 0.18012 0.25266
# Poissons Ratio (y) = 0.28780 0.40734
# Poissons Ratio (z) = 0.21579 0.21773
#
# Static dielectric constant tensor:
#      x y z
#    x 3.947540 0.000000 0.400440 
#    y 0.000000 3.179430 0.000000 
#    z 0.400440 0.000000 4.303210 
# 
# 
# High freq. dielectric constant tensor:
#      x y z
#    x 1.792070 0.000000 0.017060 
#    y 0.000000 1.733490 0.000000 
#    z 0.017060 0.000000 1.798290 
# 
# From -- ./inp_files/135731.got.cif
#   From: 2010.06.25/outbox.cif.g09.slc.cpg/sg12_68_cif.got.tgz:135731.got - 2010.06.28 00:19:55.
