data_PCOD8093019
_publ_section_title
;
Structure prediction by ZEFSAII (Michael W. Deem and Ramdas Pophale) SiO2 
 PCOD8093019
Probable space group: C 2/M
;
_chemical_formula_sum "Si O2"
_cell_formula_units_Z 56
_cell_length_a 14.390207
_cell_length_b 16.733023
_cell_length_c 14.335298
_cell_angle_alpha 90.000000
_cell_angle_beta 121.028360
_cell_angle_gamma 90.000000
_cell_volume 2957.907124
_symmetry_space_group_name_H-M "C 2/M"
_symmetry_group_IT_number 12
_symmetry_cell_setting 'monoclinic'
loop_
_space_group_symop_operation_xyz
x,y,z
-x,y,-z
-x,-y,-z
x,-y,z
1/2+x,1/2+y,z
1/2-x,1/2+y,-z
1/2-x,1/2-y,-z
1/2+x,1/2-y,z
loop_
_atom_site_type_symbol
_atom_site_label
_atom_site_fract_x
_atom_site_fract_y
_atom_site_fract_z
Si Si1 0.804430 0.735421 0.732588
Si Si2 0.109699 0.092502 0.999170
Si Si3 0.118359 0.309989 0.520715
Si Si4 0.973419 0.189101 0.212148
Si Si5 0.730948 0.223045 0.885010
Si Si6 0.567464 0.642075 0.441303
Si Si7 0.708811 0.088395 0.409432
O O1 0.707757 0.794317 0.647372
O O2 0.788486 0.721622 0.835488
O O3 0.804475 0.648881 0.683773
O O4 0.916770 0.780404 0.776271
O O5 0.091758 0.130262 0.888848
O O6 0.138839 0.000000 0.005964
O O7 0.215947 0.134824 0.100678
O O8 0.000000 0.106941 0.000000
O O9 0.118895 0.230824 0.456603
O O10 0.145194 0.384212 0.468636
O O11 0.000000 0.326662 0.500000
O O12 0.898927 0.267153 0.198784
O O13 0.992317 0.132374 0.312115
O O14 0.750000 0.250000 0.000000
O O15 0.500000 0.634090 0.500000
O O16 0.665118 0.579670 0.495797
O O17 0.667554 0.000000 0.359100
#
# Coordination Sequence:
#
# PCOD8093019 Si02
#       7
#     8   8   8   8   8   8   8
#     4  11  20  38  60  84 114 156 208 239 280 358
#     4  10  21  38  59  90 121 141 183 256 306 333
#     4  10  19  35  59  82 116 159 201 242 279 344
#     4  11  19  36  64  85 110 158 200 231 288 350
#     4  10  22  37  60  88 111 154 199 239 296 361
#     4  10  19  36  58  82 112 152 202 239 275 339
#     4  11  22  35  53  87 126 157 189 238 298 347
#
# _framework density 18.932304999999999
#
# number of rings (size 3 to 8) (size 9 to 14) (size 15 to 20)
#    0.000    1.571    4.286    3.429    0.000    1.143 
#    0.000    7.143    0.000    0.000    0.000    6.000 
#    0.000    0.000    0.000    0.000    0.000    0.000 
#
# Total GULP energy -346983.925797 kJ/mol
# GULP energy per Si atom -12392.283064 kJ/mol
# Density = 1.888921 g / cm^3
# Si number density = 18.932305 Si / 1000 Ang^3
#
#
#
# Elastic Constant Matrix: (Units=GPa)
#
#
# Indices 1 2 3 4 5 6 
#
# 1 115.9021 44.7158 34.4970 0.0000 -3.2972 0.0000
# 2 44.7158 108.1302 30.4654 0.0000 -6.2993 0.0000
# 3 34.4970 30.4654 78.0766 0.0000 -20.0168 0.0000
# 4 0.0000 0.0000 0.0000 19.6225 0.0000 3.6325
# 5 -3.2972 -6.2993 -20.0168 0.0000 35.5568 0.0000
# 6 0.0000 0.0000 0.0000 3.6325 0.0000 18.3816
#
#
#
# Elastic Compliance Matrix: (Units=1/GPa)
#
#
# Indices 1 2 3 4 5 6 
#
# 1 0.011152 -0.003593 -0.004001 0.000000 -0.001855 0.000000
# 2 -0.003593 0.011556 -0.002901 0.000000 0.000081 0.000000
# 3 -0.004001 -0.002901 0.018092 0.000000 0.009300 0.000000
# 4 0.000000 0.000000 0.000000 0.052897 0.000000 -0.010453
# 5 -0.001855 0.000081 0.009300 0.000000 0.033202 0.000000
# 6 0.000000 0.000000 0.000000 -0.010453 0.000000 0.056468
#
#
# Mechanical properties :
#
#
# Convention : Reuss Voigt Hill
#
# Bulk Modulus (GPa) = 50.47793 57.94058 54.20925
# Shear Modulus (GPa) = 23.70125 27.54090 25.62108
#
# Velocity S-wave (km/s) = 3.54205 3.81820 3.68271
# Velocity P-wave (km/s) = 6.59154 7.07875 6.83948
#
# Compressibility (1/GPa) = 0.01981064
#
# Stress axis : x y z
#
# Youngs Moduli (GPa) = 89.66902 86.53643 55.27313
#
# Poissons Ratio (x) = 0.31089 0.22115
# Poissons Ratio (y) = 0.32214 0.16035
# Poissons Ratio (z) = 0.35877 0.25104
#
# Static dielectric constant tensor:
#      x y z
#    x 3.716010 0.000000 0.098920 
#    y 0.000000 3.270100 0.000000 
#    z 0.098920 0.000000 3.662570 
# 
# 
# High freq. dielectric constant tensor:
#      x y z
#    x 1.754200 0.000000 -0.006190 
#    y 0.000000 1.698800 0.000000 
#    z -0.006190 0.000000 1.738030 
# 
# From -- ./inp_files/215999.got.cif
#   From: 2010.06.25/outbox.cif.g09.slc.cpg/sg12_108_cif.got.tgz:215999.got - 2010.06.28 00:19:55.
