data_PCOD8093940
_publ_section_title
;
Structure prediction by ZEFSAII (Michael W. Deem and Ramdas Pophale) SiO2 
 PCOD8093940
Probable space group: C 2/M
;
_chemical_formula_sum "Si O2"
_cell_formula_units_Z 48
_cell_length_a 29.579429
_cell_length_b 9.230113
_cell_length_c 9.703246
_cell_angle_alpha 90.000000
_cell_angle_beta 80.159659
_cell_angle_gamma 90.000000
_cell_volume 2610.219061
_symmetry_space_group_name_H-M "C 2/M"
_symmetry_group_IT_number 12
_symmetry_cell_setting 'monoclinic'
loop_
_space_group_symop_operation_xyz
x,y,z
-x,y,-z
-x,-y,-z
x,-y,z
1/2+x,1/2+y,z
1/2-x,1/2+y,-z
1/2-x,1/2-y,-z
1/2+x,1/2-y,z
loop_
_atom_site_type_symbol
_atom_site_label
_atom_site_fract_x
_atom_site_fract_y
_atom_site_fract_z
Si Si1 0.870965 0.171851 0.073587
Si Si2 0.385590 0.328776 0.757327
Si Si3 0.710466 0.670007 0.694381
Si Si4 0.520753 0.834493 0.339006
Si Si5 0.966048 0.834717 0.145220
Si Si6 0.698924 0.668560 0.386050
O O1 0.826883 0.231963 0.178649
O O2 0.917011 0.228344 0.123295
O O3 0.871222 0.000000 0.078636
O O4 0.869435 0.225035 0.916522
O O5 0.394864 0.500000 0.752241
O O6 0.432002 0.251713 0.689981
O O7 0.346988 0.282912 0.668009
O O8 0.717925 0.500000 0.709206
O O9 0.692984 0.707498 0.549815
O O10 0.758427 0.746765 0.701947
O O11 0.500000 0.822689 0.500000
O O12 0.483503 0.766153 0.257352
O O13 0.529841 0.000000 0.291085
O O14 0.962157 0.000000 0.201009
O O15 0.000000 0.826956 0.000000
O O16 0.708688 0.500000 0.358577
#
# Coordination Sequence:
#
# PCOD8093940 Si02
#       6
#     8   8   8   8   8   8
#     4   9  18  33  55  83 108 136 179 227 268 315
#     4  10  20  37  58  80 107 140 183 231 270 316
#     4   9  18  34  54  77 107 141 175 218 273 325
#     4  11  25  40  53  79 117 150 182 223 276 330
#     4  10  19  36  61  84 108 143 186 227 271 323
#     4   9  19  34  54  79 106 138 179 223 266 318
#
# _framework density 18.389261000000001
#
# number of rings (size 3 to 8) (size 9 to 14) (size 15 to 20)
#    0.000    2.333    1.667    0.500    2.333    3.000 
#    0.000    1.667    0.000    0.000    0.000    0.000 
#    0.000    0.000    0.000    0.000    0.000    0.000 
#
# Total GULP energy -297645.544112 kJ/mol
# GULP energy per Si atom -12401.897671 kJ/mol
# Density = 1.834741 g / cm^3
# Si number density = 18.389261 Si / 1000 Ang^3
#
#
#
# Elastic Constant Matrix: (Units=GPa)
#
#
# Indices 1 2 3 4 5 6 
#
# 1 100.8453 38.8970 55.2330 0.0000 -3.0944 0.0000
# 2 38.8970 50.2096 39.4107 0.0000 2.9549 0.0000
# 3 55.2330 39.4107 91.2778 0.0000 2.2612 0.0000
# 4 0.0000 0.0000 0.0000 22.4037 0.0000 -0.4643
# 5 -3.0944 2.9549 2.2612 0.0000 38.3393 0.0000
# 6 0.0000 0.0000 0.0000 -0.4643 0.0000 35.7416
#
#
#
# Elastic Compliance Matrix: (Units=1/GPa)
#
#
# Indices 1 2 3 4 5 6 
#
# 1 0.016709 -0.007715 -0.006838 0.000000 0.002347 0.000000
# 2 -0.007715 0.033782 -0.009852 0.000000 -0.002645 0.000000
# 3 -0.006838 -0.009852 0.019370 0.000000 -0.000935 0.000000
# 4 0.000000 0.000000 0.000000 0.044647 0.000000 0.000580
# 5 0.002347 -0.002645 -0.000935 0.000000 0.026531 0.000000
# 6 0.000000 0.000000 0.000000 0.000580 0.000000 0.027986
#
#
# Mechanical properties :
#
#
# Convention : Reuss Voigt Hill
#
# Bulk Modulus (GPa) = 47.50281 56.60157 52.05219
# Shear Modulus (GPa) = 22.23673 26.54973 24.39323
#
# Velocity S-wave (km/s) = 3.48116 3.80381 3.64606
# Velocity P-wave (km/s) = 6.48428 7.08085 6.78912
#
# Compressibility (1/GPa) = 0.02105139
#
# Stress axis : x y z
#
# Youngs Moduli (GPa) = 59.84756 29.60134 51.62641
#
# Poissons Ratio (x) = 0.22839 0.35300
# Poissons Ratio (y) = 0.46175 0.50861
# Poissons Ratio (z) = 0.40922 0.29163
#
# Static dielectric constant tensor:
#      x y z
#    x 3.512960 0.000000 -0.005660 
#    y 0.000000 3.227400 0.000000 
#    z -0.005660 0.000000 3.520680 
# 
# 
# High freq. dielectric constant tensor:
#      x y z
#    x 1.723780 0.000000 0.000880 
#    y 0.000000 1.689080 0.000000 
#    z 0.000880 0.000000 1.719610 
# 
# From -- ./inp_files/108634.got.cif
#   From: 2010.06.25/outbox.cif.g09.slc.cpg/sg12_55_cif.got.tgz:108634.got - 2010.06.28 00:19:55.
