data_PCOD8093440
_publ_section_title
;
Structure prediction by ZEFSAII (Michael W. Deem and Ramdas Pophale) SiO2 
 PCOD8093440
Probable space group: C 2/M
;
_chemical_formula_sum "Si O2"
_cell_formula_units_Z 48
_cell_length_a 26.786016
_cell_length_b 13.679054
_cell_length_c 11.960727
_cell_angle_alpha 90.000000
_cell_angle_beta 28.848748
_cell_angle_gamma 90.000000
_cell_volume 2114.551413
_symmetry_space_group_name_H-M "C 2/M"
_symmetry_group_IT_number 12
_symmetry_cell_setting 'monoclinic'
loop_
_space_group_symop_operation_xyz
x,y,z
-x,y,-z
-x,-y,-z
x,-y,z
1/2+x,1/2+y,z
1/2-x,1/2+y,-z
1/2-x,1/2-y,-z
1/2+x,1/2-y,z
loop_
_atom_site_type_symbol
_atom_site_label
_atom_site_fract_x
_atom_site_fract_y
_atom_site_fract_z
Si Si1 0.167316 0.384981 0.860156
Si Si2 0.023871 0.114484 0.645531
Si Si3 0.714277 0.111051 0.526822
Si Si4 0.027070 0.739671 0.825273
Si Si5 0.294973 0.719183 0.793520
Si Si6 0.706336 0.609285 0.853688
O O1 0.141281 0.500000 0.913829
O O2 0.235848 0.356222 0.613231
O O3 0.226073 0.358607 0.859300
O O4 0.064216 0.320288 0.057126
O O5 0.059575 0.164976 0.690662
O O6 0.090510 0.170415 0.418240
O O7 0.052497 0.000000 0.591888
O O8 0.901119 0.130104 0.870819
O O9 0.620978 0.166425 0.652506
O O10 0.809651 0.124213 0.250645
O O11 0.677871 0.000000 0.603359
O O12 0.000000 0.780374 0.000000
O O13 0.296515 0.819842 0.720469
O O14 0.250000 0.750000 0.000000
O O15 0.744117 0.500000 0.805140
#
# Coordination Sequence:
#
# PCOD8093440 Si02
#       6
#     8   8   8   8   8   8
#     4  10  21  39  65  99 136 174 220 276 333 388
#     4  11  24  43  65  97 134 171 214 269 333 393
#     4   9  18  36  66 101 136 174 214 263 332 406
#     4  10  19  35  66 102 138 175 213 266 328 404
#     4  12  26  44  67  91 125 174 232 274 324 384
#     4  10  22  42  68  97 132 174 218 265 331 405
#
# _framework density 22.699850000000001
#
# number of rings (size 3 to 8) (size 9 to 14) (size 15 to 20)
#    0.000    1.667    3.333    1.000    0.000    6.333 
#    0.000    3.333    0.000    1.000    0.000    0.000 
#    0.000    0.000    0.000    0.000    0.000    0.000 
#
# Total GULP energy -297317.673611 kJ/mol
# GULP energy per Si atom -12388.236400 kJ/mol
# Density = 2.264818 g / cm^3
# Si number density = 22.699850 Si / 1000 Ang^3
#
#
#
# Elastic Constant Matrix: (Units=GPa)
#
#
# Indices 1 2 3 4 5 6 
#
# 1 52.7248 21.4877 29.0191 0.0000 20.8193 0.0000
# 2 21.4877 126.5416 44.3520 0.0000 11.3971 0.0000
# 3 29.0191 44.3520 120.5561 0.0000 24.3992 0.0000
# 4 0.0000 0.0000 0.0000 32.4232 0.0000 5.0675
# 5 20.8193 11.3971 24.3992 0.0000 38.5903 0.0000
# 6 0.0000 0.0000 0.0000 5.0675 0.0000 21.4382
#
#
#
# Elastic Compliance Matrix: (Units=1/GPa)
#
#
# Indices 1 2 3 4 5 6 
#
# 1 0.026151 -0.002314 -0.003127 0.000000 -0.011448 0.000000
# 2 -0.002314 0.009291 -0.002934 0.000000 0.000359 0.000000
# 3 -0.003127 -0.002934 0.011020 0.000000 -0.004414 0.000000
# 4 0.000000 0.000000 0.000000 0.032025 0.000000 -0.007570
# 5 -0.011448 0.000359 -0.004414 0.000000 0.034774 0.000000
# 6 0.000000 0.000000 0.000000 -0.007570 0.000000 0.048435
#
#
# Mechanical properties :
#
#
# Convention : Reuss Voigt Hill
#
# Bulk Modulus (GPa) = 33.65442 54.39336 44.02389
# Shear Modulus (GPa) = 26.54627 32.15457 29.35042
#
# Velocity S-wave (km/s) = 3.42343 3.76774 3.59970
# Velocity P-wave (km/s) = 5.52128 6.55300 6.05914
#
# Compressibility (1/GPa) = 0.02971378
#
# Stress axis : x y z
#
# Youngs Moduli (GPa) = 38.24005 107.62607 90.74119
#
# Poissons Ratio (x) = 0.24901 0.28371
# Poissons Ratio (y) = 0.08847 0.26624
# Poissons Ratio (z) = 0.11956 0.31578
#
# Static dielectric constant tensor:
#      x y z
#    x 3.815400 0.000000 0.247560 
#    y 0.000000 4.345990 0.000000 
#    z 0.247560 0.000000 4.418610 
# 
# 
# High freq. dielectric constant tensor:
#      x y z
#    x 1.865770 0.000000 0.012030 
#    y 0.000000 1.915510 0.000000 
#    z 0.012030 0.000000 1.897910 
# 
# From -- ./inp_files/143012.got.cif
#   From: 2010.06.25/outbox.cif.g09.slc.cpg/sg12_72_cif.got.tgz:143012.got - 2010.06.28 00:19:55.
