data_PCOD8093650
_publ_section_title
;
Structure prediction by ZEFSAII (Michael W. Deem and Ramdas Pophale) SiO2 
 PCOD8093650
Probable space group: C 2/M
;
_chemical_formula_sum "Si O2"
_cell_formula_units_Z 48
_cell_length_a 24.204074
_cell_length_b 11.810443
_cell_length_c 9.033628
_cell_angle_alpha 90.000000
_cell_angle_beta 63.401045
_cell_angle_gamma 90.000000
_cell_volume 2309.049631
_symmetry_space_group_name_H-M "C 2/M"
_symmetry_group_IT_number 12
_symmetry_cell_setting 'monoclinic'
loop_
_space_group_symop_operation_xyz
x,y,z
-x,y,-z
-x,-y,-z
x,-y,z
1/2+x,1/2+y,z
1/2-x,1/2+y,-z
1/2-x,1/2-y,-z
1/2+x,1/2-y,z
loop_
_atom_site_type_symbol
_atom_site_label
_atom_site_fract_x
_atom_site_fract_y
_atom_site_fract_z
Si Si1 0.934567 0.373527 0.607328
Si Si2 0.325738 0.874309 0.536552
Si Si3 0.094875 0.000000 0.482228
Si Si4 0.672982 0.874993 0.802761
Si Si5 0.695658 0.664271 0.262745
Si Si6 0.882158 0.206505 0.906758
Si Si7 0.464450 0.500000 0.764152
O O1 0.943443 0.500000 0.659735
O O2 0.897653 0.374448 0.497275
O O3 0.901981 0.302275 0.770013
O O4 0.000000 0.314487 0.500000
O O5 0.319165 0.835047 0.375660
O O6 0.290817 0.790061 0.690303
O O7 0.296938 0.000000 0.591879
O O8 0.140429 0.109284 0.430229
O O9 0.057272 0.000000 0.376851
O O10 0.040750 0.000000 0.675540
O O11 0.739185 0.897343 0.799784
O O12 0.639923 0.000000 0.849114
O O13 0.635159 0.772530 0.923060
O O14 0.676987 0.653922 0.110622
O O15 0.935105 0.112382 0.877965
#
# Coordination Sequence:
#
# PCOD8093650 Si02
#       7
#     8   8   4   8   8   8   4
#     4   9  18  34  57  83 105 139 192 237 275 332
#     4   9  20  35  55  83 111 146 186 234 286 337
#     4   9  18  34  61  85 105 147 195 241 273 322
#     4  11  21  37  55  81 120 151 186 231 288 349
#     4  10  19  36  58  84 109 149 195 234 279 331
#     4  10  21  34  56  83 113 149 184 237 287 333
#     4   9  20  34  55  85 117 141 193 239 279 333
#
# _framework density 20.787773999999999
#
# number of rings (size 3 to 8) (size 9 to 14) (size 15 to 20)
#    0.000    2.333    0.833    1.500    7.000    0.667 
#    1.500    1.667    0.000    5.000    0.000    0.000 
#    0.000    0.000    0.000    0.000    0.000    0.000 
#
# Total GULP energy -297315.380742 kJ/mol
# GULP energy per Si atom -12388.140864 kJ/mol
# Density = 2.074046 g / cm^3
# Si number density = 20.787774 Si / 1000 Ang^3
#
#
#
# Elastic Constant Matrix: (Units=GPa)
#
#
# Indices 1 2 3 4 5 6 
#
# 1 31.9978 4.2961 -2.4796 0.0000 -14.8181 0.0000
# 2 4.2961 99.0327 31.9669 0.0000 -5.1845 0.0000
# 3 -2.4796 31.9669 46.4520 0.0000 -2.1116 0.0000
# 4 0.0000 0.0000 0.0000 36.1486 0.0000 -2.1113
# 5 -14.8181 -5.1845 -2.1116 0.0000 24.5150 0.0000
# 6 0.0000 0.0000 0.0000 -2.1113 0.0000 17.8096
#
#
#
# Elastic Compliance Matrix: (Units=1/GPa)
#
#
# Indices 1 2 3 4 5 6 
#
# 1 0.044336 -0.002158 0.005069 0.000000 0.026779 0.000000
# 2 -0.002158 0.013183 -0.009156 0.000000 0.000695 0.000000
# 3 0.005069 -0.009156 0.028261 0.000000 0.003562 0.000000
# 4 0.000000 0.000000 0.000000 0.027856 0.000000 0.003302
# 5 0.026779 0.000695 0.003562 0.000000 0.057432 0.000000
# 6 0.000000 0.000000 0.000000 0.003302 0.000000 0.056541
#
#
# Mechanical properties :
#
#
# Convention : Reuss Voigt Hill
#
# Bulk Modulus (GPa) = 13.64427 27.22770 20.43598
# Shear Modulus (GPa) = 18.90153 25.27457 22.08805
#
# Velocity S-wave (km/s) = 3.01867 3.49067 3.26321
# Velocity P-wave (km/s) = 4.32755 5.41966 4.90410
#
# Compressibility (1/GPa) = 0.07329086
#
# Stress axis : x y z
#
# Youngs Moduli (GPa) = 22.55499 75.85487 35.38471
#
# Poissons Ratio (x) = 0.16366 -0.17936
# Poissons Ratio (y) = 0.04866 0.32397
# Poissons Ratio (z) = -0.11433 0.69451
#
# Static dielectric constant tensor:
#      x y z
#    x 3.955800 0.000000 -0.026080 
#    y 0.000000 4.101830 0.000000 
#    z -0.026080 0.000000 3.391800 
# 
# 
# High freq. dielectric constant tensor:
#      x y z
#    x 1.799730 0.000000 -0.003580 
#    y 0.000000 1.834150 0.000000 
#    z -0.003580 0.000000 1.769880 
# 
# From -- ./inp_files/94953.got.cif
#   From: 2010.06.25/outbox.cif.g09.slc.cpg/sg12_48_cif.got.tgz:94953.got - 2010.06.28 00:19:55.
