data_PCOD8093217
_publ_section_title
;
Structure prediction by ZEFSAII (Michael W. Deem and Ramdas Pophale) SiO2 
 PCOD8093217
Probable space group: C 2/M
;
_chemical_formula_sum "Si O2"
_cell_formula_units_Z 64
_cell_length_a 16.224760
_cell_length_b 9.014657
_cell_length_c 21.892148
_cell_angle_alpha 90.000000
_cell_angle_beta 90.631105
_cell_angle_gamma 90.000000
_cell_volume 3201.765475
_symmetry_space_group_name_H-M "C 2/M"
_symmetry_group_IT_number 12
_symmetry_cell_setting 'monoclinic'
loop_
_space_group_symop_operation_xyz
x,y,z
-x,y,-z
-x,-y,-z
x,-y,z
1/2+x,1/2+y,z
1/2-x,1/2+y,-z
1/2-x,1/2-y,-z
1/2+x,1/2-y,z
loop_
_atom_site_type_symbol
_atom_site_label
_atom_site_fract_x
_atom_site_fract_y
_atom_site_fract_z
Si Si1 0.164176 0.328803 0.495757
Si Si2 0.576369 0.167096 0.622420
Si Si3 0.338062 0.673502 0.742218
Si Si4 0.914028 0.826096 0.618922
Si Si5 0.245559 0.676738 0.065466
Si Si6 0.091408 0.174215 0.859665
Si Si7 0.907762 0.173097 0.869929
Si Si8 0.658022 0.169692 0.749719
O O1 0.177569 0.500000 0.481401
O O2 0.250000 0.250000 0.500000
O O3 0.121036 0.302474 0.559576
O O4 0.110537 0.259229 0.441945
O O5 0.509356 0.293978 0.630901
O O6 0.639825 0.186558 0.678110
O O7 0.538645 0.000000 0.622555
O O8 0.327499 0.500000 0.730979
O O9 0.367872 0.740895 0.678043
O O10 0.401499 0.706544 0.797399
O O11 0.249111 0.739040 0.760119
O O12 0.898178 0.000000 0.609955
O O13 0.242736 0.500000 0.060097
O O14 0.329429 0.729269 0.100726
O O15 0.160951 0.730941 0.096088
O O16 0.250000 0.750000 0.000000
O O17 0.094711 0.242503 0.791981
O O18 0.002236 0.217204 0.889394
O O19 0.094167 0.000000 0.851663
O O20 0.890425 0.000000 0.884050
O O21 0.654015 0.000000 0.771124
#
# Coordination Sequence:
#
# PCOD8093217 Si02
#       8
#     8   8   8   8   8   8   8   8
#     4  11  23  40  59  79 110 150 195 247 305 367
#     4  10  22  38  55  80 116 153 192 243 301 358
#     4   9  18  34  58  86 116 154 195 240 295 357
#     4  11  22  37  58  84 115 152 199 247 297 360
#     4  11  24  42  63  91 127 162 202 249 298 354
#     4  10  22  39  61  92 126 158 198 254 307 354
#     4  10  20  39  65  89 120 162 203 243 301 362
#     4  10  19  35  60  86 115 155 199 243 294 357
#
# _framework density 19.988970999999999
#
# number of rings (size 3 to 8) (size 9 to 14) (size 15 to 20)
#    0.000    1.750    1.250    3.000    0.000    7.500 
#    0.000    6.250    0.000    0.000    0.000    0.000 
#    0.000    0.000    0.000    0.000    0.000    0.000 
#
# Total GULP energy -396727.948031 kJ/mol
# GULP energy per Si atom -12397.748376 kJ/mol
# Density = 1.994348 g / cm^3
# Si number density = 19.988971 Si / 1000 Ang^3
#
#
#
# Elastic Constant Matrix: (Units=GPa)
#
#
# Indices 1 2 3 4 5 6 
#
# 1 143.4390 45.7320 51.4956 0.0000 -4.5124 0.0000
# 2 45.7320 57.9321 42.8553 0.0000 -9.1200 0.0000
# 3 51.4956 42.8553 121.8749 0.0000 -7.9732 0.0000
# 4 0.0000 0.0000 0.0000 30.9642 0.0000 -2.3578
# 5 -4.5124 -9.1200 -7.9732 0.0000 23.7404 0.0000
# 6 0.0000 0.0000 0.0000 -2.3578 0.0000 34.6164
#
#
#
# Elastic Compliance Matrix: (Units=1/GPa)
#
#
# Indices 1 2 3 4 5 6 
#
# 1 0.009663 -0.006414 -0.001910 0.000000 -0.001269 0.000000
# 2 -0.006414 0.028563 -0.006846 0.000000 0.007454 0.000000
# 3 -0.001910 -0.006846 0.011476 0.000000 0.000861 0.000000
# 4 0.000000 0.000000 0.000000 0.032464 0.000000 0.002211
# 5 -0.001269 0.007454 0.000861 0.000000 0.045034 0.000000
# 6 0.000000 0.000000 0.000000 0.002211 0.000000 0.029039
#
#
# Mechanical properties :
#
#
# Convention : Reuss Voigt Hill
#
# Bulk Modulus (GPa) = 51.65163 67.04576 59.34870
# Shear Modulus (GPa) = 25.90252 30.07506 27.98879
#
# Velocity S-wave (km/s) = 3.60368 3.88310 3.74600
# Velocity P-wave (km/s) = 6.57355 7.32931 6.96169
#
# Compressibility (1/GPa) = 0.01936047
#
# Stress axis : x y z
#
# Youngs Moduli (GPa) = 103.49257 35.01064 87.14016
#
# Poissons Ratio (x) = 0.22457 0.16646
# Poissons Ratio (y) = 0.66384 0.59653
# Poissons Ratio (z) = 0.19769 0.23967
#
# Static dielectric constant tensor:
#      x y z
#    x 3.830840 0.000000 0.016140 
#    y 0.000000 3.584720 0.000000 
#    z 0.016140 0.000000 3.621280 
# 
# 
# High freq. dielectric constant tensor:
#      x y z
#    x 1.792980 0.000000 0.000900 
#    y 0.000000 1.763320 0.000000 
#    z 0.000900 0.000000 1.786950 
# 
# From -- ./inp_files/338841.got.cif
#   From: 2010.06.25/outbox.cif.g09.slc.cpg/sg12_170_cif.got.tgz:338841.got - 2010.06.28 00:19:55.
