data_PCOD8093376
_publ_section_title
;
Structure prediction by ZEFSAII (Michael W. Deem and Ramdas Pophale) SiO2 
 PCOD8093376
Probable space group: C 2/M
;
_chemical_formula_sum "Si O2"
_cell_formula_units_Z 48
_cell_length_a 12.421352
_cell_length_b 16.024075
_cell_length_c 12.494260
_cell_angle_alpha 90.000000
_cell_angle_beta 72.289962
_cell_angle_gamma 90.000000
_cell_volume 2369.008906
_symmetry_space_group_name_H-M "C 2/M"
_symmetry_group_IT_number 12
_symmetry_cell_setting 'monoclinic'
loop_
_space_group_symop_operation_xyz
x,y,z
-x,y,-z
-x,-y,-z
x,-y,z
1/2+x,1/2+y,z
1/2-x,1/2+y,-z
1/2-x,1/2-y,-z
1/2+x,1/2-y,z
loop_
_atom_site_type_symbol
_atom_site_label
_atom_site_fract_x
_atom_site_fract_y
_atom_site_fract_z
Si Si1 0.492055 0.095177 0.119966
Si Si2 0.228566 0.404295 0.712607
Si Si3 0.143547 0.840262 0.130922
Si Si4 0.599600 0.401346 0.762753
Si Si5 0.115103 0.900836 0.514654
Si Si6 0.277362 0.847774 0.878310
O O1 0.390620 0.139452 0.217985
O O2 0.608724 0.098276 0.148455
O O3 0.455210 0.000000 0.111851
O O4 0.500000 0.139469 0.000000
O O5 0.204909 0.500000 0.693768
O O6 0.316752 0.398570 0.783956
O O7 0.281626 0.363760 0.588714
O O8 0.182752 0.746924 0.143663
O O9 0.008457 0.850062 0.160714
O O10 0.199893 0.868989 0.003477
O O11 0.575642 0.500000 0.779722
O O12 0.627111 0.373485 0.633493
O O13 0.710377 0.375435 0.794080
O O14 0.000000 0.863744 0.500000
O O15 0.113717 0.000000 0.504114
#
# Coordination Sequence:
#
# PCOD8093376 Si02
#       6
#     8   8   8   8   8   8
#     4  10  20  35  59  83 112 154 198 237 285 362
#     4  10  19  35  62  89 110 149 206 247 281 352
#     4  11  23  37  59  84 121 162 191 242 304 361
#     4  11  23  40  65  93 120 155 205 259 300 349
#     4   9  17  34  61  89 116 150 198 253 302 347
#     4  11  25  38  56  87 128 157 191 241 312 360
#
# _framework density 20.261638999999999
#
# number of rings (size 3 to 8) (size 9 to 14) (size 15 to 20)
#    0.000    1.667    3.333    1.500    2.333    2.667 
#    0.000    1.667    3.667    4.000    0.000    0.000 
#    0.000    0.000    0.000    0.000    0.000    0.000 
#
# Total GULP energy -297557.352874 kJ/mol
# GULP energy per Si atom -12398.223036 kJ/mol
# Density = 2.021552 g / cm^3
# Si number density = 20.261639 Si / 1000 Ang^3
#
#
#
# Elastic Constant Matrix: (Units=GPa)
#
#
# Indices 1 2 3 4 5 6 
#
# 1 161.8758 10.1559 81.1924 0.0000 -6.9071 0.0000
# 2 10.1559 27.5368 22.5743 0.0000 -3.7434 0.0000
# 3 81.1924 22.5743 160.3717 0.0000 -15.8219 0.0000
# 4 0.0000 0.0000 0.0000 11.8384 0.0000 -2.1443
# 5 -6.9071 -3.7434 -15.8219 0.0000 44.0113 0.0000
# 6 0.0000 0.0000 0.0000 -2.1443 0.0000 22.9207
#
#
#
# Elastic Compliance Matrix: (Units=1/GPa)
#
#
# Indices 1 2 3 4 5 6 
#
# 1 0.008286 0.000421 -0.004274 0.000000 -0.000200 0.000000
# 2 0.000421 0.041165 -0.005863 0.000000 0.001459 0.000000
# 3 -0.004274 -0.005863 0.009444 0.000000 0.002226 0.000000
# 4 0.000000 0.000000 0.000000 0.085927 0.000000 0.008039
# 5 -0.000200 0.001459 0.002226 0.000000 0.023614 0.000000
# 6 0.000000 0.000000 0.000000 0.008039 0.000000 0.044381
#
#
# Mechanical properties :
#
#
# Convention : Reuss Voigt Hill
#
# Bulk Modulus (GPa) = 25.34098 64.18108 44.76103
# Shear Modulus (GPa) = 20.37439 31.47819 25.92629
#
# Velocity S-wave (km/s) = 3.17450 3.94583 3.58100
# Velocity P-wave (km/s) = 5.09614 7.24599 6.26399
#
# Compressibility (1/GPa) = 0.03946177
#
# Stress axis : x y z
#
# Youngs Moduli (GPa) = 120.67871 24.29243 105.88301
#
# Poissons Ratio (x) = -0.01022 0.45257
# Poissons Ratio (y) = -0.05075 0.62084
# Poissons Ratio (z) = 0.51581 0.14244
#
# Static dielectric constant tensor:
#      x y z
#    x 3.697730 0.000000 -0.277740 
#    y 0.000000 3.295360 0.000000 
#    z -0.277740 0.000000 4.046940 
# 
# 
# High freq. dielectric constant tensor:
#      x y z
#    x 1.795480 0.000000 -0.012970 
#    y 0.000000 1.757540 0.000000 
#    z -0.012970 0.000000 1.798960 
# 
# From -- ./inp_files/131087.got.cif
#   From: 2010.06.25/outbox.cif.g09.slc.cpg/sg12_66_cif.got.tgz:131087.got - 2010.06.28 00:19:55.
