data_PCOD8093809
_publ_section_title
;
Structure prediction by ZEFSAII (Michael W. Deem and Ramdas Pophale) SiO2 
 PCOD8093809
Probable space group: C 2/M
;
_chemical_formula_sum "Si O2"
_cell_formula_units_Z 56
_cell_length_a 20.106062
_cell_length_b 8.966151
_cell_length_c 19.376698
_cell_angle_alpha 90.000000
_cell_angle_beta 122.474257
_cell_angle_gamma 90.000000
_cell_volume 2946.905962
_symmetry_space_group_name_H-M "C 2/M"
_symmetry_group_IT_number 12
_symmetry_cell_setting 'monoclinic'
loop_
_space_group_symop_operation_xyz
x,y,z
-x,y,-z
-x,-y,-z
x,-y,z
1/2+x,1/2+y,z
1/2-x,1/2+y,-z
1/2-x,1/2-y,-z
1/2+x,1/2-y,z
loop_
_atom_site_type_symbol
_atom_site_label
_atom_site_fract_x
_atom_site_fract_y
_atom_site_fract_z
Si Si1 0.484278 0.177254 0.567688
Si Si2 0.960746 0.671476 0.155324
Si Si3 0.119918 0.173647 0.268014
Si Si4 0.168057 0.676320 0.435159
Si Si5 0.288332 0.673962 0.816952
Si Si6 0.885186 0.676499 0.254965
Si Si7 0.916375 0.328852 0.979315
O O1 0.500000 0.242310 0.500000
O O2 0.397828 0.226264 0.545824
O O3 0.550525 0.243632 0.656097
O O4 0.489967 0.000000 0.570103
O O5 0.988873 0.500000 0.180174
O O6 0.907833 0.723542 0.190080
O O7 0.036089 0.777446 0.191205
O O8 0.909075 0.690060 0.057649
O O9 0.140666 0.272374 0.345083
O O10 0.184407 0.207185 0.245502
O O11 0.118597 0.000000 0.287569
O O12 0.178682 0.500000 0.440940
O O13 0.250000 0.750000 0.500000
O O14 0.287798 0.500000 0.832470
O O15 0.200824 0.742870 0.775963
O O16 0.344511 0.743919 0.905243
O O17 0.883696 0.500000 0.262436
O O18 0.910833 0.500000 0.952845
O O19 0.000000 0.262665 0.000000
#
# Coordination Sequence:
#
# PCOD8093809 Si02
#       7
#     8   8   8   8   8   8   8
#     4   9  18  33  59  86 109 144 187 226 270 330
#     4  10  19  36  60  81 107 151 193 229 278 338
#     4  11  22  36  57  85 115 148 187 233 279 331
#     4  11  23  39  61  88 116 149 186 232 279 331
#     4  10  22  36  56  84 114 147 189 239 280 327
#     4   9  18  35  56  80 110 147 190 230 275 335
#     4  10  20  34  55  82 114 148 187 233 284 343
#
# _framework density 19.002980999999998
#
# number of rings (size 3 to 8) (size 9 to 14) (size 15 to 20)
#    0.000    2.000    2.857    0.857    2.000    2.000 
#    0.000    0.714    0.000    1.714    0.000    0.000 
#    0.000    0.000    0.000    0.000    0.000    0.000 
#
# Total GULP energy -347243.136086 kJ/mol
# GULP energy per Si atom -12401.540575 kJ/mol
# Density = 1.895973 g / cm^3
# Si number density = 19.002981 Si / 1000 Ang^3
#
#
#
# Elastic Constant Matrix: (Units=GPa)
#
#
# Indices 1 2 3 4 5 6 
#
# 1 171.0364 43.9396 75.4070 0.0000 2.5771 0.0000
# 2 43.9396 42.1618 33.5302 0.0000 -0.2122 0.0000
# 3 75.4070 33.5302 127.1993 0.0000 -5.7233 0.0000
# 4 0.0000 0.0000 0.0000 29.7178 0.0000 4.7859
# 5 2.5771 -0.2122 -5.7233 0.0000 37.1250 0.0000
# 6 0.0000 0.0000 0.0000 4.7859 0.0000 21.2879
#
#
#
# Elastic Compliance Matrix: (Units=1/GPa)
#
#
# Indices 1 2 3 4 5 6 
#
# 1 0.009236 -0.006620 -0.003787 0.000000 -0.001263 0.000000
# 2 -0.006620 0.034795 -0.005254 0.000000 -0.000152 0.000000
# 3 -0.003787 -0.005254 0.011583 0.000000 0.002019 0.000000
# 4 0.000000 0.000000 0.000000 0.034914 0.000000 -0.007849
# 5 -0.001263 -0.000152 0.002019 0.000000 0.027334 0.000000
# 6 0.000000 0.000000 0.000000 -0.007849 0.000000 0.048740
#
#
# Mechanical properties :
#
#
# Convention : Reuss Voigt Hill
#
# Bulk Modulus (GPa) = 41.16784 71.79457 56.48121
# Shear Modulus (GPa) = 24.26921 30.12750 27.19836
#
# Velocity S-wave (km/s) = 3.57757 3.98604 3.78731
# Velocity P-wave (km/s) = 6.22706 7.68423 6.99370
#
# Compressibility (1/GPa) = 0.02429080
#
# Stress axis : x y z
#
# Youngs Moduli (GPa) = 108.27010 28.73943 86.33549
#
# Poissons Ratio (x) = 0.19026 0.32697
# Poissons Ratio (y) = 0.71676 0.45364
# Poissons Ratio (z) = 0.41004 0.15101
#
# Static dielectric constant tensor:
#      x y z
#    x 3.775900 0.000000 -0.013030 
#    y 0.000000 3.224480 0.000000 
#    z -0.013030 0.000000 3.646890 
# 
# 
# High freq. dielectric constant tensor:
#      x y z
#    x 1.748360 0.000000 -0.005690 
#    y 0.000000 1.704990 0.000000 
#    z -0.005690 0.000000 1.749870 
# 
# From -- ./inp_files/275285.got.cif
#   From: 2010.06.25/outbox.cif.g09.slc.cpg/sg12_138_cif.got.tgz:275285.got - 2010.06.28 00:19:55.
