data_PCOD8093116
_publ_section_title
;
Structure prediction by ZEFSAII (Michael W. Deem and Ramdas Pophale) SiO2 
 PCOD8093116
Probable space group: C 2/M
;
_chemical_formula_sum "Si O2"
_cell_formula_units_Z 56
_cell_length_a 10.905036
_cell_length_b 15.963368
_cell_length_c 15.427537
_cell_angle_alpha 90.000000
_cell_angle_beta 101.192729
_cell_angle_gamma 90.000000
_cell_volume 2634.561183
_symmetry_space_group_name_H-M "C 2/M"
_symmetry_group_IT_number 12
_symmetry_cell_setting 'monoclinic'
loop_
_space_group_symop_operation_xyz
x,y,z
-x,y,-z
-x,-y,-z
x,-y,z
1/2+x,1/2+y,z
1/2-x,1/2+y,-z
1/2-x,1/2-y,-z
1/2+x,1/2-y,z
loop_
_atom_site_type_symbol
_atom_site_label
_atom_site_fract_x
_atom_site_fract_y
_atom_site_fract_z
Si Si1 0.546789 0.228302 0.597753
Si Si2 0.284936 0.350759 0.704866
Si Si3 0.795445 0.093260 0.189389
Si Si4 0.923851 0.694158 0.758711
Si Si5 0.995223 0.090383 0.359088
Si Si6 0.347225 0.905235 0.150181
Si Si7 0.134740 0.900306 0.987652
O O1 0.500000 0.190298 0.500000
O O2 0.689636 0.205060 0.635425
O O3 0.459838 0.189631 0.661651
O O4 0.540936 0.329733 0.588323
O O5 0.382753 0.289998 0.770074
O O6 0.358566 0.407788 0.646501
O O7 0.214872 0.409086 0.763649
O O8 0.694569 0.138280 0.235179
O O9 0.824344 0.136671 0.100509
O O10 0.924242 0.094569 0.258155
O O11 0.744657 0.000000 0.166183
O O12 0.039266 0.661949 0.834045
O O13 0.967791 0.000000 0.401807
O O14 0.394089 0.000000 0.135092
O O15 0.244693 0.873286 0.067954
O O16 0.122620 0.000000 0.980271
O O17 0.000000 0.863560 0.000000
#
# Coordination Sequence:
#
# PCOD8093116 Si02
#       7
#     8   8   8   8   8   8   8
#     4  10  22  40  64  83 112 154 197 237 293 362
#     4  10  20  38  60  83 118 155 193 232 296 358
#     4  10  19  35  59  86 120 157 194 240 292 343
#     4  10  21  36  58  85 118 151 191 237 298 352
#     4  10  20  35  60  87 113 150 196 243 288 342
#     4  10  20  36  60  85 114 155 203 242 278 339
#     4   9  18  33  57  89 118 154 203 244 281 336
#
# _framework density 21.255913
#
# number of rings (size 3 to 8) (size 9 to 14) (size 15 to 20)
#    0.000    2.143    1.429    1.714    0.000    5.429 
#    0.000    2.857    6.286   14.571    0.000    0.000 
#    0.000    0.000    0.000    0.000    0.000    0.000 
#
# Total GULP energy -346984.668994 kJ/mol
# GULP energy per Si atom -12392.309607 kJ/mol
# Density = 2.120753 g / cm^3
# Si number density = 21.255913 Si / 1000 Ang^3
#
#
#
# Elastic Constant Matrix: (Units=GPa)
#
#
# Indices 1 2 3 4 5 6 
#
# 1 110.7822 38.3541 42.0353 0.0000 8.5360 0.0000
# 2 38.3541 67.2527 30.6006 0.0000 6.5001 0.0000
# 3 42.0353 30.6006 103.6099 0.0000 2.1222 0.0000
# 4 0.0000 0.0000 0.0000 13.0821 0.0000 4.1579
# 5 8.5360 6.5001 2.1222 0.0000 23.4115 0.0000
# 6 0.0000 0.0000 0.0000 4.1579 0.0000 25.2877
#
#
#
# Elastic Compliance Matrix: (Units=1/GPa)
#
#
# Indices 1 2 3 4 5 6 
#
# 1 0.012339 -0.005221 -0.003408 0.000000 -0.002740 0.000000
# 2 -0.005221 0.019834 -0.003673 0.000000 -0.003270 0.000000
# 3 -0.003408 -0.003673 0.012095 0.000000 0.001166 0.000000
# 4 0.000000 0.000000 0.000000 0.080655 0.000000 -0.013262
# 5 -0.002740 -0.003270 0.001166 0.000000 0.044515 0.000000
# 6 0.000000 0.000000 0.000000 -0.013262 0.000000 0.041725
#
#
# Mechanical properties :
#
#
# Convention : Reuss Voigt Hill
#
# Bulk Modulus (GPa) = 50.85304 55.95830 53.40567
# Shear Modulus (GPa) = 20.63377 23.73326 22.18351
#
# Velocity S-wave (km/s) = 3.11904 3.34510 3.23405
# Velocity P-wave (km/s) = 6.07843 6.42672 6.25500
#
# Compressibility (1/GPa) = 0.01966451
#
# Stress axis : x y z
#
# Youngs Moduli (GPa) = 81.04703 50.41813 82.67953
#
# Poissons Ratio (x) = 0.26325 0.28174
# Poissons Ratio (y) = 0.42317 0.30365
# Poissons Ratio (z) = 0.27618 0.18517
#
# Static dielectric constant tensor:
#      x y z
#    x 3.926870 0.000000 0.112310 
#    y 0.000000 3.816270 0.000000 
#    z 0.112310 0.000000 3.651150 
# 
# 
# High freq. dielectric constant tensor:
#      x y z
#    x 1.840100 0.000000 0.007010 
#    y 0.000000 1.818480 0.000000 
#    z 0.007010 0.000000 1.815720 
# 
# From -- ./inp_files/206780.got.cif
#   From: 2010.06.25/outbox.cif.g09.slc.cpg/sg12_104_cif.got.tgz:206780.got - 2010.06.28 00:19:55.
