data_PCOD8093427
_publ_section_title
;
Structure prediction by ZEFSAII (Michael W. Deem and Ramdas Pophale) SiO2 
 PCOD8093427
Probable space group: C 2/M
;
_chemical_formula_sum "Si O2"
_cell_formula_units_Z 56
_cell_length_a 10.109510
_cell_length_b 15.236451
_cell_length_c 24.453510
_cell_angle_alpha 90.000000
_cell_angle_beta 52.889828
_cell_angle_gamma 90.000000
_cell_volume 3003.815145
_symmetry_space_group_name_H-M "C 2/M"
_symmetry_group_IT_number 12
_symmetry_cell_setting 'monoclinic'
loop_
_space_group_symop_operation_xyz
x,y,z
-x,y,-z
-x,-y,-z
x,-y,z
1/2+x,1/2+y,z
1/2-x,1/2+y,-z
1/2-x,1/2-y,-z
1/2+x,1/2-y,z
loop_
_atom_site_type_symbol
_atom_site_label
_atom_site_fract_x
_atom_site_fract_y
_atom_site_fract_z
Si Si1 0.025802 0.899998 0.082718
Si Si2 0.129343 0.901715 0.643656
Si Si3 0.147397 0.329929 0.502305
Si Si4 0.905894 0.246805 0.737573
Si Si5 0.023561 0.743394 0.829342
Si Si6 0.229577 0.600052 0.075528
Si Si7 0.074668 0.599153 0.350084
O O1 0.040682 0.835833 0.130510
O O2 0.856932 0.878921 0.092508
O O3 0.023867 0.000000 0.104801
O O4 0.182333 0.884618 0.004450
O O5 0.230625 0.892469 0.562140
O O6 0.249760 0.883952 0.664761
O O7 0.979115 0.832936 0.683422
O O8 0.056224 0.000000 0.664189
O O9 0.250000 0.250000 0.500000
O O10 0.000000 0.294219 0.500000
O O11 0.074905 0.385685 0.570389
O O12 0.001956 0.254748 0.770208
O O13 0.714386 0.227960 0.796214
O O14 0.937960 0.337595 0.698436
O O15 0.926460 0.663750 0.881804
O O16 0.167105 0.500000 0.095603
O O17 0.062275 0.500000 0.331150
#
# Coordination Sequence:
#
# PCOD8093427 Si02
#       7
#     8   8   8   8   8   8   8
#     4   9  19  38  64  88 113 152 195 237 286 343
#     4  10  21  39  61  86 116 153 198 242 290 346
#     4  10  19  35  65  87 112 147 193 250 294 334
#     4  12  24  37  58  85 120 162 191 234 288 346
#     4  12  23  38  59  88 121 154 195 232 290 344
#     4   9  19  38  63  89 115 148 195 242 284 338
#     4  10  21  39  62  86 113 154 203 240 285 348
#
# _framework density 18.642958
#
# number of rings (size 3 to 8) (size 9 to 14) (size 15 to 20)
#    0.000    1.714    4.286    1.714    0.000    4.000 
#    0.000    0.000    0.000    2.571    0.000    0.000 
#    0.000    0.000    0.000    0.000    0.000    0.000 
#
# Total GULP energy -347292.333314 kJ/mol
# GULP energy per Si atom -12403.297618 kJ/mol
# Density = 1.860053 g / cm^3
# Si number density = 18.642958 Si / 1000 Ang^3
#
#
#
# Elastic Constant Matrix: (Units=GPa)
#
#
# Indices 1 2 3 4 5 6 
#
# 1 41.1748 42.5725 28.5118 -0.0001 0.4462 0.0001
# 2 42.5725 151.8804 68.3035 0.0000 -3.6714 0.0000
# 3 28.5118 68.3035 94.9321 -0.0003 -3.7098 0.0001
# 4 -0.0001 0.0000 -0.0003 20.9231 0.0001 4.2481
# 5 0.4462 -3.6714 -3.7098 0.0001 33.8714 0.0000
# 6 0.0001 0.0000 0.0001 4.2481 0.0000 31.0282
#
#
#
# Elastic Compliance Matrix: (Units=1/GPa)
#
#
# Indices 1 2 3 4 5 6 
#
# 1 0.035995 -0.007747 -0.005311 0.000000 -0.001896 0.000000
# 2 -0.007747 0.011404 -0.005851 0.000000 0.000697 0.000000
# 3 -0.005311 -0.005851 0.016387 0.000000 0.001231 0.000000
# 4 0.000000 0.000000 0.000000 0.049161 0.000000 -0.006731
# 5 -0.001896 0.000697 0.001231 0.000000 0.029759 0.000000
# 6 0.000000 0.000000 0.000000 -0.006731 0.000000 0.033150
#
#
# Mechanical properties :
#
#
# Convention : Reuss Voigt Hill
#
# Bulk Modulus (GPa) = 38.50932 62.97366 50.74149
# Shear Modulus (GPa) = 22.48925 27.07114 24.78020
#
# Velocity S-wave (km/s) = 3.47697 3.81476 3.64977
# Velocity P-wave (km/s) = 6.06796 7.29762 6.71102
#
# Compressibility (1/GPa) = 0.02596774
#
# Stress axis : x y z
#
# Youngs Moduli (GPa) = 27.78192 87.69010 61.02454
#
# Poissons Ratio (x) = 0.67932 0.32409
# Poissons Ratio (y) = 0.21522 0.35706
# Poissons Ratio (z) = 0.14755 0.51308
#
# Static dielectric constant tensor:
#      x y z
#    x 3.227370 0.000000 -0.054350 
#    y 0.000000 3.499270 0.000000 
#    z -0.054350 0.000000 3.543900 
# 
# 
# High freq. dielectric constant tensor:
#      x y z
#    x 1.701340 0.000000 -0.002720 
#    y 0.000000 1.729690 0.000000 
#    z -0.002720 0.000000 1.738010 
# 
# From -- ./inp_files/332820.got.cif
#   From: 2010.06.25/outbox.cif.g09.slc.cpg/sg12_167_cif.got.tgz:332820.got - 2010.06.28 00:19:55.
