data_PCOD8093414
_publ_section_title
;
Structure prediction by ZEFSAII (Michael W. Deem and Ramdas Pophale) SiO2 
 PCOD8093414
Probable space group: C 2/M
;
_chemical_formula_sum "Si O2"
_cell_formula_units_Z 64
_cell_length_a 11.851138
_cell_length_b 28.912422
_cell_length_c 17.698509
_cell_angle_alpha 90.000000
_cell_angle_beta 150.389614
_cell_angle_gamma 90.000000
_cell_volume 2996.371102
_symmetry_space_group_name_H-M "C 2/M"
_symmetry_group_IT_number 12
_symmetry_cell_setting 'monoclinic'
loop_
_space_group_symop_operation_xyz
x,y,z
-x,y,-z
-x,-y,-z
x,-y,z
1/2+x,1/2+y,z
1/2-x,1/2+y,-z
1/2-x,1/2-y,-z
1/2+x,1/2-y,z
loop_
_atom_site_type_symbol
_atom_site_label
_atom_site_fract_x
_atom_site_fract_y
_atom_site_fract_z
Si Si1 0.122800 0.201545 0.152672
Si Si2 0.630703 0.946549 0.377654
Si Si3 0.143376 0.608800 0.657199
Si Si4 0.263100 0.298311 0.229568
Si Si5 0.440530 0.392917 0.344308
Si Si6 0.521858 0.050350 0.149167
Si Si7 0.736490 0.184683 0.037174
Si Si8 0.916380 0.087342 0.158770
O O1 0.265370 0.155379 0.250512
O O2 0.309831 0.243573 0.269237
O O3 0.918459 0.213365 0.092969
O O4 0.000000 0.200273 0.000000
O O5 0.505044 0.920865 0.372072
O O6 0.480368 0.942529 0.214604
O O7 0.868767 0.919938 0.496595
O O8 0.678238 0.000000 0.427747
O O9 0.355725 0.576344 0.756276
O O10 0.000000 0.623455 0.500000
O O11 0.445335 0.337171 0.364933
O O12 0.258234 0.305065 0.137622
O O13 0.026545 0.307350 0.136543
O O14 0.185316 0.410655 0.210686
O O15 0.497534 0.404336 0.290985
O O16 0.636315 0.000000 0.202673
O O17 0.276698 0.048377 0.964005
O O18 0.794956 0.131945 0.052552
#
# Coordination Sequence:
#
# PCOD8093414 Si02
#       8
#     8   8   8   8   8   8   8   8
#     4  11  23  36  66  98 127 169 213 260 314 377
#     4  11  26  46  66  90 129 174 211 263 330 389
#     4  11  25  47  64  89 131 170 213 267 323 378
#     4  10  19  35  63  94 129 167 209 254 312 372
#     4  11  21  41  68  94 130 171 213 252 320 388
#     4  11  24  40  62  97 131 157 206 279 327 370
#     4   9  18  35  56  90 132 156 202 260 312 357
#     4  10  21  39  67  92 123 167 209 268 312 371
#
# _framework density 21.359169999999999
#
# number of rings (size 3 to 8) (size 9 to 14) (size 15 to 20)
#    0.000    1.500    3.750    1.500    3.500    3.250 
#    0.000    3.125    0.000    0.000    0.000    0.000 
#    0.000    0.000    0.000    0.000    0.000    0.000 
#
# Total GULP energy -396522.771430 kJ/mol
# GULP energy per Si atom -12391.336607 kJ/mol
# Density = 2.131056 g / cm^3
# Si number density = 21.359170 Si / 1000 Ang^3
#
#
#
# Elastic Constant Matrix: (Units=GPa)
#
#
# Indices 1 2 3 4 5 6 
#
# 1 82.5765 39.9441 11.8404 0.0013 20.1151 -0.0004
# 2 39.9441 118.4050 27.8345 -0.0005 5.2127 0.0000
# 3 11.8404 27.8345 58.6040 0.0023 11.8066 0.0005
# 4 0.0013 -0.0005 0.0023 8.3127 0.0022 16.0393
# 5 20.1151 5.2127 11.8066 0.0022 26.3053 -0.0002
# 6 -0.0004 0.0000 0.0005 16.0393 -0.0002 21.3591
#
#
#
# Elastic Compliance Matrix: (Units=1/GPa)
#
#
# Indices 1 2 3 4 5 6 
#
# 1 0.017968 -0.005913 0.001880 0.000001 -0.013412 -0.000001
# 2 -0.005913 0.011454 -0.005166 -0.000004 0.004571 0.000003
# 3 0.001880 -0.005166 0.021132 0.000006 -0.009898 -0.000005
# 4 0.000001 -0.000004 0.000006 -0.267968 0.000021 0.201226
# 5 -0.013412 0.004571 -0.009898 0.000021 0.051808 -0.000016
# 6 -0.000001 0.000003 -0.000005 0.201226 -0.000016 -0.104289
#
#
# Mechanical properties :
#
#
# Convention : Reuss Voigt Hill
#
# Bulk Modulus (GPa) = 31.09932 46.53593 38.81763
# Shear Modulus (GPa) = -20.76581 23.19319 1.21369
#
# Velocity S-wave (km/s) = -3.12143 3.29882 0.75463
# Velocity P-wave (km/s) = 1.26519 6.02862 4.35574
#
# Compressibility (1/GPa) = 0.03215504
#
# Stress axis : x y z
#
# Youngs Moduli (GPa) = 55.65578 87.30921 47.32233
#
# Poissons Ratio (x) = 0.51625 -0.08897
# Poissons Ratio (y) = 0.32909 0.24447
# Poissons Ratio (z) = -0.10464 0.45105
#
# Static dielectric constant tensor:
#      x y z
#    x 3.913300 0.000000 0.131410 
#    y 0.000000 4.052280 0.000000 
#    z 0.131410 0.000000 3.685940 
# 
# 
# High freq. dielectric constant tensor:
#      x y z
#    x 1.846300 0.000000 0.004650 
#    y 0.000000 1.845440 0.000000 
#    z 0.004650 0.000000 1.810030 
# 
# From -- ./inp_files/266299.got.cif
#   From: 2010.06.25/outbox.cif.g09.slc.cpg/sg12_134_cif.got.tgz:266299.got - 2010.06.28 00:19:55.
