data_PCOD8093011
_publ_section_title
;
Structure prediction by ZEFSAII (Michael W. Deem and Ramdas Pophale) SiO2 
 PCOD8093011
Probable space group: C 2/M
;
_chemical_formula_sum "Si O2"
_cell_formula_units_Z 64
_cell_length_a 22.482962
_cell_length_b 18.296359
_cell_length_c 12.174631
_cell_angle_alpha 90.000000
_cell_angle_beta 44.020770
_cell_angle_gamma 90.000000
_cell_volume 3480.232420
_symmetry_space_group_name_H-M "C 2/M"
_symmetry_group_IT_number 12
_symmetry_cell_setting 'monoclinic'
loop_
_space_group_symop_operation_xyz
x,y,z
-x,y,-z
-x,-y,-z
x,-y,z
1/2+x,1/2+y,z
1/2-x,1/2+y,-z
1/2-x,1/2-y,-z
1/2+x,1/2-y,z
loop_
_atom_site_type_symbol
_atom_site_label
_atom_site_fract_x
_atom_site_fract_y
_atom_site_fract_z
Si Si1 0.011806 0.842473 0.360666
Si Si2 0.813887 0.084883 0.826973
Si Si3 0.827093 0.141899 0.574843
Si Si4 0.018632 0.687574 0.285938
Si Si5 0.172081 0.689282 0.405379
Si Si6 0.715141 0.917760 0.531006
Si Si7 0.521305 0.082896 0.848532
Si Si8 0.705389 0.820174 0.116022
O O1 0.092113 0.896090 0.251569
O O2 0.022190 0.775201 0.261703
O O3 0.000000 0.809158 0.500000
O O4 0.925822 0.886044 0.442642
O O5 0.789493 0.125269 0.745760
O O6 0.807228 0.000000 0.813932
O O7 0.746339 0.107638 0.009476
O O8 0.821234 0.228162 0.559719
O O9 0.780551 0.098395 0.541549
O O10 0.103175 0.671919 0.243571
O O11 0.928851 0.665846 0.464962
O O12 0.027233 0.641682 0.162517
O O13 0.225887 0.637600 0.415574
O O14 0.220964 0.682345 0.225190
O O15 0.621996 0.908648 0.704930
O O16 0.731018 0.000000 0.466973
O O17 0.491494 0.000000 0.858853
O O18 0.500000 0.104031 0.000000
O O19 0.750000 0.750000 0.000000
#
# Coordination Sequence:
#
# PCOD8093011 Si02
#       8
#     8   8   8   8   8   8   8   8
#     4   9  18  35  57  81 111 146 181 230 286 336
#     4  11  23  35  54  88 119 145 182 235 292 336
#     4  10  19  35  60  85 110 148 193 235 280 343
#     4  10  19  35  59  82 109 151 189 223 281 341
#     4  10  21  38  59  82 115 151 192 234 281 340
#     4  10  21  36  55  81 114 152 193 236 282 334
#     4   9  20  35  51  77 116 151 184 238 289 327
#     4  12  21  36  58  85 114 149 187 231 281 335
#
# _framework density 18.389576000000002
#
# number of rings (size 3 to 8) (size 9 to 14) (size 15 to 20)
#    0.000    1.875    2.500    2.625    1.750    3.750 
#    0.000    0.000    0.000    5.625    0.000    1.750 
#    0.000    0.000    0.000    0.000    0.000    0.000 
#
# Total GULP energy -396674.100720 kJ/mol
# GULP energy per Si atom -12396.065648 kJ/mol
# Density = 1.834772 g / cm^3
# Si number density = 18.389576 Si / 1000 Ang^3
#
#
#
# Elastic Constant Matrix: (Units=GPa)
#
#
# Indices 1 2 3 4 5 6 
#
# 1 89.9607 32.0338 23.1047 0.0000 4.3445 0.0000
# 2 32.0338 95.7958 28.2513 0.0000 9.4537 0.0000
# 3 23.1047 28.2513 75.0195 0.0000 14.6676 0.0000
# 4 0.0000 0.0000 0.0000 25.4161 0.0000 3.4326
# 5 4.3445 9.4537 14.6676 0.0000 24.7092 0.0000
# 6 0.0000 0.0000 0.0000 3.4326 0.0000 30.9352
#
#
#
# Elastic Compliance Matrix: (Units=1/GPa)
#
#
# Indices 1 2 3 4 5 6 
#
# 1 0.013093 -0.003622 -0.002816 0.000000 0.000755 0.000000
# 2 -0.003622 0.012844 -0.003264 0.000000 -0.002340 0.000000
# 3 -0.002816 -0.003264 0.017066 0.000000 -0.008387 0.000000
# 4 0.000000 0.000000 0.000000 0.039944 0.000000 -0.004432
# 5 0.000755 -0.002340 -0.008387 0.000000 0.046212 0.000000
# 6 0.000000 0.000000 0.000000 -0.004432 0.000000 0.032817
#
#
# Mechanical properties :
#
#
# Convention : Reuss Voigt Hill
#
# Bulk Modulus (GPa) = 42.37569 47.50617 44.94093
# Shear Modulus (GPa) = 26.42088 28.03785 27.22936
#
# Velocity S-wave (km/s) = 3.79454 3.90893 3.85216
# Velocity P-wave (km/s) = 6.50318 6.80163 6.65408
#
# Compressibility (1/GPa) = 0.02359843
#
# Stress axis : x y z
#
# Youngs Moduli (GPa) = 76.37958 77.86032 58.59638
#
# Poissons Ratio (x) = 0.28203 0.16500
# Poissons Ratio (y) = 0.27666 0.19124
# Poissons Ratio (z) = 0.21508 0.25411
#
# Static dielectric constant tensor:
#      x y z
#    x 3.393510 0.000000 -0.083280 
#    y 0.000000 3.393620 0.000000 
#    z -0.083280 0.000000 3.441780 
# 
# 
# High freq. dielectric constant tensor:
#      x y z
#    x 1.708770 0.000000 -0.008540 
#    y 0.000000 1.708590 0.000000 
#    z -0.008540 0.000000 1.703010 
# 
# From -- ./inp_files/168744.got.cif
#   From: 2010.06.25/outbox.cif.g09.slc.cpg/sg12_85_cif.got.tgz:168744.got - 2010.06.28 00:19:55.
