data_PCOD8093621
_publ_section_title
;
Structure prediction by ZEFSAII (Michael W. Deem and Ramdas Pophale) SiO2 
 PCOD8093621
Probable space group: C 2/M
;
_chemical_formula_sum "Si O2"
_cell_formula_units_Z 56
_cell_length_a 23.561990
_cell_length_b 14.913203
_cell_length_c 22.292127
_cell_angle_alpha 90.000000
_cell_angle_beta 21.539141
_cell_angle_gamma 90.000000
_cell_volume 2875.823709
_symmetry_space_group_name_H-M "C 2/M"
_symmetry_group_IT_number 12
_symmetry_cell_setting 'monoclinic'
loop_
_space_group_symop_operation_xyz
x,y,z
-x,y,-z
-x,-y,-z
x,-y,z
1/2+x,1/2+y,z
1/2-x,1/2+y,-z
1/2-x,1/2-y,-z
1/2+x,1/2-y,z
loop_
_atom_site_type_symbol
_atom_site_label
_atom_site_fract_x
_atom_site_fract_y
_atom_site_fract_z
Si Si1 0.118860 0.896400 0.936525
Si Si2 0.356309 0.752216 0.714504
Si Si3 0.263150 0.799404 0.048675
Si Si4 0.985360 0.898431 0.298078
Si Si5 0.954411 0.797226 0.205110
Si Si6 0.674051 0.695677 0.433974
Si Si7 0.179086 0.603941 0.818775
O O1 0.275025 0.840443 0.766476
O O2 0.165757 0.000000 0.896486
O O3 0.000000 0.879548 0.000000
O O4 0.040383 0.864519 0.075323
O O5 0.334138 0.758506 0.807822
O O6 0.541746 0.744090 0.522413
O O7 0.273249 0.661245 0.774534
O O8 0.171388 0.893443 0.130001
O O9 0.250000 0.750000 0.000000
O O10 0.444716 0.796444 0.889026
O O11 0.938463 0.843762 0.285118
O O12 0.891240 0.859733 0.446472
O O13 0.937083 0.000000 0.335157
O O14 0.785271 0.774352 0.347635
O O15 0.765886 0.626203 0.302248
O O16 0.209188 0.500000 0.803641
O O17 0.000000 0.629597 0.000000
#
# Coordination Sequence:
#
# PCOD8093621 Si02
#       7
#     8   8   8   8   8   8   8
#     4  10  20  36  59  84 110 146 193 238 280 332
#     4  10  20  35  56  81 112 147 179 227 286 335
#     4   8  17  33  55  77 101 138 182 223 269 326
#     4  10  20  35  55  81 111 145 188 236 284 335
#     4  10  19  36  58  80 110 150 191 230 280 338
#     4  11  22  36  56  81 115 151 185 227 287 347
#     4  11  23  38  58  84 112 147 192 236 281 340
#
# _framework density 19.472681999999999
#
# number of rings (size 3 to 8) (size 9 to 14) (size 15 to 20)
#    0.000    2.000    0.000    4.714    0.000    3.429 
#    0.000    2.857    0.000    3.429    0.000    0.000 
#    0.000    0.000    0.000    0.000    0.000    0.000 
#
# Total GULP energy -346966.186302 kJ/mol
# GULP energy per Si atom -12391.649511 kJ/mol
# Density = 1.942836 g / cm^3
# Si number density = 19.472682 Si / 1000 Ang^3
#
#
#
# Elastic Constant Matrix: (Units=GPa)
#
#
# Indices 1 2 3 4 5 6 
#
# 1 90.4204 37.6186 46.5447 -0.0091 -5.7504 0.0090
# 2 37.6186 107.7445 63.9178 0.0235 -17.8763 -0.0055
# 3 46.5447 63.9178 128.3115 0.0254 -19.5959 -0.0112
# 4 -0.0091 0.0235 0.0254 19.3529 -0.0170 2.5485
# 5 -5.7504 -17.8763 -19.5959 -0.0170 43.3732 0.0067
# 6 0.0090 -0.0055 -0.0112 2.5485 0.0067 23.3207
#
#
#
# Elastic Compliance Matrix: (Units=1/GPa)
#
#
# Indices 1 2 3 4 5 6 
#
# 1 0.014168 -0.002805 -0.003901 0.000015 -0.001040 -0.000009
# 2 -0.002805 0.014019 -0.005521 -0.000009 0.002912 0.000002
# 3 -0.003901 -0.005521 0.012387 -0.000010 0.002804 0.000006
# 4 0.000015 -0.000009 -0.000010 0.052426 0.000015 -0.005729
# 5 -0.001040 0.002912 0.002804 0.000015 0.025384 -0.000007
# 6 -0.000009 0.000002 0.000006 -0.005729 -0.000007 0.043506
#
#
# Mechanical properties :
#
#
# Convention : Reuss Voigt Hill
#
# Bulk Modulus (GPa) = 62.03591 69.18206 65.60899
# Shear Modulus (GPa) = 26.07959 29.10238 27.59099
#
# Velocity S-wave (km/s) = 3.66360 3.87010 3.76827
# Velocity P-wave (km/s) = 7.05855 7.45487 7.25941
#
# Compressibility (1/GPa) = 0.01611970
#
# Stress axis : x y z
#
# Youngs Moduli (GPa) = 70.57915 71.33090 80.72822
#
# Poissons Ratio (x) = 0.20010 0.31492
# Poissons Ratio (y) = 0.19799 0.44573
# Poissons Ratio (z) = 0.27533 0.39384
#
# Static dielectric constant tensor:
#      x y z
#    x 3.847860 0.000000 -0.109260 
#    y 0.000000 3.596930 -0.000010 
#    z -0.109260 -0.000010 3.896250 
# 
# 
# High freq. dielectric constant tensor:
#      x y z
#    x 1.783030 0.000000 0.005150 
#    y 0.000000 1.729860 0.000000 
#    z 0.005150 0.000000 1.763360 
# 
# From -- ./inp_files/96272.got.cif
#   From: 2010.06.25/outbox.cif.g09.slc.cpg/sg12_49_cif.got.tgz:96272.got - 2010.06.28 00:19:55.
