data_PCOD8093364
_publ_section_title
;
Structure prediction by ZEFSAII (Michael W. Deem and Ramdas Pophale) SiO2 
 PCOD8093364
Probable space group: C 2/M
;
_chemical_formula_sum "Si O2"
_cell_formula_units_Z 56
_cell_length_a 8.409717
_cell_length_b 21.675836
_cell_length_c 26.775776
_cell_angle_alpha 90.000000
_cell_angle_beta 146.365596
_cell_angle_gamma 90.000000
_cell_volume 2703.485679
_symmetry_space_group_name_H-M "C 2/M"
_symmetry_group_IT_number 12
_symmetry_cell_setting 'monoclinic'
loop_
_space_group_symop_operation_xyz
x,y,z
-x,y,-z
-x,-y,-z
x,-y,z
1/2+x,1/2+y,z
1/2-x,1/2+y,-z
1/2-x,1/2-y,-z
1/2+x,1/2-y,z
loop_
_atom_site_type_symbol
_atom_site_label
_atom_site_fract_x
_atom_site_fract_y
_atom_site_fract_z
Si Si1 0.224763 0.886729 0.873085
Si Si2 0.165845 0.929635 0.970286
Si Si3 0.688802 0.570152 0.689244
Si Si4 0.529419 0.771117 0.102004
Si Si5 0.327121 0.841953 0.147750
Si Si6 0.676694 0.426930 0.498531
Si Si7 0.201505 0.930628 0.317124
O O1 0.160540 0.912140 0.910735
O O2 0.296279 0.814140 0.891617
O O3 0.941395 0.895592 0.766214
O O4 0.508669 0.920873 0.924150
O O5 0.941386 0.884899 0.940013
O O6 0.069017 0.000000 0.953369
O O7 0.791590 0.500000 0.703556
O O8 0.485378 0.597973 0.592786
O O9 0.513321 0.570606 0.693653
O O10 0.957996 0.614909 0.765416
O O11 0.468925 0.808566 0.136972
O O12 0.721875 0.709864 0.160021
O O13 0.250000 0.750000 0.000000
O O14 0.500000 0.405181 0.500000
O O15 0.699898 0.500000 0.499480
O O16 0.997742 0.399107 0.587855
O O17 0.262609 0.000000 0.314883
#
# Coordination Sequence:
#
# PCOD8093364 Si02
#       7
#     8   8   8   8   8   8   8
#     4  11  22  41  62  94 127 171 216 263 320 380
#     4  11  24  40  61  94 136 170 204 264 334 392
#     4  10  21  39  63  99 134 164 206 263 331 390
#     4  12  25  43  65  88 122 172 231 270 306 369
#     4  12  25  43  65  92 125 171 221 270 318 375
#     4   9  19  35  60  94 132 169 206 254 318 393
#     4  10  19  35  61  93 131 168 207 254 317 391
#
# _framework density 20.713999000000001
#
# number of rings (size 3 to 8) (size 9 to 14) (size 15 to 20)
#    0.000    1.286    2.857    3.857    4.000    1.714 
#    0.000    0.714    0.000    0.857    0.000    0.000 
#    0.000    0.000    0.000    0.000    0.000    0.000 
#
# Total GULP energy -347135.056169 kJ/mol
# GULP energy per Si atom -12397.680577 kJ/mol
# Density = 2.066685 g / cm^3
# Si number density = 20.713999 Si / 1000 Ang^3
#
#
#
# Elastic Constant Matrix: (Units=GPa)
#
#
# Indices 1 2 3 4 5 6 
#
# 1 44.9621 25.8314 34.7710 -0.0192 5.6192 0.0090
# 2 25.8314 121.2864 48.7722 -0.0053 9.0822 -0.0067
# 3 34.7710 48.7722 157.0962 -0.0278 -4.1034 0.0267
# 4 -0.0192 -0.0053 -0.0278 1.2356 0.0367 27.0528
# 5 5.6192 9.0822 -4.1034 0.0367 30.5408 -0.0287
# 6 0.0090 -0.0067 0.0267 27.0528 -0.0287 11.8191
#
#
#
# Elastic Compliance Matrix: (Units=1/GPa)
#
#
# Indices 1 2 3 4 5 6 
#
# 1 0.029184 -0.003644 -0.005459 -0.000020 -0.005019 0.000022
# 2 -0.003644 0.010200 -0.002430 0.000003 -0.002689 0.000000
# 3 -0.005459 -0.002430 0.008403 -0.000004 0.002856 0.000001
# 4 -0.000020 0.000003 -0.000004 -0.016478 0.000057 0.037717
# 5 -0.005019 -0.002689 0.002856 0.000057 0.034850 -0.000051
# 6 0.000022 0.000000 0.000001 0.037717 -0.000051 -0.001723
#
#
# Mechanical properties :
#
#
# Convention : Reuss Voigt Hill
#
# Bulk Modulus (GPa) = 40.45481 60.23266 50.34373
# Shear Modulus (GPa) = 52.22333 22.98376 37.60355
#
# Velocity S-wave (km/s) = 5.02656 3.33464 4.26534
# Velocity P-wave (km/s) = 7.29802 6.63082 6.97241
#
# Compressibility (1/GPa) = 0.02471894
#
# Stress axis : x y z
#
# Youngs Moduli (GPa) = 34.26567 98.04145 119.00651
#
# Poissons Ratio (x) = 0.35731 0.64966
# Poissons Ratio (y) = 0.12488 0.28921
# Poissons Ratio (z) = 0.18706 0.23826
#
# Static dielectric constant tensor:
#      x y z
#    x 3.842660 0.000000 0.175940 
#    y 0.000000 3.967470 0.000010 
#    z 0.175940 0.000010 4.010550 
# 
# 
# High freq. dielectric constant tensor:
#      x y z
#    x 1.817780 0.000000 0.005760 
#    y 0.000000 1.788740 0.000000 
#    z 0.005760 0.000000 1.808760 
# 
# From -- ./inp_files/373175.got.cif
#   From: 2010.06.25/outbox.cif.g09.slc.cpg/sg12_187_cif.got.tgz:373175.got - 2010.06.28 00:19:55.
