data_PCOD8093150
_publ_section_title
;
Structure prediction by ZEFSAII (Michael W. Deem and Ramdas Pophale) SiO2 
 PCOD8093150
Probable space group: C 2/M
;
_chemical_formula_sum "Si O2"
_cell_formula_units_Z 56
_cell_length_a 25.243593
_cell_length_b 8.806285
_cell_length_c 14.538031
_cell_angle_alpha 90.000000
_cell_angle_beta 59.302294
_cell_angle_gamma 90.000000
_cell_volume 2778.968752
_symmetry_space_group_name_H-M "C 2/M"
_symmetry_group_IT_number 12
_symmetry_cell_setting 'monoclinic'
loop_
_space_group_symop_operation_xyz
x,y,z
-x,y,-z
-x,-y,-z
x,-y,z
1/2+x,1/2+y,z
1/2-x,1/2+y,-z
1/2-x,1/2-y,-z
1/2+x,1/2-y,z
loop_
_atom_site_type_symbol
_atom_site_label
_atom_site_fract_x
_atom_site_fract_y
_atom_site_fract_z
Si Si1 0.133685 0.324760 0.229454
Si Si2 0.074953 0.320661 0.685636
Si Si3 0.521900 0.180522 0.077416
Si Si4 0.843887 0.676881 0.995217
Si Si5 0.493676 0.323751 0.612019
Si Si6 0.244801 0.176861 0.780365
Si Si7 0.205310 0.819666 0.614645
O O1 0.111897 0.500000 0.250269
O O2 0.073951 0.221766 0.293590
O O3 0.182739 0.289358 0.266702
O O4 0.167374 0.289148 0.102527
O O5 0.087532 0.500000 0.677147
O O6 0.136995 0.232795 0.652732
O O7 0.025243 0.264002 0.803655
O O8 0.047889 0.273222 0.611139
O O9 0.523337 0.000000 0.074683
O O10 0.500000 0.248227 0.000000
O O11 0.589365 0.245498 0.038394
O O12 0.841796 0.500000 0.018925
O O13 0.792807 0.752201 0.103108
O O14 0.500000 0.286030 0.500000
O O15 0.504072 0.500000 0.624549
O O16 0.225226 0.241943 0.698101
O O17 0.231313 0.000000 0.795597
O O18 0.250000 0.750000 0.500000
O O19 0.210261 0.000000 0.605986
#
# Coordination Sequence:
#
# PCOD8093150 Si02
#       7
#     8   8   8   8   8   8   8
#     4  10  21  40  63  90 123 163 209 252 304 371
#     4  11  22  41  67  92 122 163 204 252 311 365
#     4   9  17  31  55  87 121 155 197 244 295 360
#     4  10  19  35  59  89 123 160 203 250 303 367
#     4  11  25  42  62  93 127 161 204 257 311 365
#     4  10  23  40  60  89 125 163 205 255 308 364
#     4  11  25  44  63  90 125 163 210 260 310 366
#
# _framework density 20.151361000000001
#
# number of rings (size 3 to 8) (size 9 to 14) (size 15 to 20)
#    0.000    1.714    1.429    2.571    2.000    4.571 
#    0.000    0.000    0.000    3.000    0.000    0.000 
#    0.000    0.000    0.000    0.000    0.000    0.000 
#
# Total GULP energy -347260.649339 kJ/mol
# GULP energy per Si atom -12402.166048 kJ/mol
# Density = 2.010550 g / cm^3
# Si number density = 20.151361 Si / 1000 Ang^3
#
#
#
# Elastic Constant Matrix: (Units=GPa)
#
#
# Indices 1 2 3 4 5 6 
#
# 1 132.8566 28.3188 39.4741 0.0000 13.9446 0.0000
# 2 28.3188 43.3619 27.7178 0.0000 4.9916 -0.0001
# 3 39.4741 27.7178 86.2556 0.0000 16.1137 0.0000
# 4 0.0000 0.0000 0.0000 32.9559 0.0000 -5.1453
# 5 13.9446 4.9916 16.1137 0.0000 30.2030 0.0000
# 6 0.0000 -0.0001 0.0000 -5.1453 0.0000 31.0662
#
#
#
# Elastic Compliance Matrix: (Units=1/GPa)
#
#
# Indices 1 2 3 4 5 6 
#
# 1 0.009428 -0.004290 -0.002505 0.000000 -0.002307 0.000000
# 2 -0.004290 0.030977 -0.008224 0.000000 0.001249 0.000000
# 3 -0.002505 -0.008224 0.016563 0.000000 -0.006321 0.000000
# 4 0.000000 0.000000 0.000000 0.031149 0.000000 0.005159
# 5 -0.002307 0.001249 -0.006321 0.000000 0.037341 0.000000
# 6 0.000000 0.000000 0.000000 0.005159 0.000000 0.033044
#
#
# Mechanical properties :
#
#
# Convention : Reuss Voigt Hill
#
# Bulk Modulus (GPa) = 37.13404 50.38838 43.76121
# Shear Modulus (GPa) = 25.31433 29.97593 27.64513
#
# Velocity S-wave (km/s) = 3.54815 3.86105 3.70790
# Velocity P-wave (km/s) = 5.93746 6.70344 6.33204
#
# Compressibility (1/GPa) = 0.02692947
#
# Stress axis : x y z
#
# Youngs Moduli (GPa) = 106.06901 32.28212 60.37410
#
# Poissons Ratio (x) = 0.13850 0.15123
# Poissons Ratio (y) = 0.45507 0.49652
# Poissons Ratio (z) = 0.26568 0.26549
#
# Static dielectric constant tensor:
#      x y z
#    x 4.166150 0.000000 0.079240 
#    y 0.000000 3.451720 0.000000 
#    z 0.079240 0.000000 3.813670 
# 
# 
# High freq. dielectric constant tensor:
#      x y z
#    x 1.806410 0.000000 0.005440 
#    y 0.000000 1.767940 0.000000 
#    z 0.005440 0.000000 1.794090 
# 
# From -- ./inp_files/238348.got.cif
#   From: 2010.06.25/outbox.cif.g09.slc.cpg/sg12_120_cif.got.tgz:238348.got - 2010.06.28 00:19:55.
