data_PCOD8093307
_publ_section_title
;
Structure prediction by ZEFSAII (Michael W. Deem and Ramdas Pophale) SiO2 
 PCOD8093307
Probable space group: C 2/M
;
_chemical_formula_sum "Si O2"
_cell_formula_units_Z 44
_cell_length_a 18.936180
_cell_length_b 13.066276
_cell_length_c 9.587431
_cell_angle_alpha 90.000000
_cell_angle_beta 96.653347
_cell_angle_gamma 90.000000
_cell_volume 2356.197680
_symmetry_space_group_name_H-M "C 2/M"
_symmetry_group_IT_number 12
_symmetry_cell_setting 'monoclinic'
loop_
_space_group_symop_operation_xyz
x,y,z
-x,y,-z
-x,-y,-z
x,-y,z
1/2+x,1/2+y,z
1/2-x,1/2+y,-z
1/2-x,1/2-y,-z
1/2+x,1/2-y,z
loop_
_atom_site_type_symbol
_atom_site_label
_atom_site_fract_x
_atom_site_fract_y
_atom_site_fract_z
Si Si1 0.752893 0.116474 0.566119
Si Si2 0.378824 0.384300 0.383054
Si Si3 0.000000 0.732324 0.500000
Si Si4 0.111861 0.381726 0.360040
Si Si5 0.690462 0.749534 0.173593
Si Si6 0.810310 0.883898 0.076642
O O1 0.808992 0.145582 0.457068
O O2 0.673997 0.133868 0.488491
O O3 0.763120 0.187853 0.702120
O O4 0.763596 0.000000 0.616427
O O5 0.402189 0.500000 0.428519
O O6 0.441225 0.305069 0.420817
O O7 0.364983 0.377730 0.215803
O O8 0.963933 0.656441 0.602186
O O9 0.106648 0.500000 0.314250
O O10 0.126594 0.311551 0.229303
O O11 0.736975 0.832231 0.103560
O O12 0.657381 0.671421 0.052779
O O13 0.793168 0.000000 0.032441
#
# Coordination Sequence:
#
# PCOD8093307 Si02
#       6
#     8   8   4   8   8   8
#     4  10  19  35  61  87 110 141 191 240 279 324
#     4  10  20  37  59  85 113 144 187 237 282 329
#     4  12  22  36  58  84 118 150 190 224 278 340
#     4  11  22  36  57  85 115 150 188 233 278 328
#     4  11  19  34  58  85 115 147 184 230 282 335
#     4  10  21  35  55  85 117 146 182 232 285 333
#
# _framework density 18.674156
#
# number of rings (size 3 to 8) (size 9 to 14) (size 15 to 20)
#    0.000    1.455    3.636    3.273    0.000    0.000 
#    0.000    0.909    0.000    6.545    0.000    0.000 
#    0.000    0.000    0.000    0.000    0.000    0.000 
#
# Total GULP energy -272782.265792 kJ/mol
# GULP energy per Si atom -12399.193900 kJ/mol
# Density = 1.863165 g / cm^3
# Si number density = 18.674156 Si / 1000 Ang^3
#
#
#
# Elastic Constant Matrix: (Units=GPa)
#
#
# Indices 1 2 3 4 5 6 
#
# 1 81.2733 28.8761 12.6071 0.0000 -18.3094 0.0000
# 2 28.8761 116.0378 37.8207 0.0000 -15.4482 0.0000
# 3 12.6071 37.8207 75.6710 0.0000 -22.0779 0.0000
# 4 0.0000 0.0000 0.0000 32.9345 0.0000 0.5204
# 5 -18.3094 -15.4482 -22.0779 0.0000 23.3082 0.0000
# 6 0.0000 0.0000 0.0000 0.5204 0.0000 32.0964
#
#
#
# Elastic Compliance Matrix: (Units=1/GPa)
#
#
# Indices 1 2 3 4 5 6 
#
# 1 0.015919 -0.003109 0.002693 0.000000 0.012995 0.000000
# 2 -0.003109 0.011026 -0.004938 0.000000 0.000188 0.000000
# 3 0.002693 -0.004938 0.020586 0.000000 0.018342 0.000000
# 4 0.000000 0.000000 0.000000 0.030371 0.000000 -0.000492
# 5 0.012995 0.000188 0.018342 0.000000 0.070610 0.000000
# 6 0.000000 0.000000 0.000000 -0.000492 0.000000 0.031164
#
#
# Mechanical properties :
#
#
# Convention : Reuss Voigt Hill
#
# Bulk Modulus (GPa) = 27.15694 47.95443 37.55568
# Shear Modulus (GPa) = 24.67213 30.57972 27.62592
#
# Velocity S-wave (km/s) = 3.63876 4.05105 3.85043
# Velocity P-wave (km/s) = 5.67699 6.90048 6.31842
#
# Compressibility (1/GPa) = 0.03682300
#
# Stress axis : x y z
#
# Youngs Moduli (GPa) = 62.81965 90.69378 48.57676
#
# Poissons Ratio (x) = 0.28198 -0.13083
# Poissons Ratio (y) = 0.19532 0.23987
# Poissons Ratio (z) = -0.16919 0.44785
#
# Static dielectric constant tensor:
#      x y z
#    x 3.223340 0.000000 -0.132060 
#    y 0.000000 3.872170 0.000000 
#    z -0.132060 0.000000 3.508390 
# 
# 
# High freq. dielectric constant tensor:
#      x y z
#    x 1.695130 0.000000 -0.014300 
#    y 0.000000 1.759500 0.000000 
#    z -0.014300 0.000000 1.713980 
# 
# From -- ./inp_files/73197.got.cif
#   From: 2010.06.25/outbox.cif.g09.slc.cpg/sg12_37_cif.got.tgz:73197.got - 2010.06.28 00:19:55.
