data_PCOD8093951
_publ_section_title
;
Structure prediction by ZEFSAII (Michael W. Deem and Ramdas Pophale) SiO2 
 PCOD8093951
Probable space group: C 2/M
;
_chemical_formula_sum "Si O2"
_cell_formula_units_Z 56
_cell_length_a 25.234278
_cell_length_b 18.731973
_cell_length_c 8.630548
_cell_angle_alpha 90.000000
_cell_angle_beta 42.869832
_cell_angle_gamma 90.000000
_cell_volume 2775.464240
_symmetry_space_group_name_H-M "C 2/M"
_symmetry_group_IT_number 12
_symmetry_cell_setting 'monoclinic'
loop_
_space_group_symop_operation_xyz
x,y,z
-x,y,-z
-x,-y,-z
x,-y,z
1/2+x,1/2+y,z
1/2-x,1/2+y,-z
1/2-x,1/2-y,-z
1/2+x,1/2-y,z
loop_
_atom_site_type_symbol
_atom_site_label
_atom_site_fract_x
_atom_site_fract_y
_atom_site_fract_z
Si Si1 0.838962 0.287139 0.127732
Si Si2 0.708904 0.923486 0.269892
Si Si3 0.636999 0.579678 0.889203
Si Si4 0.036969 0.818847 0.253811
Si Si5 0.389412 0.643397 0.385681
Si Si6 0.681640 0.209174 0.479761
Si Si7 0.744595 0.919803 0.845556
O O1 0.774645 0.223509 0.261899
O O2 0.846029 0.311537 0.289728
O O3 0.814358 0.358618 0.088215
O O4 0.921140 0.255283 0.889685
O O5 0.771072 0.924879 0.277648
O O6 0.654223 0.856170 0.427087
O O7 0.663779 0.000000 0.367691
O O8 0.750451 0.912261 0.017173
O O9 0.602800 0.500000 0.938670
O O10 0.615821 0.628482 0.786043
O O11 0.600541 0.617816 0.119539
O O12 0.000000 0.805523 0.500000
O O13 0.976796 0.854429 0.260355
O O14 0.360904 0.721865 0.491186
O O15 0.332360 0.587914 0.593176
O O16 0.715375 0.000000 0.862044
#
# Coordination Sequence:
#
# PCOD8093951 Si02
#       7
#     8   8   8   8   8   8   8
#     4  10  21  38  60  87 120 157 207 250 303 359
#     4  10  20  35  59  90 121 151 195 252 306 355
#     4  11  22  39  59  83 122 164 201 241 292 358
#     4  12  25  39  57  89 125 165 200 243 304 368
#     4  11  23  36  61  88 120 158 204 250 299 362
#     4  10  19  36  61  85 112 155 205 261 291 348
#     4  10  22  38  61  93 123 158 205 256 307 359
#
# _framework density 20.176804000000001
#
# number of rings (size 3 to 8) (size 9 to 14) (size 15 to 20)
#    0.000    1.429    2.857    3.429    2.000    4.857 
#    0.000    0.000    0.000    1.286    0.000    2.000 
#    0.000    0.000    0.000    0.000    0.000    0.000 
#
# Total GULP energy -346954.433217 kJ/mol
# GULP energy per Si atom -12391.229758 kJ/mol
# Density = 2.013088 g / cm^3
# Si number density = 20.176804 Si / 1000 Ang^3
#
#
#
# Elastic Constant Matrix: (Units=GPa)
#
#
# Indices 1 2 3 4 5 6 
#
# 1 43.3273 18.0395 8.2419 0.0000 8.8987 0.0000
# 2 18.0395 149.1563 54.9119 0.0000 12.7337 0.0000
# 3 8.2419 54.9119 98.1174 0.0000 16.8850 0.0000
# 4 0.0000 0.0000 0.0000 33.0921 0.0000 6.2819
# 5 8.8987 12.7337 16.8850 0.0000 25.5398 0.0000
# 6 0.0000 0.0000 0.0000 6.2819 0.0000 20.4133
#
#
#
# Elastic Compliance Matrix: (Units=1/GPa)
#
#
# Indices 1 2 3 4 5 6 
#
# 1 0.025726 -0.002692 0.000741 0.000000 -0.008112 0.000000
# 2 -0.002692 0.008760 -0.004611 0.000000 -0.000381 0.000000
# 3 0.000741 -0.004611 0.013946 0.000000 -0.007179 0.000000
# 4 0.000000 0.000000 0.000000 0.032094 0.000000 -0.009876
# 5 -0.008112 -0.000381 -0.007179 0.000000 0.046917 0.000000
# 6 0.000000 0.000000 0.000000 -0.009876 0.000000 0.052027
#
#
# Mechanical properties :
#
#
# Convention : Reuss Voigt Hill
#
# Bulk Modulus (GPa) = 28.32148 50.33196 39.32672
# Shear Modulus (GPa) = 24.46649 29.76956 27.11803
#
# Velocity S-wave (km/s) = 3.48603 3.84531 3.67006
# Velocity P-wave (km/s) = 5.50184 6.68691 6.12311
#
# Compressibility (1/GPa) = 0.03530889
#
# Stress axis : x y z
#
# Youngs Moduli (GPa) = 38.87145 114.15567 71.70760
#
# Poissons Ratio (x) = 0.30729 -0.05317
# Poissons Ratio (y) = 0.10464 0.33063
# Poissons Ratio (z) = -0.02882 0.52635
#
# Static dielectric constant tensor:
#      x y z
#    x 3.445070 0.000000 0.078720 
#    y 0.000000 3.975750 0.000000 
#    z 0.078720 0.000000 3.567360 
# 
# 
# High freq. dielectric constant tensor:
#      x y z
#    x 1.760650 0.000000 0.025020 
#    y 0.000000 1.804570 0.000000 
#    z 0.025020 0.000000 1.775050 
# 
# From -- ./inp_files/98214.got.cif
#   From: 2010.06.25/outbox.cif.g09.slc.cpg/sg12_50_cif.got.tgz:98214.got - 2010.06.28 00:19:55.
