data_PCOD8093837
_publ_section_title
;
Structure prediction by ZEFSAII (Michael W. Deem and Ramdas Pophale) SiO2 
 PCOD8093837
Probable space group: C 2/M
;
_chemical_formula_sum "Si O2"
_cell_formula_units_Z 48
_cell_length_a 15.053368
_cell_length_b 9.045651
_cell_length_c 20.569662
_cell_angle_alpha 90.000000
_cell_angle_beta 111.529877
_cell_angle_gamma 90.000000
_cell_volume 2605.489272
_symmetry_space_group_name_H-M "C 2/M"
_symmetry_group_IT_number 12
_symmetry_cell_setting 'monoclinic'
loop_
_space_group_symop_operation_xyz
x,y,z
-x,y,-z
-x,-y,-z
x,-y,z
1/2+x,1/2+y,z
1/2-x,1/2+y,-z
1/2-x,1/2-y,-z
1/2+x,1/2-y,z
loop_
_atom_site_type_symbol
_atom_site_label
_atom_site_fract_x
_atom_site_fract_y
_atom_site_fract_z
Si Si1 0.253650 0.675496 0.570772
Si Si2 0.761721 0.827860 0.071272
Si Si3 0.926356 0.172585 0.422493
Si Si4 0.040281 0.174960 0.328313
Si Si5 0.563018 0.827448 0.077849
Si Si6 0.967312 0.175280 0.171454
O O1 0.248485 0.500000 0.560380
O O2 0.250000 0.750000 0.500000
O O3 0.168195 0.731859 0.592750
O O4 0.351150 0.726217 0.631822
O O5 0.673519 0.790107 0.094463
O O6 0.858162 0.773081 0.132034
O O7 0.765751 0.000000 0.056948
O O8 0.750000 0.750000 0.000000
O O9 0.000000 0.202336 0.500000
O O10 0.973521 0.232232 0.368825
O O11 0.898906 0.000000 0.411844
O O12 0.002076 0.239643 0.249944
O O13 0.034964 0.000000 0.326530
O O14 0.534645 0.739605 0.134074
O O15 0.545118 0.000000 0.085228
O O16 0.500000 0.772439 0.000000
O O17 0.976535 0.000000 0.171894
#
# Coordination Sequence:
#
# PCOD8093837 Si02
#       6
#     8   8   8   8   8   8
#     4  11  21  36  58  84 112 146 188 232 276 328
#     4  10  20  34  55  80 106 140 182 221 268 324
#     4  10  19  36  60  84 110 148 186 224 277 333
#     4   9  20  38  56  78 115 148 177 226 285 328
#     4  10  20  35  55  81 113 143 174 226 282 321
#     4  10  21  37  57  81 108 145 187 225 268 330
#
# _framework density 18.422643000000001
#
# number of rings (size 3 to 8) (size 9 to 14) (size 15 to 20)
#    0.000    2.000    3.333    0.500    0.000    2.667 
#    0.000    4.167    0.000    0.000    0.000    0.000 
#    0.000    0.000    0.000    0.000    0.000    0.000 
#
# Total GULP energy -297652.537639 kJ/mol
# GULP energy per Si atom -12402.189068 kJ/mol
# Density = 1.838071 g / cm^3
# Si number density = 18.422643 Si / 1000 Ang^3
#
#
#
# Elastic Constant Matrix: (Units=GPa)
#
#
# Indices 1 2 3 4 5 6 
#
# 1 170.0169 45.9494 92.3889 0.0000 3.6790 0.0000
# 2 45.9494 38.9373 41.0434 0.0000 3.0408 0.0000
# 3 92.3889 41.0434 176.0464 0.0000 -0.9508 0.0000
# 4 0.0000 0.0000 0.0000 17.2221 0.0000 -4.3762
# 5 3.6790 3.0408 -0.9508 0.0000 34.9329 0.0000
# 6 0.0000 0.0000 0.0000 -4.3762 0.0000 34.2952
#
#
#
# Elastic Compliance Matrix: (Units=1/GPa)
#
#
# Indices 1 2 3 4 5 6 
#
# 1 0.009883 -0.008168 -0.003285 0.000000 -0.000419 0.000000
# 2 -0.008168 0.041158 -0.005324 0.000000 -0.002867 0.000000
# 3 -0.003285 -0.005324 0.008651 0.000000 0.001045 0.000000
# 4 0.000000 0.000000 0.000000 0.060011 0.000000 0.007658
# 5 -0.000419 -0.002867 0.001045 0.000000 0.028949 0.000000
# 6 0.000000 0.000000 0.000000 0.007658 0.000000 0.030136
#
#
# Mechanical properties :
#
#
# Convention : Reuss Voigt Hill
#
# Bulk Modulus (GPa) = 38.25881 82.64044 60.44963
# Shear Modulus (GPa) = 22.61889 30.99795 26.80842
#
# Velocity S-wave (km/s) = 3.50777 4.10640 3.81883
# Velocity P-wave (km/s) = 6.10068 8.21212 7.23385
#
# Compressibility (1/GPa) = 0.02613777
#
# Stress axis : x y z
#
# Youngs Moduli (GPa) = 101.18057 24.29680 115.59214
#
# Poissons Ratio (x) = 0.19846 0.37969
# Poissons Ratio (y) = 0.82645 0.61546
# Poissons Ratio (z) = 0.33235 0.12937
#
# Static dielectric constant tensor:
#      x y z
#    x 3.833480 0.000000 0.064150 
#    y 0.000000 3.212410 0.000000 
#    z 0.064150 0.000000 3.600140 
# 
# 
# High freq. dielectric constant tensor:
#      x y z
#    x 1.732040 0.000000 0.001240 
#    y 0.000000 1.692800 0.000000 
#    z 0.001240 0.000000 1.716350 
# 
# From -- ./inp_files/308583.got.cif
#   From: 2010.06.25/outbox.cif.g09.slc.cpg/sg12_155_cif.got.tgz:308583.got - 2010.06.28 00:19:55.
