data_PCOD8093489
_publ_section_title
;
Structure prediction by ZEFSAII (Michael W. Deem and Ramdas Pophale) SiO2 
 PCOD8093489
Probable space group: C 2/M
;
_chemical_formula_sum "Si O2"
_cell_formula_units_Z 32
_cell_length_a 19.353791
_cell_length_b 13.389803
_cell_length_c 9.928695
_cell_angle_alpha 90.000000
_cell_angle_beta 140.519980
_cell_angle_gamma 90.000000
_cell_volume 1635.909015
_symmetry_space_group_name_H-M "C 2/M"
_symmetry_group_IT_number 12
_symmetry_cell_setting 'monoclinic'
loop_
_space_group_symop_operation_xyz
x,y,z
-x,y,-z
-x,-y,-z
x,-y,z
1/2+x,1/2+y,z
1/2-x,1/2+y,-z
1/2-x,1/2-y,-z
1/2+x,1/2-y,z
loop_
_atom_site_type_symbol
_atom_site_label
_atom_site_fract_x
_atom_site_fract_y
_atom_site_fract_z
Si Si1 0.079053 0.686073 0.489080
Si Si2 0.799747 0.210842 0.938293
Si Si3 0.058186 0.387740 0.949081
Si Si4 0.494234 0.392645 0.650515
O O1 0.203017 0.657316 0.709164
O O2 0.000000 0.683264 0.500000
O O3 0.031127 0.612804 0.304974
O O4 0.082971 0.798912 0.432375
O O5 0.750000 0.250000 0.000000
O O6 0.847808 0.306627 0.932394
O O7 0.888790 0.127571 0.105241
O O8 0.107813 0.500000 0.028724
O O9 0.000000 0.360082 0.000000
O O10 0.500000 0.402060 0.500000
O O11 0.452123 0.500000 0.644666
#
# Coordination Sequence:
#
# PCOD8093489 Si02
#       4
#     8   8   8   8
#     4  10  19  36  55  83 113 142 188 236 278 326
#     4  11  19  35  56  83 111 144 189 235 278 325
#     4  10  23  40  57  82 117 153 187 229 285 341
#     4   9  17  29  48  76 109 137 172 224 277 323
#
# _framework density 19.56099
#
# number of rings (size 3 to 8) (size 9 to 14) (size 15 to 20)
#    0.000    2.000    7.500    0.000    0.000    4.500 
#    0.000    0.000    0.000   12.000    0.000    0.000 
#    0.000    0.000    0.000    0.000    0.000    0.000 
#
# Total GULP energy -198234.253333 kJ/mol
# GULP energy per Si atom -12389.640833 kJ/mol
# Density = 1.951647 g / cm^3
# Si number density = 19.560990 Si / 1000 Ang^3
#
#
#
# Elastic Constant Matrix: (Units=GPa)
#
#
# Indices 1 2 3 4 5 6 
#
# 1 76.7981 27.9447 29.3682 0.0000 -9.8203 0.0000
# 2 27.9447 82.7514 -0.0676 0.0000 -8.1973 0.0000
# 3 29.3682 -0.0676 125.0131 0.0000 18.3139 0.0000
# 4 0.0000 0.0000 0.0000 17.8145 0.0000 -7.6420
# 5 -9.8203 -8.1973 18.3139 0.0000 28.0660 0.0000
# 6 0.0000 0.0000 0.0000 -7.6420 0.0000 20.6141
#
#
#
# Elastic Compliance Matrix: (Units=1/GPa)
#
#
# Indices 1 2 3 4 5 6 
#
# 1 0.018115 -0.005292 -0.005485 0.000000 0.008372 0.000000
# 2 -0.005292 0.014029 0.001019 0.000000 0.001580 0.000000
# 3 -0.005485 0.001019 0.010533 0.000000 -0.008494 0.000000
# 4 0.000000 0.000000 0.000000 0.066749 0.000000 0.024745
# 5 0.008372 0.001580 -0.008494 0.000000 0.044564 0.000000
# 6 0.000000 0.000000 0.000000 0.024745 0.000000 0.057684
#
#
# Mechanical properties :
#
#
# Convention : Reuss Voigt Hill
#
# Bulk Modulus (GPa) = 43.17678 44.33922 43.75800
# Shear Modulus (GPa) = 20.92845 28.45341 24.69093
#
# Velocity S-wave (km/s) = 3.27449 3.81806 3.55668
# Velocity P-wave (km/s) = 6.03467 6.49255 6.26779
#
# Compressibility (1/GPa) = 0.02316059
#
# Stress axis : x y z
#
# Youngs Moduli (GPa) = 55.20317 71.28076 94.94337
#
# Poissons Ratio (x) = 0.37725 0.52075
# Poissons Ratio (y) = 0.29216 -0.09678
# Poissons Ratio (z) = 0.30278 -0.07266
#
# Static dielectric constant tensor:
#      x y z
#    x 3.029060 0.000000 -0.206600 
#    y 0.000000 3.905990 0.000000 
#    z -0.206600 0.000000 3.155850 
# 
# 
# High freq. dielectric constant tensor:
#      x y z
#    x 1.712470 0.000000 0.005180 
#    y 0.000000 1.763990 0.000000 
#    z 0.005180 0.000000 1.774230 
# 
# From -- ./inp_files/57813.got.cif
#   From: 2010.06.25/outbox.cif.g09.slc.cpg/sg12_29_cif.got.tgz:57813.got - 2010.06.28 00:19:55.
