data_PCOD8093758
_publ_section_title
;
Structure prediction by ZEFSAII (Michael W. Deem and Ramdas Pophale) SiO2 
 PCOD8093758
Probable space group: C 2/M
;
_chemical_formula_sum "Si O2"
_cell_formula_units_Z 56
_cell_length_a 19.397152
_cell_length_b 8.571682
_cell_length_c 18.785845
_cell_angle_alpha 90.000000
_cell_angle_beta 113.322706
_cell_angle_gamma 90.000000
_cell_volume 2868.232813
_symmetry_space_group_name_H-M "C 2/M"
_symmetry_group_IT_number 12
_symmetry_cell_setting 'monoclinic'
loop_
_space_group_symop_operation_xyz
x,y,z
-x,y,-z
-x,-y,-z
x,-y,z
1/2+x,1/2+y,z
1/2-x,1/2+y,-z
1/2-x,1/2-y,-z
1/2+x,1/2-y,z
loop_
_atom_site_type_symbol
_atom_site_label
_atom_site_fract_x
_atom_site_fract_y
_atom_site_fract_z
Si Si1 0.922790 0.185533 0.005476
Si Si2 0.115471 0.684906 0.858986
Si Si3 0.290939 0.680580 0.449554
Si Si4 0.725702 0.683041 0.130270
Si Si5 0.293511 0.182982 0.303783
Si Si6 0.555415 0.824749 0.457037
Si Si7 0.443377 0.316890 0.306706
O O1 0.852125 0.253472 0.931385
O O2 0.920033 0.000000 0.011751
O O3 0.918889 0.261316 0.081073
O O4 0.000000 0.239700 0.000000
O O5 0.112249 0.500000 0.849644
O O6 0.201800 0.744720 0.884446
O O7 0.064185 0.760092 0.777221
O O8 0.272622 0.500000 0.434299
O O9 0.250000 0.750000 0.500000
O O10 0.259972 0.766462 0.365892
O O11 0.378827 0.707098 0.495825
O O12 0.721167 0.500000 0.118835
O O13 0.734608 0.727084 0.217261
O O14 0.370583 0.274442 0.323095
O O15 0.312110 0.000000 0.310055
O O16 0.500000 0.822312 0.500000
O O17 0.515756 0.767382 0.368998
O O18 0.586641 0.000000 0.457480
O O19 0.456572 0.500000 0.314285
#
# Coordination Sequence:
#
# PCOD8093758 Si02
#       7
#     8   8   8   8   8   8   8
#     4  10  20  36  57  83 116 149 185 232 288 350
#     4  10  20  36  58  82 113 149 191 238 284 340
#     4  12  25  41  60  85 119 159 203 246 294 350
#     4   8  17  34  58  84 109 146 188 233 287 341
#     4  10  19  36  59  84 116 152 194 244 296 348
#     4  11  22  38  63  89 119 155 194 242 297 349
#     4  11  21  35  59  90 118 148 193 243 292 346
#
# _framework density 19.524218000000001
#
# number of rings (size 3 to 8) (size 9 to 14) (size 15 to 20)
#    0.000    1.714    1.429    5.143    0.000    0.857 
#    2.571    3.571    0.000    0.000    0.000    0.000 
#    0.000    0.000    0.000    0.000    0.000    0.000 
#
# Total GULP energy -347230.923976 kJ/mol
# GULP energy per Si atom -12401.104428 kJ/mol
# Density = 1.947978 g / cm^3
# Si number density = 19.524218 Si / 1000 Ang^3
#
#
#
# Elastic Constant Matrix: (Units=GPa)
#
#
# Indices 1 2 3 4 5 6 
#
# 1 75.4399 24.2334 50.4258 0.0000 -12.0727 0.0000
# 2 24.2334 65.8996 31.9940 0.0000 -2.3442 0.0000
# 3 50.4258 31.9940 141.3924 0.0000 -12.1948 0.0000
# 4 0.0000 0.0000 0.0000 21.4360 0.0000 -10.3050
# 5 -12.0727 -2.3442 -12.1948 0.0000 32.9765 0.0000
# 6 0.0000 0.0000 0.0000 -10.3050 0.0000 22.4353
#
#
#
# Elastic Compliance Matrix: (Units=1/GPa)
#
#
# Indices 1 2 3 4 5 6 
#
# 1 0.018961 -0.004178 -0.005417 0.000000 0.004642 0.000000
# 2 -0.004178 0.017969 -0.002683 0.000000 -0.001244 0.000000
# 3 -0.005417 -0.002683 0.009734 0.000000 0.001426 0.000000
# 4 0.000000 0.000000 0.000000 0.059871 0.000000 0.027500
# 5 0.004642 -0.001244 0.001426 0.000000 0.032463 0.000000
# 6 0.000000 0.000000 0.000000 0.027500 0.000000 0.057204
#
#
# Mechanical properties :
#
#
# Convention : Reuss Voigt Hill
#
# Bulk Modulus (GPa) = 45.22975 55.11539 50.17257
# Shear Modulus (GPa) = 21.91758 27.10814 24.51286
#
# Velocity S-wave (km/s) = 3.35413 3.73022 3.54716
# Velocity P-wave (km/s) = 6.18195 6.84421 6.52149
#
# Compressibility (1/GPa) = 0.02210934
#
# Stress axis : x y z
#
# Youngs Moduli (GPa) = 52.74008 55.65009 102.72791
#
# Poissons Ratio (x) = 0.23249 0.55643
# Poissons Ratio (y) = 0.22033 0.27567
# Poissons Ratio (z) = 0.28567 0.14934
#
# Static dielectric constant tensor:
#      x y z
#    x 2.932120 0.000000 0.365990 
#    y 0.000000 3.559690 0.000000 
#    z 0.365990 0.000000 3.726110 
# 
# 
# High freq. dielectric constant tensor:
#      x y z
#    x 1.739040 0.000000 -0.000290 
#    y 0.000000 1.755760 0.000000 
#    z -0.000290 0.000000 1.778850 
# 
# From -- ./inp_files/275692.got.cif
#   From: 2010.06.25/outbox.cif.g09.slc.cpg/sg12_138_cif.got.tgz:275692.got - 2010.06.28 00:19:55.
