data_PCOD8093139
_publ_section_title
;
Structure prediction by ZEFSAII (Michael W. Deem and Ramdas Pophale) SiO2 
 PCOD8093139
Probable space group: C 2/M
;
_chemical_formula_sum "Si O2"
_cell_formula_units_Z 64
_cell_length_a 30.864158
_cell_length_b 8.696972
_cell_length_c 14.093924
_cell_angle_alpha 90.000000
_cell_angle_beta 122.533635
_cell_angle_gamma 90.000000
_cell_volume 3189.488914
_symmetry_space_group_name_H-M "C 2/M"
_symmetry_group_IT_number 12
_symmetry_cell_setting 'monoclinic'
loop_
_space_group_symop_operation_xyz
x,y,z
-x,y,-z
-x,-y,-z
x,-y,z
1/2+x,1/2+y,z
1/2-x,1/2+y,-z
1/2-x,1/2-y,-z
1/2+x,1/2-y,z
loop_
_atom_site_type_symbol
_atom_site_label
_atom_site_fract_x
_atom_site_fract_y
_atom_site_fract_z
Si Si1 0.156255 0.181390 0.122781
Si Si2 0.950574 0.677317 0.506539
Si Si3 0.294543 0.317849 0.489690
Si Si4 0.482801 0.320711 0.734258
Si Si5 0.907730 0.320067 0.118254
Si Si6 0.732937 0.318573 0.750349
Si Si7 0.884197 0.818732 0.725108
Si Si8 0.639818 0.819152 0.738571
O O1 0.211067 0.252726 0.162339
O O2 0.134276 0.250694 0.195980
O O3 0.162466 0.000000 0.136348
O O4 0.115955 0.223199 0.994497
O O5 0.946227 0.500000 0.533679
O O6 0.900824 0.731713 0.389350
O O7 0.000000 0.700867 0.500000
O O8 0.954839 0.787144 0.601967
O O9 0.290482 0.500000 0.486749
O O10 0.250000 0.250000 0.500000
O O11 0.288515 0.256153 0.375501
O O12 0.348092 0.257486 0.597019
O O13 0.497885 0.500000 0.756713
O O14 0.531999 0.214271 0.804844
O O15 0.443085 0.275371 0.771598
O O16 0.899627 0.500000 0.090499
O O17 0.881120 0.266400 0.184160
O O18 0.736947 0.500000 0.757112
O O19 0.694102 0.263474 0.786101
O O20 0.878255 0.000000 0.723487
O O21 0.648298 0.000000 0.746133
#
# Coordination Sequence:
#
# PCOD8093139 Si02
#       8
#     8   8   8   8   8   8   8   8
#     4  11  23  42  65  86 115 159 205 245 295 355
#     4  10  19  37  61  88 123 160 195 240 298 354
#     4  10  19  35  59  88 122 157 191 235 291 349
#     4  11  22  38  62  92 122 157 198 242 297 356
#     4  11  24  44  63  85 119 156 201 254 298 345
#     4  11  23  38  61  93 125 153 194 249 298 349
#     4   9  20  38  60  87 123 158 193 240 293 352
#     4  10  22  40  63  86 118 162 199 238 298 360
#
# _framework density 20.065911
#
# number of rings (size 3 to 8) (size 9 to 14) (size 15 to 20)
#    0.000    1.625    2.500    2.250    0.000    4.250 
#    0.000    6.250    0.000    0.000    0.000    0.000 
#    0.000    0.000    0.000    0.000    0.000    0.000 
#
# Total GULP energy -396897.773297 kJ/mol
# GULP energy per Si atom -12403.055416 kJ/mol
# Density = 2.002024 g / cm^3
# Si number density = 20.065911 Si / 1000 Ang^3
#
#
#
# Elastic Constant Matrix: (Units=GPa)
#
#
# Indices 1 2 3 4 5 6 
#
# 1 128.0483 22.8879 33.9621 0.0000 8.1612 0.0000
# 2 22.8879 32.2651 12.2215 0.0000 -0.3452 0.0000
# 3 33.9621 12.2215 91.9225 0.0000 -7.2492 0.0000
# 4 0.0000 0.0000 0.0000 33.0076 0.0000 2.4122
# 5 8.1612 -0.3452 -7.2492 0.0000 10.2614 0.0000
# 6 0.0000 0.0000 0.0000 2.4122 0.0000 27.7877
#
#
#
# Elastic Compliance Matrix: (Units=1/GPa)
#
#
# Indices 1 2 3 4 5 6 
#
# 1 0.010734 -0.006202 -0.004057 0.000000 -0.011612 0.000000
# 2 -0.006202 0.036262 -0.002165 0.000000 0.004623 0.000000
# 3 -0.004057 -0.002165 0.013676 0.000000 0.012816 0.000000
# 4 0.000000 0.000000 0.000000 0.030489 0.000000 -0.002647
# 5 -0.011612 0.004623 0.012816 0.000000 0.115898 0.000000
# 6 0.000000 0.000000 0.000000 -0.002647 0.000000 0.036217
#
#
# Mechanical properties :
#
#
# Convention : Reuss Voigt Hill
#
# Bulk Modulus (GPa) = 27.91415 43.37545 35.64480
# Shear Modulus (GPa) = 17.85286 26.42231 22.13759
#
# Velocity S-wave (km/s) = 2.98604 3.63268 3.32511
# Velocity P-wave (km/s) = 5.08232 6.26566 5.70476
#
# Compressibility (1/GPa) = 0.03582413
#
# Stress axis : x y z
#
# Youngs Moduli (GPa) = 93.15935 27.57678 73.11953
#
# Poissons Ratio (x) = 0.17103 0.29665
# Poissons Ratio (y) = 0.57778 0.15832
# Poissons Ratio (z) = 0.37796 0.05971
#
# Static dielectric constant tensor:
#      x y z
#    x 3.828270 0.000000 -0.095860 
#    y 0.000000 3.441640 0.000000 
#    z -0.095860 0.000000 3.772190 
# 
# 
# High freq. dielectric constant tensor:
#      x y z
#    x 1.797370 0.000000 0.003080 
#    y 0.000000 1.768960 0.000000 
#    z 0.003080 0.000000 1.784280 
# 
# From -- ./inp_files/249944.got.cif
#   From: 2010.06.25/outbox.cif.g09.slc.cpg/sg12_125_cif.got.tgz:249944.got - 2010.06.28 00:19:55.
