data_PCOD8093509
_publ_section_title
;
Structure prediction by ZEFSAII (Michael W. Deem and Ramdas Pophale) SiO2 
 PCOD8093509
Probable space group: C 2/M
;
_chemical_formula_sum "Si O2"
_cell_formula_units_Z 64
_cell_length_a 27.798483
_cell_length_b 14.114469
_cell_length_c 10.518059
_cell_angle_alpha 90.000000
_cell_angle_beta 52.842252
_cell_angle_gamma 90.000000
_cell_volume 3289.017953
_symmetry_space_group_name_H-M "C 2/M"
_symmetry_group_IT_number 12
_symmetry_cell_setting 'monoclinic'
loop_
_space_group_symop_operation_xyz
x,y,z
-x,y,-z
-x,-y,-z
x,-y,z
1/2+x,1/2+y,z
1/2-x,1/2+y,-z
1/2-x,1/2-y,-z
1/2+x,1/2-y,z
loop_
_atom_site_type_symbol
_atom_site_label
_atom_site_fract_x
_atom_site_fract_y
_atom_site_fract_z
Si Si1 0.393262 0.891805 0.857874
Si Si2 0.237147 0.715831 0.659135
Si Si3 0.113044 0.390357 0.856196
Si Si4 0.277303 0.101532 0.694505
Si Si5 0.265473 0.858543 0.992128
Si Si6 0.064092 0.257366 0.437406
Si Si7 0.666337 0.605617 0.335192
Si Si8 0.410531 0.108759 0.383189
O O1 0.422533 0.871605 0.952647
O O2 0.321611 0.875321 0.997604
O O3 0.413779 0.820514 0.715983
O O4 0.407713 0.000000 0.793736
O O5 0.250000 0.750000 0.500000
O O6 0.230682 0.812852 0.750697
O O7 0.292371 0.651712 0.621286
O O8 0.174822 0.664420 0.760604
O O9 0.130021 0.500000 0.817971
O O10 0.923901 0.362723 0.213667
O O11 0.287877 0.092209 0.827730
O O12 0.339781 0.124553 0.524326
O O13 0.252081 0.000000 0.684745
O O14 0.250000 0.750000 0.000000
O O15 0.206023 0.906923 0.144505
O O16 0.109183 0.172276 0.397856
O O17 0.052832 0.323642 0.579441
O O18 0.000000 0.212403 0.500000
O O19 0.644428 0.500000 0.411326
O O20 0.429777 0.000000 0.378312
#
# Coordination Sequence:
#
# PCOD8093509 Si02
#       8
#     8   8   8   8   8   8   8   8
#     4  11  20  34  58  89 118 147 183 233 295 355
#     4  12  20  32  53  83 121 154 185 217 277 349
#     4  10  20  33  54  85 121 152 179 224 289 354
#     4  11  20  30  49  79 116 151 180 220 275 336
#     4  12  18  33  57  84 118 148 180 227 290 348
#     4  12  25  42  60  81 109 152 205 249 283 327
#     4  12  24  38  58  86 117 153 191 236 287 338
#     4  10  19  36  56  81 118 152 184 228 286 347
#
# _framework density 19.458697000000001
#
# number of rings (size 3 to 8) (size 9 to 14) (size 15 to 20)
#    0.000    0.750    7.500    1.875    0.000    1.750 
#    0.000    0.625    0.000    2.250    0.000    0.000 
#    0.000    3.000    0.000    0.000    0.000    0.000 
#
# Total GULP energy -396518.575862 kJ/mol
# GULP energy per Si atom -12391.205496 kJ/mol
# Density = 1.941441 g / cm^3
# Si number density = 19.458697 Si / 1000 Ang^3
#
#
#
# Elastic Constant Matrix: (Units=GPa)
#
#
# Indices 1 2 3 4 5 6 
#
# 1 78.0976 44.2873 15.9185 0.0000 14.1692 0.0000
# 2 44.2873 118.0343 17.1508 0.0000 8.6706 0.0000
# 3 15.9185 17.1508 24.6815 0.0000 21.7209 0.0000
# 4 0.0000 0.0000 0.0000 6.2723 0.0000 6.2541
# 5 14.1692 8.6706 21.7209 0.0000 39.6166 0.0000
# 6 0.0000 0.0000 0.0000 6.2541 0.0000 13.4142
#
#
#
# Elastic Compliance Matrix: (Units=1/GPa)
#
#
# Indices 1 2 3 4 5 6 
#
# 1 0.017485 -0.005589 -0.005732 0.000000 -0.001887 0.000000
# 2 -0.005589 0.011392 -0.007491 0.000000 0.003613 0.000000
# 3 -0.005732 -0.007491 0.089222 0.000000 -0.045229 0.000000
# 4 0.000000 0.000000 0.000000 0.297932 0.000000 -0.138903
# 5 -0.001887 0.003613 -0.045229 0.000000 0.049924 0.000000
# 6 0.000000 0.000000 0.000000 -0.138903 0.000000 0.139308
#
#
# Mechanical properties :
#
#
# Convention : Reuss Voigt Hill
#
# Bulk Modulus (GPa) = 12.42626 41.72520 27.07573
# Shear Modulus (GPa) = 7.46589 21.42440 14.44515
#
# Velocity S-wave (km/s) = 1.96090 3.32176 2.72756
# Velocity P-wave (km/s) = 3.39509 6.01678 4.88509
#
# Compressibility (1/GPa) = 0.08047475
#
# Stress axis : x y z
#
# Youngs Moduli (GPa) = 57.19319 87.77961 11.20797
#
# Poissons Ratio (x) = 0.49058 0.06425
# Poissons Ratio (y) = 0.31964 0.08396
# Poissons Ratio (z) = 0.32784 0.65757
#
# Static dielectric constant tensor:
#      x y z
#    x 2.573790 0.000000 -0.195080 
#    y 0.000000 3.564780 0.000000 
#    z -0.195080 0.000000 3.235970 
# 
# 
# High freq. dielectric constant tensor:
#      x y z
#    x 1.753260 0.000000 0.032040 
#    y 0.000000 1.755840 0.000000 
#    z 0.032040 0.000000 1.744380 
# 
# From -- ./inp_files/189458.got.cif
#   From: 2010.06.25/outbox.cif.g09.slc.cpg/sg12_95_cif.got.tgz:189458.got - 2010.06.28 00:19:55.
