data_PCOD8093479
_publ_section_title
;
Structure prediction by ZEFSAII (Michael W. Deem and Ramdas Pophale) SiO2 
 PCOD8093479
Probable space group: C 2/M
;
_chemical_formula_sum "Si O2"
_cell_formula_units_Z 64
_cell_length_a 20.608424
_cell_length_b 15.900367
_cell_length_c 26.298073
_cell_angle_alpha 90.000000
_cell_angle_beta 159.076256
_cell_angle_gamma 90.000000
_cell_volume 3077.487143
_symmetry_space_group_name_H-M "C 2/M"
_symmetry_group_IT_number 12
_symmetry_cell_setting 'monoclinic'
loop_
_space_group_symop_operation_xyz
x,y,z
-x,y,-z
-x,-y,-z
x,-y,z
1/2+x,1/2+y,z
1/2-x,1/2+y,-z
1/2-x,1/2-y,-z
1/2+x,1/2-y,z
loop_
_atom_site_type_symbol
_atom_site_label
_atom_site_fract_x
_atom_site_fract_y
_atom_site_fract_z
Si Si1 0.657905 0.597303 0.850715
Si Si2 0.743171 0.901449 0.553141
Si Si3 0.954547 0.350246 0.414825
Si Si4 0.986178 0.598096 0.275069
Si Si5 0.003808 0.400518 0.832844
Si Si6 0.698871 0.357143 0.144511
Si Si7 0.699255 0.838687 0.147459
Si Si8 0.670901 0.663371 0.653026
O O1 0.672183 0.500000 0.847125
O O2 0.452976 0.622253 0.714827
O O3 0.696489 0.648251 0.828137
O O4 0.797408 0.620381 0.998009
O O5 0.639352 0.842311 0.517381
O O6 0.666462 0.879803 0.440229
O O7 0.708579 0.000000 0.539382
O O8 0.000000 0.401640 0.500000
O O9 0.812798 0.399193 0.274326
O O10 0.872052 0.261685 0.372378
O O11 0.959447 0.500000 0.250395
O O12 0.001872 0.634366 0.229299
O O13 0.802399 0.632184 0.166897
O O14 0.962711 0.500000 0.805772
O O15 0.853608 0.349686 0.754415
O O16 0.679884 0.259679 0.143611
O O17 0.500000 0.399828 0.000000
O O18 0.805214 0.878057 0.273494
O O19 0.500000 0.880914 0.000000
O O20 0.500000 0.618696 0.500000
#
# Coordination Sequence:
#
# PCOD8093479 Si02
#       8
#     8   8   8   8   8   8   8   8
#     4  10  21  36  56  83 111 142 182 228 277 330
#     4   9  19  37  59  83 110 143 183 225 277 328
#     4   9  19  37  56  79 112 143 179 231 271 321
#     4   9  19  37  56  80 113 145 182 228 272 326
#     4  10  21  37  56  82 115 145 181 227 274 326
#     4   9  19  35  56  80 109 147 188 225 272 324
#     4  10  19  36  55  77 112 145 184 229 269 320
#     4  10  21  36  54  79 112 146 185 226 267 325
#
# _framework density 20.796188000000001
#
# number of rings (size 3 to 8) (size 9 to 14) (size 15 to 20)
#    0.000    2.500    1.250    0.000    1.750    2.500 
#    4.500    2.500    0.000    0.000    0.000    0.000 
#    0.000    0.000    0.000    0.000    0.000    0.000 
#
# Total GULP energy -396545.620264 kJ/mol
# GULP energy per Si atom -12392.050633 kJ/mol
# Density = 2.074885 g / cm^3
# Si number density = 20.796188 Si / 1000 Ang^3
#
#
#
# Elastic Constant Matrix: (Units=GPa)
#
#
# Indices 1 2 3 4 5 6 
#
# 1 164.6290 26.1055 89.5157 -0.0104 -18.0194 0.0233
# 2 26.1055 21.7532 23.6707 0.0362 3.5273 -0.0226
# 3 89.5157 23.6707 180.7384 0.0974 -2.4645 -0.0776
# 4 -0.0104 0.0362 0.0974 15.8456 0.0022 5.2947
# 5 -18.0194 3.5273 -2.4645 0.0022 44.3609 -0.0355
# 6 0.0233 -0.0226 -0.0776 5.2947 -0.0355 14.6108
#
#
#
# Elastic Compliance Matrix: (Units=1/GPa)
#
#
# Indices 1 2 3 4 5 6 
#
# 1 0.009977 -0.008628 -0.003750 0.000070 0.004530 -0.000063
# 2 -0.008628 0.062050 -0.003971 -0.000164 -0.008659 0.000127
# 3 -0.003750 -0.003971 0.007900 -0.000063 -0.000768 0.000063
# 4 0.000070 -0.000164 -0.000063 0.071805 0.000014 -0.026022
# 5 0.004530 -0.008659 -0.000768 0.000014 0.025028 0.000031
# 6 -0.000063 0.000127 0.000063 -0.026022 0.000031 0.077873
#
#
# Mechanical properties :
#
#
# Convention : Reuss Voigt Hill
#
# Bulk Modulus (GPa) = 21.17329 71.74494 46.45911
# Shear Modulus (GPa) = 16.49762 30.15205 23.32483
#
# Velocity S-wave (km/s) = 2.81961 3.81186 3.35265
# Velocity P-wave (km/s) = 4.56111 7.34491 6.11357
#
# Compressibility (1/GPa) = 0.04722931
#
# Stress axis : x y z
#
# Youngs Moduli (GPa) = 100.22826 16.11598 126.58628
#
# Poissons Ratio (x) = 0.13905 0.47468
# Poissons Ratio (y) = 0.86476 0.50270
# Poissons Ratio (z) = 0.37584 0.06400
#
# Static dielectric constant tensor:
#      x y z
#    x 3.976350 0.000010 -0.411540 
#    y 0.000010 3.322460 -0.000190 
#    z -0.411540 -0.000190 4.456030 
# 
# 
# High freq. dielectric constant tensor:
#      x y z
#    x 1.818260 0.000000 -0.011930 
#    y 0.000000 1.775430 -0.000010 
#    z -0.011930 -0.000010 1.832560 
# 
# From -- ./inp_files/366821.got.cif
#   From: 2010.06.25/outbox.cif.g09.slc.cpg/sg12_184_cif.got.tgz:366821.got - 2010.06.28 00:19:55.
