data_PCOD8093826
_publ_section_title
;
Structure prediction by ZEFSAII (Michael W. Deem and Ramdas Pophale) SiO2 
 PCOD8093826
Probable space group: C 2/M
;
_chemical_formula_sum "Si O2"
_cell_formula_units_Z 40
_cell_length_a 16.170722
_cell_length_b 25.652863
_cell_length_c 5.196768
_cell_angle_alpha 90.000000
_cell_angle_beta 71.472342
_cell_angle_gamma 90.000000
_cell_volume 2044.019165
_symmetry_space_group_name_H-M "C 2/M"
_symmetry_group_IT_number 12
_symmetry_cell_setting 'monoclinic'
loop_
_space_group_symop_operation_xyz
x,y,z
-x,y,-z
-x,-y,-z
x,-y,z
1/2+x,1/2+y,z
1/2-x,1/2+y,-z
1/2-x,1/2-y,-z
1/2+x,1/2-y,z
loop_
_atom_site_type_symbol
_atom_site_label
_atom_site_fract_x
_atom_site_fract_y
_atom_site_fract_z
Si Si1 0.253869 0.689918 0.432147
Si Si2 0.677782 0.400391 0.350045
Si Si3 0.403412 0.878050 0.547392
Si Si4 0.857571 0.558860 0.097925
Si Si5 0.401220 0.629655 0.077745
O O1 0.250000 0.750000 0.500000
O O2 0.272781 0.656026 0.671537
O O3 0.162915 0.670671 0.397430
O O4 0.335054 0.679113 0.156427
O O5 0.621114 0.410182 0.665314
O O6 0.753025 0.443299 0.246758
O O7 0.612735 0.401044 0.173624
O O8 0.500000 0.855390 0.500000
O O9 0.375349 0.916235 0.803384
O O10 0.405376 0.909981 0.278517
O O11 0.893171 0.500000 0.062421
O O12 0.500000 0.649937 0.000000
#
# Coordination Sequence:
#
# PCOD8093826 Si02
#       5
#     8   8   8   8   8
#     4   9  21  39  59  83 118 156 193 240 300 350
#     4   9  19  37  57  83 116 149 190 244 292 345
#     4  11  23  40  57  90 126 157 200 250 295 351
#     4  11  21  39  64  87 118 162 201 244 304 363
#     4  10  19  36  60  83 111 150 194 239 289 349
#
# _framework density 19.569288
#
# number of rings (size 3 to 8) (size 9 to 14) (size 15 to 20)
#    1.200    0.800    2.000    1.800    0.000    3.200 
#    3.600    0.000    0.000    3.600    0.000    0.000 
#    0.000    0.000    0.000    0.000    0.000    0.000 
#
# Total GULP energy -247827.426796 kJ/mol
# GULP energy per Si atom -12391.371340 kJ/mol
# Density = 1.952475 g / cm^3
# Si number density = 19.569288 Si / 1000 Ang^3
#
#
#
# Elastic Constant Matrix: (Units=GPa)
#
#
# Indices 1 2 3 4 5 6 
#
# 1 165.6134 35.1052 36.7319 0.0000 -4.6982 0.0000
# 2 35.1052 80.6170 13.2518 0.0000 2.3763 0.0000
# 3 36.7319 13.2518 103.7723 0.0000 18.0101 0.0000
# 4 0.0000 0.0000 0.0000 14.6237 0.0000 3.9821
# 5 -4.6982 2.3763 18.0101 0.0000 40.9665 0.0000
# 6 0.0000 0.0000 0.0000 3.9821 0.0000 8.3007
#
#
#
# Elastic Compliance Matrix: (Units=1/GPa)
#
#
# Indices 1 2 3 4 5 6 
#
# 1 0.007266 -0.002802 -0.002584 0.000000 0.002132 0.000000
# 2 -0.002802 0.013751 -0.000617 0.000000 -0.000848 0.000000
# 3 -0.002584 -0.000617 0.011557 0.000000 -0.005341 0.000000
# 4 0.000000 0.000000 0.000000 0.078657 0.000000 -0.037734
# 5 0.002132 -0.000848 -0.005341 0.000000 0.027052 0.000000
# 6 0.000000 0.000000 0.000000 -0.037734 0.000000 0.138574
#
#
# Mechanical properties :
#
#
# Convention : Reuss Voigt Hill
#
# Bulk Modulus (GPa) = 48.62052 57.79785 53.20919
# Shear Modulus (GPa) = 16.90794 30.43909 23.67352
#
# Velocity S-wave (km/s) = 2.94258 3.94820 3.48189
# Velocity P-wave (km/s) = 6.03691 7.09813 6.58892
#
# Compressibility (1/GPa) = 0.02056745
#
# Stress axis : x y z
#
# Youngs Moduli (GPa) = 137.63344 72.72259 86.52821
#
# Poissons Ratio (x) = 0.20377 0.22359
# Poissons Ratio (y) = 0.38564 0.05339
# Poissons Ratio (z) = 0.35564 0.04488
#
# Static dielectric constant tensor:
#      x y z
#    x 3.656470 0.000000 0.016980 
#    y 0.000000 3.026160 0.000000 
#    z 0.016980 0.000000 3.639890 
# 
# 
# High freq. dielectric constant tensor:
#      x y z
#    x 1.772690 0.000000 0.004010 
#    y 0.000000 1.710960 0.000000 
#    z 0.004010 0.000000 1.772960 
# 
# From -- ./inp_files/15748.got.cif
#   From: 2010.06.25/outbox.cif.g09.slc.cpg/sg12_8_cif.got.tgz:15748.got - 2010.06.28 00:19:55.
