data_PCOD8093314
_publ_section_title
;
Structure prediction by ZEFSAII (Michael W. Deem and Ramdas Pophale) SiO2 
 PCOD8093314
Probable space group: C 2/M
;
_chemical_formula_sum "Si O2"
_cell_formula_units_Z 56
_cell_length_a 21.088651
_cell_length_b 12.945548
_cell_length_c 10.964434
_cell_angle_alpha 90.000000
_cell_angle_beta 99.945401
_cell_angle_gamma 90.000000
_cell_volume 2948.354401
_symmetry_space_group_name_H-M "C 2/M"
_symmetry_group_IT_number 12
_symmetry_cell_setting 'monoclinic'
loop_
_space_group_symop_operation_xyz
x,y,z
-x,y,-z
-x,-y,-z
x,-y,z
1/2+x,1/2+y,z
1/2-x,1/2+y,-z
1/2-x,1/2-y,-z
1/2+x,1/2-y,z
loop_
_atom_site_type_symbol
_atom_site_label
_atom_site_fract_x
_atom_site_fract_y
_atom_site_fract_z
Si Si1 0.648635 0.775445 0.026886
Si Si2 0.221119 0.879537 0.896290
Si Si3 0.187627 0.616753 0.469464
Si Si4 0.913515 0.283038 0.734034
Si Si5 0.436256 0.617851 0.542849
Si Si6 0.532936 0.115086 0.880441
Si Si7 0.313138 0.686800 0.377552
O O1 0.703123 0.863503 0.056014
O O2 0.615657 0.753349 0.145175
O O3 0.679603 0.667676 0.993181
O O4 0.596881 0.815520 0.910961
O O5 0.200891 0.817116 0.769529
O O6 0.205693 0.000000 0.878435
O O7 0.180034 0.500000 0.514893
O O8 0.133518 0.637541 0.349692
O O9 0.257309 0.630053 0.433382
O O10 0.180443 0.693070 0.582027
O O11 0.919496 0.178181 0.660361
O O12 0.983685 0.334431 0.768300
O O13 0.500000 0.663568 0.500000
O O14 0.447662 0.500000 0.585186
O O15 0.378759 0.626687 0.426908
O O16 0.550973 0.000000 0.840949
O O17 0.500000 0.107567 0.000000
#
# Coordination Sequence:
#
# PCOD8093314 Si02
#       7
#     8   8   8   8   8   8   8
#     4  10  22  37  56  87 115 146 194 235 278 338
#     4  11  22  38  60  82 116 155 190 235 285 337
#     4  10  19  35  61  88 113 145 187 237 290 338
#     4  10  20  36  59  86 115 145 189 238 280 343
#     4  10  22  38  58  82 112 151 190 232 283 339
#     4   9  18  34  57  81 109 146 185 228 279 332
#     4  10  21  36  58  86 112 147 192 235 278 350
#
# _framework density 18.993645999999998
#
# number of rings (size 3 to 8) (size 9 to 14) (size 15 to 20)
#    0.000    2.000    1.429    2.143    2.000    1.714 
#    0.000    3.571    0.000    4.714    0.000    0.000 
#    0.000    0.000    0.000    0.000    0.000    0.000 
#
# Total GULP energy -347290.859082 kJ/mol
# GULP energy per Si atom -12403.244967 kJ/mol
# Density = 1.895042 g / cm^3
# Si number density = 18.993646 Si / 1000 Ang^3
#
#
#
# Elastic Constant Matrix: (Units=GPa)
#
#
# Indices 1 2 3 4 5 6 
#
# 1 118.0844 39.5894 43.8194 0.0000 22.1985 0.0000
# 2 39.5894 110.6064 39.9351 0.0000 -1.5215 0.0000
# 3 43.8194 39.9351 78.3158 0.0000 16.9120 0.0000
# 4 0.0000 0.0000 0.0000 16.6513 0.0000 3.8044
# 5 22.1985 -1.5215 16.9120 0.0000 38.9636 0.0000
# 6 0.0000 0.0000 0.0000 3.8044 0.0000 19.7046
#
#
#
# Elastic Compliance Matrix: (Units=1/GPa)
#
#
# Indices 1 2 3 4 5 6 
#
# 1 0.011909 -0.002851 -0.004105 0.000000 -0.005114 0.000000
# 2 -0.002851 0.012134 -0.005567 0.000000 0.004514 0.000000
# 3 -0.004105 -0.005567 0.019251 0.000000 -0.006234 0.000000
# 4 0.000000 0.000000 0.000000 0.062827 0.000000 -0.012130
# 5 -0.005114 0.004514 -0.006234 0.000000 0.031461 0.000000
# 6 0.000000 0.000000 0.000000 -0.012130 0.000000 0.053091
#
#
# Mechanical properties :
#
#
# Convention : Reuss Voigt Hill
#
# Bulk Modulus (GPa) = 54.80234 61.52160 58.16197
# Shear Modulus (GPa) = 22.54272 27.30809 24.92540
#
# Velocity S-wave (km/s) = 3.44881 3.79588 3.62650
# Velocity P-wave (km/s) = 6.69139 7.18836 6.94432
#
# Compressibility (1/GPa) = 0.01824740
#
# Stress axis : x y z
#
# Youngs Moduli (GPa) = 83.96912 82.41634 51.94584
#
# Poissons Ratio (x) = 0.23495 0.21326
# Poissons Ratio (y) = 0.23937 0.28918
# Poissons Ratio (z) = 0.34472 0.45881
#
# Static dielectric constant tensor:
#      x y z
#    x 3.639910 0.000000 0.257260 
#    y 0.000000 3.352200 0.000000 
#    z 0.257260 0.000000 3.412570 
# 
# 
# High freq. dielectric constant tensor:
#      x y z
#    x 1.746090 0.000000 0.018650 
#    y 0.000000 1.733250 0.000000 
#    z 0.018650 0.000000 1.732280 
# 
# From -- ./inp_files/165723.got.cif
#   From: 2010.06.25/outbox.cif.g09.slc.cpg/sg12_83_cif.got.tgz:165723.got - 2010.06.28 00:19:55.
