data_PCOD8093475
_publ_section_title
;
Structure prediction by ZEFSAII (Michael W. Deem and Ramdas Pophale) SiO2 
 PCOD8093475
Probable space group: C 2/M
;
_chemical_formula_sum "Si O2"
_cell_formula_units_Z 48
_cell_length_a 22.763870
_cell_length_b 14.270404
_cell_length_c 14.040891
_cell_angle_alpha 90.000000
_cell_angle_beta 36.426547
_cell_angle_gamma 90.000000
_cell_volume 2708.389971
_symmetry_space_group_name_H-M "C 2/M"
_symmetry_group_IT_number 12
_symmetry_cell_setting 'monoclinic'
loop_
_space_group_symop_operation_xyz
x,y,z
-x,y,-z
-x,-y,-z
x,-y,z
1/2+x,1/2+y,z
1/2-x,1/2+y,-z
1/2-x,1/2-y,-z
1/2+x,1/2-y,z
loop_
_atom_site_type_symbol
_atom_site_label
_atom_site_fract_x
_atom_site_fract_y
_atom_site_fract_z
Si Si1 0.109202 0.240014 0.480359
Si Si2 0.225758 0.391218 0.662009
Si Si3 0.616436 0.741075 0.253088
Si Si4 0.219452 0.604801 0.013599
Si Si5 0.899762 0.608928 0.352656
Si Si6 0.591700 0.896034 0.000667
O O1 0.171147 0.161359 0.455287
O O2 0.148079 0.249308 0.322089
O O3 0.120834 0.337458 0.522050
O O4 0.995220 0.209946 0.621170
O O5 0.242543 0.500000 0.666252
O O6 0.194998 0.378655 0.592266
O O7 0.136068 0.350182 0.845952
O O8 0.679255 0.663054 0.115103
O O9 0.636153 0.844552 0.185764
O O10 0.237260 0.500000 0.030230
O O11 0.183329 0.601106 0.952762
O O12 0.918483 0.500000 0.354166
O O13 0.996069 0.654019 0.172931
O O14 0.553852 0.000000 0.024131
#
# Coordination Sequence:
#
# PCOD8093475 Si02
#       6
#     8   8   8   8   8   8
#     4  11  21  34  50  76 109 135 162 206 256 305
#     4  10  20  34  53  76 102 134 171 209 251 297
#     4  10  22  34  52  78 102 134 172 202 250 310
#     4  10  19  36  55  72 100 135 171 212 247 289
#     4  10  20  34  53  76 102 134 171 209 251 297
#     4   9  16  31  53  74  95 125 169 213 248 285
#
# _framework density 17.722705999999999
#
# number of rings (size 3 to 8) (size 9 to 14) (size 15 to 20)
#    0.000    2.000    3.333    1.000    0.000    3.333 
#    0.000    3.333    0.000    0.000    0.000    0.000 
#    0.000   14.000    0.000    0.000    0.000    0.000 
#
# Total GULP energy -297499.345836 kJ/mol
# GULP energy per Si atom -12395.806076 kJ/mol
# Density = 1.768237 g / cm^3
# Si number density = 17.722706 Si / 1000 Ang^3
#
#
#
# Elastic Constant Matrix: (Units=GPa)
#
#
# Indices 1 2 3 4 5 6 
#
# 1 75.7117 29.0066 19.0467 0.0000 -3.8978 0.0000
# 2 29.0066 84.2195 31.9791 0.0000 -7.9328 0.0000
# 3 19.0467 31.9791 65.7453 0.0000 -8.4866 0.0000
# 4 0.0000 0.0000 0.0000 22.5746 0.0000 0.4905
# 5 -3.8978 -7.9328 -8.4866 0.0000 16.4869 0.0000
# 6 0.0000 0.0000 0.0000 0.4905 0.0000 25.3606
#
#
#
# Elastic Compliance Matrix: (Units=1/GPa)
#
#
# Indices 1 2 3 4 5 6 
#
# 1 0.015502 -0.004437 -0.002287 0.000000 0.000353 0.000000
# 2 -0.004437 0.016036 -0.006056 0.000000 0.003549 0.000000
# 3 -0.002287 -0.006056 0.019680 0.000000 0.006676 0.000000
# 4 0.000000 0.000000 0.000000 0.044316 0.000000 -0.000857
# 5 0.000353 0.003549 0.006676 0.000000 0.065881 0.000000
# 6 0.000000 0.000000 0.000000 -0.000857 0.000000 0.039448
#
#
# Mechanical properties :
#
#
# Convention : Reuss Voigt Hill
#
# Bulk Modulus (GPa) = 38.97664 42.86015 40.91839
# Shear Modulus (GPa) = 21.27867 22.59402 21.93635
#
# Velocity S-wave (km/s) = 3.46879 3.57440 3.52199
# Velocity P-wave (km/s) = 6.17119 6.42428 6.29900
#
# Compressibility (1/GPa) = 0.02565639
#
# Stress axis : x y z
#
# Youngs Moduli (GPa) = 64.50980 62.35954 50.81210
#
# Poissons Ratio (x) = 0.27671 0.11621
# Poissons Ratio (y) = 0.28625 0.30774
# Poissons Ratio (z) = 0.14753 0.37767
#
# Static dielectric constant tensor:
#      x y z
#    x 3.282790 0.000000 0.037360 
#    y 0.000000 3.110760 0.000000 
#    z 0.037360 0.000000 3.314710 
# 
# 
# High freq. dielectric constant tensor:
#      x y z
#    x 1.691910 0.000000 -0.000030 
#    y 0.000000 1.655730 0.000000 
#    z -0.000030 0.000000 1.682450 
# 
# From -- ./inp_files/143863.got.cif
#   From: 2010.06.25/outbox.cif.g09.slc.cpg/sg12_72_cif.got.tgz:143863.got - 2010.06.28 00:19:55.
