data_PCOD8093092
_publ_section_title
;
Structure prediction by ZEFSAII (Michael W. Deem and Ramdas Pophale) SiO2 
 PCOD8093092
Probable space group: C 2/M
;
_chemical_formula_sum "Si O2"
_cell_formula_units_Z 56
_cell_length_a 25.128985
_cell_length_b 9.063009
_cell_length_c 17.293795
_cell_angle_alpha 90.000000
_cell_angle_beta 46.805439
_cell_angle_gamma 90.000000
_cell_volume 2871.343920
_symmetry_space_group_name_H-M "C 2/M"
_symmetry_group_IT_number 12
_symmetry_cell_setting 'monoclinic'
loop_
_space_group_symop_operation_xyz
x,y,z
-x,y,-z
-x,-y,-z
x,-y,z
1/2+x,1/2+y,z
1/2-x,1/2+y,-z
1/2-x,1/2-y,-z
1/2+x,1/2-y,z
loop_
_atom_site_type_symbol
_atom_site_label
_atom_site_fract_x
_atom_site_fract_y
_atom_site_fract_z
Si Si1 0.823423 0.675175 0.145269
Si Si2 0.415739 0.174737 0.196349
Si Si3 0.427895 0.174227 0.907913
Si Si4 0.825530 0.670309 0.430184
Si Si5 0.158517 0.830720 0.309081
Si Si6 0.923536 0.328114 0.476666
Si Si7 0.439896 0.669094 0.733709
O O1 0.822704 0.500000 0.151697
O O2 0.872604 0.742752 0.165849
O O3 0.740614 0.735012 0.233007
O O4 0.858618 0.721859 0.028385
O O5 0.500220 0.223488 0.115258
O O6 0.379363 0.234139 0.311300
O O7 0.411167 0.000000 0.195528
O O8 0.422479 0.255076 0.831990
O O9 0.430586 0.000000 0.888549
O O10 0.811339 0.500000 0.428460
O O11 0.750000 0.750000 0.500000
O O12 0.859050 0.699905 0.480316
O O13 0.102921 0.736230 0.415760
O O14 0.132898 0.819641 0.245813
O O15 0.156328 0.000000 0.340194
O O16 0.941702 0.500000 0.468185
O O17 0.995512 0.247835 0.376247
O O18 0.462165 0.500000 0.726049
#
# Coordination Sequence:
#
# PCOD8093092 Si02
#       7
#     8   8   8   8   8   8   8
#     4   9  18  33  58  85 111 147 187 231 281 335
#     4   9  16  31  54  82 112 140 179 229 277 328
#     4  10  19  35  59  86 112 143 189 237 279 332
#     4  10  20  33  52  81 115 147 181 224 273 332
#     4  10  22  39  57  82 114 150 192 232 283 345
#     4  11  22  38  59  85 113 145 190 237 281 333
#     4  11  23  38  57  81 113 153 191 232 285 342
#
# _framework density 19.503063000000001
#
# number of rings (size 3 to 8) (size 9 to 14) (size 15 to 20)
#    0.000    2.000    1.429    2.571    0.000    7.429 
#    0.000    0.714    0.000    2.571    0.000    0.000 
#    0.000    0.000    0.000    0.000    0.000    0.000 
#
# Total GULP energy -347213.303683 kJ/mol
# GULP energy per Si atom -12400.475132 kJ/mol
# Density = 1.945867 g / cm^3
# Si number density = 19.503063 Si / 1000 Ang^3
#
#
#
# Elastic Constant Matrix: (Units=GPa)
#
#
# Indices 1 2 3 4 5 6 
#
# 1 71.5385 36.9119 13.0251 0.0355 21.7524 -0.0186
# 2 36.9119 58.4689 32.8460 0.0531 5.3881 -0.0319
# 3 13.0251 32.8460 88.1436 0.0168 19.4650 -0.0188
# 4 0.0355 0.0531 0.0168 23.9397 -0.0214 1.0114
# 5 21.7524 5.3881 19.4650 -0.0214 27.2524 0.0122
# 6 -0.0186 -0.0319 -0.0188 1.0114 0.0122 24.4408
#
#
#
# Elastic Compliance Matrix: (Units=1/GPa)
#
#
# Indices 1 2 3 4 5 6 
#
# 1 0.033782 -0.024629 0.010763 -0.000030 -0.029782 0.000018
# 2 -0.024629 0.039658 -0.016323 -0.000019 0.023476 0.000009
# 3 0.010763 -0.016323 0.020209 -0.000012 -0.019798 0.000013
# 4 -0.000030 -0.000019 -0.000012 0.041845 0.000070 -0.001732
# 5 -0.029782 0.023476 -0.019798 0.000070 0.069965 -0.000045
# 6 0.000018 0.000009 0.000013 -0.001732 -0.000045 0.040987
#
#
# Mechanical properties :
#
#
# Convention : Reuss Voigt Hill
#
# Bulk Modulus (GPa) = 30.05584 42.63520 36.34552
# Shear Modulus (GPa) = 15.72747 24.15111 19.93929
#
# Velocity S-wave (km/s) = 2.84282 3.52280 3.20092
# Velocity P-wave (km/s) = 5.12052 6.20121 5.68660
#
# Compressibility (1/GPa) = 0.03327141
#
# Stress axis : x y z
#
# Youngs Moduli (GPa) = 29.60113 25.21578 49.48204
#
# Poissons Ratio (x) = 0.62103 -0.53255
# Poissons Ratio (y) = 0.72903 0.80769
# Poissons Ratio (z) = -0.31858 0.41160
#
# Static dielectric constant tensor:
#      x y z
#    x 3.820710 -0.000010 0.073380 
#    y -0.000010 3.283670 0.000000 
#    z 0.073380 0.000000 3.747430 
# 
# 
# High freq. dielectric constant tensor:
#      x y z
#    x 1.774030 0.000000 0.001210 
#    y 0.000000 1.723440 0.000000 
#    z 0.001210 0.000000 1.767120 
# 
# From -- ./inp_files/292421.got.cif
#   From: 2010.06.25/outbox.cif.g09.slc.cpg/sg12_147_cif.got.tgz:292421.got - 2010.06.28 00:19:55.
