data_PCOD8093097
_publ_section_title
;
Structure prediction by ZEFSAII (Michael W. Deem and Ramdas Pophale) SiO2 
 PCOD8093097
Probable space group: C 2/M
;
_chemical_formula_sum "Si O2"
_cell_formula_units_Z 56
_cell_length_a 25.259253
_cell_length_b 8.912338
_cell_length_c 12.685564
_cell_angle_alpha 90.000000
_cell_angle_beta 85.970362
_cell_angle_gamma 90.000000
_cell_volume 2848.701568
_symmetry_space_group_name_H-M "C 2/M"
_symmetry_group_IT_number 12
_symmetry_cell_setting 'monoclinic'
loop_
_space_group_symop_operation_xyz
x,y,z
-x,y,-z
-x,-y,-z
x,-y,z
1/2+x,1/2+y,z
1/2-x,1/2+y,-z
1/2-x,1/2-y,-z
1/2+x,1/2-y,z
loop_
_atom_site_type_symbol
_atom_site_label
_atom_site_fract_x
_atom_site_fract_y
_atom_site_fract_z
Si Si1 0.395034 0.672281 0.519723
Si Si2 0.634533 0.822481 0.101087
Si Si3 0.213534 0.677004 0.418890
Si Si4 0.435926 0.677875 0.289728
Si Si5 0.445761 0.327858 0.731763
Si Si6 0.257135 0.822118 0.814595
Si Si7 0.140589 0.821434 0.884841
O O1 0.375830 0.500000 0.508714
O O2 0.346661 0.777700 0.556034
O O3 0.419529 0.735948 0.407747
O O4 0.437836 0.685056 0.607083
O O5 0.595772 0.773654 0.200058
O O6 0.694560 0.767127 0.118179
O O7 0.631659 0.000000 0.090646
O O8 0.616269 0.746798 0.994797
O O9 0.219116 0.500000 0.424419
O O10 0.250000 0.750000 0.500000
O O11 0.233051 0.739816 0.303863
O O12 0.436157 0.500000 0.292338
O O13 0.495096 0.733336 0.252448
O O14 0.394650 0.737666 0.208004
O O15 0.438610 0.500000 0.769613
O O16 0.200726 0.760083 0.863259
O O17 0.255795 0.000000 0.811796
O O18 0.138718 0.000000 0.891864
#
# Coordination Sequence:
#
# PCOD8093097 Si02
#       7
#     8   8   8   8   8   8   8
#     4  10  19  35  59  86 114 146 188 234 282 335
#     4  11  22  38  57  81 114 149 186 234 289 337
#     4  11  21  35  55  83 118 153 187 225 280 338
#     4   9  19  36  59  85 115 148 187 237 288 333
#     4  10  20  36  60  87 112 147 194 235 275 339
#     4   9  19  36  57  79 110 147 183 228 284 338
#     4  10  20  37  59  81 107 146 192 234 280 336
#
# _framework density 19.658079000000001
#
# number of rings (size 3 to 8) (size 9 to 14) (size 15 to 20)
#    0.000    2.000    1.429    2.571    0.000    4.571 
#    0.000    8.571    0.000    1.714    0.000    0.000 
#    0.000    0.000    0.000    0.000    0.000    0.000 
#
# Total GULP energy -347236.212460 kJ/mol
# GULP energy per Si atom -12401.293302 kJ/mol
# Density = 1.961334 g / cm^3
# Si number density = 19.658079 Si / 1000 Ang^3
#
#
#
# Elastic Constant Matrix: (Units=GPa)
#
#
# Indices 1 2 3 4 5 6 
#
# 1 117.2541 25.5465 56.3749 0.0000 2.4005 0.0000
# 2 25.5465 42.6317 27.1582 0.0000 3.9806 0.0000
# 3 56.3749 27.1582 134.9185 0.0000 12.5886 0.0000
# 4 0.0000 0.0000 0.0000 26.7439 0.0000 -4.0152
# 5 2.4005 3.9806 12.5886 0.0000 27.7124 0.0000
# 6 0.0000 0.0000 0.0000 -4.0152 0.0000 23.0381
#
#
#
# Elastic Compliance Matrix: (Units=1/GPa)
#
#
# Indices 1 2 3 4 5 6 
#
# 1 0.011385 -0.004407 -0.004007 0.000000 0.001467 0.000000
# 2 -0.004407 0.028670 -0.003740 0.000000 -0.002038 0.000000
# 3 -0.004007 -0.003740 0.010188 0.000000 -0.003744 0.000000
# 4 0.000000 0.000000 0.000000 0.038396 0.000000 0.006692
# 5 0.001467 -0.002038 -0.003744 0.000000 0.037951 0.000000
# 6 0.000000 0.000000 0.000000 0.006692 0.000000 0.044573
#
#
# Mechanical properties :
#
#
# Convention : Reuss Voigt Hill
#
# Bulk Modulus (GPa) = 38.55558 56.99595 47.77577
# Shear Modulus (GPa) = 24.49590 27.88053 26.18821
#
# Velocity S-wave (km/s) = 3.53384 3.77008 3.65387
# Velocity P-wave (km/s) = 6.02548 6.92878 6.49286
#
# Compressibility (1/GPa) = 0.02593658
#
# Stress axis : x y z
#
# Youngs Moduli (GPa) = 87.83399 34.87975 98.15193
#
# Poissons Ratio (x) = 0.15370 0.39330
# Poissons Ratio (y) = 0.38706 0.36705
# Poissons Ratio (z) = 0.35195 0.13044
#
# Static dielectric constant tensor:
#      x y z
#    x 3.482590 0.000000 0.076910 
#    y 0.000000 3.193950 0.000000 
#    z 0.076910 0.000000 3.735780 
# 
# 
# High freq. dielectric constant tensor:
#      x y z
#    x 1.774800 0.000000 0.003210 
#    y 0.000000 1.730070 0.000000 
#    z 0.003210 0.000000 1.778780 
# 
# From -- ./inp_files/180874.got.cif
#   From: 2010.06.25/outbox.cif.g09.slc.cpg/sg12_91_cif.got.tgz:180874.got - 2010.06.28 00:19:55.
