data_PCOD8093055
_publ_section_title
;
Structure prediction by ZEFSAII (Michael W. Deem and Ramdas Pophale) SiO2 
 PCOD8093055
Probable space group: C 2/M
;
_chemical_formula_sum "Si O2"
_cell_formula_units_Z 56
_cell_length_a 21.007713
_cell_length_b 9.057396
_cell_length_c 17.476228
_cell_angle_alpha 90.000000
_cell_angle_beta 118.520591
_cell_angle_gamma 90.000000
_cell_volume 2921.753409
_symmetry_space_group_name_H-M "C 2/M"
_symmetry_group_IT_number 12
_symmetry_cell_setting 'monoclinic'
loop_
_space_group_symop_operation_xyz
x,y,z
-x,y,-z
-x,-y,-z
x,-y,z
1/2+x,1/2+y,z
1/2-x,1/2+y,-z
1/2-x,1/2-y,-z
1/2+x,1/2-y,z
loop_
_atom_site_type_symbol
_atom_site_label
_atom_site_fract_x
_atom_site_fract_y
_atom_site_fract_z
Si Si1 0.326452 0.326662 0.557022
Si Si2 0.658533 0.674180 0.265482
Si Si3 0.321895 0.663459 0.132025
Si Si4 0.075837 0.825374 0.074205
Si Si5 0.158269 0.337540 0.996926
Si Si6 0.915288 0.171523 0.459458
Si Si7 0.810022 0.675578 0.285110
O O1 0.311103 0.500000 0.549565
O O2 0.250000 0.250000 0.500000
O O3 0.357000 0.271133 0.657018
O O4 0.386145 0.285921 0.527446
O O5 0.664984 0.500000 0.267743
O O6 0.592685 0.723539 0.171567
O O7 0.735225 0.736688 0.278653
O O8 0.356125 0.500000 0.164870
O O9 0.368148 0.754350 0.095544
O O10 0.321773 0.753108 0.209807
O O11 0.243847 0.643532 0.049685
O O12 0.078365 0.000000 0.066579
O O13 0.138484 0.758256 0.058930
O O14 0.000000 0.760954 0.000000
O O15 0.121704 0.500000 0.977540
O O16 0.875500 0.274706 0.376281
O O17 0.000000 0.206168 0.500000
O O18 0.899135 0.000000 0.432483
O O19 0.810173 0.500000 0.276394
#
# Coordination Sequence:
#
# PCOD8093055 Si02
#       7
#     8   8   8   8   8   8   8
#     4  10  19  35  59  84 113 148 192 242 290 344
#     4   9  18  33  55  82 109 143 189 241 289 337
#     4  10  20  34  55  82 109 142 185 230 282 339
#     4  10  20  36  56  79 111 152 197 238 288 350
#     4  10  20  34  54  79 110 144 183 232 288 337
#     4  10  22  39  57  83 120 156 191 237 293 353
#     4  11  20  34  59  84 112 145 187 240 292 346
#
# _framework density 19.166573
#
# number of rings (size 3 to 8) (size 9 to 14) (size 15 to 20)
#    0.000    2.000    2.857    1.286    0.000    1.714 
#    2.571    0.714    0.000    0.000    0.000    0.000 
#    0.000    0.000    0.000    0.000    0.000    0.000 
#
# Total GULP energy -347093.888372 kJ/mol
# GULP energy per Si atom -12396.210299 kJ/mol
# Density = 1.912295 g / cm^3
# Si number density = 19.166573 Si / 1000 Ang^3
#
#
#
# Elastic Constant Matrix: (Units=GPa)
#
#
# Indices 1 2 3 4 5 6 
#
# 1 84.3053 27.0245 62.0564 0.0000 -13.2955 0.0000
# 2 27.0245 63.0358 53.7782 0.0000 -8.6394 0.0000
# 3 62.0564 53.7782 156.2461 0.0000 -23.2829 0.0000
# 4 0.0000 0.0000 0.0000 28.3663 0.0000 -0.3742
# 5 -13.2955 -8.6394 -23.2829 0.0000 39.3688 0.0000
# 6 0.0000 0.0000 0.0000 -0.3742 0.0000 19.9518
#
#
#
# Elastic Compliance Matrix: (Units=1/GPa)
#
#
# Indices 1 2 3 4 5 6 
#
# 1 0.017094 -0.002148 -0.005768 0.000000 0.001890 0.000000
# 2 -0.002148 0.022734 -0.006949 0.000000 0.000154 0.000000
# 3 -0.005768 -0.006949 0.011586 0.000000 0.003379 0.000000
# 4 0.000000 0.000000 0.000000 0.035262 0.000000 0.000661
# 5 0.001890 0.000154 0.003379 0.000000 0.028072 0.000000
# 6 0.000000 0.000000 0.000000 0.000661 0.000000 0.050133
#
#
# Mechanical properties :
#
#
# Convention : Reuss Voigt Hill
#
# Bulk Modulus (GPa) = 46.11626 65.47840 55.79733
# Shear Modulus (GPa) = 24.77200 28.25257 26.51229
#
# Velocity S-wave (km/s) = 3.59898 3.84351 3.72325
# Velocity P-wave (km/s) = 6.43298 7.34396 6.90351
#
# Compressibility (1/GPa) = 0.02168433
#
# Stress axis : x y z
#
# Youngs Moduli (GPa) = 58.49863 43.98624 86.30827
#
# Poissons Ratio (x) = 0.09450 0.49785
# Poissons Ratio (y) = 0.12568 0.59973
# Poissons Ratio (z) = 0.33743 0.30565
#
# Static dielectric constant tensor:
#      x y z
#    x 3.406720 0.000000 -0.202520 
#    y 0.000000 3.543830 0.000000 
#    z -0.202520 0.000000 3.926920 
# 
# 
# High freq. dielectric constant tensor:
#      x y z
#    x 1.727360 0.000000 -0.019980 
#    y 0.000000 1.736220 0.000000 
#    z -0.019980 0.000000 1.752200 
# 
# From -- ./inp_files/281751.got.cif
#   From: 2010.06.25/outbox.cif.g09.slc.cpg/sg12_141_cif.got.tgz:281751.got - 2010.06.28 00:19:55.
