data_PCOD8093121
_publ_section_title
;
Structure prediction by ZEFSAII (Michael W. Deem and Ramdas Pophale) SiO2 
 PCOD8093121
Probable space group: C 2/M
;
_chemical_formula_sum "Si O2"
_cell_formula_units_Z 56
_cell_length_a 19.919754
_cell_length_b 18.537350
_cell_length_c 20.258162
_cell_angle_alpha 90.000000
_cell_angle_beta 21.275571
_cell_angle_gamma 90.000000
_cell_volume 2714.335471
_symmetry_space_group_name_H-M "C 2/M"
_symmetry_group_IT_number 12
_symmetry_cell_setting 'monoclinic'
loop_
_space_group_symop_operation_xyz
x,y,z
-x,y,-z
-x,-y,-z
x,-y,z
1/2+x,1/2+y,z
1/2-x,1/2+y,-z
1/2-x,1/2-y,-z
1/2+x,1/2-y,z
loop_
_atom_site_type_symbol
_atom_site_label
_atom_site_fract_x
_atom_site_fract_y
_atom_site_fract_z
Si Si1 0.903774 0.117988 0.417360
Si Si2 0.304609 0.577984 0.646885
Si Si3 0.163560 0.080897 0.067865
Si Si4 0.016136 0.777507 0.143297
Si Si5 0.820852 0.270243 0.203887
Si Si6 0.474396 0.840918 0.288512
Si Si7 0.883364 0.745608 0.733196
O O1 0.827821 0.070329 0.546812
O O2 0.732624 0.129243 0.523868
O O3 0.070117 0.079685 0.225863
O O4 0.971581 0.191306 0.388275
O O5 0.500000 0.594339 0.500000
O O6 0.225766 0.500000 0.743414
O O7 0.173334 0.643456 0.789160
O O8 0.055780 0.138230 0.120399
O O9 0.150492 0.000000 0.049836
O O10 0.379209 0.102986 0.877105
O O11 0.833663 0.769461 0.263670
O O12 0.985884 0.736287 0.240055
O O13 0.189294 0.739042 0.948357
O O14 0.647962 0.242011 0.317690
O O15 0.000000 0.246758 0.000000
O O16 0.527413 0.826831 0.316861
#
# Coordination Sequence:
#
# PCOD8093121 Si02
#       7
#     8   8   8   8   8   8   8
#     4  12  21  36  61  88 116 157 195 240 288 349
#     4  11  23  36  50  78 121 157 191 231 277 349
#     4  11  24  40  59  86 123 156 187 245 305 343
#     4  10  19  39  61  87 114 151 203 246 281 350
#     4  10  21  37  60  82 114 153 199 240 290 343
#     4  11  21  37  63  86 116 150 203 244 287 343
#     4  10  19  35  59  87 114 150 194 246 290 337
#
# _framework density 20.6312
#
# number of rings (size 3 to 8) (size 9 to 14) (size 15 to 20)
#    0.000    1.286    5.714    1.714    0.000    1.429 
#    0.000    0.000    0.000   10.714    0.000    1.000 
#    0.000    0.000    0.000    0.000    0.000    0.000 
#
# Total GULP energy -347031.969358 kJ/mol
# GULP energy per Si atom -12393.998906 kJ/mol
# Density = 2.058424 g / cm^3
# Si number density = 20.631200 Si / 1000 Ang^3
#
#
#
# Elastic Constant Matrix: (Units=GPa)
#
#
# Indices 1 2 3 4 5 6 
#
# 1 127.5049 38.2938 23.4310 0.0039 -18.1103 0.0091
# 2 38.2938 108.6737 21.2978 0.0127 -9.1503 -0.0170
# 3 23.4310 21.2978 55.5657 0.0113 -8.5620 -0.0556
# 4 0.0039 0.0127 0.0113 74.1958 0.0325 -31.7009
# 5 -18.1103 -9.1503 -8.5620 0.0325 27.6738 0.0005
# 6 0.0091 -0.0170 -0.0556 -31.7009 0.0005 37.1925
#
#
#
# Elastic Compliance Matrix: (Units=1/GPa)
#
#
# Indices 1 2 3 4 5 6 
#
# 1 0.009729 -0.002558 -0.002385 -0.000008 0.004783 -0.000014
# 2 -0.002558 0.010753 -0.002891 -0.000002 0.000987 0.000000
# 3 -0.002385 -0.002891 0.020710 0.000014 0.003891 0.000042
# 4 -0.000008 -0.000002 0.000014 0.021197 -0.000027 0.018068
# 5 0.004783 0.000987 0.003891 -0.000027 0.040796 -0.000018
# 6 -0.000014 0.000000 0.000042 0.018068 -0.000018 0.042287
#
#
# Mechanical properties :
#
#
# Convention : Reuss Voigt Hill
#
# Bulk Modulus (GPa) = 39.17852 50.86548 45.02200
# Shear Modulus (GPa) = 29.47296 41.72719 35.60008
#
# Velocity S-wave (km/s) = 3.78373 4.50213 4.15848
# Velocity P-wave (km/s) = 6.17414 7.19262 6.70275
#
# Compressibility (1/GPa) = 0.02552419
#
# Stress axis : x y z
#
# Youngs Moduli (GPa) = 102.78841 92.99842 48.28588
#
# Poissons Ratio (x) = 0.23789 0.11516
# Poissons Ratio (y) = 0.26293 0.13958
# Poissons Ratio (z) = 0.24515 0.26883
#
# Static dielectric constant tensor:
#      x y z
#    x 4.176560 -0.000060 -0.094600 
#    y -0.000060 3.455290 0.000160 
#    z -0.094600 0.000160 3.723000 
# 
# 
# High freq. dielectric constant tensor:
#      x y z
#    x 1.807290 -0.000010 -0.006570 
#    y -0.000010 1.770800 0.000020 
#    z -0.006570 0.000020 1.809050 
# 
# From -- ./inp_files/322666.got.cif
#   From: 2010.06.25/outbox.cif.g09.slc.cpg/sg12_162_cif.got.tgz:322666.got - 2010.06.28 00:19:55.
