data_PCOD8093908
_publ_section_title
;
Structure prediction by ZEFSAII (Michael W. Deem and Ramdas Pophale) SiO2 
 PCOD8093908
Probable space group: C 2/M
;
_chemical_formula_sum "Si O2"
_cell_formula_units_Z 48
_cell_length_a 16.820938
_cell_length_b 25.356469
_cell_length_c 5.272832
_cell_angle_alpha 90.000000
_cell_angle_beta 90.227854
_cell_angle_gamma 90.000000
_cell_volume 2248.948375
_symmetry_space_group_name_H-M "C 2/M"
_symmetry_group_IT_number 12
_symmetry_cell_setting 'monoclinic'
loop_
_space_group_symop_operation_xyz
x,y,z
-x,y,-z
-x,-y,-z
x,-y,z
1/2+x,1/2+y,z
1/2-x,1/2+y,-z
1/2-x,1/2-y,-z
1/2+x,1/2-y,z
loop_
_atom_site_type_symbol
_atom_site_label
_atom_site_fract_x
_atom_site_fract_y
_atom_site_fract_z
Si Si1 0.219344 0.882839 0.741053
Si Si2 0.972123 0.731660 0.749765
Si Si3 0.960482 0.152220 0.249437
Si Si4 0.210801 0.273038 0.249560
Si Si5 0.544390 0.062799 0.750828
Si Si6 0.774481 0.437617 0.241419
O O1 0.132964 0.857204 0.754251
O O2 0.283948 0.836156 0.751055
O O3 0.227422 0.914282 0.479481
O O4 0.233004 0.920951 0.979269
O O5 0.879968 0.745102 0.749923
O O6 0.000000 0.699273 0.500000
O O7 0.024342 0.785229 0.750111
O O8 0.000000 0.699219 0.000000
O O9 0.000000 0.126098 0.500000
O O10 0.000000 0.126103 0.000000
O O11 0.250000 0.250000 0.500000
O O12 0.250000 0.250000 0.000000
O O13 0.500000 0.084404 0.500000
O O14 0.634938 0.083171 0.752097
O O15 0.543081 0.000000 0.752175
O O16 0.500000 0.084665 0.000000
O O17 0.771010 0.500000 0.261900
#
# Coordination Sequence:
#
# PCOD8093908 Si02
#       6
#     8   8   8   8   8   8
#     4  12  24  40  67  98 126 171 221 262 321 391
#     4  10  20  36  57  85 123 165 199 244 311 371
#     4  10  19  36  60  88 118 161 213 253 306 382
#     4  12  23  40  64  95 130 161 208 266 319 384
#     4   9  17  33  59  86 114 156 206 254 312 379
#     4  11  24  43  65  94 132 172 219 275 324 369
#
# _framework density 21.343306999999999
#
# number of rings (size 3 to 8) (size 9 to 14) (size 15 to 20)
#    0.000    1.333    0.000    8.500    0.000    2.667 
#    0.000    5.000    0.000   10.000    0.000    0.000 
#    0.000    0.000    0.000    0.000    0.000    0.000 
#
# Total GULP energy -297612.078216 kJ/mol
# GULP energy per Si atom -12400.503259 kJ/mol
# Density = 2.129473 g / cm^3
# Si number density = 21.343307 Si / 1000 Ang^3
#
#
#
# Elastic Constant Matrix: (Units=GPa)
#
#
# Indices 1 2 3 4 5 6 
#
# 1 136.1890 19.2964 45.2751 0.0000 -5.1593 0.0000
# 2 19.2964 62.2364 11.2468 0.0000 -11.6046 0.0000
# 3 45.2751 11.2468 206.5928 0.0000 -14.6155 0.0000
# 4 0.0000 0.0000 0.0000 9.9166 0.0000 2.7406
# 5 -5.1593 -11.6046 -14.6155 0.0000 37.1753 0.0000
# 6 0.0000 0.0000 0.0000 2.7406 0.0000 29.6966
#
#
#
# Elastic Compliance Matrix: (Units=1/GPa)
#
#
# Indices 1 2 3 4 5 6 
#
# 1 0.008221 -0.002287 -0.001694 0.000000 -0.000239 0.000000
# 2 -0.002287 0.017762 -0.000099 0.000000 0.005188 0.000000
# 3 -0.001694 -0.000099 0.005347 0.000000 0.001836 0.000000
# 4 0.000000 0.000000 0.000000 0.103480 0.000000 -0.009550
# 5 -0.000239 0.005188 0.001836 0.000000 0.029208 0.000000
# 6 0.000000 0.000000 0.000000 -0.009550 0.000000 0.034555
#
#
# Mechanical properties :
#
#
# Convention : Reuss Voigt Hill
#
# Bulk Modulus (GPa) = 43.15908 61.85054 52.50481
# Shear Modulus (GPa) = 23.31471 37.30436 30.30954
#
# Velocity S-wave (km/s) = 3.30868 4.18524 3.77250
# Velocity P-wave (km/s) = 5.90439 7.23856 6.60524
#
# Compressibility (1/GPa) = 0.02317010
#
# Stress axis : x y z
#
# Youngs Moduli (GPa) = 121.64059 56.29925 187.02201
#
# Poissons Ratio (x) = 0.12878 0.31682
# Poissons Ratio (y) = 0.27824 0.01845
# Poissons Ratio (z) = 0.20606 0.00555
#
# Static dielectric constant tensor:
#      x y z
#    x 3.892430 0.000000 0.016080 
#    y 0.000000 3.473590 0.000000 
#    z 0.016080 0.000000 4.949480 
# 
# 
# High freq. dielectric constant tensor:
#      x y z
#    x 1.845740 0.000000 -0.000960 
#    y 0.000000 1.801220 0.000000 
#    z -0.000960 0.000000 1.874570 
# 
# From -- ./inp_files/12357.got.cif
#   From: 2010.06.25/outbox.cif.g09.slc.cpg/sg12_7_cif.got.tgz:12357.got - 2010.06.28 00:19:55.
