data_PCOD8093013
_publ_section_title
;
Structure prediction by ZEFSAII (Michael W. Deem and Ramdas Pophale) SiO2 
 PCOD8093013
Probable space group: C 2/M
;
_chemical_formula_sum "Si O2"
_cell_formula_units_Z 64
_cell_length_a 24.747477
_cell_length_b 9.441216
_cell_length_c 14.398930
_cell_angle_alpha 90.000000
_cell_angle_beta 88.961007
_cell_angle_gamma 90.000000
_cell_volume 3363.703240
_symmetry_space_group_name_H-M "C 2/M"
_symmetry_group_IT_number 12
_symmetry_cell_setting 'monoclinic'
loop_
_space_group_symop_operation_xyz
x,y,z
-x,y,-z
-x,-y,-z
x,-y,z
1/2+x,1/2+y,z
1/2-x,1/2+y,-z
1/2-x,1/2-y,-z
1/2+x,1/2-y,z
loop_
_atom_site_type_symbol
_atom_site_label
_atom_site_fract_x
_atom_site_fract_y
_atom_site_fract_z
Si Si1 0.062335 0.832372 0.518611
Si Si2 0.799810 0.664003 0.193099
Si Si3 0.304363 0.834162 0.795923
Si Si4 0.592986 0.836104 0.699001
Si Si5 0.944013 0.840882 0.949753
Si Si6 0.895416 0.658987 0.645238
Si Si7 0.517750 0.843976 0.211502
Si Si8 0.153205 0.664483 0.004043
O O1 0.082404 0.767352 0.614139
O O2 0.102424 0.768188 0.439711
O O3 0.000000 0.792625 0.500000
O O4 0.070460 0.000000 0.521476
O O5 0.786390 0.500000 0.207749
O O6 0.749754 0.753779 0.232708
O O7 0.851930 0.707381 0.251571
O O8 0.807876 0.698046 0.083637
O O9 0.351127 0.791616 0.722186
O O10 0.320277 0.786923 0.899743
O O11 0.292611 0.000000 0.793740
O O12 0.545561 0.812328 0.775647
O O13 0.593747 0.000000 0.665779
O O14 0.901088 0.753439 0.010944
O O15 0.951912 0.772735 0.849179
O O16 0.922781 0.000000 0.936721
O O17 0.000000 0.836089 0.000000
O O18 0.881751 0.500000 0.609795
O O19 0.954794 0.659368 0.688548
O O20 0.526582 0.000000 0.165903
O O21 0.137260 0.500000 0.006793
#
# Coordination Sequence:
#
# PCOD8093013 Si02
#       8
#     8   8   8   8   8   8   8   8
#     4  11  23  37  58  90 121 150 184 232 294 350
#     4  10  22  38  59  87 116 151 196 242 286 335
#     4  10  21  38  60  86 116 152 195 238 284 338
#     4  10  21  38  60  86 115 152 195 235 283 346
#     4  11  23  34  48  79 120 156 190 233 289 343
#     4  10  20  37  61  87 112 147 192 233 280 341
#     4  10  19  35  59  82 110 150 190 232 283 337
#     4  10  20  38  60  83 113 151 201 243 276 338
#
# _framework density 19.026648999999999
#
# number of rings (size 3 to 8) (size 9 to 14) (size 15 to 20)
#    0.000    1.750    2.500    1.875    0.000    5.500 
#    0.000    0.625    0.000    0.000    0.000    0.000 
#    0.000    0.000    0.000    0.000    0.000    0.000 
#
# Total GULP energy -396843.753007 kJ/mol
# GULP energy per Si atom -12401.367281 kJ/mol
# Density = 1.898334 g / cm^3
# Si number density = 19.026649 Si / 1000 Ang^3
#
#
#
# Elastic Constant Matrix: (Units=GPa)
#
#
# Indices 1 2 3 4 5 6 
#
# 1 113.9760 49.7502 34.0428 0.0000 -3.4879 0.0000
# 2 49.7502 81.2625 43.5981 0.0000 -6.3748 0.0000
# 3 34.0428 43.5981 86.6416 0.0000 -6.9691 0.0000
# 4 0.0000 0.0000 0.0000 21.8835 0.0000 2.7041
# 5 -3.4879 -6.3748 -6.9691 0.0000 20.7055 0.0000
# 6 0.0000 0.0000 0.0000 2.7041 0.0000 33.5555
#
#
#
# Elastic Compliance Matrix: (Units=1/GPa)
#
#
# Indices 1 2 3 4 5 6 
#
# 1 0.012102 -0.006679 -0.001435 0.000000 -0.000500 0.000000
# 2 -0.006679 0.020659 -0.007555 0.000000 0.002693 0.000000
# 3 -0.001435 -0.007555 0.016137 0.000000 0.002864 0.000000
# 4 0.000000 0.000000 0.000000 0.046156 0.000000 -0.003720
# 5 -0.000500 0.002693 0.002864 0.000000 0.050005 0.000000
# 6 0.000000 0.000000 0.000000 -0.003720 0.000000 0.030101
#
#
# Mechanical properties :
#
#
# Convention : Reuss Voigt Hill
#
# Bulk Modulus (GPa) = 56.94041 59.62916 58.28479
# Shear Modulus (GPa) = 23.54584 25.52818 24.53701
#
# Velocity S-wave (km/s) = 3.52166 3.66690 3.59501
# Velocity P-wave (km/s) = 6.82112 7.02397 6.92329
#
# Compressibility (1/GPa) = 0.01756222
#
# Stress axis : x y z
#
# Youngs Moduli (GPa) = 82.62954 48.40476 61.96752
#
# Poissons Ratio (x) = 0.32328 0.08890
# Poissons Ratio (y) = 0.55186 0.46816
# Poissons Ratio (z) = 0.11855 0.36569
#
# Static dielectric constant tensor:
#      x y z
#    x 3.429420 0.000000 -0.014200 
#    y 0.000000 3.486380 0.000000 
#    z -0.014200 0.000000 3.369970 
# 
# 
# High freq. dielectric constant tensor:
#      x y z
#    x 1.737000 0.000000 -0.004180 
#    y 0.000000 1.737270 0.000000 
#    z -0.004180 0.000000 1.730870 
# 
# From -- ./inp_files/238732.got.cif
#   From: 2010.06.25/outbox.cif.g09.slc.cpg/sg12_120_cif.got.tgz:238732.got - 2010.06.28 00:19:55.
