data_PCOD8093367
_publ_section_title
;
Structure prediction by ZEFSAII (Michael W. Deem and Ramdas Pophale) SiO2 
 PCOD8093367
Probable space group: C 2/M
;
_chemical_formula_sum "Si O2"
_cell_formula_units_Z 40
_cell_length_a 19.544969
_cell_length_b 18.610193
_cell_length_c 15.258460
_cell_angle_alpha 90.000000
_cell_angle_beta 160.175221
_cell_angle_gamma 90.000000
_cell_volume 1882.269149
_symmetry_space_group_name_H-M "C 2/M"
_symmetry_group_IT_number 12
_symmetry_cell_setting 'monoclinic'
loop_
_space_group_symop_operation_xyz
x,y,z
-x,y,-z
-x,-y,-z
x,-y,z
1/2+x,1/2+y,z
1/2-x,1/2+y,-z
1/2-x,1/2-y,-z
1/2+x,1/2-y,z
loop_
_atom_site_type_symbol
_atom_site_label
_atom_site_fract_x
_atom_site_fract_y
_atom_site_fract_z
Si Si1 0.994575 0.627545 0.590662
Si Si2 0.068869 0.160545 0.839781
Si Si3 0.821080 0.217291 0.397720
Si Si4 0.705192 0.081727 0.483483
Si Si5 0.033585 0.301445 0.901675
O O1 0.000000 0.592503 0.500000
O O2 0.920493 0.708652 0.489624
O O3 0.841100 0.584492 0.468243
O O4 0.215347 0.622739 0.900134
O O5 0.984282 0.162960 0.637918
O O6 0.923548 0.115787 0.728722
O O7 0.090694 0.243251 0.897176
O O8 0.650254 0.232608 0.264701
O O9 0.724511 0.181678 0.194522
O O10 0.531364 0.124669 0.222104
O O11 0.703642 0.000000 0.448577
#
# Coordination Sequence:
#
# PCOD8093367 Si02
#       5
#     8   8   8   8   8
#     4  12  23  36  66  95 121 159 208 261 312 359
#     4  11  21  39  66  90 122 163 212 255 308 356
#     4  10  19  35  62 100 119 149 203 269 303 356
#     4  11  25  44  60  88 133 169 202 251 308 373
#     4  10  19  38  67  91 123 160 206 257 311 359
#
# _framework density 21.250945000000002
#
# number of rings (size 3 to 8) (size 9 to 14) (size 15 to 20)
#    0.000    1.200    6.000    1.800    0.000    2.000 
#    0.000    9.000    0.000    1.200    0.000    0.000 
#    0.000    0.000    0.000    0.000    0.000    0.000 
#
# Total GULP energy -248037.643426 kJ/mol
# GULP energy per Si atom -12401.882171 kJ/mol
# Density = 2.120258 g / cm^3
# Si number density = 21.250945 Si / 1000 Ang^3
#
#
#
# Elastic Constant Matrix: (Units=GPa)
#
#
# Indices 1 2 3 4 5 6 
#
# 1 78.6044 22.2938 17.4015 0.0000 -15.2633 -0.0001
# 2 22.2938 90.2855 16.0205 0.0000 2.2528 0.0000
# 3 17.4015 16.0205 109.3867 0.0000 -9.2643 -0.0002
# 4 0.0000 0.0000 0.0000 9.3419 0.0000 -4.8391
# 5 -15.2633 2.2528 -9.2643 0.0000 25.2621 -0.0001
# 6 -0.0001 0.0000 -0.0002 -4.8391 -0.0001 8.5237
#
#
#
# Elastic Compliance Matrix: (Units=1/GPa)
#
#
# Indices 1 2 3 4 5 6 
#
# 1 0.015964 -0.003978 -0.001146 0.000000 0.009580 0.000000
# 2 -0.003978 0.012432 -0.001533 0.000000 -0.004074 0.000000
# 3 -0.001146 -0.001533 0.009806 0.000000 0.003041 0.000000
# 4 0.000000 0.000000 0.000000 0.151638 0.000000 0.086088
# 5 0.009580 -0.004074 0.003041 0.000000 0.046852 0.000001
# 6 0.000000 0.000000 0.000000 0.086088 0.000001 0.166193
#
#
# Mechanical properties :
#
#
# Convention : Reuss Voigt Hill
#
# Bulk Modulus (GPa) = 40.17795 43.30093 41.73944
# Shear Modulus (GPa) = 11.77873 23.46291 17.62082
#
# Velocity S-wave (km/s) = 2.35684 3.32639 2.88267
# Velocity P-wave (km/s) = 5.13359 5.93071 5.54649
#
# Compressibility (1/GPa) = 0.02488927
#
# Stress axis : x y z
#
# Youngs Moduli (GPa) = 62.64124 80.43862 101.97646
#
# Poissons Ratio (x) = 0.31996 0.11683
# Poissons Ratio (y) = 0.24916 0.15633
# Poissons Ratio (z) = 0.07177 0.12331
#
# Static dielectric constant tensor:
#      x y z
#    x 4.074470 0.000000 -0.045630 
#    y 0.000000 3.301010 0.000000 
#    z -0.045630 0.000000 4.136940 
# 
# 
# High freq. dielectric constant tensor:
#      x y z
#    x 1.850250 0.000000 0.002480 
#    y 0.000000 1.776160 0.000000 
#    z 0.002480 0.000000 1.843500 
# 
# From -- ./inp_files/234769.got.cif
#   From: 2010.06.25/outbox.cif.g09.slc.cpg/sg12_118_cif.got.tgz:234769.got - 2010.06.28 00:19:55.
