data_PCOD8093631
_publ_section_title
;
Structure prediction by ZEFSAII (Michael W. Deem and Ramdas Pophale) SiO2 
 PCOD8093631
Probable space group: C 2/M
;
_chemical_formula_sum "Si O2"
_cell_formula_units_Z 48
_cell_length_a 15.149166
_cell_length_b 8.742685
_cell_length_c 20.661838
_cell_angle_alpha 90.000000
_cell_angle_beta 111.640718
_cell_angle_gamma 90.000000
_cell_volume 2543.658130
_symmetry_space_group_name_H-M "C 2/M"
_symmetry_group_IT_number 12
_symmetry_cell_setting 'monoclinic'
loop_
_space_group_symop_operation_xyz
x,y,z
-x,y,-z
-x,-y,-z
x,-y,z
1/2+x,1/2+y,z
1/2-x,1/2+y,-z
1/2-x,1/2-y,-z
1/2+x,1/2-y,z
loop_
_atom_site_type_symbol
_atom_site_label
_atom_site_fract_x
_atom_site_fract_y
_atom_site_fract_z
Si Si1 0.539331 0.318634 0.328339
Si Si2 0.256948 0.680938 0.572634
Si Si3 0.064724 0.819177 0.074711
Si Si4 0.428175 0.319679 0.423843
Si Si5 0.042514 0.817762 0.828651
Si Si6 0.736640 0.180967 0.925833
O O1 0.539856 0.500000 0.327500
O O2 0.646217 0.258828 0.368134
O O3 0.471913 0.261696 0.368147
O O4 0.499805 0.254308 0.249982
O O5 0.257456 0.500000 0.565914
O O6 0.250000 0.750000 0.500000
O O7 0.170938 0.733794 0.594397
O O8 0.173545 0.770441 0.093867
O O9 0.026985 0.757927 0.133318
O O10 0.054273 0.000000 0.070161
O O11 0.000000 0.748043 0.000000
O O12 0.500000 0.272137 0.500000
O O13 0.409397 0.500000 0.419887
O O14 0.146091 0.748240 0.865521
O O15 0.051062 0.000000 0.831227
O O16 0.728092 0.000000 0.930340
O O17 0.750000 0.250000 0.000000
#
# Coordination Sequence:
#
# PCOD8093631 Si02
#       6
#     8   8   8   8   8   8
#     4   9  20  37  57  80 111 149 182 223 287 342
#     4  11  21  36  58  86 112 146 193 235 279 335
#     4   9  17  32  55  80 105 141 181 216 267 330
#     4  10  19  36  58  81 112 149 187 231 282 339
#     4  10  20  38  59  79 109 147 185 225 276 339
#     4  11  21  35  57  84 111 143 185 231 276 327
#
# _framework density 18.870460000000001
#
# number of rings (size 3 to 8) (size 9 to 14) (size 15 to 20)
#    0.000    2.000    3.333    1.000    0.000    1.667 
#    0.000    6.667    0.000    0.000    0.000    0.000 
#    0.000    0.000    0.000    0.000    0.000    0.000 
#
# Total GULP energy -297621.301348 kJ/mol
# GULP energy per Si atom -12400.887556 kJ/mol
# Density = 1.882751 g / cm^3
# Si number density = 18.870460 Si / 1000 Ang^3
#
#
#
# Elastic Constant Matrix: (Units=GPa)
#
#
# Indices 1 2 3 4 5 6 
#
# 1 196.2950 36.7113 107.8500 0.0000 2.0172 0.0000
# 2 36.7113 39.2393 31.7034 0.0000 4.6027 0.0000
# 3 107.8500 31.7034 190.2593 0.0000 0.8925 0.0000
# 4 0.0000 0.0000 0.0000 16.4414 0.0000 5.3428
# 5 2.0172 4.6027 0.8925 0.0000 38.3883 0.0000
# 6 0.0000 0.0000 0.0000 5.3428 0.0000 32.2323
#
#
#
# Elastic Compliance Matrix: (Units=1/GPa)
#
#
# Indices 1 2 3 4 5 6 
#
# 1 0.008013 -0.004449 -0.003802 0.000000 0.000201 0.000000
# 2 -0.004449 0.032374 -0.002856 0.000000 -0.003582 0.000000
# 3 -0.003802 -0.002856 0.007885 0.000000 0.000359 0.000000
# 4 0.000000 0.000000 0.000000 0.064285 0.000000 -0.010656
# 5 0.000201 -0.003582 0.000359 0.000000 0.026460 0.000000
# 6 0.000000 0.000000 0.000000 -0.010656 0.000000 0.032791
#
#
# Mechanical properties :
#
#
# Convention : Reuss Voigt Hill
#
# Bulk Modulus (GPa) = 38.37365 86.48034 62.42700
# Shear Modulus (GPa) = 24.66589 34.04767 29.35678
#
# Velocity S-wave (km/s) = 3.61933 4.25229 3.94852
# Velocity P-wave (km/s) = 6.15187 8.36883 7.34448
#
# Compressibility (1/GPa) = 0.02605955
#
# Stress axis : x y z
#
# Youngs Moduli (GPa) = 124.79338 30.88859 126.81633
#
# Poissons Ratio (x) = 0.13741 0.48216
# Poissons Ratio (y) = 0.55517 0.36220
# Poissons Ratio (z) = 0.47447 0.08822
#
# Static dielectric constant tensor:
#      x y z
#    x 3.860400 0.000000 -0.014500 
#    y 0.000000 3.145980 0.000000 
#    z -0.014500 0.000000 3.640860 
# 
# 
# High freq. dielectric constant tensor:
#      x y z
#    x 1.752190 0.000000 -0.001120 
#    y 0.000000 1.700930 0.000000 
#    z -0.001120 0.000000 1.735810 
# 
# From -- ./inp_files/308305.got.cif
#   From: 2010.06.25/outbox.cif.g09.slc.cpg/sg12_155_cif.got.tgz:308305.got - 2010.06.28 00:19:55.
