data_PCOD8093774
_publ_section_title
;
Structure prediction by ZEFSAII (Michael W. Deem and Ramdas Pophale) SiO2 
 PCOD8093774
Probable space group: C 2/M
;
_chemical_formula_sum "Si O2"
_cell_formula_units_Z 56
_cell_length_a 14.416136
_cell_length_b 17.397180
_cell_length_c 19.191693
_cell_angle_alpha 90.000000
_cell_angle_beta 144.117900
_cell_angle_gamma 90.000000
_cell_volume 2821.155391
_symmetry_space_group_name_H-M "C 2/M"
_symmetry_group_IT_number 12
_symmetry_cell_setting 'monoclinic'
loop_
_space_group_symop_operation_xyz
x,y,z
-x,y,-z
-x,-y,-z
x,-y,z
1/2+x,1/2+y,z
1/2-x,1/2+y,-z
1/2-x,1/2-y,-z
1/2+x,1/2-y,z
loop_
_atom_site_type_symbol
_atom_site_label
_atom_site_fract_x
_atom_site_fract_y
_atom_site_fract_z
Si Si1 0.236741 0.587364 0.024902
Si Si2 0.362169 0.705850 0.198814
Si Si3 0.915828 0.914134 0.624241
Si Si4 0.473885 0.815141 0.809053
Si Si5 0.881117 0.793960 0.868813
Si Si6 0.322170 0.412806 0.416801
Si Si7 0.395018 0.415933 0.768297
O O1 0.189974 0.500000 0.018236
O O2 0.110840 0.619457 0.891774
O O3 0.232786 0.648870 0.085280
O O4 0.415428 0.588994 0.105370
O O5 0.454702 0.651570 0.309397
O O6 0.481105 0.746254 0.216128
O O7 0.280422 0.771874 0.192233
O O8 0.800141 0.909153 0.487729
O O9 0.840681 0.898146 0.655281
O O10 0.993326 0.000000 0.674456
O O11 0.461763 0.777440 0.878154
O O12 0.304946 0.853393 0.690146
O O13 0.820125 0.857268 0.776954
O O14 0.000000 0.826499 0.000000
O O15 0.500000 0.390134 0.500000
O O16 0.286626 0.500000 0.369580
O O17 0.333344 0.500000 0.751466
#
# Coordination Sequence:
#
# PCOD8093774 Si02
#       7
#     8   8   8   8   8   8   8
#     4  10  19  36  59  85 119 160 197 240 303 365
#     4  11  21  36  59  89 121 158 194 251 307 357
#     4   9  18  38  63  83 112 157 202 244 299 356
#     4  12  22  38  58  89 124 156 200 252 308 354
#     4  12  22  35  56  86 124 159 195 244 305 357
#     4  10  22  40  62  88 121 160 204 252 302 361
#     4   9  19  37  60  85 115 160 206 242 293 364
#
# _framework density 19.850021999999999
#
# number of rings (size 3 to 8) (size 9 to 14) (size 15 to 20)
#    0.000    1.571    4.286    3.857    0.000    0.857 
#    0.000    4.286    0.000    0.000    0.000    3.000 
#    0.000    0.571    0.000    0.000    0.000    0.000 
#
# Total GULP energy -346916.928825 kJ/mol
# GULP energy per Si atom -12389.890315 kJ/mol
# Density = 1.980484 g / cm^3
# Si number density = 19.850022 Si / 1000 Ang^3
#
#
#
# Elastic Constant Matrix: (Units=GPa)
#
#
# Indices 1 2 3 4 5 6 
#
# 1 72.6285 32.7789 21.4129 0.0003 -14.0405 0.0002
# 2 32.7789 108.7486 38.9113 0.0002 -8.4943 0.0002
# 3 21.4129 38.9113 62.2595 0.0004 -15.0841 0.0002
# 4 0.0003 0.0002 0.0004 27.5228 0.0001 -5.3341
# 5 -14.0405 -8.4943 -15.0841 0.0001 24.3146 0.0001
# 6 0.0002 0.0002 0.0002 -5.3341 0.0001 28.7549
#
#
#
# Elastic Compliance Matrix: (Units=1/GPa)
#
#
# Indices 1 2 3 4 5 6 
#
# 1 0.017597 -0.004128 -0.001600 0.000000 0.007727 0.000000
# 2 -0.004128 0.012818 -0.007160 0.000000 -0.002348 0.000000
# 3 -0.001600 -0.007160 0.023841 0.000000 0.011365 0.000000
# 4 0.000000 0.000000 0.000000 0.037688 -0.000001 0.006991
# 5 0.007727 -0.002348 0.011365 -0.000001 0.051819 0.000000
# 6 0.000000 0.000000 0.000000 0.006991 0.000000 0.036074
#
#
# Mechanical properties :
#
#
# Convention : Reuss Voigt Hill
#
# Bulk Modulus (GPa) = 35.11349 47.76030 41.43689
# Shear Modulus (GPa) = 23.24409 26.15403 24.69906
#
# Velocity S-wave (km/s) = 3.42568 3.63379 3.53127
# Velocity P-wave (km/s) = 5.77710 6.45900 6.12754
#
# Compressibility (1/GPa) = 0.02847908
#
# Stress axis : x y z
#
# Youngs Moduli (GPa) = 56.82694 78.01245 41.94500
#
# Poissons Ratio (x) = 0.32204 0.06712
# Poissons Ratio (y) = 0.23458 0.30034
# Poissons Ratio (z) = 0.09094 0.55860
#
# Static dielectric constant tensor:
#      x y z
#    x 3.366790 0.000000 -0.245450 
#    y 0.000000 3.870650 0.000000 
#    z -0.245450 0.000000 3.503140 
# 
# 
# High freq. dielectric constant tensor:
#      x y z
#    x 1.745750 0.000000 -0.022150 
#    y 0.000000 1.789610 0.000000 
#    z -0.022150 0.000000 1.755790 
# 
# From -- ./inp_files/271455.got.cif
#   From: 2010.06.25/outbox.cif.g09.slc.cpg/sg12_136_cif.got.tgz:271455.got - 2010.06.28 00:19:55.
