data_PCOD8093649
_publ_section_title
;
Structure prediction by ZEFSAII (Michael W. Deem and Ramdas Pophale) SiO2 
 PCOD8093649
Probable space group: C 2/M
;
_chemical_formula_sum "Si O2"
_cell_formula_units_Z 56
_cell_length_a 30.132872
_cell_length_b 17.703927
_cell_length_c 8.652349
_cell_angle_alpha 90.000000
_cell_angle_beta 141.280053
_cell_angle_gamma 90.000000
_cell_volume 2887.230261
_symmetry_space_group_name_H-M "C 2/M"
_symmetry_group_IT_number 12
_symmetry_cell_setting 'monoclinic'
loop_
_space_group_symop_operation_xyz
x,y,z
-x,y,-z
-x,-y,-z
x,-y,z
1/2+x,1/2+y,z
1/2-x,1/2+y,-z
1/2-x,1/2-y,-z
1/2+x,1/2-y,z
loop_
_atom_site_type_symbol
_atom_site_label
_atom_site_fract_x
_atom_site_fract_y
_atom_site_fract_z
Si Si1 0.958668 0.779498 0.738660
Si Si2 0.931802 0.668769 0.401302
Si Si3 0.669876 0.230323 0.451897
Si Si4 0.966440 0.916115 0.570294
Si Si5 0.323782 0.583334 0.032393
Si Si6 0.664646 0.914288 0.628144
Si Si7 0.167050 0.762789 0.097449
O O1 0.969447 0.724774 0.623697
O O2 0.875480 0.782991 0.556492
O O3 0.988871 0.861211 0.770525
O O4 0.000000 0.748420 0.000000
O O5 0.885856 0.605364 0.364217
O O6 0.000000 0.631677 0.500000
O O7 0.878941 0.715053 0.147315
O O8 0.654222 0.142635 0.455276
O O9 0.750072 0.257577 0.695074
O O10 0.642450 0.242270 0.202947
O O11 0.000000 0.888630 0.500000
O O12 0.993743 0.000000 0.684939
O O13 0.881253 0.912099 0.325003
O O14 0.328486 0.500000 0.964712
O O15 0.246907 0.594057 0.902872
O O16 0.341138 0.647164 0.951826
O O17 0.647533 0.000000 0.528178
#
# Coordination Sequence:
#
# PCOD8093649 Si02
#       7
#     8   8   8   8   8   8   8
#     4  11  22  34  54  80 114 146 189 236 278 327
#     4  11  22  35  59  83 111 148 187 239 280 335
#     4   9  21  35  57  85 110 147 181 237 282 336
#     4  10  21  35  52  78 112 154 191 222 274 331
#     4   9  18  33  58  82 111 150 189 224 268 330
#     4   9  20  38  58  82 112 146 185 231 288 342
#     4  10  19  36  58  83 115 143 193 227 280 333
#
# _framework density 19.395751000000001
#
# number of rings (size 3 to 8) (size 9 to 14) (size 15 to 20)
#    0.000    2.143    1.429    1.286    4.000    2.286 
#    0.000    1.429    0.000   16.286    0.000    0.000 
#    0.000    0.000    0.000    0.000    0.000    0.000 
#
# Total GULP energy -347043.299604 kJ/mol
# GULP energy per Si atom -12394.403557 kJ/mol
# Density = 1.935161 g / cm^3
# Si number density = 19.395751 Si / 1000 Ang^3
#
#
#
# Elastic Constant Matrix: (Units=GPa)
#
#
# Indices 1 2 3 4 5 6 
#
# 1 104.2800 43.6364 16.2024 0.0000 3.4138 0.0000
# 2 43.6364 94.0879 22.7288 0.0000 -4.2457 0.0000
# 3 16.2024 22.7288 71.5490 0.0000 -10.2607 0.0000
# 4 0.0000 0.0000 0.0000 19.2782 0.0000 -0.6030
# 5 3.4138 -4.2457 -10.2607 0.0000 26.3576 0.0000
# 6 0.0000 0.0000 0.0000 -0.6030 0.0000 25.0119
#
#
#
# Elastic Compliance Matrix: (Units=1/GPa)
#
#
# Indices 1 2 3 4 5 6 
#
# 1 0.012191 -0.005436 -0.001468 0.000000 -0.003026 0.000000
# 2 -0.005436 0.013941 -0.002939 0.000000 0.001806 0.000000
# 3 -0.001468 -0.002939 0.016101 0.000000 0.005985 0.000000
# 4 0.000000 0.000000 0.000000 0.051911 0.000000 0.001252
# 5 -0.003026 0.001806 0.005985 0.000000 0.040952 0.000000
# 6 0.000000 0.000000 0.000000 0.001252 0.000000 0.040011
#
#
# Mechanical properties :
#
#
# Convention : Reuss Voigt Hill
#
# Bulk Modulus (GPa) = 44.35038 48.33914 46.34476
# Shear Modulus (GPa) = 24.71473 26.61951 25.66712
#
# Velocity S-wave (km/s) = 3.57351 3.70867 3.64172
# Velocity P-wave (km/s) = 6.32000 6.58146 6.45205
#
# Compressibility (1/GPa) = 0.02254772
#
# Stress axis : x y z
#
# Youngs Moduli (GPa) = 82.02444 71.73125 62.10967
#
# Poissons Ratio (x) = 0.38994 0.09117
# Poissons Ratio (y) = 0.44590 0.18251
# Poissons Ratio (z) = 0.12040 0.21079
#
# Static dielectric constant tensor:
#      x y z
#    x 3.692100 0.000000 0.217680 
#    y 0.000000 3.533560 0.000000 
#    z 0.217680 0.000000 3.505160 
# 
# 
# High freq. dielectric constant tensor:
#      x y z
#    x 1.760890 0.000000 0.023710 
#    y 0.000000 1.740680 0.000000 
#    z 0.023710 0.000000 1.747230 
# 
# From -- ./inp_files/112652.got.cif
#   From: 2010.06.25/outbox.cif.g09.slc.cpg/sg12_57_cif.got.tgz:112652.got - 2010.06.28 00:19:55.
