data_PCOD8093145
_publ_section_title
;
Structure prediction by ZEFSAII (Michael W. Deem and Ramdas Pophale) SiO2 
 PCOD8093145
Probable space group: C 2/M
;
_chemical_formula_sum "Si O2"
_cell_formula_units_Z 56
_cell_length_a 29.361164
_cell_length_b 8.744795
_cell_length_c 12.721844
_cell_angle_alpha 90.000000
_cell_angle_beta 59.320662
_cell_angle_gamma 90.000000
_cell_volume 2809.245952
_symmetry_space_group_name_H-M "C 2/M"
_symmetry_group_IT_number 12
_symmetry_cell_setting 'monoclinic'
loop_
_space_group_symop_operation_xyz
x,y,z
-x,y,-z
-x,-y,-z
x,-y,z
1/2+x,1/2+y,z
1/2-x,1/2+y,-z
1/2-x,1/2-y,-z
1/2+x,1/2-y,z
loop_
_atom_site_type_symbol
_atom_site_label
_atom_site_fract_x
_atom_site_fract_y
_atom_site_fract_z
Si Si1 0.192913 0.818895 0.585294
Si Si2 0.539165 0.682232 0.041254
Si Si3 0.111309 0.818678 0.506582
Si Si4 0.113658 0.179111 0.269188
Si Si5 0.697252 0.819808 0.015976
Si Si6 0.343153 0.319024 0.141602
Si Si7 0.504088 0.319674 0.306522
O O1 0.250000 0.750000 0.500000
O O2 0.152214 0.753854 0.545121
O O3 0.173462 0.766751 0.722655
O O4 0.196218 0.000000 0.572786
O O5 0.538143 0.500000 0.042738
O O6 0.520588 0.748931 0.174510
O O7 0.500000 0.749191 0.000000
O O8 0.597613 0.740692 0.946593
O O9 0.131357 0.773804 0.366097
O O10 0.052438 0.748243 0.593182
O O11 0.107917 0.000000 0.520460
O O12 0.146845 0.270466 0.144182
O O13 0.051116 0.219443 0.332835
O O14 0.122938 0.000000 0.236144
O O15 0.701938 0.000000 0.011228
O O16 0.750000 0.750000 0.000000
O O17 0.693697 0.762283 0.900495
O O18 0.338130 0.500000 0.133149
O O19 0.497118 0.500000 0.305604
#
# Coordination Sequence:
#
# PCOD8093145 Si02
#       7
#     8   8   8   8   8   8   8
#     4  10  22  38  57  83 117 154 198 243 288 343
#     4   9  15  25  49  84 118 149 187 237 286 331
#     4   9  18  32  54  87 121 154 192 236 286 338
#     4  10  19  35  59  89 121 151 189 238 291 347
#     4  12  26  42  62  86 115 151 196 244 298 356
#     4  10  20  38  60  87 119 151 192 243 293 343
#     4   9  15  27  51  85 119 148 186 234 283 337
#
# _framework density 19.934173999999999
#
# number of rings (size 3 to 8) (size 9 to 14) (size 15 to 20)
#    0.000    2.143    1.429    2.571    2.000    5.714 
#    0.000    0.000    0.000    3.000    0.000    0.000 
#    0.000    0.000    0.000    0.000    0.000    0.000 
#
# Total GULP energy -347173.251623 kJ/mol
# GULP energy per Si atom -12399.044701 kJ/mol
# Density = 1.988880 g / cm^3
# Si number density = 19.934174 Si / 1000 Ang^3
#
#
#
# Elastic Constant Matrix: (Units=GPa)
#
#
# Indices 1 2 3 4 5 6 
#
# 1 152.6680 28.4340 59.8775 0.0000 19.8297 0.0000
# 2 28.4340 40.0616 24.7960 0.0000 6.8011 0.0000
# 3 59.8775 24.7960 123.3579 0.0000 19.7563 0.0000
# 4 0.0000 0.0000 0.0000 18.4969 0.0000 -1.3744
# 5 19.8297 6.8011 19.7563 0.0000 42.5972 0.0000
# 6 0.0000 0.0000 0.0000 -1.3744 0.0000 20.7054
#
#
#
# Elastic Compliance Matrix: (Units=1/GPa)
#
#
# Indices 1 2 3 4 5 6 
#
# 1 0.008779 -0.003943 -0.003149 0.000000 -0.001997 0.000000
# 2 -0.003943 0.030445 -0.004020 0.000000 -0.001161 0.000000
# 3 -0.003149 -0.004020 0.010916 0.000000 -0.002955 0.000000
# 4 0.000000 0.000000 0.000000 0.054331 0.000000 0.003606
# 5 -0.001997 -0.001161 -0.002955 0.000000 0.025961 0.000000
# 6 0.000000 0.000000 0.000000 0.003606 0.000000 0.048536
#
#
# Mechanical properties :
#
#
# Convention : Reuss Voigt Hill
#
# Bulk Modulus (GPa) = 35.82048 60.25584 48.03816
# Shear Modulus (GPa) = 23.75318 29.89188 26.82253
#
# Velocity S-wave (km/s) = 3.45567 3.87658 3.67216
# Velocity P-wave (km/s) = 5.82500 7.09438 6.49079
#
# Compressibility (1/GPa) = 0.02791699
#
# Stress axis : x y z
#
# Youngs Moduli (GPa) = 113.90962 32.84575 91.60612
#
# Poissons Ratio (x) = 0.12951 0.28846
# Poissons Ratio (y) = 0.44913 0.36825
# Poissons Ratio (z) = 0.35869 0.13204
#
# Static dielectric constant tensor:
#      x y z
#    x 3.913280 0.000000 0.099510 
#    y 0.000000 3.075760 0.000000 
#    z 0.099510 0.000000 3.832020 
# 
# 
# High freq. dielectric constant tensor:
#      x y z
#    x 1.795560 0.000000 0.005620 
#    y 0.000000 1.714880 0.000000 
#    z 0.005620 0.000000 1.792640 
# 
# From -- ./inp_files/180798.got.cif
#   From: 2010.06.25/outbox.cif.g09.slc.cpg/sg12_91_cif.got.tgz:180798.got - 2010.06.28 00:19:55.
