data_PCOD8093128
_publ_section_title
;
Structure prediction by ZEFSAII (Michael W. Deem and Ramdas Pophale) SiO2 
 PCOD8093128
Probable space group: C 2/M
;
_chemical_formula_sum "Si O2"
_cell_formula_units_Z 56
_cell_length_a 28.536036
_cell_length_b 8.500474
_cell_length_c 19.832330
_cell_angle_alpha 90.000000
_cell_angle_beta 143.116421
_cell_angle_gamma 90.000000
_cell_volume 2887.353874
_symmetry_space_group_name_H-M "C 2/M"
_symmetry_group_IT_number 12
_symmetry_cell_setting 'monoclinic'
loop_
_space_group_symop_operation_xyz
x,y,z
-x,y,-z
-x,-y,-z
x,-y,z
1/2+x,1/2+y,z
1/2-x,1/2+y,-z
1/2-x,1/2-y,-z
1/2+x,1/2-y,z
loop_
_atom_site_type_symbol
_atom_site_label
_atom_site_fract_x
_atom_site_fract_y
_atom_site_fract_z
Si Si1 0.053248 0.685156 0.773331
Si Si2 0.744955 0.684816 0.326724
Si Si3 0.208874 0.684029 0.145828
Si Si4 0.379036 0.814632 0.577868
Si Si5 0.889140 0.684535 0.741027
Si Si6 0.945656 0.817096 0.080644
Si Si7 0.699222 0.314384 0.880512
O O1 0.059702 0.500000 0.793651
O O2 0.077932 0.770172 0.870728
O O3 0.112383 0.740463 0.783303
O O4 0.965277 0.733522 0.650851
O O5 0.755076 0.500000 0.326786
O O6 0.753422 0.772963 0.265604
O O7 0.813305 0.756392 0.453138
O O8 0.661668 0.719369 0.264277
O O9 0.191073 0.500000 0.121264
O O10 0.263387 0.738914 0.146931
O O11 0.127141 0.776897 0.050963
O O12 0.367277 0.753538 0.640782
O O13 0.370435 0.000000 0.569161
O O14 0.873261 0.500000 0.731446
O O15 0.979934 0.718914 0.859446
O O16 0.965671 0.000000 0.099242
O O17 0.693383 0.500000 0.879646
O O18 0.750000 0.250000 0.000000
#
# Coordination Sequence:
#
# PCOD8093128 Si02
#       7
#     8   8   8   8   8   8   8
#     4  10  19  35  59  87 117 147 184 233 286 336
#     4  11  22  38  58  83 114 150 194 237 278 333
#     4  11  24  40  56  80 116 154 188 230 288 343
#     4   8  18  36  59  85 114 149 189 233 279 330
#     4  10  20  37  60  85 115 150 188 232 286 337
#     4  11  21  35  57  86 115 146 189 235 282 335
#     4  11  22  36  59  86 114 147 189 234 285 340
#
# _framework density 19.394922000000001
#
# number of rings (size 3 to 8) (size 9 to 14) (size 15 to 20)
#    0.000    1.714    1.429    4.714    0.000    2.286 
#    0.000   11.429    0.000    4.286    0.000    0.000 
#    0.000    0.000    0.000    0.000    0.000    0.000 
#
# Total GULP energy -347299.321217 kJ/mol
# GULP energy per Si atom -12403.547186 kJ/mol
# Density = 1.935078 g / cm^3
# Si number density = 19.394922 Si / 1000 Ang^3
#
#
#
# Elastic Constant Matrix: (Units=GPa)
#
#
# Indices 1 2 3 4 5 6 
#
# 1 123.0151 18.8174 50.6826 0.0000 1.8822 0.0000
# 2 18.8174 53.9782 19.2415 0.0000 -1.8311 0.0000
# 3 50.6826 19.2415 74.2071 0.0000 -1.1351 0.0000
# 4 0.0000 0.0000 0.0000 26.4533 0.0000 1.8497
# 5 1.8822 -1.8311 -1.1351 0.0000 27.4862 0.0000
# 6 0.0000 0.0000 0.0000 1.8497 0.0000 33.0819
#
#
#
# Elastic Compliance Matrix: (Units=1/GPa)
#
#
# Indices 1 2 3 4 5 6 
#
# 1 0.011435 -0.001362 -0.007475 0.000000 -0.001182 0.000000
# 2 -0.001362 0.020611 -0.004394 0.000000 0.001285 0.000000
# 3 -0.007475 -0.004394 0.019736 0.000000 0.001034 0.000000
# 4 0.000000 0.000000 0.000000 0.037951 0.000000 -0.002122
# 5 -0.001182 0.001285 0.001034 0.000000 0.036591 0.000000
# 6 0.000000 0.000000 0.000000 -0.002122 0.000000 0.030347
#
#
# Mechanical properties :
#
#
# Convention : Reuss Voigt Hill
#
# Bulk Modulus (GPa) = 39.49502 47.63147 43.56325
# Shear Modulus (GPa) = 26.09957 28.23488 27.16723
#
# Velocity S-wave (km/s) = 3.67235 3.81962 3.74671
# Velocity P-wave (km/s) = 6.19591 6.63812 6.42082
#
# Compressibility (1/GPa) = 0.02531965
#
# Stress axis : x y z
#
# Youngs Moduli (GPa) = 87.44872 48.51811 50.66762
#
# Poissons Ratio (x) = 0.06608 0.37875
# Poissons Ratio (y) = 0.11910 0.22266
# Poissons Ratio (z) = 0.65369 0.21321
#
# Static dielectric constant tensor:
#      x y z
#    x 3.587980 0.000000 0.112430 
#    y 0.000000 3.428450 0.000000 
#    z 0.112430 0.000000 3.693250 
# 
# 
# High freq. dielectric constant tensor:
#      x y z
#    x 1.751310 0.000000 0.013230 
#    y 0.000000 1.753680 0.000000 
#    z 0.013230 0.000000 1.750570 
# 
# From -- ./inp_files/292553.got.cif
#   From: 2010.06.25/outbox.cif.g09.slc.cpg/sg12_147_cif.got.tgz:292553.got - 2010.06.28 00:19:55.
