data_PCOD8093560
_publ_section_title
;
Structure prediction by ZEFSAII (Michael W. Deem and Ramdas Pophale) SiO2 
 PCOD8093560
Probable space group: C 2/M
;
_chemical_formula_sum "Si O2"
_cell_formula_units_Z 44
_cell_length_a 16.223747
_cell_length_b 14.880962
_cell_length_c 15.641346
_cell_angle_alpha 90.000000
_cell_angle_beta 35.726970
_cell_angle_gamma 90.000000
_cell_volume 2205.018210
_symmetry_space_group_name_H-M "C 2/M"
_symmetry_group_IT_number 12
_symmetry_cell_setting 'monoclinic'
loop_
_space_group_symop_operation_xyz
x,y,z
-x,y,-z
-x,-y,-z
x,-y,z
1/2+x,1/2+y,z
1/2-x,1/2+y,-z
1/2-x,1/2-y,-z
1/2+x,1/2-y,z
loop_
_atom_site_type_symbol
_atom_site_label
_atom_site_fract_x
_atom_site_fract_y
_atom_site_fract_z
Si Si1 0.418618 0.102429 0.982430
Si Si2 0.326155 0.262283 0.794529
Si Si3 0.500000 0.738640 0.500000
Si Si4 0.768668 0.664787 0.592891
Si Si5 0.931170 0.680924 0.296857
Si Si6 0.160355 0.099899 0.850266
O O1 0.520148 0.109106 0.814650
O O2 0.365643 0.000000 0.035801
O O3 0.500000 0.132576 0.000000
O O4 0.287678 0.168247 0.073622
O O5 0.401204 0.315242 0.650616
O O6 0.436044 0.234770 0.775081
O O7 0.258313 0.170190 0.816726
O O8 0.588178 0.802907 0.485854
O O9 0.826818 0.628917 0.452043
O O10 0.660015 0.745480 0.674914
O O11 0.694543 0.594346 0.719303
O O12 0.185764 0.000000 0.866775
O O13 0.000000 0.130236 0.000000
#
# Coordination Sequence:
#
# PCOD8093560 Si02
#       6
#     8   8   4   8   8   8
#     4  11  23  37  55  78 107 148 192 228 264 312
#     4  10  19  36  57  80 109 140 176 225 275 326
#     4   8  16  32  58  80 102 138 176 216 270 326
#     4   9  18  34  55  82 110 142 178 217 270 328
#     4  10  20  35  57  80 108 145 182 224 274 321
#     4  10  20  34  56  84 112 144 178 218 273 331
#
# _framework density 19.954484000000001
#
# number of rings (size 3 to 8) (size 9 to 14) (size 15 to 20)
#    0.000    2.182    0.000    4.364    0.000    1.455 
#    0.000   18.636    0.000    6.545    0.000    0.000 
#    0.000    0.000    0.000    0.000    0.000    0.000 
#
# Total GULP energy -272541.043844 kJ/mol
# GULP energy per Si atom -12388.229266 kJ/mol
# Density = 1.990907 g / cm^3
# Si number density = 19.954484 Si / 1000 Ang^3
#
#
#
# Elastic Constant Matrix: (Units=GPa)
#
#
# Indices 1 2 3 4 5 6 
#
# 1 80.4467 26.5201 28.4539 0.0000 -4.2357 -0.0001
# 2 26.5201 67.1100 29.8051 -0.0001 -4.7628 0.0000
# 3 28.4539 29.8051 120.6029 -0.0003 14.3423 0.0001
# 4 0.0000 -0.0001 -0.0003 12.7084 0.0001 5.8029
# 5 -4.2357 -4.7628 14.3423 0.0001 38.7293 0.0000
# 6 -0.0001 0.0000 0.0001 5.8029 0.0000 16.8025
#
#
#
# Elastic Compliance Matrix: (Units=1/GPa)
#
#
# Indices 1 2 3 4 5 6 
#
# 1 0.014991 -0.004605 -0.002643 0.000000 0.002052 0.000000
# 2 -0.004605 0.018691 -0.003919 0.000000 0.003246 0.000000
# 3 -0.002643 -0.003919 0.010435 0.000000 -0.004635 0.000000
# 4 0.000000 0.000000 0.000000 0.093421 0.000000 -0.032264
# 5 0.002052 0.003246 -0.004635 0.000000 0.028160 0.000000
# 6 0.000000 0.000000 0.000000 -0.032264 0.000000 0.070658
#
#
# Mechanical properties :
#
#
# Convention : Reuss Voigt Hill
#
# Bulk Modulus (GPa) = 45.90421 48.63532 47.26977
# Shear Modulus (GPa) = 18.80041 25.87340 22.33691
#
# Velocity S-wave (km/s) = 3.07280 3.60477 3.34936
# Velocity P-wave (km/s) = 5.97025 6.46157 6.22076
#
# Compressibility (1/GPa) = 0.02178449
#
# Stress axis : x y z
#
# Youngs Moduli (GPa) = 66.70455 53.50032 95.83163
#
# Poissons Ratio (x) = 0.24636 0.25328
# Poissons Ratio (y) = 0.30716 0.37556
# Poissons Ratio (z) = 0.17630 0.20966
#
# Static dielectric constant tensor:
#      x y z
#    x 3.808820 0.000000 0.247740 
#    y 0.000000 3.140210 0.000000 
#    z 0.247740 0.000000 4.307890 
# 
# 
# High freq. dielectric constant tensor:
#      x y z
#    x 1.785150 0.000000 0.007440 
#    y 0.000000 1.729140 0.000000 
#    z 0.007440 0.000000 1.810200 
# 
# From -- ./inp_files/277756.got.cif
#   From: 2010.06.25/outbox.cif.g09.slc.cpg/sg12_139_cif.got.tgz:277756.got - 2010.06.28 00:19:55.
