data_PCOD8093878
_publ_section_title
;
Structure prediction by ZEFSAII (Michael W. Deem and Ramdas Pophale) SiO2 
 PCOD8093878
Probable space group: C 2/M
;
_chemical_formula_sum "Si O2"
_cell_formula_units_Z 64
_cell_length_a 14.877824
_cell_length_b 9.038870
_cell_length_c 30.518568
_cell_angle_alpha 90.000000
_cell_angle_beta 127.055832
_cell_angle_gamma 90.000000
_cell_volume 3275.269933
_symmetry_space_group_name_H-M "C 2/M"
_symmetry_group_IT_number 12
_symmetry_cell_setting 'monoclinic'
loop_
_space_group_symop_operation_xyz
x,y,z
-x,y,-z
-x,-y,-z
x,-y,z
1/2+x,1/2+y,z
1/2-x,1/2+y,-z
1/2-x,1/2-y,-z
1/2+x,1/2-y,z
loop_
_atom_site_type_symbol
_atom_site_label
_atom_site_fract_x
_atom_site_fract_y
_atom_site_fract_z
Si Si1 0.825291 0.174623 0.740903
Si Si2 0.889692 0.172303 0.938876
Si Si3 0.432986 0.172138 0.343680
Si Si4 0.123998 0.674286 0.331794
Si Si5 0.712272 0.675278 0.944280
Si Si6 0.576679 0.666211 0.452611
Si Si7 0.223717 0.333305 0.558429
Si Si8 0.458599 0.325092 0.864140
O O1 0.694008 0.216928 0.705150
O O2 0.887820 0.256885 0.719686
O O3 0.882612 0.235107 0.802090
O O4 0.842525 0.000000 0.739886
O O5 0.788744 0.271037 0.927016
O O6 0.910691 0.232863 0.896186
O O7 0.855521 0.000000 0.930015
O O8 0.000000 0.199797 0.000000
O O9 0.511233 0.216130 0.325468
O O10 0.469463 0.257885 0.398288
O O11 0.446068 0.000000 0.358039
O O12 0.141335 0.500000 0.333828
O O13 0.234175 0.743860 0.386937
O O14 0.720106 0.500000 0.952563
O O15 0.586486 0.728273 0.895744
O O16 0.750000 0.750000 0.000000
O O17 0.544132 0.500000 0.456497
O O18 0.680343 0.667122 0.449847
O O19 0.611688 0.755310 0.506589
O O20 0.193639 0.500000 0.563995
O O21 0.454373 0.500000 0.863880
#
# Coordination Sequence:
#
# PCOD8093878 Si02
#       8
#     8   8   8   8   8   8   8   8
#     4  10  21  39  59  78 105 148 193 229 271 333
#     4  10  19  36  60  86 116 152 186 224 277 336
#     4   9  19  35  55  77 105 143 185 226 276 336
#     4  10  20  35  55  81 111 142 180 235 287 327
#     4  11  21  36  58  87 118 151 187 228 276 331
#     4   9  16  27  48  78 109 140 177 226 282 331
#     4   9  16  28  49  77 108 144 183 222 272 340
#     4   9  20  38  58  80 113 151 187 227 279 334
#
# _framework density 19.540374
#
# number of rings (size 3 to 8) (size 9 to 14) (size 15 to 20)
#    0.000    2.375    1.250    1.500    0.000    5.250 
#    0.000    3.750    0.000    3.750    0.000    0.000 
#    0.000    0.000    0.000    0.000    0.000    0.000 
#
# Total GULP energy -396870.463867 kJ/mol
# GULP energy per Si atom -12402.201996 kJ/mol
# Density = 1.949590 g / cm^3
# Si number density = 19.540374 Si / 1000 Ang^3
#
#
#
# Elastic Constant Matrix: (Units=GPa)
#
#
# Indices 1 2 3 4 5 6 
#
# 1 89.3504 31.6872 48.9069 0.0000 7.5079 0.0000
# 2 31.6872 72.9902 42.3192 0.0000 8.9943 0.0000
# 3 48.9069 42.3192 148.1730 0.0000 8.6248 0.0000
# 4 0.0000 0.0000 0.0000 24.3173 0.0000 -4.5066
# 5 7.5079 8.9943 8.6248 0.0000 31.0510 0.0000
# 6 0.0000 0.0000 0.0000 -4.5066 0.0000 28.2421
#
#
#
# Elastic Compliance Matrix: (Units=1/GPa)
#
#
# Indices 1 2 3 4 5 6 
#
# 1 0.014750 -0.004145 -0.003605 0.000000 -0.001364 0.000000
# 2 -0.004145 0.017969 -0.003577 0.000000 -0.003209 0.000000
# 3 -0.003605 -0.003577 0.008995 0.000000 -0.000591 0.000000
# 4 0.000000 0.000000 0.000000 0.042376 0.000000 0.006762
# 5 -0.001364 -0.003209 -0.000591 0.000000 0.033629 0.000000
# 6 0.000000 0.000000 0.000000 0.006762 0.000000 0.036487
#
#
# Mechanical properties :
#
#
# Convention : Reuss Voigt Hill
#
# Bulk Modulus (GPa) = 52.46769 61.81557 57.14163
# Shear Modulus (GPa) = 27.29048 29.22877 28.25962
#
# Velocity S-wave (km/s) = 3.74119 3.87177 3.80704
# Velocity P-wave (km/s) = 6.75065 7.18964 6.97360
#
# Compressibility (1/GPa) = 0.01905935
#
# Stress axis : x y z
#
# Youngs Moduli (GPa) = 67.79736 55.64992 111.17436
#
# Poissons Ratio (x) = 0.23067 0.40080
# Poissons Ratio (y) = 0.28102 0.39770
# Poissons Ratio (z) = 0.24442 0.19908
#
# Static dielectric constant tensor:
#      x y z
#    x 5.047140 0.000000 -0.087040 
#    y 0.000000 3.482640 0.000000 
#    z -0.087040 0.000000 3.736500 
# 
# 
# High freq. dielectric constant tensor:
#      x y z
#    x 1.758760 0.000000 -0.001890 
#    y 0.000000 1.750320 0.000000 
#    z -0.001890 0.000000 1.761810 
# 
# From -- ./inp_files/375695.got.cif
#   From: 2010.06.25/outbox.cif.g09.slc.cpg/sg12_188_cif.got.tgz:375695.got - 2010.06.28 00:19:55.
