data_PCOD8093358
_publ_section_title
;
Structure prediction by ZEFSAII (Michael W. Deem and Ramdas Pophale) SiO2 
 PCOD8093358
Probable space group: C 2/M
;
_chemical_formula_sum "Si O2"
_cell_formula_units_Z 64
_cell_length_a 15.297473
_cell_length_b 8.614546
_cell_length_c 28.762969
_cell_angle_alpha 90.000000
_cell_angle_beta 124.467513
_cell_angle_gamma 90.000000
_cell_volume 3124.990175
_symmetry_space_group_name_H-M "C 2/M"
_symmetry_group_IT_number 12
_symmetry_cell_setting 'monoclinic'
loop_
_space_group_symop_operation_xyz
x,y,z
-x,y,-z
-x,-y,-z
x,-y,z
1/2+x,1/2+y,z
1/2-x,1/2+y,-z
1/2-x,1/2-y,-z
1/2+x,1/2-y,z
loop_
_atom_site_type_symbol
_atom_site_label
_atom_site_fract_x
_atom_site_fract_y
_atom_site_fract_z
Si Si1 0.200844 0.317642 0.439013
Si Si2 0.465225 0.683811 0.866255
Si Si3 0.393942 0.683233 0.244256
Si Si4 0.786553 0.319357 0.373819
Si Si5 0.463332 0.819516 0.357888
Si Si6 0.402064 0.683902 0.747087
Si Si7 0.704249 0.816782 0.122329
Si Si8 0.198111 0.683741 0.938384
O O1 0.194855 0.500000 0.442929
O O2 0.250000 0.250000 0.500000
O O3 0.274937 0.273510 0.418074
O O4 0.081961 0.249358 0.396188
O O5 0.460081 0.500000 0.872116
O O6 0.403086 0.738199 0.800941
O O7 0.411773 0.769566 0.893945
O O8 0.585939 0.734503 0.897037
O O9 0.398512 0.500000 0.245308
O O10 0.393584 0.740465 0.296961
O O11 0.496106 0.754248 0.248762
O O12 0.289242 0.740889 0.186191
O O13 0.766429 0.500000 0.378223
O O14 0.904218 0.289813 0.389176
O O15 0.702749 0.255785 0.310551
O O16 0.467146 0.000000 0.347239
O O17 0.407891 0.500000 0.747432
O O18 0.724736 0.726499 0.080837
O O19 0.710401 0.000000 0.114927
O O20 0.183838 0.500000 0.937803
O O21 0.250000 0.750000 0.000000
#
# Coordination Sequence:
#
# PCOD8093358 Si02
#       8
#     8   8   8   8   8   8   8   8
#     4  11  24  41  59  83 114 151 198 249 299 352
#     4  11  22  41  66  95 129 165 207 255 307 366
#     4  10  19  35  61  91 124 161 197 241 297 356
#     4  10  20  38  62  86 117 156 194 236 294 354
#     4  10  22  38  59  89 120 152 195 247 298 356
#     4   9  17  33  60  90 122 159 193 235 298 362
#     4  11  23  41  63  94 131 166 206 252 302 366
#     4  12  26  45  67  92 122 164 211 260 314 367
#
# _framework density 20.480065
#
# number of rings (size 3 to 8) (size 9 to 14) (size 15 to 20)
#    0.000    1.500    2.500    3.000    0.000    4.000 
#    0.000    6.250    0.000    0.000    0.000    0.000 
#    0.000    0.000    0.000    0.000    0.000    0.000 
#
# Total GULP energy -396905.887490 kJ/mol
# GULP energy per Si atom -12403.308984 kJ/mol
# Density = 2.043345 g / cm^3
# Si number density = 20.480065 Si / 1000 Ang^3
#
#
#
# Elastic Constant Matrix: (Units=GPa)
#
#
# Indices 1 2 3 4 5 6 
#
# 1 93.7774 15.1868 24.3766 0.0000 -25.6087 0.0000
# 2 15.1868 54.0164 30.4042 0.0000 -3.3039 0.0000
# 3 24.3766 30.4042 125.9306 0.0000 -21.0293 0.0000
# 4 0.0000 0.0000 0.0000 32.3092 0.0000 -3.6166
# 5 -25.6087 -3.3039 -21.0293 0.0000 24.7702 0.0000
# 6 0.0000 0.0000 0.0000 -3.6166 0.0000 31.8421
#
#
#
# Elastic Compliance Matrix: (Units=1/GPa)
#
#
# Indices 1 2 3 4 5 6 
#
# 1 0.015482 -0.003693 0.000566 0.000000 0.015994 0.000000
# 2 -0.003693 0.022373 -0.005623 0.000000 -0.005608 0.000000
# 3 0.000566 -0.005623 0.010675 0.000000 0.008897 0.000000
# 4 0.000000 0.000000 0.000000 0.031350 0.000000 0.003561
# 5 0.015994 -0.005608 0.008897 0.000000 0.063712 0.000000
# 6 0.000000 0.000000 0.000000 0.003561 0.000000 0.031809
#
#
# Mechanical properties :
#
#
# Convention : Reuss Voigt Hill
#
# Bulk Modulus (GPa) = 32.22797 45.96216 39.09507
# Shear Modulus (GPa) = 24.60081 31.36811 27.98446
#
# Velocity S-wave (km/s) = 3.46960 3.91786 3.70053
# Velocity P-wave (km/s) = 5.64104 6.55418 6.11468
#
# Compressibility (1/GPa) = 0.03102895
#
# Stress axis : x y z
#
# Youngs Moduli (GPa) = 64.59047 44.69600 93.67811
#
# Poissons Ratio (x) = 0.16506 -0.05298
# Poissons Ratio (y) = 0.23853 0.52678
# Poissons Ratio (z) = -0.03653 0.25134
#
# Static dielectric constant tensor:
#      x y z
#    x 3.967000 0.000000 0.036840 
#    y 0.000000 3.496730 0.000000 
#    z 0.036840 0.000000 3.743770 
# 
# 
# High freq. dielectric constant tensor:
#      x y z
#    x 1.813490 0.000000 -0.006400 
#    y 0.000000 1.784990 0.000000 
#    z -0.006400 0.000000 1.800390 
# 
# From -- ./inp_files/359961.got.cif
#   From: 2010.06.25/outbox.cif.g09.slc.cpg/sg12_180_cif.got.tgz:359961.got - 2010.06.28 00:19:55.
