data_PCOD8093382
_publ_section_title
;
Structure prediction by ZEFSAII (Michael W. Deem and Ramdas Pophale) SiO2 
 PCOD8093382
Probable space group: C 2/M
;
_chemical_formula_sum "Si O2"
_cell_formula_units_Z 64
_cell_length_a 14.485529
_cell_length_b 23.008099
_cell_length_c 10.335360
_cell_angle_alpha 90.000000
_cell_angle_beta 68.863743
_cell_angle_gamma 90.000000
_cell_volume 3212.880517
_symmetry_space_group_name_H-M "C 2/M"
_symmetry_group_IT_number 12
_symmetry_cell_setting 'monoclinic'
loop_
_space_group_symop_operation_xyz
x,y,z
-x,y,-z
-x,-y,-z
x,-y,z
1/2+x,1/2+y,z
1/2-x,1/2+y,-z
1/2-x,1/2-y,-z
1/2+x,1/2-y,z
loop_
_atom_site_type_symbol
_atom_site_label
_atom_site_fract_x
_atom_site_fract_y
_atom_site_fract_z
Si Si1 0.567299 0.360110 0.093160
Si Si2 0.254532 0.432855 0.091135
Si Si3 0.444758 0.365203 0.405046
Si Si4 0.018224 0.264803 0.135071
Si Si5 0.366905 0.757734 0.421236
Si Si6 0.771118 0.934169 0.379437
Si Si7 0.424621 0.888085 0.427993
Si Si8 0.545734 0.110739 0.120848
O O1 0.509558 0.381868 0.247543
O O2 0.588171 0.291675 0.109654
O O3 0.500000 0.368972 0.000000
O O4 0.669702 0.394140 0.030269
O O5 0.285856 0.500000 0.063380
O O6 0.260409 0.411789 0.236886
O O7 0.145389 0.426242 0.085813
O O8 0.500000 0.393202 0.500000
O O9 0.424500 0.297459 0.453338
O O10 0.340343 0.394236 0.431491
O O11 0.908276 0.255837 0.252635
O O12 0.073085 0.323159 0.155653
O O13 0.000000 0.281859 0.000000
O O14 0.250000 0.750000 0.500000
O O15 0.398386 0.819727 0.463331
O O16 0.667738 0.929600 0.503525
O O17 0.810001 0.000000 0.360966
O O18 0.500000 0.906293 0.500000
O O19 0.463100 0.907577 0.267165
O O20 0.500000 0.102836 0.000000
#
# Coordination Sequence:
#
# PCOD8093382 Si02
#       8
#     8   8   8   8   8   8   8   8
#     4  10  20  39  64  88 120 161 206 249 300 367
#     4  11  24  41  64  91 118 165 219 253 297 364
#     4  11  23  41  61  94 130 157 199 263 317 361
#     4   8  18  35  58  90 124 158 196 245 313 370
#     4  10  19  35  62  90 125 162 202 249 310 380
#     4  11  24  41  64  92 120 164 217 257 305 366
#     4  11  21  38  64  92 122 164 207 254 309 371
#     4  10  22  41  61  90 128 157 199 258 314 364
#
# _framework density 19.919817999999999
#
# number of rings (size 3 to 8) (size 9 to 14) (size 15 to 20)
#    0.000    1.750    3.750    0.375    0.000    3.500 
#    2.250    1.250    0.000    0.000    0.000    0.000 
#    0.000    0.000    0.000    0.000    0.000    0.000 
#
# Total GULP energy -396473.909174 kJ/mol
# GULP energy per Si atom -12389.809662 kJ/mol
# Density = 1.987448 g / cm^3
# Si number density = 19.919818 Si / 1000 Ang^3
#
#
#
# Elastic Constant Matrix: (Units=GPa)
#
#
# Indices 1 2 3 4 5 6 
#
# 1 101.1801 18.4335 48.9472 0.0000 5.7829 0.0000
# 2 18.4335 59.3767 23.5028 0.0000 -6.2663 0.0000
# 3 48.9472 23.5028 121.3783 0.0000 -1.2203 0.0000
# 4 0.0000 0.0000 0.0000 24.1320 0.0000 -2.8003
# 5 5.7829 -6.2663 -1.2203 0.0000 38.3657 0.0000
# 6 0.0000 0.0000 0.0000 -2.8003 0.0000 19.0040
#
#
#
# Elastic Compliance Matrix: (Units=1/GPa)
#
#
# Indices 1 2 3 4 5 6 
#
# 1 0.012726 -0.002348 -0.004702 0.000000 -0.002451 0.000000
# 2 -0.002348 0.018994 -0.002697 0.000000 0.003370 0.000000
# 3 -0.004702 -0.002697 0.010663 0.000000 0.000607 0.000000
# 4 0.000000 0.000000 0.000000 0.042160 0.000000 0.006212
# 5 -0.002451 0.003370 0.000607 0.000000 0.027004 0.000000
# 6 0.000000 0.000000 0.000000 0.006212 0.000000 0.053536
#
#
# Mechanical properties :
#
#
# Convention : Reuss Voigt Hill
#
# Bulk Modulus (GPa) = 43.68977 51.52247 47.60612
# Shear Modulus (GPa) = 26.01373 29.03713 27.52543
#
# Velocity S-wave (km/s) = 3.61768 3.82213 3.72131
# Velocity P-wave (km/s) = 6.27937 6.73790 6.51267
#
# Compressibility (1/GPa) = 0.02288865
#
# Stress axis : x y z
#
# Youngs Moduli (GPa) = 78.58026 52.64852 93.78152
#
# Poissons Ratio (x) = 0.12364 0.44094
# Poissons Ratio (y) = 0.18453 0.25293
# Poissons Ratio (z) = 0.36947 0.14199
#
# Static dielectric constant tensor:
#      x y z
#    x 3.538270 0.000000 -0.170940 
#    y 0.000000 3.675400 0.000000 
#    z -0.170940 0.000000 3.822790 
# 
# 
# High freq. dielectric constant tensor:
#      x y z
#    x 1.753140 0.000000 -0.008180 
#    y 0.000000 1.779400 0.000000 
#    z -0.008180 0.000000 1.788300 
# 
# From -- ./inp_files/135938.got.cif
#   From: 2010.06.25/outbox.cif.g09.slc.cpg/sg12_68_cif.got.tgz:135938.got - 2010.06.28 00:19:55.
