data_PCOD8093999
_publ_section_title
;
Structure prediction by ZEFSAII (Michael W. Deem and Ramdas Pophale) SiO2 
 PCOD8093999
Probable space group: C 2/M
;
_chemical_formula_sum "Si O2"
_cell_formula_units_Z 56
_cell_length_a 25.699027
_cell_length_b 17.204703
_cell_length_c 9.109692
_cell_angle_alpha 90.000000
_cell_angle_beta 135.149948
_cell_angle_gamma 90.000000
_cell_volume 2840.619019
_symmetry_space_group_name_H-M "C 2/M"
_symmetry_group_IT_number 12
_symmetry_cell_setting 'monoclinic'
loop_
_space_group_symop_operation_xyz
x,y,z
-x,y,-z
-x,-y,-z
x,-y,z
1/2+x,1/2+y,z
1/2-x,1/2+y,-z
1/2-x,1/2-y,-z
1/2+x,1/2-y,z
loop_
_atom_site_type_symbol
_atom_site_label
_atom_site_fract_x
_atom_site_fract_y
_atom_site_fract_z
Si Si1 0.334384 0.651349 0.497280
Si Si2 0.417208 0.500000 0.659765
Si Si3 0.084700 0.710116 0.842212
Si Si4 0.825635 0.410759 0.821291
Si Si5 0.084706 0.289884 0.496607
Si Si6 0.325630 0.910760 0.481234
Si Si7 0.417212 0.500000 0.009069
Si Si8 0.834388 0.848651 0.840257
O O1 0.377138 0.576505 0.519801
O O2 0.248122 0.638635 0.296170
O O3 0.362269 0.725634 0.466313
O O4 0.350834 0.664378 0.701663
O O5 0.499998 0.500000 0.764959
O O6 0.413335 0.500000 0.826668
O O7 0.095576 0.709896 0.691158
O O8 0.999996 0.726378 0.716551
O O9 0.108449 0.626150 0.952275
O O10 0.137724 0.774365 0.017240
O O11 0.813528 0.500000 0.844958
O O12 0.847494 0.406146 0.694983
O O13 0.108457 0.373850 0.481552
O O14 0.251873 0.861364 0.303673
O O15 0.313520 0.000000 0.409134
O O16 0.377143 0.423494 0.988754
#
# Coordination Sequence:
#
# PCOD8093999 Si02
#       8
#     8   4   8   8   8   8   4   8
#     4  10  19  36  61  89 117 147 189 238 289 346
#     4   9  16  28  53  87 118 147 180 224 281 341
#     4  11  25  41  56  81 119 159 198 239 284 339
#     4  10  21  39  63  90 117 146 189 244 294 343
#     4  11  25  41  56  81 119 159 198 239 284 339
#     4  10  21  39  63  90 117 146 189 244 294 343
#     4   9  16  28  53  87 118 147 180 224 281 341
#     4  10  19  36  61  89 117 147 189 238 289 346
#
# _framework density 19.714012
#
# number of rings (size 3 to 8) (size 9 to 14) (size 15 to 20)
#    0.000    1.857    1.429    2.571    0.000    9.143 
#    0.000    3.571    0.000    2.571    0.000    0.000 
#    0.000    0.000    0.000    0.000    0.000    0.000 
#
# Total GULP energy -347291.132401 kJ/mol
# GULP energy per Si atom -12403.254729 kJ/mol
# Density = 1.966914 g / cm^3
# Si number density = 19.714012 Si / 1000 Ang^3
#
#
#
# Elastic Constant Matrix: (Units=GPa)
#
#
# Indices 1 2 3 4 5 6 
#
# 1 87.4780 55.0788 31.3211 0.0000 3.0811 0.0000
# 2 55.0788 121.2535 55.0863 0.0000 0.1963 0.0000
# 3 31.3211 55.0863 87.7179 0.0000 2.3441 0.0000
# 4 0.0000 0.0000 0.0000 14.8182 0.0000 18.4158
# 5 3.0811 0.1963 2.3441 0.0000 11.8520 0.0000
# 6 0.0000 0.0000 0.0000 18.4158 0.0000 13.9890
#
#
#
# Elastic Compliance Matrix: (Units=1/GPa)
#
#
# Indices 1 2 3 4 5 6 
#
# 1 0.016346 -0.006736 -0.001504 0.000000 -0.003840 0.000000
# 2 -0.006736 0.014333 -0.006672 0.000000 0.002833 0.000000
# 3 -0.001504 -0.006672 0.016199 0.000000 -0.002702 0.000000
# 4 0.000000 0.000000 0.000000 -0.106098 0.000000 0.139672
# 5 -0.003840 0.002833 -0.002702 0.000000 0.085860 0.000000
# 6 0.000000 0.000000 0.000000 0.139672 0.000000 -0.112387
#
#
# Mechanical properties :
#
#
# Convention : Reuss Voigt Hill
#
# Bulk Modulus (GPa) = 58.63167 64.38020 61.50594
# Shear Modulus (GPa) = -99.52828 18.46272 -40.53278
#
# Velocity S-wave (km/s) = -7.11306 3.06359 -4.53928
# Velocity P-wave (km/s) = 6.13638 6.72623 1.94768
#
# Compressibility (1/GPa) = 0.01705563
#
# Stress axis : x y z
#
# Youngs Moduli (GPa) = 61.17626 69.76758 61.73085
#
# Poissons Ratio (x) = 0.46993 0.09285
# Poissons Ratio (y) = 0.41206 0.41186
# Poissons Ratio (z) = 0.09202 0.46548
#
# Static dielectric constant tensor:
#      x y z
#    x 3.498040 0.000000 0.183630 
#    y 0.000000 3.729490 0.000000 
#    z 0.183630 0.000000 3.506350 
# 
# 
# High freq. dielectric constant tensor:
#      x y z
#    x 1.757130 0.000000 0.018460 
#    y 0.000000 1.783600 0.000000 
#    z 0.018460 0.000000 1.757960 
# 
# From -- ./inp_files/106079.got.cif
#   From: 2010.06.25/outbox.cif.g09.slc.cpg/sg12_54_cif.got.tgz:106079.got - 2010.06.28 00:19:55.
