data_PCOD8093993
_publ_section_title
;
Structure prediction by ZEFSAII (Michael W. Deem and Ramdas Pophale) SiO2 
 PCOD8093993
Probable space group: C 2/M
;
_chemical_formula_sum "Si O2"
_cell_formula_units_Z 64
_cell_length_a 18.673158
_cell_length_b 20.495666
_cell_length_c 18.709051
_cell_angle_alpha 90.000000
_cell_angle_beta 152.908950
_cell_angle_gamma 90.000000
_cell_volume 3260.845074
_symmetry_space_group_name_H-M "C 2/M"
_symmetry_group_IT_number 12
_symmetry_cell_setting 'monoclinic'
loop_
_space_group_symop_operation_xyz
x,y,z
-x,y,-z
-x,-y,-z
x,-y,z
1/2+x,1/2+y,z
1/2-x,1/2+y,-z
1/2-x,1/2-y,-z
1/2+x,1/2-y,z
loop_
_atom_site_type_symbol
_atom_site_label
_atom_site_fract_x
_atom_site_fract_y
_atom_site_fract_z
Si Si1 0.733851 0.427572 0.886780
Si Si2 0.490134 0.675219 0.270424
Si Si3 0.481789 0.926341 0.219570
Si Si4 0.262706 0.295829 0.624402
Si Si5 0.325399 0.635739 0.314452
Si Si6 0.314251 0.275222 0.827432
Si Si7 0.915749 0.312528 0.260149
Si Si8 0.248071 0.146581 0.600747
O O1 0.661899 0.500000 0.831023
O O2 0.645106 0.377605 0.860703
O O3 0.727945 0.410128 0.797686
O O4 0.909287 0.425536 0.074998
O O5 0.618385 0.665984 0.321955
O O6 0.415086 0.747460 0.209896
O O7 0.565847 0.651818 0.413927
O O8 0.390678 0.877799 0.191762
O O9 0.659094 0.899581 0.371171
O O10 0.481614 0.000000 0.250768
O O11 0.291729 0.313453 0.732845
O O12 0.309157 0.220831 0.650373
O O13 0.082599 0.314030 0.449124
O O14 0.500000 0.627391 0.500000
O O15 0.289296 0.709798 0.261266
O O16 0.224797 0.618190 0.295760
O O17 0.235868 0.316045 0.822083
O O18 0.500000 0.261628 0.000000
#
# Coordination Sequence:
#
# PCOD8093993 Si02
#       8
#     8   8   8   8   8   8   8   8
#     4  11  26  40  55  86 128 167 202 246 300 354
#     4  11  19  37  65  91 116 160 206 251 298 347
#     4  11  25  41  59  87 122 161 201 253 309 357
#     4  10  20  36  62  96 122 152 193 252 306 353
#     4  11  21  39  58  84 126 168 199 242 295 355
#     4  11  24  35  61  99 123 151 197 252 307 360
#     4  11  20  41  65  87 124 160 197 254 303 356
#     4  10  19  36  61  88 119 153 205 244 293 358
#
# _framework density 19.626815000000001
#
# number of rings (size 3 to 8) (size 9 to 14) (size 15 to 20)
#    0.000    1.250    5.000    2.625    5.250    1.750 
#    0.000    1.250    0.000    2.625    0.000    0.000 
#    0.000    0.000    0.000    0.000    0.000    0.000 
#
# Total GULP energy -396543.821147 kJ/mol
# GULP energy per Si atom -12391.994411 kJ/mol
# Density = 1.958214 g / cm^3
# Si number density = 19.626815 Si / 1000 Ang^3
#
#
#
# Elastic Constant Matrix: (Units=GPa)
#
#
# Indices 1 2 3 4 5 6 
#
# 1 86.5806 47.3541 18.9301 0.0040 -2.3194 -0.0053
# 2 47.3541 108.9440 28.6991 -0.0053 -4.7639 -0.0069
# 3 18.9301 28.6991 62.4294 0.0012 -9.8508 -0.0076
# 4 0.0040 -0.0053 0.0012 22.7541 -0.0067 -1.8873
# 5 -2.3194 -4.7639 -9.8508 -0.0067 27.5188 -0.0083
# 6 -0.0053 -0.0069 -0.0076 -1.8873 -0.0083 23.7676
#
#
#
# Elastic Compliance Matrix: (Units=1/GPa)
#
#
# Indices 1 2 3 4 5 6 
#
# 1 0.015334 -0.006191 -0.001875 -0.000004 -0.000450 0.000001
# 2 -0.006191 0.012944 -0.004029 0.000005 0.000277 0.000002
# 3 -0.001875 -0.004029 0.019400 0.000001 0.006089 0.000007
# 4 -0.000004 0.000005 0.000001 0.044239 0.000012 0.003513
# 5 -0.000450 0.000277 0.006089 0.000012 0.038528 0.000016
# 6 0.000001 0.000002 0.000007 0.003513 0.000016 0.042353
#
#
# Mechanical properties :
#
#
# Convention : Reuss Voigt Hill
#
# Bulk Modulus (GPa) = 42.57649 49.76895 46.17272
# Shear Modulus (GPa) = 24.41209 25.67283 25.04246
#
# Velocity S-wave (km/s) = 3.53060 3.62062 3.57589
# Velocity P-wave (km/s) = 6.19357 6.54914 6.37383
#
# Compressibility (1/GPa) = 0.02348714
#
# Stress axis : x y z
#
# Youngs Moduli (GPa) = 65.21550 77.25867 51.54744
#
# Poissons Ratio (x) = 0.47830 0.09663
# Poissons Ratio (y) = 0.40374 0.20770
# Poissons Ratio (z) = 0.12226 0.31130
#
# Static dielectric constant tensor:
#      x y z
#    x 3.702350 -0.000010 -0.149080 
#    y -0.000010 3.348130 -0.000020 
#    z -0.149080 -0.000020 3.543530 
# 
# 
# High freq. dielectric constant tensor:
#      x y z
#    x 1.770220 0.000000 -0.000780 
#    y 0.000000 1.727160 0.000000 
#    z -0.000780 0.000000 1.767640 
# 
# From -- ./inp_files/279133.got.cif
#   From: 2010.06.25/outbox.cif.g09.slc.cpg/sg12_140_cif.got.tgz:279133.got - 2010.06.28 00:19:55.
