data_PCOD8093760
_publ_section_title
;
Structure prediction by ZEFSAII (Michael W. Deem and Ramdas Pophale) SiO2 
 PCOD8093760
Probable space group: C 2/M
;
_chemical_formula_sum "Si O2"
_cell_formula_units_Z 64
_cell_length_a 19.993212
_cell_length_b 8.691320
_cell_length_c 24.235187
_cell_angle_alpha 90.000000
_cell_angle_beta 53.537418
_cell_angle_gamma 90.000000
_cell_volume 3386.905943
_symmetry_space_group_name_H-M "C 2/M"
_symmetry_group_IT_number 12
_symmetry_cell_setting 'monoclinic'
loop_
_space_group_symop_operation_xyz
x,y,z
-x,y,-z
-x,-y,-z
x,-y,z
1/2+x,1/2+y,z
1/2-x,1/2+y,-z
1/2-x,1/2-y,-z
1/2+x,1/2-y,z
loop_
_atom_site_type_symbol
_atom_site_label
_atom_site_fract_x
_atom_site_fract_y
_atom_site_fract_z
Si Si1 0.458612 0.680823 0.818571
Si Si2 0.190443 0.180473 0.574515
Si Si3 0.230950 0.180841 0.068247
Si Si4 0.015428 0.317596 0.677415
Si Si5 0.775486 0.179365 0.318652
Si Si6 0.699707 0.317233 0.860482
Si Si7 0.409947 0.181002 0.174499
Si Si8 0.347018 0.179326 0.711389
O O1 0.472705 0.500000 0.805289
O O2 0.362162 0.725341 0.868152
O O3 0.502656 0.765472 0.746235
O O4 0.501938 0.741910 0.853132
O O5 0.250000 0.250000 0.500000
O O6 0.098582 0.246844 0.611389
O O7 0.228126 0.225310 0.615697
O O8 0.186327 0.000000 0.568624
O O9 0.295394 0.254783 0.079852
O O10 0.244400 0.000000 0.059774
O O11 0.250000 0.250000 0.000000
O O12 0.022977 0.500000 0.671478
O O13 0.938617 0.252041 0.677863
O O14 0.844703 0.280180 0.254729
O O15 0.685247 0.213901 0.335008
O O16 0.799205 0.000000 0.298684
O O17 0.693940 0.500000 0.863154
O O18 0.618246 0.249620 0.870517
O O19 0.780175 0.253898 0.787665
O O20 0.420985 0.000000 0.163722
O O21 0.353242 0.000000 0.719784
#
# Coordination Sequence:
#
# PCOD8093760 Si02
#       8
#     8   8   8   8   8   8   8   8
#     4  11  22  37  57  85 118 152 192 239 286 339
#     4  11  23  38  57  80 114 154 193 237 290 349
#     4  11  24  40  60  86 119 156 196 238 290 349
#     4  11  20  34  58  87 114 144 188 238 285 340
#     4   9  18  35  56  80 111 150 189 233 286 339
#     4  10  19  36  59  84 118 154 190 235 289 345
#     4  11  21  33  56  88 117 148 191 241 286 337
#     4   8  16  31  55  84 110 141 184 230 280 335
#
# _framework density 18.896301999999999
#
# number of rings (size 3 to 8) (size 9 to 14) (size 15 to 20)
#    0.000    1.750    2.500    3.750    0.000    2.000 
#    0.000    1.875    0.000    7.500    0.000    0.000 
#    0.000    0.000    0.000    0.000    0.000    0.000 
#
# Total GULP energy -396822.754787 kJ/mol
# GULP energy per Si atom -12400.711087 kJ/mol
# Density = 1.885329 g / cm^3
# Si number density = 18.896302 Si / 1000 Ang^3
#
#
#
# Elastic Constant Matrix: (Units=GPa)
#
#
# Indices 1 2 3 4 5 6 
#
# 1 110.5294 27.3808 6.2279 0.0003 20.0342 -0.0008
# 2 27.3808 68.0641 20.1017 0.0003 4.1518 -0.0015
# 3 6.2279 20.1017 48.6745 0.0003 13.1086 -0.0006
# 4 0.0003 0.0003 0.0003 29.0857 -0.0001 2.3237
# 5 20.0342 4.1518 13.1086 -0.0001 28.7076 0.0002
# 6 -0.0008 -0.0015 -0.0006 2.3237 0.0002 30.5180
#
#
#
# Elastic Compliance Matrix: (Units=1/GPa)
#
#
# Indices 1 2 3 4 5 6 
#
# 1 0.011729 -0.005055 0.002958 0.000000 -0.008805 0.000000
# 2 -0.005055 0.018929 -0.008419 0.000000 0.004634 0.000001
# 3 0.002958 -0.008419 0.027218 0.000000 -0.013275 0.000000
# 4 0.000000 0.000000 0.000000 0.034592 0.000000 -0.002634
# 5 -0.008805 0.004634 -0.013275 0.000000 0.046370 -0.000001
# 6 0.000000 0.000001 0.000000 -0.002634 -0.000001 0.032968
#
#
# Mechanical properties :
#
#
# Convention : Reuss Voigt Hill
#
# Bulk Modulus (GPa) = 27.14052 37.18765 32.16408
# Shear Modulus (GPa) = 24.37615 29.23276 26.80446
#
# Velocity S-wave (km/s) = 3.59555 3.93747 3.77039
# Velocity P-wave (km/s) = 5.62417 6.35564 6.00106
#
# Compressibility (1/GPa) = 0.03684528
#
# Stress axis : x y z
#
# Youngs Moduli (GPa) = 85.25993 52.82866 36.74033
#
# Poissons Ratio (x) = 0.26704 -0.10868
# Poissons Ratio (y) = 0.43097 0.30930
# Poissons Ratio (z) = -0.25221 0.44475
#
# Static dielectric constant tensor:
#      x y z
#    x 3.983000 0.000000 0.064730 
#    y 0.000000 3.407260 0.000000 
#    z 0.064730 0.000000 3.203000 
# 
# 
# High freq. dielectric constant tensor:
#      x y z
#    x 1.755400 0.000000 0.011730 
#    y 0.000000 1.733900 0.000000 
#    z 0.011730 0.000000 1.700890 
# 
# From -- ./inp_files/345512.got.cif
#   From: 2010.06.25/outbox.cif.g09.slc.cpg/sg12_173_cif.got.tgz:345512.got - 2010.06.28 00:19:55.
