data_PCOD8093556
_publ_section_title
;
Structure prediction by ZEFSAII (Michael W. Deem and Ramdas Pophale) SiO2 
 PCOD8093556
Probable space group: C 2/M
;
_chemical_formula_sum "Si O2"
_cell_formula_units_Z 64
_cell_length_a 9.592058
_cell_length_b 26.773947
_cell_length_c 14.553661
_cell_angle_alpha 90.000000
_cell_angle_beta 114.380956
_cell_angle_gamma 90.000000
_cell_volume 3404.312711
_symmetry_space_group_name_H-M "C 2/M"
_symmetry_group_IT_number 12
_symmetry_cell_setting 'monoclinic'
loop_
_space_group_symop_operation_xyz
x,y,z
-x,y,-z
-x,-y,-z
x,-y,z
1/2+x,1/2+y,z
1/2-x,1/2+y,-z
1/2-x,1/2-y,-z
1/2+x,1/2-y,z
loop_
_atom_site_type_symbol
_atom_site_label
_atom_site_fract_x
_atom_site_fract_y
_atom_site_fract_z
Si Si1 0.540264 0.223821 0.879208
Si Si2 0.978042 0.301725 0.659722
Si Si3 0.873486 0.787723 0.396904
Si Si4 0.951595 0.411429 0.383851
Si Si5 0.142771 0.057893 0.369547
Si Si6 0.641187 0.623319 0.733569
Si Si7 0.245573 0.445066 0.396639
Si Si8 0.263372 0.190715 0.910769
O O1 0.539674 0.202787 0.778103
O O2 0.366858 0.225325 0.870849
O O3 0.607866 0.279969 0.895056
O O4 0.640881 0.185202 0.968516
O O5 0.796123 0.289061 0.604015
O O6 0.075202 0.268033 0.615910
O O7 0.020316 0.357442 0.648167
O O8 0.889038 0.820808 0.309953
O O9 0.000000 0.810240 0.500000
O O10 0.779255 0.431418 0.335257
O O11 0.000000 0.410046 0.500000
O O12 0.063548 0.449854 0.362100
O O13 0.173468 0.072669 0.485391
O O14 0.010205 0.091702 0.290286
O O15 0.097944 0.000000 0.352498
O O16 0.734984 0.594198 0.680389
O O17 0.728655 0.635999 0.854119
O O18 0.308572 0.500000 0.385820
#
# Coordination Sequence:
#
# PCOD8093556 Si02
#       8
#     8   8   8   8   8   8   8   8
#     4  10  19  38  55  79 107 142 187 235 277 323
#     4  12  22  38  54  80 112 156 188 225 276 337
#     4  12  25  35  52  79 121 156 189 219 270 339
#     4  10  21  35  54  79 110 146 191 228 273 335
#     4  10  22  36  55  82 113 149 190 237 286 338
#     4  12  21  35  54  83 111 148 185 228 283 336
#     4  10  19  36  57  79 111 148 189 239 286 338
#     4  10  21  35  58  78 106 141 188 240 278 319
#
# _framework density 18.799682000000001
#
# number of rings (size 3 to 8) (size 9 to 14) (size 15 to 20)
#    0.000    1.250    3.750    2.625    3.500    3.500 
#    0.000    0.000    0.000    0.000    0.000   19.250 
#    0.000    0.000    0.000    0.000    0.000    0.000 
#
# Total GULP energy -396505.605666 kJ/mol
# GULP energy per Si atom -12390.800177 kJ/mol
# Density = 1.875689 g / cm^3
# Si number density = 18.799682 Si / 1000 Ang^3
#
#
#
# Elastic Constant Matrix: (Units=GPa)
#
#
# Indices 1 2 3 4 5 6 
#
# 1 120.7490 37.5583 17.8680 0.0000 12.5159 0.0000
# 2 37.5583 84.4586 23.2601 0.0000 9.7169 0.0000
# 3 17.8680 23.2601 83.6829 0.0000 6.8386 0.0000
# 4 0.0000 0.0000 0.0000 -3.9023 0.0000 -21.6838
# 5 12.5159 9.7169 6.8386 0.0000 17.7312 0.0000
# 6 0.0000 0.0000 0.0000 -21.6838 0.0000 25.2277
#
#
#
# Elastic Compliance Matrix: (Units=1/GPa)
#
#
# Indices 1 2 3 4 5 6 
#
# 1 0.010039 -0.003717 -0.000720 0.000000 -0.004771 0.000000
# 2 -0.003717 0.014811 -0.002968 0.000000 -0.004348 0.000000
# 3 -0.000720 -0.002968 0.013169 0.000000 -0.002944 0.000000
# 4 0.000000 0.000000 0.000000 -0.044366 0.000000 -0.038133
# 5 -0.004771 -0.004348 -0.002944 0.000000 0.063284 0.000000
# 6 0.000000 0.000000 0.000000 -0.038133 0.000000 0.006863
#
#
# Mechanical properties :
#
#
# Convention : Reuss Voigt Hill
#
# Bulk Modulus (GPa) = 43.08752 49.58479 46.33616
# Shear Modulus (GPa) = 57.90633 21.82492 39.86563
#
# Velocity S-wave (km/s) = 5.55595 3.41092 4.60994
# Velocity P-wave (km/s) = 8.00795 6.47651 7.28259
#
# Compressibility (1/GPa) = 0.02320857
#
# Stress axis : x y z
#
# Youngs Moduli (GPa) = 99.61211 67.51939 75.93482
#
# Poissons Ratio (x) = 0.25096 0.05471
# Poissons Ratio (y) = 0.37025 0.22535
# Poissons Ratio (z) = 0.07177 0.20038
#
# Static dielectric constant tensor:
#      x y z
#    x 2.739020 0.000000 0.254950 
#    y 0.000000 3.302870 0.000000 
#    z 0.254950 0.000000 3.425200 
# 
# 
# High freq. dielectric constant tensor:
#      x y z
#    x 1.748490 0.000000 -0.000600 
#    y 0.000000 1.714140 0.000000 
#    z -0.000600 0.000000 1.707210 
# 
# From -- ./inp_files/199905.got.cif
#   From: 2010.06.25/outbox.cif.g09.slc.cpg/sg12_100_cif.got.tgz:199905.got - 2010.06.28 00:19:55.
