data_PCOD8093936
_publ_section_title
;
Structure prediction by ZEFSAII (Michael W. Deem and Ramdas Pophale) SiO2 
 PCOD8093936
Probable space group: C 2/M
;
_chemical_formula_sum "Si O2"
_cell_formula_units_Z 64
_cell_length_a 29.307128
_cell_length_b 8.880524
_cell_length_c 14.721017
_cell_angle_alpha 90.000000
_cell_angle_beta 118.839683
_cell_angle_gamma 90.000000
_cell_volume 3356.141728
_symmetry_space_group_name_H-M "C 2/M"
_symmetry_group_IT_number 12
_symmetry_cell_setting 'monoclinic'
loop_
_space_group_symop_operation_xyz
x,y,z
-x,y,-z
-x,-y,-z
x,-y,z
1/2+x,1/2+y,z
1/2-x,1/2+y,-z
1/2-x,1/2-y,-z
1/2+x,1/2-y,z
loop_
_atom_site_type_symbol
_atom_site_label
_atom_site_fract_x
_atom_site_fract_y
_atom_site_fract_z
Si Si1 0.858060 0.677021 0.281575
Si Si2 0.890755 0.321897 0.757518
Si Si3 0.918082 0.323196 0.160969
Si Si4 0.254733 0.674891 0.780682
Si Si5 0.028377 0.821967 0.289033
Si Si6 0.212991 0.824273 0.391767
Si Si7 0.857722 0.323805 0.925112
Si Si8 0.947097 0.322273 0.501234
O O1 0.855220 0.500000 0.293723
O O2 0.875858 0.717022 0.197152
O O3 0.800685 0.746561 0.242783
O O4 0.899316 0.739411 0.394680
O O5 0.892275 0.500000 0.746245
O O6 0.943845 0.250061 0.771946
O O7 0.842901 0.255047 0.654294
O O8 0.885268 0.274948 0.857766
O O9 0.932485 0.500000 0.176882
O O10 0.968771 0.227242 0.230406
O O11 0.894793 0.271485 0.042387
O O12 0.256713 0.500000 0.805711
O O13 0.261589 0.706866 0.681113
O O14 0.301085 0.750173 0.882099
O O15 0.056041 0.763239 0.406549
O O16 0.032792 0.000000 0.288332
O O17 0.250000 0.750000 0.500000
O O18 0.206079 0.000000 0.405228
O O19 0.848341 0.500000 0.919665
O O20 0.943894 0.500000 0.516888
O O21 0.000000 0.281058 0.500000
#
# Coordination Sequence:
#
# PCOD8093936 Si02
#       8
#     8   8   8   8   8   8   8   8
#     4   9  18  34  58  86 112 148 193 226 268 338
#     4  10  21  39  59  80 110 150 192 237 288 344
#     4  10  20  39  62  83 110 149 195 236 278 339
#     4   9  19  35  55  81 115 150 185 227 280 341
#     4  12  25  38  55  86 119 148 187 237 292 343
#     4  10  20  34  53  81 114 150 191 236 283 337
#     4   9  20  38  61  85 110 144 191 243 285 328
#     4  10  19  36  61  83 110 155 196 229 275 335
#
# _framework density 19.069516
#
# number of rings (size 3 to 8) (size 9 to 14) (size 15 to 20)
#    0.000    2.125    1.250    1.875    1.750    2.750 
#    0.000    3.750    0.000    0.000    0.000    0.000 
#    0.000    0.000    0.000    0.000    0.000    0.000 
#
# Total GULP energy -396893.565558 kJ/mol
# GULP energy per Si atom -12402.923924 kJ/mol
# Density = 1.902611 g / cm^3
# Si number density = 19.069516 Si / 1000 Ang^3
#
#
#
# Elastic Constant Matrix: (Units=GPa)
#
#
# Indices 1 2 3 4 5 6 
#
# 1 104.1536 31.1759 21.5902 0.0000 -6.0641 0.0000
# 2 31.1759 61.8491 30.9387 0.0000 -4.3899 0.0000
# 3 21.5902 30.9387 107.3808 0.0000 -7.4599 0.0000
# 4 0.0000 0.0000 0.0000 22.6693 0.0000 6.1545
# 5 -6.0641 -4.3899 -7.4599 0.0000 17.2084 0.0000
# 6 0.0000 0.0000 0.0000 6.1545 0.0000 27.3344
#
#
#
# Elastic Compliance Matrix: (Units=1/GPa)
#
#
# Indices 1 2 3 4 5 6 
#
# 1 0.011454 -0.005297 -0.000608 0.000000 0.002421 0.000000
# 2 -0.005297 0.021449 -0.005015 0.000000 0.001431 0.000000
# 3 -0.000608 -0.005015 0.011111 0.000000 0.003323 0.000000
# 4 0.000000 0.000000 0.000000 0.046985 0.000000 -0.010579
# 5 0.002421 0.001431 0.003323 0.000000 0.060770 0.000000
# 6 0.000000 0.000000 0.000000 -0.010579 0.000000 0.038966
#
#
# Mechanical properties :
#
#
# Convention : Reuss Voigt Hill
#
# Bulk Modulus (GPa) = 45.10318 48.97701 47.04010
# Shear Modulus (GPa) = 22.73068 26.08765 24.40916
#
# Velocity S-wave (km/s) = 3.45627 3.70270 3.58160
# Velocity P-wave (km/s) = 6.29532 6.63469 6.46723
#
# Compressibility (1/GPa) = 0.02217139
#
# Stress axis : x y z
#
# Youngs Moduli (GPa) = 87.30646 46.62228 90.00175
#
# Poissons Ratio (x) = 0.24697 0.05477
# Poissons Ratio (y) = 0.46249 0.45140
# Poissons Ratio (z) = 0.05313 0.23383
#
# Static dielectric constant tensor:
#      x y z
#    x 3.729990 0.000000 0.003870 
#    y 0.000000 3.321560 0.000000 
#    z 0.003870 0.000000 3.603060 
# 
# 
# High freq. dielectric constant tensor:
#      x y z
#    x 1.750000 0.000000 0.001190 
#    y 0.000000 1.723550 0.000000 
#    z 0.001190 0.000000 1.745640 
# 
# From -- ./inp_files/249258.got.cif
#   From: 2010.06.25/outbox.cif.g09.slc.cpg/sg12_125_cif.got.tgz:249258.got - 2010.06.28 00:19:55.
