data_PCOD8093611
_publ_section_title
;
Structure prediction by ZEFSAII (Michael W. Deem and Ramdas Pophale) SiO2 
 PCOD8093611
Probable space group: C 2/M
;
_chemical_formula_sum "Si O2"
_cell_formula_units_Z 64
_cell_length_a 30.811415
_cell_length_b 9.048044
_cell_length_c 11.995644
_cell_angle_alpha 90.000000
_cell_angle_beta 89.426984
_cell_angle_gamma 90.000000
_cell_volume 3344.014843
_symmetry_space_group_name_H-M "C 2/M"
_symmetry_group_IT_number 12
_symmetry_cell_setting 'monoclinic'
loop_
_space_group_symop_operation_xyz
x,y,z
-x,y,-z
-x,-y,-z
x,-y,z
1/2+x,1/2+y,z
1/2-x,1/2+y,-z
1/2-x,1/2-y,-z
1/2+x,1/2-y,z
loop_
_atom_site_type_symbol
_atom_site_label
_atom_site_fract_x
_atom_site_fract_y
_atom_site_fract_z
Si Si1 0.669125 0.171022 0.000329
Si Si2 0.920949 0.174944 0.997759
Si Si3 0.703045 0.825636 0.238638
Si Si4 0.449180 0.829956 0.774660
Si Si5 0.624043 0.174970 0.390016
Si Si6 0.546842 0.170586 0.793529
Si Si7 0.375204 0.824004 0.360810
Si Si8 0.790830 0.329166 0.233044
O O1 0.702596 0.196327 0.898887
O O2 0.654587 0.000000 0.008256
O O3 0.627285 0.268699 0.976995
O O4 0.691717 0.223889 0.113330
O O5 0.937843 0.229130 0.879060
O O6 0.921884 0.000000 0.000562
O O7 0.952452 0.237022 0.092608
O O8 0.665540 0.764274 0.321028
O O9 0.748377 0.756097 0.275213
O O10 0.707477 0.000000 0.247041
O O11 0.420167 0.777393 0.670993
O O12 0.499433 0.811316 0.739604
O O13 0.438317 0.000000 0.805893
O O14 0.623877 0.242549 0.514338
O O15 0.627179 0.000000 0.397072
O O16 0.582336 0.233236 0.705938
O O17 0.556617 0.000000 0.822677
O O18 0.332149 0.766462 0.299559
O O19 0.375880 0.000000 0.363398
O O20 0.783983 0.500000 0.261250
#
# Coordination Sequence:
#
# PCOD8093611 Si02
#       8
#     8   8   8   8   8   8   8   8
#     4  10  19  36  58  79 108 146 182 223 279 331
#     4  12  23  34  55  84 115 145 178 225 275 328
#     4  10  20  34  55  80 111 145 179 223 272 325
#     4  10  20  36  59  83 110 146 184 222 270 329
#     4   9  18  34  56  82 111 143 183 230 273 313
#     4  10  20  36  59  83 110 146 184 222 270 329
#     4   9  18  34  56  82 111 143 183 230 273 313
#     4  10  20  34  55  80 111 145 179 223 272 325
#
# _framework density 19.138672
#
# number of rings (size 3 to 8) (size 9 to 14) (size 15 to 20)
#    0.000    2.000    2.500    1.875    0.000    4.000 
#    0.000    2.500    0.000    2.250    0.000    1.750 
#    0.000    0.000    0.000    0.000    0.000    0.000 
#
# Total GULP energy -396869.395691 kJ/mol
# GULP energy per Si atom -12402.168615 kJ/mol
# Density = 1.909511 g / cm^3
# Si number density = 19.138672 Si / 1000 Ang^3
#
#
#
# Elastic Constant Matrix: (Units=GPa)
#
#
# Indices 1 2 3 4 5 6 
#
# 1 125.5957 26.9702 43.9361 0.0000 10.3427 0.0000
# 2 26.9702 49.0783 22.0346 0.0000 1.1856 0.0000
# 3 43.9361 22.0346 129.4662 0.0000 9.7271 0.0000
# 4 0.0000 0.0000 0.0000 6.5650 0.0000 -1.1290
# 5 10.3427 1.1856 9.7271 0.0000 17.7172 0.0000
# 6 0.0000 0.0000 0.0000 -1.1290 0.0000 25.9163
#
#
#
# Elastic Compliance Matrix: (Units=1/GPa)
#
#
# Indices 1 2 3 4 5 6 
#
# 1 0.010079 -0.004379 -0.002352 0.000000 -0.004299 0.000000
# 2 -0.004379 0.023970 -0.002780 0.000000 0.002478 0.000000
# 3 -0.002352 -0.002780 0.009260 0.000000 -0.003525 0.000000
# 4 0.000000 0.000000 0.000000 0.153473 0.000000 0.006686
# 5 -0.004299 0.002478 -0.003525 0.000000 0.060722 0.000000
# 6 0.000000 0.000000 0.000000 0.006686 0.000000 0.038877
#
#
# Mechanical properties :
#
#
# Convention : Reuss Voigt Hill
#
# Bulk Modulus (GPa) = 41.17304 54.44689 47.80996
# Shear Modulus (GPa) = 15.45600 24.11965 19.78782
#
# Velocity S-wave (km/s) = 2.84488 3.55386 3.21895
# Velocity P-wave (km/s) = 5.68778 6.73426 6.23302
#
# Compressibility (1/GPa) = 0.02428774
#
# Stress axis : x y z
#
# Youngs Moduli (GPa) = 99.21319 41.71858 107.98884
#
# Poissons Ratio (x) = 0.18268 0.25401
# Poissons Ratio (y) = 0.43445 0.30018
# Poissons Ratio (z) = 0.23337 0.11597
#
# Static dielectric constant tensor:
#      x y z
#    x 3.614480 0.000000 0.037950 
#    y 0.000000 3.098870 0.000000 
#    z 0.037950 0.000000 3.680930 
# 
# 
# High freq. dielectric constant tensor:
#      x y z
#    x 1.757690 0.000000 0.001650 
#    y 0.000000 1.701040 0.000000 
#    z 0.001650 0.000000 1.743970 
# 
# From -- ./inp_files/187593.got.cif
#   From: 2010.06.25/outbox.cif.g09.slc.cpg/sg12_94_cif.got.tgz:187593.got - 2010.06.28 00:19:55.
