data_PCOD8093204
_publ_section_title
;
Structure prediction by ZEFSAII (Michael W. Deem and Ramdas Pophale) SiO2 
 PCOD8093204
Probable space group: C 2/M
;
_chemical_formula_sum "Si O2"
_cell_formula_units_Z 64
_cell_length_a 23.330970
_cell_length_b 13.838006
_cell_length_c 12.084952
_cell_angle_alpha 90.000000
_cell_angle_beta 58.696904
_cell_angle_gamma 90.000000
_cell_volume 3333.712263
_symmetry_space_group_name_H-M "C 2/M"
_symmetry_group_IT_number 12
_symmetry_cell_setting 'monoclinic'
loop_
_space_group_symop_operation_xyz
x,y,z
-x,y,-z
-x,-y,-z
x,-y,z
1/2+x,1/2+y,z
1/2-x,1/2+y,-z
1/2-x,1/2-y,-z
1/2+x,1/2-y,z
loop_
_atom_site_type_symbol
_atom_site_label
_atom_site_fract_x
_atom_site_fract_y
_atom_site_fract_z
Si Si1 0.873507 0.387221 0.087639
Si Si2 0.143342 0.887071 0.029371
Si Si3 0.902155 0.612594 0.724200
Si Si4 0.693632 0.390327 0.734473
Si Si5 0.536201 0.231289 0.162477
Si Si6 0.382670 0.226666 0.296283
Si Si7 0.221638 0.612515 0.007793
Si Si8 0.652109 0.110211 0.453918
O O1 0.890481 0.500000 0.072095
O O2 0.863391 0.350370 0.221580
O O3 0.803883 0.366525 0.091204
O O4 0.934958 0.335000 0.964852
O O5 0.159426 0.865713 0.885483
O O6 0.131330 0.000000 0.064283
O O7 0.076106 0.831928 0.131123
O O8 0.205258 0.841751 0.039653
O O9 0.915051 0.500000 0.736579
O O10 0.961538 0.673886 0.722363
O O11 0.898358 0.631904 0.597174
O O12 0.834002 0.649901 0.850539
O O13 0.678575 0.500000 0.714488
O O14 0.661385 0.322892 0.673213
O O15 0.772766 0.372443 0.664556
O O16 0.460065 0.256351 0.210872
O O17 0.365212 0.182439 0.431473
O O18 0.231712 0.500000 0.021296
O O19 0.642761 0.000000 0.503780
#
# Coordination Sequence:
#
# PCOD8093204 Si02
#       8
#     8   8   8   8   8   8   8   8
#     4  10  21  35  52  79 117 152 181 223 282 341
#     4  10  19  35  60  86 112 142 186 241 285 325
#     4   9  18  35  58  84 111 143 186 232 279 328
#     4  10  21  39  61  82 109 145 190 242 283 321
#     4  11  23  35  53  83 117 152 187 221 275 342
#     4  12  24  37  53  82 118 153 187 222 272 342
#     4   8  15  31  55  81 106 136 179 231 282 324
#     4  10  21  39  63  86 108 142 192 240 279 326
#
# _framework density 19.197817000000001
#
# number of rings (size 3 to 8) (size 9 to 14) (size 15 to 20)
#    0.000    2.000    2.500    2.250    0.000    6.500 
#    0.000    2.500    0.000    0.750    0.000    1.750 
#    0.000    0.000    0.000    0.000    0.000    0.000 
#
# Total GULP energy -396823.447090 kJ/mol
# GULP energy per Si atom -12400.732722 kJ/mol
# Density = 1.915412 g / cm^3
# Si number density = 19.197817 Si / 1000 Ang^3
#
#
#
# Elastic Constant Matrix: (Units=GPa)
#
#
# Indices 1 2 3 4 5 6 
#
# 1 66.1121 24.5110 14.7264 0.0000 11.5248 0.0000
# 2 24.5110 56.9981 25.5917 0.0000 7.8713 0.0000
# 3 14.7264 25.5917 60.5006 0.0000 20.2704 0.0000
# 4 0.0000 0.0000 0.0000 23.9944 0.0000 7.0282
# 5 11.5248 7.8713 20.2704 0.0000 24.3533 0.0000
# 6 0.0000 0.0000 0.0000 7.0282 0.0000 19.9032
#
#
#
# Elastic Compliance Matrix: (Units=1/GPa)
#
#
# Indices 1 2 3 4 5 6 
#
# 1 0.019011 -0.007641 0.001097 0.000000 -0.007441 0.000000
# 2 -0.007641 0.024742 -0.009899 0.000000 0.003858 0.000000
# 3 0.001097 -0.009899 0.027111 0.000000 -0.019886 0.000000
# 4 0.000000 0.000000 0.000000 0.046484 0.000000 -0.016414
# 5 -0.007441 0.003858 -0.019886 0.000000 0.059888 0.000000
# 6 0.000000 0.000000 0.000000 -0.016414 0.000000 0.056039
#
#
# Mechanical properties :
#
#
# Convention : Reuss Voigt Hill
#
# Bulk Modulus (GPa) = 26.32905 34.80766 30.56836
# Shear Modulus (GPa) = 17.93270 21.56896 19.75083
#
# Velocity S-wave (km/s) = 3.05962 3.35552 3.21098
# Velocity P-wave (km/s) = 5.12114 5.76048 5.45019
#
# Compressibility (1/GPa) = 0.03798086
#
# Stress axis : x y z
#
# Youngs Moduli (GPa) = 52.60061 40.41755 36.88486
#
# Poissons Ratio (x) = 0.30881 -0.04048
# Poissons Ratio (y) = 0.40190 0.36510
# Poissons Ratio (z) = -0.05772 0.40007
#
# Static dielectric constant tensor:
#      x y z
#    x 3.653710 0.000000 0.183030 
#    y 0.000000 3.477890 0.000000 
#    z 0.183030 0.000000 3.262990 
# 
# 
# High freq. dielectric constant tensor:
#      x y z
#    x 1.752850 0.000000 0.013440 
#    y 0.000000 1.746720 0.000000 
#    z 0.013440 0.000000 1.720510 
# 
# From -- ./inp_files/167252.got.cif
#   From: 2010.06.25/outbox.cif.g09.slc.cpg/sg12_84_cif.got.tgz:167252.got - 2010.06.28 00:19:55.
