data_PCOD8093686
_publ_section_title
;
Structure prediction by ZEFSAII (Michael W. Deem and Ramdas Pophale) SiO2 
 PCOD8093686
Probable space group: C 2/M
;
_chemical_formula_sum "Si O2"
_cell_formula_units_Z 64
_cell_length_a 24.776223
_cell_length_b 8.966133
_cell_length_c 14.876401
_cell_angle_alpha 90.000000
_cell_angle_beta 92.896222
_cell_angle_gamma 90.000000
_cell_volume 3300.525341
_symmetry_space_group_name_H-M "C 2/M"
_symmetry_group_IT_number 12
_symmetry_cell_setting 'monoclinic'
loop_
_space_group_symop_operation_xyz
x,y,z
-x,y,-z
-x,-y,-z
x,-y,z
1/2+x,1/2+y,z
1/2-x,1/2+y,-z
1/2-x,1/2-y,-z
1/2+x,1/2-y,z
loop_
_atom_site_type_symbol
_atom_site_label
_atom_site_fract_x
_atom_site_fract_y
_atom_site_fract_z
Si Si1 0.021924 0.177132 0.098201
Si Si2 0.441882 0.673725 0.243197
Si Si3 0.236338 0.671176 0.183771
Si Si4 0.162951 0.324689 0.497170
Si Si5 0.651513 0.669934 0.892337
Si Si6 0.054958 0.176855 0.555040
Si Si7 0.261492 0.674054 0.630889
Si Si8 0.371396 0.173761 0.928872
O O1 0.081417 0.240916 0.119633
O O2 0.984693 0.241437 0.175573
O O3 0.023472 0.000000 0.100030
O O4 0.000000 0.234255 0.000000
O O5 0.453715 0.500000 0.252716
O O6 0.381628 0.705920 0.201460
O O7 0.447883 0.742704 0.343446
O O8 0.234494 0.500000 0.217547
O O9 0.285703 0.696064 0.120067
O O10 0.243435 0.782677 0.266339
O O11 0.183599 0.717617 0.124943
O O12 0.154046 0.500000 0.487625
O O13 0.105429 0.248772 0.508335
O O14 0.204666 0.282444 0.580013
O O15 0.188286 0.263687 0.406879
O O16 0.639364 0.500000 0.921722
O O17 0.631117 0.777764 0.968138
O O18 0.000000 0.222842 0.500000
O O19 0.063523 0.000000 0.555441
O O20 0.273506 0.500000 0.620971
O O21 0.383273 0.000000 0.925963
#
# Coordination Sequence:
#
# PCOD8093686 Si02
#       8
#     8   8   8   8   8   8   8   8
#     4  10  19  36  59  79 104 145 197 238 275 335
#     4   9  18  34  58  83 105 139 191 241 280 326
#     4  10  22  37  55  82 117 151 185 229 288 347
#     4  10  21  38  60  85 116 150 188 236 291 341
#     4  10  19  36  59  78 104 149 195 232 277 337
#     4  10  21  37  58  86 118 151 192 238 285 344
#     4  10  21  37  60  87 113 148 194 238 282 341
#     4  11  23  36  52  82 118 148 182 233 292 341
#
# _framework density 19.390853
#
# number of rings (size 3 to 8) (size 9 to 14) (size 15 to 20)
#    0.000    2.000    1.250    2.250    0.000    5.500 
#    0.000    2.500    0.000    0.000    0.000    0.000 
#    0.000    0.000    0.000    0.000    0.000    0.000 
#
# Total GULP energy -396887.509187 kJ/mol
# GULP energy per Si atom -12402.734662 kJ/mol
# Density = 1.934672 g / cm^3
# Si number density = 19.390853 Si / 1000 Ang^3
#
#
#
# Elastic Constant Matrix: (Units=GPa)
#
#
# Indices 1 2 3 4 5 6 
#
# 1 140.2897 33.2079 19.7525 0.0000 -4.2775 0.0000
# 2 33.2079 35.9835 17.9382 0.0000 -1.1614 0.0000
# 3 19.7525 17.9382 46.6041 0.0000 1.8918 0.0000
# 4 0.0000 0.0000 0.0000 26.8662 0.0000 -2.1802
# 5 -4.2775 -1.1614 1.8918 0.0000 26.4369 0.0000
# 6 0.0000 0.0000 0.0000 -2.1802 0.0000 32.8917
#
#
#
# Elastic Compliance Matrix: (Units=1/GPa)
#
#
# Indices 1 2 3 4 5 6 
#
# 1 0.009180 -0.008006 -0.000858 0.000000 0.001195 0.000000
# 2 -0.008006 0.041532 -0.012651 0.000000 0.001434 0.000000
# 3 -0.000858 -0.012651 0.026796 0.000000 -0.002612 0.000000
# 4 0.000000 0.000000 0.000000 0.037423 0.000000 0.002480
# 5 0.001195 0.001434 -0.002612 0.000000 0.038269 0.000000
# 6 0.000000 0.000000 0.000000 0.002480 0.000000 0.030567
#
#
# Mechanical properties :
#
#
# Convention : Reuss Voigt Hill
#
# Bulk Modulus (GPa) = 29.00312 40.51939 34.76126
# Shear Modulus (GPa) = 20.98279 27.37089 24.17684
#
# Velocity S-wave (km/s) = 3.29309 3.76112 3.53486
# Velocity P-wave (km/s) = 5.42668 6.30895 5.88437
#
# Compressibility (1/GPa) = 0.03447905
#
# Stress axis : x y z
#
# Youngs Moduli (GPa) = 108.92711 24.07787 37.31851
#
# Poissons Ratio (x) = 0.19277 0.03202
# Poissons Ratio (y) = 0.87208 0.47211
# Poissons Ratio (z) = 0.09345 0.30461
#
# Static dielectric constant tensor:
#      x y z
#    x 3.672620 0.000000 -0.010270 
#    y 0.000000 3.327110 0.000000 
#    z -0.010270 0.000000 3.580910 
# 
# 
# High freq. dielectric constant tensor:
#      x y z
#    x 1.767250 0.000000 -0.004370 
#    y 0.000000 1.735640 0.000000 
#    z -0.004370 0.000000 1.753750 
# 
# From -- ./inp_files/238699.got.cif
#   From: 2010.06.25/outbox.cif.g09.slc.cpg/sg12_120_cif.got.tgz:238699.got - 2010.06.28 00:19:55.
