data_PCOD8093210
_publ_section_title
;
Structure prediction by ZEFSAII (Michael W. Deem and Ramdas Pophale) SiO2 
 PCOD8093210
Probable space group: C 2/M
;
_chemical_formula_sum "Si O2"
_cell_formula_units_Z 40
_cell_length_a 11.128962
_cell_length_b 23.015978
_cell_length_c 8.345839
_cell_angle_alpha 90.000000
_cell_angle_beta 122.869658
_cell_angle_gamma 90.000000
_cell_volume 1795.500376
_symmetry_space_group_name_H-M "C 2/M"
_symmetry_group_IT_number 12
_symmetry_cell_setting 'monoclinic'
loop_
_space_group_symop_operation_xyz
x,y,z
-x,y,-z
-x,-y,-z
x,-y,z
1/2+x,1/2+y,z
1/2-x,1/2+y,-z
1/2-x,1/2-y,-z
1/2+x,1/2-y,z
loop_
_atom_site_type_symbol
_atom_site_label
_atom_site_fract_x
_atom_site_fract_y
_atom_site_fract_z
Si Si1 0.288515 0.567273 0.536505
Si Si2 0.797873 0.565928 0.167500
Si Si3 0.542728 0.870594 0.214553
Si Si4 0.046377 0.124929 0.849397
Si Si5 0.923497 0.748415 0.116973
O O1 0.270289 0.500000 0.472254
O O2 0.227213 0.581779 0.666887
O O3 0.209379 0.612290 0.357982
O O4 0.456535 0.583706 0.664690
O O5 0.754788 0.500000 0.103594
O O6 0.963576 0.577561 0.251594
O O7 0.711381 0.604842 0.974790
O O8 0.491845 0.808217 0.254644
O O9 0.500000 0.870926 0.000000
O O10 0.029506 0.190552 0.770028
O O11 0.000000 0.117300 0.000000
O O12 0.750000 0.750000 0.000000
O O13 0.000000 0.747831 0.000000
#
# Coordination Sequence:
#
# PCOD8093210 Si02
#       5
#     8   8   8   8   8
#     4  10  21  37  59  90 118 152 207 256 297 363
#     4  10  19  35  60  86 113 154 199 250 303 360
#     4  11  23  37  57  83 122 159 200 247 306 366
#     4   9  18  35  61  85 116 150 198 255 307 348
#     4  10  20  38  64  91 121 160 208 254 305 370
#
# _framework density 22.277911
#
# number of rings (size 3 to 8) (size 9 to 14) (size 15 to 20)
#    0.000    2.000    2.000    1.800    0.000    6.400 
#    0.000    1.000    0.000    2.400    0.000    0.000 
#    0.000    0.000    0.000    0.000    0.000    0.000 
#
# Total GULP energy -247766.832790 kJ/mol
# GULP energy per Si atom -12388.341640 kJ/mol
# Density = 2.222721 g / cm^3
# Si number density = 22.277911 Si / 1000 Ang^3
#
#
#
# Elastic Constant Matrix: (Units=GPa)
#
#
# Indices 1 2 3 4 5 6 
#
# 1 51.1798 0.4034 2.9921 0.0000 9.1051 0.0000
# 2 0.4034 140.0043 61.5571 0.0000 12.5673 0.0000
# 3 2.9921 61.5571 88.6373 0.0000 27.2911 0.0000
# 4 0.0000 0.0000 0.0000 34.0533 0.0000 10.6504
# 5 9.1051 12.5673 27.2911 0.0000 29.1833 0.0000
# 6 0.0000 0.0000 0.0000 10.6504 0.0000 31.4434
#
#
#
# Elastic Compliance Matrix: (Units=1/GPa)
#
#
# Indices 1 2 3 4 5 6 
#
# 1 0.020899 -0.000184 0.001974 0.000000 -0.008287 0.000000
# 2 -0.000184 0.010496 -0.008298 0.000000 0.003298 0.000000
# 3 0.001974 -0.008298 0.022565 0.000000 -0.018144 0.000000
# 4 0.000000 0.000000 0.000000 0.032845 0.000000 -0.011125
# 5 -0.008287 0.003298 -0.018144 0.000000 0.052399 0.000000
# 6 0.000000 0.000000 0.000000 -0.011125 0.000000 0.035571
#
#
# Mechanical properties :
#
#
# Convention : Reuss Voigt Hill
#
# Bulk Modulus (GPa) = 24.42424 45.52521 34.97472
# Shear Modulus (GPa) = 24.82121 33.26059 29.04090
#
# Velocity S-wave (km/s) = 3.34153 3.86811 3.61442
# Velocity P-wave (km/s) = 5.08675 6.35839 5.75778
#
# Compressibility (1/GPa) = 0.04094293
#
# Stress axis : x y z
#
# Youngs Moduli (GPa) = 47.84841 95.27672 44.31668
#
# Poissons Ratio (x) = 0.01756 -0.08749
# Poissons Ratio (y) = 0.00882 0.36775
# Poissons Ratio (z) = -0.09446 0.79064
#
# Static dielectric constant tensor:
#      x y z
#    x 4.055890 0.000000 0.322660 
#    y 0.000000 4.414460 0.000000 
#    z 0.322660 0.000000 3.700010 
# 
# 
# High freq. dielectric constant tensor:
#      x y z
#    x 1.875060 0.000000 0.021110 
#    y 0.000000 1.891960 0.000000 
#    z 0.021110 0.000000 1.841090 
# 
# From -- ./inp_files/50935.got.cif
#   From: 2010.06.25/outbox.cif.g09.slc.cpg/sg12_26_cif.got.tgz:50935.got - 2010.06.28 00:19:55.
