data_PCOD8093795
_publ_section_title
;
Structure prediction by ZEFSAII (Michael W. Deem and Ramdas Pophale) SiO2 
 PCOD8093795
Probable space group: C 2/M
;
_chemical_formula_sum "Si O2"
_cell_formula_units_Z 56
_cell_length_a 17.381870
_cell_length_b 20.484873
_cell_length_c 14.520938
_cell_angle_alpha 90.000000
_cell_angle_beta 30.085215
_cell_angle_gamma 90.000000
_cell_volume 2591.858538
_symmetry_space_group_name_H-M "C 2/M"
_symmetry_group_IT_number 12
_symmetry_cell_setting 'monoclinic'
loop_
_space_group_symop_operation_xyz
x,y,z
-x,y,-z
-x,-y,-z
x,-y,z
1/2+x,1/2+y,z
1/2-x,1/2+y,-z
1/2-x,1/2-y,-z
1/2+x,1/2-y,z
loop_
_atom_site_type_symbol
_atom_site_label
_atom_site_fract_x
_atom_site_fract_y
_atom_site_fract_z
Si Si1 0.871041 0.425266 0.354675
Si Si2 0.840393 0.275730 0.137605
Si Si3 0.205723 0.201422 0.463073
Si Si4 0.640946 0.636052 0.956939
Si Si5 0.320175 0.574940 0.271659
Si Si6 0.778310 0.572982 0.982559
Si Si7 0.917443 0.857318 0.681258
O O1 0.825494 0.500000 0.371359
O O2 0.788073 0.369704 0.380204
O O3 0.821284 0.414067 0.512410
O O4 0.051724 0.414603 0.154833
O O5 0.751040 0.259515 0.324303
O O6 0.883190 0.211846 0.036131
O O7 0.737061 0.317904 0.177641
O O8 0.000000 0.311612 0.000000
O O9 0.250000 0.250000 0.500000
O O10 0.024882 0.185361 0.638802
O O11 0.721393 0.604025 0.784585
O O12 0.751461 0.624307 0.928586
O O13 0.473037 0.608058 0.154062
O O14 0.359471 0.500000 0.217573
O O15 0.764678 0.500000 0.956917
O O16 0.647553 0.580046 0.196911
O O17 0.000000 0.877789 0.500000
#
# Coordination Sequence:
#
# PCOD8093795 Si02
#       7
#     8   8   8   8   8   8   8
#     4  10  23  42  65  96 133 173 219 274 332 392
#     4  11  23  41  61  94 133 168 211 269 327 388
#     4  11  24  41  67  96 129 175 225 271 326 389
#     4  11  21  35  60  92 130 170 215 259 320 386
#     4  10  19  36  59  91 130 171 214 261 320 392
#     4  11  24  42  66  96 129 170 219 270 331 397
#     4  10  25  45  66  95 128 166 218 276 334 389
#
# _framework density 21.606117000000001
#
# number of rings (size 3 to 8) (size 9 to 14) (size 15 to 20)
#    0.000    1.429    1.429    4.286    4.000    3.143 
#    2.571    4.286    0.000    7.714    0.000    0.000 
#    0.000    0.000    0.000    0.000    0.000    0.000 
#
# Total GULP energy -347111.319670 kJ/mol
# GULP energy per Si atom -12396.832845 kJ/mol
# Density = 2.155694 g / cm^3
# Si number density = 21.606117 Si / 1000 Ang^3
#
#
#
# Elastic Constant Matrix: (Units=GPa)
#
#
# Indices 1 2 3 4 5 6 
#
# 1 105.8765 37.5430 21.2214 -0.0155 -19.8889 0.0145
# 2 37.5430 73.7896 22.8585 0.0014 -11.5394 0.0064
# 3 21.2214 22.8585 99.0460 -0.0106 -13.8357 0.0114
# 4 -0.0155 0.0014 -0.0106 26.8822 0.0050 -0.1826
# 5 -19.8889 -11.5394 -13.8357 0.0050 35.4409 -0.0086
# 6 0.0145 0.0064 0.0114 -0.1826 -0.0086 25.2396
#
#
#
# Elastic Compliance Matrix: (Units=1/GPa)
#
#
# Indices 1 2 3 4 5 6 
#
# 1 0.012405 -0.005308 -0.000742 0.000006 0.004943 -0.000004
# 2 -0.005308 0.017324 -0.002633 -0.000005 0.001634 0.000000
# 3 -0.000742 -0.002633 0.011301 0.000004 0.003138 -0.000003
# 4 0.000006 -0.000005 0.000004 0.037201 -0.000002 0.000269
# 5 0.004943 0.001634 0.003138 -0.000002 0.032747 0.000007
# 6 -0.000004 0.000000 -0.000003 0.000269 0.000007 0.039622
#
#
# Mechanical properties :
#
#
# Convention : Reuss Voigt Hill
#
# Bulk Modulus (GPa) = 42.25894 49.10643 45.68269
# Shear Modulus (GPa) = 28.43264 30.65182 29.54223
#
# Velocity S-wave (km/s) = 3.63154 3.77060 3.70173
# Velocity P-wave (km/s) = 6.09798 6.46018 6.28169
#
# Compressibility (1/GPa) = 0.02366363
#
# Stress axis : x y z
#
# Youngs Moduli (GPa) = 80.61529 57.72390 88.48565
#
# Poissons Ratio (x) = 0.30642 0.06567
# Poissons Ratio (y) = 0.42793 0.23294
# Poissons Ratio (z) = 0.05983 0.15196
#
# Static dielectric constant tensor:
#      x y z
#    x 4.014730 -0.000260 0.060570 
#    y -0.000260 3.905830 0.000000 
#    z 0.060570 0.000000 4.040130 
# 
# 
# High freq. dielectric constant tensor:
#      x y z
#    x 1.843900 -0.000010 -0.000210 
#    y -0.000010 1.843260 0.000010 
#    z -0.000210 0.000010 1.856800 
# 
# From -- ./inp_files/227589.got.cif
#   From: 2010.06.25/outbox.cif.g09.slc.cpg/sg12_114_cif.got.tgz:227589.got - 2010.06.28 00:19:55.
