data_PCOD8093699
_publ_section_title
;
Structure prediction by ZEFSAII (Michael W. Deem and Ramdas Pophale) SiO2 
 PCOD8093699
Probable space group: C 2/M
;
_chemical_formula_sum "Si O2"
_cell_formula_units_Z 64
_cell_length_a 24.406395
_cell_length_b 9.080173
_cell_length_c 16.180416
_cell_angle_alpha 90.000000
_cell_angle_beta 92.289370
_cell_angle_gamma 90.000000
_cell_volume 3582.949276
_symmetry_space_group_name_H-M "C 2/M"
_symmetry_group_IT_number 12
_symmetry_cell_setting 'monoclinic'
loop_
_space_group_symop_operation_xyz
x,y,z
-x,y,-z
-x,-y,-z
x,-y,z
1/2+x,1/2+y,z
1/2-x,1/2+y,-z
1/2-x,1/2-y,-z
1/2+x,1/2-y,z
loop_
_atom_site_type_symbol
_atom_site_label
_atom_site_fract_x
_atom_site_fract_y
_atom_site_fract_z
Si Si1 0.805783 0.674215 0.475827
Si Si2 0.422913 0.669662 0.210145
Si Si3 0.938798 0.827855 0.021214
Si Si4 0.134318 0.832913 0.384279
Si Si5 0.793519 0.170040 0.771005
Si Si6 0.616727 0.174410 0.126188
Si Si7 0.676129 0.173609 0.708594
Si Si8 0.455895 0.330024 0.745922
O O1 0.797575 0.500000 0.478662
O O2 0.750000 0.750000 0.500000
O O3 0.854949 0.722693 0.539525
O O4 0.821401 0.729865 0.385439
O O5 0.406859 0.500000 0.218068
O O6 0.376422 0.763998 0.249528
O O7 0.479997 0.704067 0.260427
O O8 0.428900 0.714571 0.115317
O O9 0.895045 0.735797 0.965738
O O10 0.929764 0.000000 0.003726
O O11 0.000000 0.780370 0.000000
O O12 0.179734 0.806361 0.316959
O O13 0.074136 0.799000 0.343038
O O14 0.137752 0.000000 0.417367
O O15 0.823853 0.268115 0.841211
O O16 0.730684 0.223110 0.761202
O O17 0.798498 0.000000 0.797916
O O18 0.569124 0.229245 0.184273
O O19 0.617494 0.000000 0.124590
O O20 0.671706 0.000000 0.708629
O O21 0.446349 0.500000 0.772734
#
# Coordination Sequence:
#
# PCOD8093699 Si02
#       8
#     8   8   8   8   8   8   8   8
#     4  11  21  35  55  81 111 143 183 226 273 324
#     4  10  21  37  59  83 106 144 189 225 266 327
#     4  10  19  36  59  80 108 145 185 224 271 328
#     4   9  17  32  56  82 107 138 181 230 271 315
#     4   9  18  36  56  75 108 150 184 215 273 335
#     4  11  21  31  52  87 115 136 178 233 276 313
#     4  10  22  39  56  78 112 150 180 222 281 329
#     4   9  18  36  56  77 111 149 182 218 272 331
#
# _framework density 17.862379000000001
#
# number of rings (size 3 to 8) (size 9 to 14) (size 15 to 20)
#    0.000    2.125    2.500    2.250    0.000    4.750 
#    0.000    1.250    0.000    3.750    0.000    0.000 
#    0.000    0.000    0.000    0.000    0.000    0.000 
#
# Total GULP energy -396850.829596 kJ/mol
# GULP energy per Si atom -12401.588425 kJ/mol
# Density = 1.782172 g / cm^3
# Si number density = 17.862379 Si / 1000 Ang^3
#
#
#
# Elastic Constant Matrix: (Units=GPa)
#
#
# Indices 1 2 3 4 5 6 
#
# 1 133.5486 43.9930 69.0466 0.0000 14.0821 0.0000
# 2 43.9930 69.6971 48.5198 0.0000 12.8968 0.0000
# 3 69.0466 48.5198 106.8901 0.0000 14.0066 0.0000
# 4 0.0000 0.0000 0.0000 30.5999 0.0000 1.0747
# 5 14.0821 12.8968 14.0066 0.0000 28.6134 0.0000
# 6 0.0000 0.0000 0.0000 1.0747 0.0000 30.4529
#
#
#
# Elastic Compliance Matrix: (Units=1/GPa)
#
#
# Indices 1 2 3 4 5 6 
#
# 1 0.011741 -0.002911 -0.006067 0.000000 -0.001497 0.000000
# 2 -0.002911 0.022425 -0.007653 0.000000 -0.004929 0.000000
# 3 -0.006067 -0.007653 0.016995 0.000000 -0.001884 0.000000
# 4 0.000000 0.000000 0.000000 0.032720 0.000000 -0.001155
# 5 -0.001497 -0.004929 -0.001884 0.000000 0.038829 0.000000
# 6 0.000000 0.000000 0.000000 -0.001155 0.000000 0.032878
#
#
# Mechanical properties :
#
#
# Convention : Reuss Voigt Hill
#
# Bulk Modulus (GPa) = 55.86679 70.36163 63.11421
# Shear Modulus (GPa) = 25.66509 27.83834 26.75172
#
# Velocity S-wave (km/s) = 3.79466 3.95205 3.87416
# Velocity P-wave (km/s) = 7.10939 7.76540 7.44462
#
# Compressibility (1/GPa) = 0.01789972
#
# Stress axis : x y z
#
# Youngs Moduli (GPa) = 85.16950 44.59365 58.83979
#
# Poissons Ratio (x) = 0.12979 0.35699
# Poissons Ratio (y) = 0.24789 0.45031
# Poissons Ratio (z) = 0.51673 0.34128
#
# Static dielectric constant tensor:
#      x y z
#    x 3.355070 0.000000 0.307440 
#    y 0.000000 3.199580 0.000000 
#    z 0.307440 0.000000 3.380230 
# 
# 
# High freq. dielectric constant tensor:
#      x y z
#    x 1.687840 0.000000 0.024990 
#    y 0.000000 1.683650 0.000000 
#    z 0.024990 0.000000 1.683830 
# 
# From -- ./inp_files/238568.got.cif
#   From: 2010.06.25/outbox.cif.g09.slc.cpg/sg12_120_cif.got.tgz:238568.got - 2010.06.28 00:19:55.
