data_PCOD8093664
_publ_section_title
;
Structure prediction by ZEFSAII (Michael W. Deem and Ramdas Pophale) SiO2 
 PCOD8093664
Probable space group: C 2/M
;
_chemical_formula_sum "Si O2"
_cell_formula_units_Z 56
_cell_length_a 24.256692
_cell_length_b 8.398970
_cell_length_c 13.961396
_cell_angle_alpha 90.000000
_cell_angle_beta 83.908984
_cell_angle_gamma 90.000000
_cell_volume 2828.314721
_symmetry_space_group_name_H-M "C 2/M"
_symmetry_group_IT_number 12
_symmetry_cell_setting 'monoclinic'
loop_
_space_group_symop_operation_xyz
x,y,z
-x,y,-z
-x,-y,-z
x,-y,z
1/2+x,1/2+y,z
1/2-x,1/2+y,-z
1/2-x,1/2-y,-z
1/2+x,1/2-y,z
loop_
_atom_site_type_symbol
_atom_site_label
_atom_site_fract_x
_atom_site_fract_y
_atom_site_fract_z
Si Si1 0.170734 0.814749 0.335786
Si Si2 0.059241 0.814297 0.034900
Si Si3 0.456673 0.313612 0.308810
Si Si4 0.070783 0.317301 0.241907
Si Si5 0.787671 0.185954 0.282567
Si Si6 0.644335 0.311867 0.549735
Si Si7 0.114625 0.685947 0.846869
O O1 0.119260 0.791292 0.275315
O O2 0.223281 0.724146 0.282098
O O3 0.156887 0.739617 0.442975
O O4 0.185181 0.000000 0.341249
O O5 0.107038 0.749615 0.955919
O O6 0.067639 0.000000 0.053993
O O7 0.063604 0.718785 0.132022
O O8 0.000000 0.776594 0.000000
O O9 0.469693 0.500000 0.313556
O O10 0.513949 0.219480 0.308611
O O11 0.415690 0.253567 0.400811
O O12 0.427949 0.281878 0.212217
O O13 0.086780 0.500000 0.254290
O O14 0.808154 0.242339 0.384270
O O15 0.822122 0.280264 0.195625
O O16 0.799244 0.000000 0.265941
O O17 0.642543 0.500000 0.542490
O O18 0.101224 0.500000 0.842701
#
# Coordination Sequence:
#
# PCOD8093664 Si02
#       7
#     8   8   8   8   8   8   8
#     4  11  22  39  59  83 116 157 199 241 290 342
#     4  11  22  38  63  89 115 150 191 235 288 345
#     4  10  19  36  58  85 117 152 193 240 290 341
#     4  12  25  39  56  84 120 156 193 237 291 349
#     4  10  20  38  61  87 118 153 196 242 286 338
#     4   8  18  35  60  87 114 151 196 242 288 338
#     4  11  21  35  59  91 120 149 188 238 289 340
#
# _framework density 19.799776000000001
#
# number of rings (size 3 to 8) (size 9 to 14) (size 15 to 20)
#    0.000    1.571    1.429    5.571    0.000    1.143 
#    0.000   11.429    0.000    0.000    0.000    0.000 
#    0.000    0.000    0.000    0.000    0.000    0.000 
#
# Total GULP energy -347321.073275 kJ/mol
# GULP energy per Si atom -12404.324046 kJ/mol
# Density = 1.975471 g / cm^3
# Si number density = 19.799776 Si / 1000 Ang^3
#
#
#
# Elastic Constant Matrix: (Units=GPa)
#
#
# Indices 1 2 3 4 5 6 
#
# 1 119.5330 6.7204 38.2379 0.0000 -11.6804 0.0000
# 2 6.7204 61.0829 13.7872 0.0000 -4.1719 0.0000
# 3 38.2379 13.7872 65.4939 0.0000 -14.1103 0.0000
# 4 0.0000 0.0000 0.0000 21.3578 0.0000 -3.3637
# 5 -11.6804 -4.1719 -14.1103 0.0000 25.4036 0.0000
# 6 0.0000 0.0000 0.0000 -3.3637 0.0000 32.0936
#
#
#
# Elastic Compliance Matrix: (Units=1/GPa)
#
#
# Indices 1 2 3 4 5 6 
#
# 1 0.010348 0.000270 -0.005752 0.000000 0.001607 0.000000
# 2 0.000270 0.017214 -0.003573 0.000000 0.000966 0.000000
# 3 -0.005752 -0.003573 0.021222 0.000000 0.008556 0.000000
# 4 0.000000 0.000000 0.000000 0.047607 0.000000 0.004990
# 5 0.001607 0.000966 0.008556 0.000000 0.045015 0.000000
# 6 0.000000 0.000000 0.000000 0.004990 0.000000 0.031682
#
#
# Mechanical properties :
#
#
# Convention : Reuss Voigt Hill
#
# Bulk Modulus (GPa) = 32.60130 40.40008 36.50069
# Shear Modulus (GPa) = 24.82338 28.26196 26.54267
#
# Velocity S-wave (km/s) = 3.54463 3.78218 3.66533
# Velocity P-wave (km/s) = 5.76661 6.28663 6.03223
#
# Compressibility (1/GPa) = 0.03067363
#
# Stress axis : x y z
#
# Youngs Moduli (GPa) = 96.63895 58.09228 47.12006
#
# Poissons Ratio (x) = -0.01566 0.27103
# Poissons Ratio (y) = -0.02605 0.16836
# Poissons Ratio (z) = 0.55586 0.20756
#
# Static dielectric constant tensor:
#      x y z
#    x 3.554340 0.000000 -0.271520 
#    y 0.000000 3.462830 0.000000 
#    z -0.271520 0.000000 3.705200 
# 
# 
# High freq. dielectric constant tensor:
#      x y z
#    x 1.768440 0.000000 -0.019750 
#    y 0.000000 1.769550 0.000000 
#    z -0.019750 0.000000 1.765890 
# 
# From -- ./inp_files/231003.got.cif
#   From: 2010.06.25/outbox.cif.g09.slc.cpg/sg12_116_cif.got.tgz:231003.got - 2010.06.28 00:19:55.
