data_PCOD8093943
_publ_section_title
;
Structure prediction by ZEFSAII (Michael W. Deem and Ramdas Pophale) SiO2 
 PCOD8093943
Probable space group: C 2/M
;
_chemical_formula_sum "Si O2"
_cell_formula_units_Z 40
_cell_length_a 31.578244
_cell_length_b 7.681046
_cell_length_c 27.930421
_cell_angle_alpha 90.000000
_cell_angle_beta 161.523893
_cell_angle_gamma 90.000000
_cell_volume 2146.943551
_symmetry_space_group_name_H-M "C 2/M"
_symmetry_group_IT_number 12
_symmetry_cell_setting 'monoclinic'
loop_
_space_group_symop_operation_xyz
x,y,z
-x,y,-z
-x,-y,-z
x,-y,z
1/2+x,1/2+y,z
1/2-x,1/2+y,-z
1/2-x,1/2-y,-z
1/2+x,1/2-y,z
loop_
_atom_site_type_symbol
_atom_site_label
_atom_site_fract_x
_atom_site_fract_y
_atom_site_fract_z
Si Si1 0.896152 0.704141 0.673635
Si Si2 0.338972 0.201070 0.220378
Si Si3 0.876695 0.000000 0.332529
Si Si4 0.037237 0.194383 0.917519
Si Si5 0.391791 0.203650 0.172619
Si Si6 0.430178 0.000000 0.976317
O O1 0.919089 0.500000 0.702725
O O2 0.750000 0.750000 0.500000
O O3 0.924100 0.785374 0.755658
O O4 0.994695 0.787566 0.739344
O O5 0.394978 0.324411 0.321670
O O6 0.403465 0.268931 0.239889
O O7 0.375783 0.000000 0.271460
O O8 0.179565 0.225212 0.044684
O O9 0.000000 0.000000 0.500000
O O10 0.731326 0.000000 0.202417
O O11 0.027114 0.000000 0.928495
O O12 0.018272 0.329723 0.940296
O O13 0.411320 0.000000 0.194577
O O14 0.250000 0.250000 0.000000
O O15 0.500000 0.000000 0.000000
#
# Coordination Sequence:
#
# PCOD8093943 Si02
#       6
#     8   8   4   8   8   4
#     4  11  22  36  53  83 124 161 192 234 290 346
#     4   9  19  36  58  86 115 148 189 237 288 345
#     4  10  22  40  62  86 112 146 194 244 299 340
#     4  10  19  36  61  84 113 152 193 236 289 350
#     4  10  20  32  56  85 115 150 194 235 277 347
#     4  10  22  42  64  82 112 150 200 246 287 346
#
# _framework density 18.631136000000001
#
# number of rings (size 3 to 8) (size 9 to 14) (size 15 to 20)
#    0.000    2.000    3.000    0.600    1.400    1.600 
#    3.600    0.000    0.000    0.000    0.000    0.000 
#    0.000    0.000    0.000    0.000    0.000    0.000 
#
# Total GULP energy -247966.203222 kJ/mol
# GULP energy per Si atom -12398.310161 kJ/mol
# Density = 1.858873 g / cm^3
# Si number density = 18.631136 Si / 1000 Ang^3
#
#
#
# Elastic Constant Matrix: (Units=GPa)
#
#
# Indices 1 2 3 4 5 6 
#
# 1 151.9543 54.7811 64.0733 0.0009 -8.7769 0.0006
# 2 54.7811 101.7528 38.3865 0.0006 -15.0185 0.0004
# 3 64.0733 38.3865 140.0764 0.0015 -12.6344 0.0013
# 4 0.0009 0.0006 0.0015 25.5842 0.0016 -6.4972
# 5 -8.7769 -15.0185 -12.6344 0.0016 27.2227 0.0013
# 6 0.0006 0.0004 0.0013 -6.4972 0.0013 19.3063
#
#
#
# Elastic Compliance Matrix: (Units=1/GPa)
#
#
# Indices 1 2 3 4 5 6 
#
# 1 0.009316 -0.003883 -0.003256 0.000000 -0.000650 0.000000
# 2 -0.003883 0.013231 -0.001361 -0.000001 0.005416 -0.000001
# 3 -0.003256 -0.001361 0.009225 -0.000001 0.002481 -0.000001
# 4 0.000000 -0.000001 -0.000001 0.042739 -0.000004 0.014383
# 5 -0.000650 0.005416 0.002481 -0.000004 0.040664 -0.000004
# 6 0.000000 -0.000001 -0.000001 0.014383 -0.000004 0.056637
#
#
# Mechanical properties :
#
#
# Convention : Reuss Voigt Hill
#
# Bulk Modulus (GPa) = 67.69558 78.69614 73.19586
# Shear Modulus (GPa) = 25.80819 30.19216 28.00017
#
# Velocity S-wave (km/s) = 3.72589 4.02994 3.88089
# Velocity P-wave (km/s) = 7.41102 7.99904 7.71064
#
# Compressibility (1/GPa) = 0.01477201
#
# Stress axis : x y z
#
# Youngs Moduli (GPa) = 107.33987 75.57882 108.40105
#
# Poissons Ratio (x) = 0.29349 0.35294
# Poissons Ratio (y) = 0.41683 0.14755
# Poissons Ratio (z) = 0.34948 0.10287
#
# Static dielectric constant tensor:
#      x y z
#    x 3.637540 0.000000 -0.085340 
#    y 0.000000 3.641230 0.000000 
#    z -0.085340 0.000000 3.263880 
# 
# 
# High freq. dielectric constant tensor:
#      x y z
#    x 1.715000 0.000000 -0.003310 
#    y 0.000000 1.736180 0.000000 
#    z -0.003310 0.000000 1.703910 
# 
# From -- ./inp_files/171432.got.cif
#   From: 2010.06.25/outbox.cif.g09.slc.cpg/sg12_86_cif.got.tgz:171432.got - 2010.06.28 00:19:55.
