data_PCOD8093842
_publ_section_title
;
Structure prediction by ZEFSAII (Michael W. Deem and Ramdas Pophale) SiO2 
 PCOD8093842
Probable space group: C 2/M
;
_chemical_formula_sum "Si O2"
_cell_formula_units_Z 48
_cell_length_a 8.748090
_cell_length_b 27.324575
_cell_length_c 12.792531
_cell_angle_alpha 90.000000
_cell_angle_beta 125.696950
_cell_angle_gamma 90.000000
_cell_volume 2483.364386
_symmetry_space_group_name_H-M "C 2/M"
_symmetry_group_IT_number 12
_symmetry_cell_setting 'monoclinic'
loop_
_space_group_symop_operation_xyz
x,y,z
-x,y,-z
-x,-y,-z
x,-y,z
1/2+x,1/2+y,z
1/2-x,1/2+y,-z
1/2-x,1/2-y,-z
1/2+x,1/2-y,z
loop_
_atom_site_type_symbol
_atom_site_label
_atom_site_fract_x
_atom_site_fract_y
_atom_site_fract_z
Si Si1 0.583740 0.942213 0.281614
Si Si2 0.300869 0.774076 0.632047
Si Si3 0.477241 0.688708 0.307930
Si Si4 0.199456 0.388710 0.123635
Si Si5 0.650900 0.136601 0.468129
Si Si6 0.311151 0.442997 0.969087
O O1 0.696509 0.917984 0.231155
O O2 0.649081 0.917613 0.416734
O O3 0.362909 0.931041 0.176517
O O4 0.626710 0.000000 0.304171
O O5 0.250000 0.750000 0.500000
O O6 0.439936 0.732177 0.734292
O O7 0.121072 0.784516 0.632280
O O8 0.405853 0.825401 0.647707
O O9 0.322880 0.659968 0.180794
O O10 0.638971 0.650542 0.409582
O O11 0.287130 0.425687 0.076900
O O12 0.000000 0.370755 0.000000
O O13 0.500000 0.139735 0.500000
O O14 0.339761 0.500000 0.989747
O O15 0.500000 0.417837 0.000000
#
# Coordination Sequence:
#
# PCOD8093842 Si02
#       6
#     8   8   8   8   8   8
#     4  10  21  38  60  86 122 160 198 244 297 356
#     4  10  19  36  60  84 112 151 201 238 285 356
#     4  11  22  39  61  88 117 155 201 245 298 358
#     4  10  21  39  62  87 121 157 200 245 295 357
#     4  11  22  36  59  87 120 157 196 248 299 350
#     4   9  19  37  62  87 114 157 206 244 290 355
#
# _framework density 19.328616
#
# number of rings (size 3 to 8) (size 9 to 14) (size 15 to 20)
#    0.000    1.833    1.667    4.500    2.333    2.333 
#    0.000    3.333    0.000    0.000    0.000    0.000 
#    0.000    0.000    0.000    0.000    0.000    0.000 
#
# Total GULP energy -297410.789316 kJ/mol
# GULP energy per Si atom -12392.116221 kJ/mol
# Density = 1.928462 g / cm^3
# Si number density = 19.328616 Si / 1000 Ang^3
#
#
#
# Elastic Constant Matrix: (Units=GPa)
#
#
# Indices 1 2 3 4 5 6 
#
# 1 135.7859 35.7359 44.5783 0.0000 4.4406 0.0000
# 2 35.7359 88.7923 32.6305 0.0000 12.2852 0.0000
# 3 44.5783 32.6305 54.3149 0.0000 4.5462 0.0000
# 4 0.0000 0.0000 0.0000 28.5631 0.0000 8.6527
# 5 4.4406 12.2852 4.5462 0.0000 15.6660 0.0000
# 6 0.0000 0.0000 0.0000 8.6527 0.0000 28.4208
#
#
#
# Elastic Compliance Matrix: (Units=1/GPa)
#
#
# Indices 1 2 3 4 5 6 
#
# 1 0.010202 -0.001374 -0.007580 0.000000 0.000385 0.000000
# 2 -0.001374 0.016003 -0.007655 0.000000 -0.009939 0.000000
# 3 -0.007580 -0.007655 0.029260 0.000000 -0.000339 0.000000
# 4 0.000000 0.000000 0.000000 0.038567 0.000000 -0.011742
# 5 0.000385 -0.009939 -0.000339 0.000000 0.071616 0.000000
# 6 0.000000 0.000000 0.000000 -0.011742 0.000000 0.038760
#
#
# Mechanical properties :
#
#
# Convention : Reuss Voigt Hill
#
# Bulk Modulus (GPa) = 44.94878 56.08696 50.51787
# Shear Modulus (GPa) = 20.40468 25.59320 22.99894
#
# Velocity S-wave (km/s) = 3.25264 3.64278 3.45322
# Velocity P-wave (km/s) = 6.11651 6.83913 6.48789
#
# Compressibility (1/GPa) = 0.02224755
#
# Stress axis : x y z
#
# Youngs Moduli (GPa) = 98.01994 62.48690 34.17656
#
# Poissons Ratio (x) = 0.08583 0.25907
# Poissons Ratio (y) = 0.13464 0.26162
# Poissons Ratio (z) = 0.74301 0.47834
#
# Static dielectric constant tensor:
#      x y z
#    x 4.034050 0.000000 0.123120 
#    y 0.000000 3.980690 0.000000 
#    z 0.123120 0.000000 3.249870 
# 
# 
# High freq. dielectric constant tensor:
#      x y z
#    x 1.768080 0.000000 0.001170 
#    y 0.000000 1.757920 0.000000 
#    z 0.001170 0.000000 1.716500 
# 
# From -- ./inp_files/123094.got.cif
#   From: 2010.06.25/outbox.cif.g09.slc.cpg/sg12_62_cif.got.tgz:123094.got - 2010.06.28 00:19:55.
