data_PCOD8093400
_publ_section_title
;
Structure prediction by ZEFSAII (Michael W. Deem and Ramdas Pophale) SiO2 
 PCOD8093400
Probable space group: C 2/M
;
_chemical_formula_sum "Si O2"
_cell_formula_units_Z 64
_cell_length_a 14.898771
_cell_length_b 13.837681
_cell_length_c 17.061840
_cell_angle_alpha 90.000000
_cell_angle_beta 125.216104
_cell_angle_gamma 90.000000
_cell_volume 2873.773689
_symmetry_space_group_name_H-M "C 2/M"
_symmetry_group_IT_number 12
_symmetry_cell_setting 'monoclinic'
loop_
_space_group_symop_operation_xyz
x,y,z
-x,y,-z
-x,-y,-z
x,-y,z
1/2+x,1/2+y,z
1/2-x,1/2+y,-z
1/2-x,1/2-y,-z
1/2+x,1/2-y,z
loop_
_atom_site_type_symbol
_atom_site_label
_atom_site_fract_x
_atom_site_fract_y
_atom_site_fract_z
Si Si1 0.827545 0.108499 0.246149
Si Si2 0.751489 0.888257 0.681105
Si Si3 0.591367 0.385836 0.983267
Si Si4 0.709860 0.190236 0.829184
Si Si5 0.761017 0.892917 0.388155
Si Si6 0.986549 0.889484 0.772884
Si Si7 0.097251 0.731340 0.498406
Si Si8 0.021453 0.387449 0.310596
O O1 0.765382 0.195356 0.170926
O O2 0.819302 0.125222 0.334265
O O3 0.954672 0.119320 0.282111
O O4 0.783959 0.000000 0.201287
O O5 0.739030 0.870010 0.766691
O O6 0.652416 0.845612 0.583105
O O7 0.866615 0.840030 0.709417
O O8 0.749379 0.000000 0.661922
O O9 0.604240 0.500000 0.992305
O O10 0.559838 0.346003 0.880919
O O11 0.500000 0.351116 0.000000
O O12 0.710841 0.341572 0.061202
O O13 0.581577 0.164818 0.784496
O O14 0.814707 0.817200 0.476874
O O15 0.629798 0.880979 0.310696
O O16 0.786790 0.000000 0.433405
O O17 0.966552 0.000000 0.787155
O O18 0.000000 0.779536 0.500000
O O19 0.049783 0.674520 0.401199
O O20 0.993995 0.500000 0.316653
#
# Coordination Sequence:
#
# PCOD8093400 Si02
#       8
#     8   8   8   8   8   8   8   8
#     4  10  22  42  63  86 121 166 216 256 293 353
#     4  11  21  36  61  94 127 159 197 250 320 377
#     4  10  19  35  62  99 133 156 193 254 318 377
#     4  12  22  36  65  95 125 165 201 250 314 379
#     4  10  23  44  63  83 121 169 216 259 294 353
#     4   9  20  38  64  93 124 161 201 254 308 363
#     4  12  23  39  62  92 121 162 204 257 314 370
#     4  11  24  41  62  92 129 164 199 253 316 373
#
# _framework density 22.270368000000001
#
# number of rings (size 3 to 8) (size 9 to 14) (size 15 to 20)
#    0.000    1.375    3.750    1.875    1.750    1.250 
#    2.250    0.625    0.000    0.375    0.000    0.000 
#    0.000    0.000    0.000    0.000    0.000    0.000 
#
# Total GULP energy -396618.754607 kJ/mol
# GULP energy per Si atom -12394.336081 kJ/mol
# Density = 2.221968 g / cm^3
# Si number density = 22.270368 Si / 1000 Ang^3
#
#
#
# Elastic Constant Matrix: (Units=GPa)
#
#
# Indices 1 2 3 4 5 6 
#
# 1 111.5434 18.2696 42.5663 0.0000 13.1318 0.0000
# 2 18.2696 120.7522 27.8120 0.0000 13.3428 0.0000
# 3 42.5663 27.8120 83.0979 0.0000 28.1120 0.0000
# 4 0.0000 0.0000 0.0000 22.8624 0.0000 7.9217
# 5 13.1318 13.3428 28.1120 0.0000 33.6347 0.0000
# 6 0.0000 0.0000 0.0000 7.9217 0.0000 18.0039
#
#
#
# Elastic Compliance Matrix: (Units=1/GPa)
#
#
# Indices 1 2 3 4 5 6 
#
# 1 0.011172 -0.000426 -0.005802 0.000000 0.000657 0.000000
# 2 -0.000426 0.009041 -0.002301 0.000000 -0.001497 0.000000
# 3 -0.005802 -0.002301 0.020497 0.000000 -0.013953 0.000000
# 4 0.000000 0.000000 0.000000 0.051608 0.000000 -0.022708
# 5 0.000657 -0.001497 -0.013953 0.000000 0.041730 0.000000
# 6 0.000000 0.000000 0.000000 -0.022708 0.000000 0.065535
#
#
# Mechanical properties :
#
#
# Convention : Reuss Voigt Hill
#
# Bulk Modulus (GPa) = 42.28326 54.74324 48.51325
# Shear Modulus (GPa) = 22.26912 30.01657 26.14285
#
# Velocity S-wave (km/s) = 3.16562 3.67526 3.42992
# Velocity P-wave (km/s) = 5.69114 6.53028 6.12510
#
# Compressibility (1/GPa) = 0.02365002
#
# Stress axis : x y z
#
# Youngs Moduli (GPa) = 89.51091 110.60280 48.78861
#
# Poissons Ratio (x) = 0.04717 0.28308
# Poissons Ratio (y) = 0.03818 0.11227
# Poissons Ratio (z) = 0.51936 0.25452
#
# Static dielectric constant tensor:
#      x y z
#    x 4.282800 0.000000 0.249950 
#    y 0.000000 4.221380 0.000000 
#    z 0.249950 0.000000 3.866150 
# 
# 
# High freq. dielectric constant tensor:
#      x y z
#    x 1.887160 0.000000 0.011340 
#    y 0.000000 1.886850 0.000000 
#    z 0.011340 0.000000 1.847940 
# 
# From -- ./inp_files/270714.got.cif
#   From: 2010.06.25/outbox.cif.g09.slc.cpg/sg12_136_cif.got.tgz:270714.got - 2010.06.28 00:19:55.
