data_PCOD8093481
_publ_section_title
;
Structure prediction by ZEFSAII (Michael W. Deem and Ramdas Pophale) SiO2 
 PCOD8093481
Probable space group: C 2/M
;
_chemical_formula_sum "Si O2"
_cell_formula_units_Z 52
_cell_length_a 23.133823
_cell_length_b 13.564949
_cell_length_c 8.550112
_cell_angle_alpha 90.000000
_cell_angle_beta 97.974192
_cell_angle_gamma 90.000000
_cell_volume 2657.159355
_symmetry_space_group_name_H-M "C 2/M"
_symmetry_group_IT_number 12
_symmetry_cell_setting 'monoclinic'
loop_
_space_group_symop_operation_xyz
x,y,z
-x,y,-z
-x,-y,-z
x,-y,z
1/2+x,1/2+y,z
1/2-x,1/2+y,-z
1/2-x,1/2-y,-z
1/2+x,1/2-y,z
loop_
_atom_site_type_symbol
_atom_site_label
_atom_site_fract_x
_atom_site_fract_y
_atom_site_fract_z
Si Si1 0.935036 0.248460 0.484711
Si Si2 0.000000 0.752626 0.000000
Si Si3 0.891712 0.290626 0.143501
Si Si4 0.422625 0.614318 0.746521
Si Si5 0.156194 0.614573 0.395298
Si Si6 0.708091 0.891620 0.743338
Si Si7 0.819273 0.223915 0.837203
O O1 0.908071 0.227817 0.303619
O O2 0.933878 0.142684 0.570387
O O3 0.903156 0.332279 0.574866
O O4 0.000000 0.290436 0.500000
O O5 0.048389 0.684090 0.929597
O O6 0.967052 0.822643 0.866937
O O7 0.855103 0.384277 0.193450
O O8 0.847941 0.228668 0.018930
O O9 0.434287 0.500000 0.779459
O O10 0.355362 0.641716 0.755409
O O11 0.144249 0.500000 0.349547
O O12 0.202198 0.624245 0.554547
O O13 0.180281 0.669826 0.249845
O O14 0.752720 0.811502 0.828495
O O15 0.732480 0.000000 0.787472
#
# Coordination Sequence:
#
# PCOD8093481 Si02
#       7
#     8   4   8   8   8   8   8
#     4  10  19  36  56  79 115 152 188 230 276 332
#     4  10  19  36  55  78 112 148 187 234 281 326
#     4  10  21  36  57  81 112 152 188 230 282 331
#     4  10  20  34  55  83 112 148 187 228 277 332
#     4   9  20  36  58  84 110 147 189 230 281 334
#     4  10  20  37  59  83 113 150 189 228 280 339
#     4  10  20  36  59  83 116 149 182 235 281 332
#
# _framework density 19.569769999999998
#
# number of rings (size 3 to 8) (size 9 to 14) (size 15 to 20)
#    0.000    2.154    1.538    1.615    0.000    1.231 
#    0.000    1.923    0.000    1.846    0.000    0.000 
#    0.000    0.000    0.000    0.000    0.000    0.000 
#
# Total GULP energy -322236.150687 kJ/mol
# GULP energy per Si atom -12393.698103 kJ/mol
# Density = 1.952523 g / cm^3
# Si number density = 19.569770 Si / 1000 Ang^3
#
#
#
# Elastic Constant Matrix: (Units=GPa)
#
#
# Indices 1 2 3 4 5 6 
#
# 1 104.5180 41.8391 39.0523 0.0000 -1.9384 0.0000
# 2 41.8391 95.4720 38.5932 0.0000 -1.0030 0.0000
# 3 39.0523 38.5932 119.8414 0.0000 6.1984 0.0000
# 4 0.0000 0.0000 0.0000 13.9774 0.0000 1.7376
# 5 -1.9384 -1.0030 6.1984 0.0000 28.0585 0.0000
# 6 0.0000 0.0000 0.0000 1.7376 0.0000 18.1798
#
#
#
# Elastic Compliance Matrix: (Units=1/GPa)
#
#
# Indices 1 2 3 4 5 6 
#
# 1 0.012319 -0.004294 -0.002698 0.000000 0.001294 0.000000
# 2 -0.004294 0.013586 -0.003020 0.000000 0.000856 0.000000
# 3 -0.002698 -0.003020 0.010329 0.000000 -0.002576 0.000000
# 4 0.000000 0.000000 0.000000 0.072404 0.000000 -0.006920
# 5 0.001294 0.000856 -0.002576 0.000000 0.036329 0.000000
# 6 0.000000 0.000000 0.000000 -0.006920 0.000000 0.055668
#
#
# Mechanical properties :
#
#
# Convention : Reuss Voigt Hill
#
# Bulk Modulus (GPa) = 61.69392 62.08897 61.89145
# Shear Modulus (GPa) = 22.11766 25.39959 23.75863
#
# Velocity S-wave (km/s) = 3.36548 3.60655 3.48810
# Velocity P-wave (km/s) = 6.83341 7.00990 6.92222
#
# Compressibility (1/GPa) = 0.01620905
#
# Stress axis : x y z
#
# Youngs Moduli (GPa) = 81.17581 73.60529 96.81015
#
# Poissons Ratio (x) = 0.31608 0.26123
# Poissons Ratio (y) = 0.34859 0.29238
# Poissons Ratio (z) = 0.21904 0.22230
#
# Static dielectric constant tensor:
#      x y z
#    x 3.713860 0.000000 -0.047230 
#    y 0.000000 3.214280 0.000000 
#    z -0.047230 0.000000 3.795850 
# 
# 
# High freq. dielectric constant tensor:
#      x y z
#    x 1.770880 0.000000 0.003230 
#    y 0.000000 1.725760 0.000000 
#    z 0.003230 0.000000 1.775440 
# 
# From -- ./inp_files/95789.got.cif
#   From: 2010.06.25/outbox.cif.g09.slc.cpg/sg12_48_cif.got.tgz:95789.got - 2010.06.28 00:19:55.
