data_PCOD8093383
_publ_section_title
;
Structure prediction by ZEFSAII (Michael W. Deem and Ramdas Pophale) SiO2 
 PCOD8093383
Probable space group: C 2/M
;
_chemical_formula_sum "Si O2"
_cell_formula_units_Z 56
_cell_length_a 19.038160
_cell_length_b 12.931234
_cell_length_c 12.167184
_cell_angle_alpha 90.000000
_cell_angle_beta 105.230830
_cell_angle_gamma 90.000000
_cell_volume 2890.188685
_symmetry_space_group_name_H-M "C 2/M"
_symmetry_group_IT_number 12
_symmetry_cell_setting 'monoclinic'
loop_
_space_group_symop_operation_xyz
x,y,z
-x,y,-z
-x,-y,-z
x,-y,z
1/2+x,1/2+y,z
1/2-x,1/2+y,-z
1/2-x,1/2-y,-z
1/2+x,1/2-y,z
loop_
_atom_site_type_symbol
_atom_site_label
_atom_site_fract_x
_atom_site_fract_y
_atom_site_fract_z
Si Si1 0.692018 0.620197 0.969115
Si Si2 0.921433 0.751523 0.184693
Si Si3 0.426460 0.620775 0.404652
Si Si4 0.298069 0.881017 0.821601
Si Si5 0.959961 0.383682 0.869636
Si Si6 0.281670 0.722915 0.395707
Si Si7 0.706207 0.881343 0.786216
O O1 0.675818 0.500000 0.939859
O O2 0.616408 0.684117 0.930459
O O3 0.745631 0.667231 0.894969
O O4 0.727164 0.636311 0.102492
O O5 0.934136 0.832851 0.286891
O O6 0.869389 0.656993 0.194876
O O7 0.998376 0.700117 0.187388
O O8 0.500000 0.640380 0.500000
O O9 0.407360 0.500000 0.387039
O O10 0.363291 0.680732 0.444555
O O11 0.379725 0.836030 0.856998
O O12 0.264335 0.864768 0.686906
O O13 0.304433 0.000000 0.853948
O O14 0.956490 0.500000 0.814559
O O15 0.000000 0.393716 0.000000
O O16 0.250000 0.750000 0.500000
O O17 0.275887 0.825607 0.320221
O O18 0.695723 0.000000 0.753461
#
# Coordination Sequence:
#
# PCOD8093383 Si02
#       7
#     8   8   8   8   8   8   8
#     4  10  19  35  62  91 115 147 194 241 289 346
#     4  11  20  34  61  86 116 150 195 234 288 346
#     4  10  22  41  63  85 112 151 199 246 290 341
#     4  10  20  37  60  86 115 149 194 239 285 343
#     4  10  22  36  55  86 123 155 183 227 288 351
#     4  11  24  38  61  84 114 153 200 240 289 347
#     4  10  21  35  56  88 120 147 186 240 294 344
#
# _framework density 19.375899
#
# number of rings (size 3 to 8) (size 9 to 14) (size 15 to 20)
#    0.000    1.714    2.857    2.571    4.000    3.429 
#    0.000    0.000    0.000    3.857    0.000    0.000 
#    0.000    0.000    0.000    0.000    0.000    0.000 
#
# Total GULP energy -347183.898462 kJ/mol
# GULP energy per Si atom -12399.424945 kJ/mol
# Density = 1.933180 g / cm^3
# Si number density = 19.375899 Si / 1000 Ang^3
#
#
#
# Elastic Constant Matrix: (Units=GPa)
#
#
# Indices 1 2 3 4 5 6 
#
# 1 100.8298 47.1193 36.8115 0.0000 8.5406 0.0000
# 2 47.1193 100.6470 40.5233 0.0000 0.3272 0.0000
# 3 36.8115 40.5233 92.7910 0.0000 3.2297 0.0000
# 4 0.0000 0.0000 0.0000 36.7580 0.0000 5.9791
# 5 8.5406 0.3272 3.2297 0.0000 31.7905 0.0000
# 6 0.0000 0.0000 0.0000 5.9791 0.0000 25.3474
#
#
#
# Elastic Compliance Matrix: (Units=1/GPa)
#
#
# Indices 1 2 3 4 5 6 
#
# 1 0.013745 -0.005187 -0.003072 0.000000 -0.003327 0.000000
# 2 -0.005187 0.014019 -0.004122 0.000000 0.001668 0.000000
# 3 -0.003072 -0.004122 0.013814 0.000000 -0.000536 0.000000
# 4 0.000000 0.000000 0.000000 0.028290 0.000000 -0.006673
# 5 -0.003327 0.001668 -0.000536 0.000000 0.032387 0.000000
# 6 0.000000 0.000000 0.000000 -0.006673 0.000000 0.041026
#
#
# Mechanical properties :
#
#
# Convention : Reuss Voigt Hill
#
# Bulk Modulus (GPa) = 59.46927 60.35288 59.91107
# Shear Modulus (GPa) = 28.79366 30.10009 29.44687
#
# Velocity S-wave (km/s) = 3.85912 3.94570 3.90265
# Velocity P-wave (km/s) = 7.11450 7.20931 7.16206
#
# Compressibility (1/GPa) = 0.01681541
#
# Stress axis : x y z
#
# Youngs Moduli (GPa) = 72.75322 71.33381 72.38828
#
# Poissons Ratio (x) = 0.37004 0.22235
# Poissons Ratio (y) = 0.37740 0.29841
# Poissons Ratio (z) = 0.22347 0.29406
#
# Static dielectric constant tensor:
#      x y z
#    x 3.988210 0.000000 0.139790 
#    y 0.000000 3.746240 0.000000 
#    z 0.139790 0.000000 3.439500 
# 
# 
# High freq. dielectric constant tensor:
#      x y z
#    x 1.745460 0.000000 0.016080 
#    y 0.000000 1.769990 0.000000 
#    z 0.016080 0.000000 1.742610 
# 
# From -- ./inp_files/156160.got.cif
#   From: 2010.06.25/outbox.cif.g09.slc.cpg/sg12_79_cif.got.tgz:156160.got - 2010.06.28 00:19:55.
