data_PCOD8093478
_publ_section_title
;
Structure prediction by ZEFSAII (Michael W. Deem and Ramdas Pophale) SiO2 
 PCOD8093478
Probable space group: C 2/M
;
_chemical_formula_sum "Si O2"
_cell_formula_units_Z 40
_cell_length_a 9.902678
_cell_length_b 21.090550
_cell_length_c 17.247722
_cell_angle_alpha 90.000000
_cell_angle_beta 143.035483
_cell_angle_gamma 90.000000
_cell_volume 2166.098412
_symmetry_space_group_name_H-M "C 2/M"
_symmetry_group_IT_number 12
_symmetry_cell_setting 'monoclinic'
loop_
_space_group_symop_operation_xyz
x,y,z
-x,y,-z
-x,-y,-z
x,-y,z
1/2+x,1/2+y,z
1/2-x,1/2+y,-z
1/2-x,1/2-y,-z
1/2+x,1/2-y,z
loop_
_atom_site_type_symbol
_atom_site_label
_atom_site_fract_x
_atom_site_fract_y
_atom_site_fract_z
Si Si1 0.278039 0.429424 0.210142
Si Si2 0.026430 0.817214 0.393915
Si Si3 0.291876 0.303831 0.955217
Si Si4 0.744414 0.071949 0.018509
Si Si5 0.345877 0.218689 0.666598
O O1 0.326082 0.500000 0.261094
O O2 0.430368 0.386331 0.334296
O O3 0.343090 0.422239 0.150053
O O4 0.018660 0.412349 0.102030
O O5 0.834079 0.773577 0.346302
O O6 0.238935 0.824631 0.549022
O O7 0.099391 0.787074 0.345505
O O8 0.072871 0.313023 0.801545
O O9 0.500000 0.279394 0.000000
O O10 0.250000 0.250000 0.000000
O O11 0.359522 0.372766 0.020825
O O12 0.789736 0.000000 0.007746
#
# Coordination Sequence:
#
# PCOD8093478 Si02
#       5
#     8   8   8   8   8
#     4   9  17  33  58  81 106 143 182 225 267 321
#     4  10  19  36  55  76 110 140 180 220 271 329
#     4  12  24  35  56  84 113 143 182 231 273 324
#     4   9  19  35  55  80 111 145 183 223 273 327
#     4  10  21  34  52  79 109 143 174 223 274 319
#
# _framework density 18.466380999999998
#
# number of rings (size 3 to 8) (size 9 to 14) (size 15 to 20)
#    0.000    2.000    2.000    3.600    2.800    0.400 
#    0.000    3.000    0.000    0.000    0.000   14.000 
#    0.000    0.000    0.000    0.000    0.000    0.000 
#
# Total GULP energy -247939.779055 kJ/mol
# GULP energy per Si atom -12396.988953 kJ/mol
# Density = 1.842435 g / cm^3
# Si number density = 18.466381 Si / 1000 Ang^3
#
#
#
# Elastic Constant Matrix: (Units=GPa)
#
#
# Indices 1 2 3 4 5 6 
#
# 1 95.1304 48.2169 29.9310 0.0003 3.1289 -0.0002
# 2 48.2169 111.0098 32.7112 0.0020 -8.3409 -0.0003
# 3 29.9310 32.7112 83.7238 0.0109 1.0103 -0.0004
# 4 0.0003 0.0020 0.0109 31.2669 0.0017 -1.3977
# 5 3.1289 -8.3409 1.0103 0.0017 20.0352 -0.0004
# 6 -0.0002 -0.0003 -0.0004 -1.3977 -0.0004 26.6544
#
#
#
# Elastic Compliance Matrix: (Units=1/GPa)
#
#
# Indices 1 2 3 4 5 6 
#
# 1 0.014499 -0.005794 -0.002865 0.000001 -0.004532 0.000000
# 2 -0.005794 0.012906 -0.003049 0.000000 0.006432 0.000000
# 3 -0.002865 -0.003049 0.014178 -0.000005 -0.001537 0.000000
# 4 0.000001 0.000000 -0.000005 0.032058 -0.000003 0.001681
# 5 -0.004532 0.006432 -0.001537 -0.000003 0.053375 0.000001
# 6 0.000000 0.000000 0.000000 0.001681 0.000001 0.037605
#
#
# Mechanical properties :
#
#
# Convention : Reuss Voigt Hill
#
# Bulk Modulus (GPa) = 55.04208 56.84247 55.94228
# Shear Modulus (GPa) = 25.76080 27.52495 26.64287
#
# Velocity S-wave (km/s) = 3.73904 3.86494 3.80251
# Velocity P-wave (km/s) = 6.96505 7.12499 7.04547
#
# Compressibility (1/GPa) = 0.01816792
#
# Stress axis : x y z
#
# Youngs Moduli (GPa) = 68.97033 77.48056 70.53174
#
# Poissons Ratio (x) = 0.44891 0.20207
# Poissons Ratio (y) = 0.39961 0.21504
# Poissons Ratio (z) = 0.19760 0.23623
#
# Static dielectric constant tensor:
#      x y z
#    x 3.419160 0.000000 -0.093160 
#    y 0.000000 3.268280 0.000000 
#    z -0.093160 0.000000 3.412880 
# 
# 
# High freq. dielectric constant tensor:
#      x y z
#    x 1.707410 0.000000 -0.011130 
#    y 0.000000 1.703410 0.000000 
#    z -0.011130 0.000000 1.715320 
# 
# From -- ./inp_files/120420.got.cif
#   From: 2010.06.25/outbox.cif.g09.slc.cpg/sg12_61_cif.got.tgz:120420.got - 2010.06.28 00:19:55.
