data_PCOD8093954
_publ_section_title
;
Structure prediction by ZEFSAII (Michael W. Deem and Ramdas Pophale) SiO2 
 PCOD8093954
Probable space group: C 2/M
;
_chemical_formula_sum "Si O2"
_cell_formula_units_Z 48
_cell_length_a 11.841400
_cell_length_b 28.756889
_cell_length_c 13.799123
_cell_angle_alpha 90.000000
_cell_angle_beta 31.465059
_cell_angle_gamma 90.000000
_cell_volume 2452.726094
_symmetry_space_group_name_H-M "C 2/M"
_symmetry_group_IT_number 12
_symmetry_cell_setting 'monoclinic'
loop_
_space_group_symop_operation_xyz
x,y,z
-x,y,-z
-x,-y,-z
x,-y,z
1/2+x,1/2+y,z
1/2-x,1/2+y,-z
1/2-x,1/2-y,-z
1/2+x,1/2-y,z
loop_
_atom_site_type_symbol
_atom_site_label
_atom_site_fract_x
_atom_site_fract_y
_atom_site_fract_z
Si Si1 0.850809 0.103043 0.893464
Si Si2 0.804703 0.303684 0.702422
Si Si3 0.691630 0.402340 0.788509
Si Si4 0.466580 0.445967 0.412543
Si Si5 0.835663 0.204635 0.986951
Si Si6 0.472127 0.946817 0.740053
O O1 0.844700 0.159046 0.910793
O O2 0.057197 0.077338 0.795703
O O3 0.870567 0.087320 0.767236
O O4 0.630003 0.083886 0.100315
O O5 0.819363 0.357436 0.659288
O O6 0.578080 0.281084 0.839044
O O7 0.000000 0.278465 0.500000
O O8 0.825375 0.302914 0.803912
O O9 0.857384 0.437713 0.719156
O O10 0.500000 0.383772 0.000000
O O11 0.500000 0.432725 0.500000
O O12 0.525653 0.500000 0.352114
O O13 0.224534 0.434845 0.553242
O O14 0.750000 0.250000 0.000000
O O15 0.433450 0.000000 0.795494
#
# Coordination Sequence:
#
# PCOD8093954 Si02
#       6
#     8   8   8   8   8   8
#     4  10  20  36  60  84 114 157 192 241 301 349
#     4  10  19  36  61  85 113 156 187 228 302 362
#     4   9  17  33  55  88 117 144 185 230 296 360
#     4  10  23  40  55  80 119 162 206 243 284 346
#     4  10  21  39  58  85 118 151 195 247 293 352
#     4  10  20  34  57  87 119 151 190 241 292 348
#
# _framework density 19.570062
#
# number of rings (size 3 to 8) (size 9 to 14) (size 15 to 20)
#    0.000    2.167    5.000    0.500    4.667    5.000 
#    0.000    8.333    0.000    0.000    0.000    0.000 
#    0.000    0.000    0.000    0.000    0.000    0.000 
#
# Total GULP energy -297380.198352 kJ/mol
# GULP energy per Si atom -12390.841598 kJ/mol
# Density = 1.952552 g / cm^3
# Si number density = 19.570062 Si / 1000 Ang^3
#
#
#
# Elastic Constant Matrix: (Units=GPa)
#
#
# Indices 1 2 3 4 5 6 
#
# 1 68.2155 35.7374 32.5577 0.0000 16.1479 0.0000
# 2 35.7374 85.8581 35.3288 0.0000 4.8514 0.0000
# 3 32.5577 35.3288 95.4734 0.0000 14.1017 0.0000
# 4 0.0000 0.0000 0.0000 14.3715 0.0000 -2.6763
# 5 16.1479 4.8514 14.1017 0.0000 29.6648 0.0000
# 6 0.0000 0.0000 0.0000 -2.6763 0.0000 27.3528
#
#
#
# Elastic Compliance Matrix: (Units=1/GPa)
#
#
# Indices 1 2 3 4 5 6 
#
# 1 0.022400 -0.007338 -0.003549 0.000000 -0.009306 0.000000
# 2 -0.007338 0.016144 -0.003949 0.000000 0.003231 0.000000
# 3 -0.003549 -0.003949 0.013729 0.000000 -0.003949 0.000000
# 4 0.000000 0.000000 0.000000 0.070874 0.000000 0.006935
# 5 -0.009306 0.003231 -0.003949 0.000000 0.040124 0.000000
# 6 0.000000 0.000000 0.000000 0.006935 0.000000 0.037238
#
#
# Mechanical properties :
#
#
# Convention : Reuss Voigt Hill
#
# Bulk Modulus (GPa) = 44.24413 50.75496 47.49954
# Shear Modulus (GPa) = 21.03371 24.00603 22.51987
#
# Velocity S-wave (km/s) = 3.28196 3.50619 3.39592
# Velocity P-wave (km/s) = 6.08431 6.51018 6.30084
#
# Compressibility (1/GPa) = 0.02260187
#
# Stress axis : x y z
#
# Youngs Moduli (GPa) = 44.64190 61.94402 72.83958
#
# Poissons Ratio (x) = 0.45453 0.25851
# Poissons Ratio (y) = 0.32757 0.28762
# Poissons Ratio (z) = 0.15844 0.24460
#
# Static dielectric constant tensor:
#      x y z
#    x 3.609040 0.000000 0.015990 
#    y 0.000000 3.235220 0.000000 
#    z 0.015990 0.000000 3.586150 
# 
# 
# High freq. dielectric constant tensor:
#      x y z
#    x 1.748360 0.000000 0.003180 
#    y 0.000000 1.733560 0.000000 
#    z 0.003180 0.000000 1.770800 
# 
# From -- ./inp_files/209267.got.cif
#   From: 2010.06.25/outbox.cif.g09.slc.cpg/sg12_105_cif.got.tgz:209267.got - 2010.06.28 00:19:55.
