data_PCOD8093840
_publ_section_title
;
Structure prediction by ZEFSAII (Michael W. Deem and Ramdas Pophale) SiO2 
 PCOD8093840
Probable space group: C 2/M
;
_chemical_formula_sum "Si O2"
_cell_formula_units_Z 64
_cell_length_a 32.169738
_cell_length_b 9.144008
_cell_length_c 15.069235
_cell_angle_alpha 90.000000
_cell_angle_beta 132.702857
_cell_angle_gamma 90.000000
_cell_volume 3257.558435
_symmetry_space_group_name_H-M "C 2/M"
_symmetry_group_IT_number 12
_symmetry_cell_setting 'monoclinic'
loop_
_space_group_symop_operation_xyz
x,y,z
-x,y,-z
-x,-y,-z
x,-y,z
1/2+x,1/2+y,z
1/2-x,1/2+y,-z
1/2-x,1/2-y,-z
1/2+x,1/2-y,z
loop_
_atom_site_type_symbol
_atom_site_label
_atom_site_fract_x
_atom_site_fract_y
_atom_site_fract_z
Si Si1 0.709030 0.669696 0.082974
Si Si2 0.874139 0.168243 0.503283
Si Si3 0.642271 0.330539 0.155397
Si Si4 0.190488 0.171387 0.411413
Si Si5 0.029956 0.672163 0.953616
Si Si6 0.614128 0.326697 0.812507
Si Si7 0.498698 0.668034 0.739342
Si Si8 0.165182 0.674265 0.725482
O O1 0.708778 0.500000 0.061727
O O2 0.694871 0.697907 0.165802
O O3 0.771914 0.731358 0.156643
O O4 0.661862 0.737859 0.948843
O O5 0.847712 0.213051 0.559752
O O6 0.941588 0.191829 0.601185
O O7 0.847832 0.274320 0.392557
O O8 0.859388 0.000000 0.459588
O O9 0.624177 0.500000 0.129239
O O10 0.657670 0.275257 0.275836
O O11 0.592207 0.237326 0.041576
O O12 0.250000 0.250000 0.500000
O O13 0.202297 0.000000 0.422540
O O14 0.033631 0.500000 0.949815
O O15 0.993860 0.735029 0.820235
O O16 0.000000 0.722699 0.000000
O O17 0.618894 0.500000 0.805788
O O18 0.552257 0.282911 0.758305
O O19 0.620858 0.247298 0.728122
O O20 0.505321 0.500000 0.778689
O O21 0.160610 0.500000 0.722423
#
# Coordination Sequence:
#
# PCOD8093840 Si02
#       8
#     8   8   8   8   8   8   8   8
#     4   9  18  35  59  87 117 147 190 238 287 345
#     4  10  22  40  59  85 116 153 202 245 284 340
#     4  10  19  36  60  84 111 150 197 238 278 339
#     4  10  21  36  58  86 119 155 196 243 289 342
#     4  11  23  36  53  84 121 151 183 232 291 344
#     4  10  20  38  62  87 114 147 191 246 294 341
#     4  10  21  40  65  85 110 153 199 241 285 338
#     4  11  23  38  59  86 116 155 193 238 298 351
#
# _framework density 19.646616000000002
#
# number of rings (size 3 to 8) (size 9 to 14) (size 15 to 20)
#    0.000    1.875    1.250    2.625    0.000    5.500 
#    0.000    4.375    0.000    0.000    0.000    0.000 
#    0.000    0.000    0.000    0.000    0.000    0.000 
#
# Total GULP energy -396883.684942 kJ/mol
# GULP energy per Si atom -12402.615154 kJ/mol
# Density = 1.960190 g / cm^3
# Si number density = 19.646616 Si / 1000 Ang^3
#
#
#
# Elastic Constant Matrix: (Units=GPa)
#
#
# Indices 1 2 3 4 5 6 
#
# 1 108.8333 30.5596 31.2738 0.0000 2.0761 0.0000
# 2 30.5596 43.3187 19.9504 0.0000 -1.4619 0.0000
# 3 31.2738 19.9504 79.9560 0.0000 0.5933 0.0000
# 4 0.0000 0.0000 0.0000 32.6363 0.0000 -1.9340
# 5 2.0761 -1.4619 0.5933 0.0000 38.7355 0.0000
# 6 0.0000 0.0000 0.0000 -1.9340 0.0000 26.4654
#
#
#
# Elastic Compliance Matrix: (Units=1/GPa)
#
#
# Indices 1 2 3 4 5 6 
#
# 1 0.012064 -0.007197 -0.002916 0.000000 -0.000874 0.000000
# 2 -0.007197 0.030421 -0.004787 0.000000 0.001607 0.000000
# 3 -0.002916 -0.004787 0.014844 0.000000 -0.000252 0.000000
# 4 0.000000 0.000000 0.000000 0.030774 0.000000 0.002249
# 5 -0.000874 0.001607 -0.000252 0.000000 0.025927 0.000000
# 6 0.000000 0.000000 0.000000 0.002249 0.000000 0.037950
#
#
# Mechanical properties :
#
#
# Convention : Reuss Voigt Hill
#
# Bulk Modulus (GPa) = 36.32764 43.96395 40.14580
# Shear Modulus (GPa) = 26.18384 29.58904 27.88644
#
# Velocity S-wave (km/s) = 3.65463 3.88501 3.77158
# Velocity P-wave (km/s) = 6.02819 6.52306 6.28051
#
# Compressibility (1/GPa) = 0.02752725
#
# Stress axis : x y z
#
# Youngs Moduli (GPa) = 82.89183 32.87202 67.36718
#
# Poissons Ratio (x) = 0.23658 0.19647
# Poissons Ratio (y) = 0.59657 0.32252
# Poissons Ratio (z) = 0.24175 0.15737
#
# Static dielectric constant tensor:
#      x y z
#    x 3.741130 0.000000 0.035410 
#    y 0.000000 3.396840 0.000000 
#    z 0.035410 0.000000 3.660350 
# 
# 
# High freq. dielectric constant tensor:
#      x y z
#    x 1.778780 0.000000 -0.000590 
#    y 0.000000 1.744430 0.000000 
#    z -0.000590 0.000000 1.769400 
# 
# From -- ./inp_files/250009.got.cif
#   From: 2010.06.25/outbox.cif.g09.slc.cpg/sg12_126_cif.got.tgz:250009.got - 2010.06.28 00:19:55.
