data_PCOD8093185
_publ_section_title
;
Structure prediction by ZEFSAII (Michael W. Deem and Ramdas Pophale) SiO2 
 PCOD8093185
Probable space group: C 2/M
;
_chemical_formula_sum "Si O2"
_cell_formula_units_Z 52
_cell_length_a 19.784029
_cell_length_b 22.423484
_cell_length_c 11.067910
_cell_angle_alpha 90.000000
_cell_angle_beta 148.303885
_cell_angle_gamma 90.000000
_cell_volume 2579.794172
_symmetry_space_group_name_H-M "C 2/M"
_symmetry_group_IT_number 12
_symmetry_cell_setting 'monoclinic'
loop_
_space_group_symop_operation_xyz
x,y,z
-x,y,-z
-x,-y,-z
x,-y,z
1/2+x,1/2+y,z
1/2-x,1/2+y,-z
1/2-x,1/2-y,-z
1/2+x,1/2-y,z
loop_
_atom_site_type_symbol
_atom_site_label
_atom_site_fract_x
_atom_site_fract_y
_atom_site_fract_z
Si Si1 0.413880 0.433114 0.762379
Si Si2 0.500000 0.650077 0.500000
Si Si3 0.308375 0.845958 0.538171
Si Si4 0.624987 0.125942 0.617514
Si Si5 0.374931 0.432845 0.114526
Si Si6 0.791782 0.244220 0.201424
Si Si7 0.634069 0.241986 0.182204
O O1 0.368524 0.500000 0.727437
O O2 0.290096 0.392783 0.554854
O O3 0.497426 0.433254 0.770012
O O4 0.500000 0.405778 0.000000
O O5 0.587988 0.610049 0.720250
O O6 0.392510 0.692937 0.394625
O O7 0.388063 0.878449 0.550092
O O8 0.384809 0.820117 0.770136
O O9 0.246157 0.785783 0.392466
O O10 0.500000 0.100557 0.500000
O O11 0.637316 0.194750 0.663815
O O12 0.751794 0.090451 0.852936
O O13 0.344620 0.500000 0.114263
O O14 0.663214 0.230527 0.084656
O O15 0.750000 0.250000 0.000000
O O16 0.500000 0.276535 0.000000
#
# Coordination Sequence:
#
# PCOD8093185 Si02
#       7
#     8   4   8   8   8   8   8
#     4  10  19  35  60  85 110 144 197 251 296 341
#     4  12  23  40  66  86 127 162 208 254 306 378
#     4  10  21  37  57  86 118 153 198 246 306 356
#     4  11  23  38  59  87 124 161 205 251 302 380
#     4  11  24  40  61  91 122 162 208 260 310 359
#     4  11  23  37  59  89 120 163 203 246 313 367
#     4  10  23  35  57  86 123 156 192 248 302 367
#
# _framework density 20.156647
#
# number of rings (size 3 to 8) (size 9 to 14) (size 15 to 20)
#    0.000    1.385    3.846    1.615    4.308    1.538 
#    0.000    0.000    0.000    0.462    0.000    0.000 
#    0.000    0.000    0.000    0.000    0.000    0.000 
#
# Total GULP energy -322114.607975 kJ/mol
# GULP energy per Si atom -12389.023384 kJ/mol
# Density = 2.011077 g / cm^3
# Si number density = 20.156647 Si / 1000 Ang^3
#
#
#
# Elastic Constant Matrix: (Units=GPa)
#
#
# Indices 1 2 3 4 5 6 
#
# 1 133.4374 21.2007 35.5796 0.0000 11.9003 0.0000
# 2 21.2007 94.0028 16.4026 0.0000 2.1633 0.0000
# 3 35.5796 16.4026 50.8690 0.0000 -0.3262 0.0000
# 4 0.0000 0.0000 0.0000 -17.7375 0.0000 -16.3794
# 5 11.9003 2.1633 -0.3262 0.0000 31.1730 0.0000
# 6 0.0000 0.0000 0.0000 -16.3794 0.0000 -3.8686
#
#
#
# Elastic Compliance Matrix: (Units=1/GPa)
#
#
# Indices 1 2 3 4 5 6 
#
# 1 0.009714 -0.000970 -0.006505 0.000000 -0.003709 0.000000
# 2 -0.000970 0.011390 -0.002997 0.000000 -0.000451 0.000000
# 3 -0.006505 -0.002997 0.025193 0.000000 0.002955 0.000000
# 4 0.000000 0.000000 0.000000 0.019376 0.000000 -0.082034
# 5 -0.003709 -0.000451 0.002955 0.000000 0.033557 0.000000
# 6 0.000000 0.000000 0.000000 -0.082034 0.000000 0.088836
#
#
# Mechanical properties :
#
#
# Convention : Reuss Voigt Hill
#
# Bulk Modulus (GPa) = 39.44343 47.18610 43.31476
# Shear Modulus (GPa) = 22.99258 15.58846 19.29052
#
# Velocity S-wave (km/s) = 3.38108 2.78396 3.09695
# Velocity P-wave (km/s) = 5.90366 5.81330 5.85865
#
# Compressibility (1/GPa) = 0.02535277
#
# Stress axis : x y z
#
# Youngs Moduli (GPa) = 102.94901 87.79515 39.69294
#
# Poissons Ratio (x) = 0.08519 0.25820
# Poissons Ratio (y) = 0.09989 0.11896
# Poissons Ratio (z) = 0.66967 0.26312
#
# Static dielectric constant tensor:
#      x y z
#    x 4.143130 0.000000 -0.119670 
#    y 0.000000 3.773030 0.000000 
#    z -0.119670 0.000000 3.527310 
# 
# 
# High freq. dielectric constant tensor:
#      x y z
#    x 1.797930 0.000000 0.000630 
#    y 0.000000 1.782180 0.000000 
#    z 0.000630 0.000000 1.766120 
# 
# From -- ./inp_files/169888.got.cif
#   From: 2010.06.25/outbox.cif.g09.slc.cpg/sg12_85_cif.got.tgz:169888.got - 2010.06.28 00:19:55.
