data_PCOD8093176
_publ_section_title
;
Structure prediction by ZEFSAII (Michael W. Deem and Ramdas Pophale) SiO2 
 PCOD8093176
Probable space group: C 2/M
;
_chemical_formula_sum "Si O2"
_cell_formula_units_Z 48
_cell_length_a 10.092303
_cell_length_b 17.269132
_cell_length_c 15.068882
_cell_angle_alpha 90.000000
_cell_angle_beta 68.193306
_cell_angle_gamma 90.000000
_cell_volume 2438.354259
_symmetry_space_group_name_H-M "C 2/M"
_symmetry_group_IT_number 12
_symmetry_cell_setting 'monoclinic'
loop_
_space_group_symop_operation_xyz
x,y,z
-x,y,-z
-x,-y,-z
x,-y,z
1/2+x,1/2+y,z
1/2-x,1/2+y,-z
1/2-x,1/2-y,-z
1/2+x,1/2-y,z
loop_
_atom_site_type_symbol
_atom_site_label
_atom_site_fract_x
_atom_site_fract_y
_atom_site_fract_z
Si Si1 0.162312 0.908804 0.698939
Si Si2 0.830874 0.409110 0.826481
Si Si3 0.659108 0.592154 0.227779
Si Si4 0.873909 0.408214 0.322259
Si Si5 0.843093 0.678728 0.509065
Si Si6 0.840802 0.407785 0.019545
O O1 0.203036 0.890107 0.790789
O O2 0.268681 0.863362 0.609429
O O3 0.002388 0.877466 0.724238
O O4 0.176556 0.000000 0.675384
O O5 0.855374 0.500000 0.829402
O O6 0.979050 0.373278 0.753283
O O7 0.794054 0.376615 0.933756
O O8 0.659497 0.500000 0.223473
O O9 0.744654 0.622182 0.292603
O O10 0.732540 0.625926 0.120317
O O11 0.878113 0.500000 0.321267
O O12 0.852095 0.382212 0.427694
O O13 0.750000 0.750000 0.500000
O O14 0.000000 0.706757 0.500000
O O15 0.836822 0.500000 0.024850
O O16 0.000000 0.377934 0.000000
#
# Coordination Sequence:
#
# PCOD8093176 Si02
#       6
#     8   8   8   8   8   8
#     4  10  21  37  57  83 114 147 185 231 276 322
#     4   9  16  28  51  81 111 145 184 221 267 324
#     4   9  18  30  50  84 119 147 179 223 274 323
#     4  10  19  35  60  84 109 147 189 226 268 326
#     4  12  27  42  58  81 109 144 186 232 284 337
#     4   9  14  24  45  78 118 150 176 216 270 326
#
# _framework density 19.685407999999999
#
# number of rings (size 3 to 8) (size 9 to 14) (size 15 to 20)
#    0.000    2.167    3.333    0.500    2.333    1.333 
#    0.000    5.833    0.000    0.000    0.000    7.000 
#    0.000    0.000    0.000    0.000    0.000    0.000 
#
# Total GULP energy -297543.713611 kJ/mol
# GULP energy per Si atom -12397.654734 kJ/mol
# Density = 1.964060 g / cm^3
# Si number density = 19.685408 Si / 1000 Ang^3
#
#
#
# Elastic Constant Matrix: (Units=GPa)
#
#
# Indices 1 2 3 4 5 6 
#
# 1 159.0277 23.3785 49.0134 0.0000 1.7078 0.0000
# 2 23.3785 21.6369 14.8846 0.0000 1.5859 0.0000
# 3 49.0134 14.8846 121.3283 0.0000 9.6869 0.0000
# 4 0.0000 0.0000 0.0000 0.9703 0.0000 -0.5980
# 5 1.7078 1.5859 9.6869 0.0000 39.1327 0.0000
# 6 0.0000 0.0000 0.0000 -0.5980 0.0000 17.6097
#
#
#
# Elastic Compliance Matrix: (Units=1/GPa)
#
#
# Indices 1 2 3 4 5 6 
#
# 1 0.008075 -0.007089 -0.002435 0.000000 0.000538 0.000000
# 2 -0.007089 0.056711 -0.004014 0.000000 -0.000995 0.000000
# 3 -0.002435 -0.004014 0.009892 0.000000 -0.002180 0.000000
# 4 0.000000 0.000000 0.000000 1.052670 0.000000 0.035748
# 5 0.000538 -0.000995 -0.002180 0.000000 0.026111 0.000000
# 6 0.000000 0.000000 0.000000 0.035748 0.000000 0.058001
#
#
# Mechanical properties :
#
#
# Convention : Reuss Voigt Hill
#
# Bulk Modulus (GPa) = 21.00765 52.94954 36.97859
# Shear Modulus (GPa) = 3.98595 25.85697 14.92146
#
# Velocity S-wave (km/s) = 1.42451 3.62817 2.75616
# Velocity P-wave (km/s) = 3.66067 6.67141 5.38090
#
# Compressibility (1/GPa) = 0.04760171
#
# Stress axis : x y z
#
# Youngs Moduli (GPa) = 123.83556 17.63312 101.08754
#
# Poissons Ratio (x) = 0.12501 0.24619
# Poissons Ratio (y) = 0.87790 0.40577
# Poissons Ratio (z) = 0.30159 0.07078
#
# Static dielectric constant tensor:
#      x y z
#    x 3.863870 0.000000 0.076060 
#    y 0.000000 3.003090 0.000000 
#    z 0.076060 0.000000 3.960170 
# 
# 
# High freq. dielectric constant tensor:
#      x y z
#    x 1.781180 0.000000 0.007480 
#    y 0.000000 1.700800 0.000000 
#    z 0.007480 0.000000 1.783300 
# 
# From -- ./inp_files/196891.got.cif
#   From: 2010.06.25/outbox.cif.g09.slc.cpg/sg12_99_cif.got.tgz:196891.got - 2010.06.28 00:19:55.
