data_PCOD8093536
_publ_section_title
;
Structure prediction by ZEFSAII (Michael W. Deem and Ramdas Pophale) SiO2 
 PCOD8093536
Probable space group: C 2/M
;
_chemical_formula_sum "Si O2"
_cell_formula_units_Z 40
_cell_length_a 14.673086
_cell_length_b 8.499992
_cell_length_c 24.784193
_cell_angle_alpha 90.000000
_cell_angle_beta 137.429254
_cell_angle_gamma 90.000000
_cell_volume 2091.137512
_symmetry_space_group_name_H-M "C 2/M"
_symmetry_group_IT_number 12
_symmetry_cell_setting 'monoclinic'
loop_
_space_group_symop_operation_xyz
x,y,z
-x,y,-z
-x,-y,-z
x,-y,z
1/2+x,1/2+y,z
1/2-x,1/2+y,-z
1/2-x,1/2-y,-z
1/2+x,1/2-y,z
loop_
_atom_site_type_symbol
_atom_site_label
_atom_site_fract_x
_atom_site_fract_y
_atom_site_fract_z
Si Si1 0.642741 0.184274 0.586938
Si Si2 0.148146 0.312999 0.001090
Si Si3 0.355345 0.312276 0.882549
Si Si4 0.127362 0.685775 0.703073
Si Si5 0.668141 0.182797 0.414707
O O1 0.500000 0.236113 0.500000
O O2 0.656641 0.234651 0.654677
O O3 0.759320 0.281742 0.609359
O O4 0.665633 0.000000 0.587426
O O5 0.156057 0.500000 0.005867
O O6 0.187750 0.244977 0.076852
O O7 0.250000 0.250000 0.000000
O O8 0.995673 0.259214 0.922468
O O9 0.368016 0.500000 0.888269
O O10 0.241682 0.246495 0.792342
O O11 0.126005 0.500000 0.708856
O O12 0.981382 0.756876 0.654503
O O13 0.750000 0.250000 0.500000
O O14 0.654212 0.000000 0.419772
#
# Coordination Sequence:
#
# PCOD8093536 Si02
#       5
#     8   8   8   8   8
#     4  10  19  36  57  77 108 149 189 232 285 334
#     4  11  22  39  62  88 118 152 190 231 283 345
#     4  10  20  38  61  88 119 151 189 235 289 342
#     4   9  20  37  57  81 116 153 186 232 287 338
#     4  11  21  36  55  80 109 146 192 237 283 333
#
# _framework density 19.128344999999999
#
# number of rings (size 3 to 8) (size 9 to 14) (size 15 to 20)
#    0.000    1.800    2.000    4.200    0.000    2.000 
#    0.000   10.000    0.000    0.000    0.000    0.000 
#    0.000    0.000    0.000    0.000    0.000    0.000 
#
# Total GULP energy -247992.684019 kJ/mol
# GULP energy per Si atom -12399.634201 kJ/mol
# Density = 1.908481 g / cm^3
# Si number density = 19.128345 Si / 1000 Ang^3
#
#
#
# Elastic Constant Matrix: (Units=GPa)
#
#
# Indices 1 2 3 4 5 6 
#
# 1 146.4755 18.0828 80.4690 0.0000 8.2448 0.0000
# 2 18.0828 57.4097 22.3886 0.0000 4.2252 0.0000
# 3 80.4690 22.3886 190.6257 0.0000 -0.0755 0.0000
# 4 0.0000 0.0000 0.0000 19.5737 0.0000 0.6120
# 5 8.2448 4.2252 -0.0755 0.0000 25.4996 0.0000
# 6 0.0000 0.0000 0.0000 0.6120 0.0000 35.5328
#
#
#
# Elastic Compliance Matrix: (Units=1/GPa)
#
#
# Indices 1 2 3 4 5 6 
#
# 1 0.009187 -0.001233 -0.003735 0.000000 -0.002777 0.000000
# 2 -0.001233 0.018658 -0.001672 0.000000 -0.002698 0.000000
# 3 -0.003735 -0.001672 0.007019 0.000000 0.001505 0.000000
# 4 0.000000 0.000000 0.000000 0.051117 0.000000 -0.000880
# 5 -0.002777 -0.002698 0.001505 0.000000 0.040566 0.000000
# 6 0.000000 0.000000 0.000000 -0.000880 0.000000 0.028158
#
#
# Mechanical properties :
#
#
# Convention : Reuss Voigt Hill
#
# Bulk Modulus (GPa) = 46.32776 70.71019 58.51898
# Shear Modulus (GPa) = 28.54232 34.35924 31.45078
#
# Velocity S-wave (km/s) = 3.86702 4.24281 4.05927
# Velocity P-wave (km/s) = 6.64910 7.81335 7.25462
#
# Compressibility (1/GPa) = 0.02158533
#
# Stress axis : x y z
#
# Youngs Moduli (GPa) = 108.84653 53.59758 142.46453
#
# Poissons Ratio (x) = 0.06609 0.53204
# Poissons Ratio (y) = 0.13421 0.23818
# Poissons Ratio (z) = 0.40649 0.08961
#
# Static dielectric constant tensor:
#      x y z
#    x 3.578430 0.000000 0.170100 
#    y 0.000000 3.391860 0.000000 
#    z 0.170100 0.000000 3.831110 
# 
# 
# High freq. dielectric constant tensor:
#      x y z
#    x 1.755710 0.000000 0.002160 
#    y 0.000000 1.732740 0.000000 
#    z 0.002160 0.000000 1.749750 
# 
# From -- ./inp_files/308688.got.cif
#   From: 2010.06.25/outbox.cif.g09.slc.cpg/sg12_155_cif.got.tgz:308688.got - 2010.06.28 00:19:55.
