data_PCOD8093134
_publ_section_title
;
Structure prediction by ZEFSAII (Michael W. Deem and Ramdas Pophale) SiO2 
 PCOD8093134
Probable space group: C 2/M
;
_chemical_formula_sum "Si O2"
_cell_formula_units_Z 64
_cell_length_a 32.590355
_cell_length_b 8.977055
_cell_length_c 15.303055
_cell_angle_alpha 90.000000
_cell_angle_beta 133.474642
_cell_angle_gamma 90.000000
_cell_volume 3248.969566
_symmetry_space_group_name_H-M "C 2/M"
_symmetry_group_IT_number 12
_symmetry_cell_setting 'monoclinic'
loop_
_space_group_symop_operation_xyz
x,y,z
-x,y,-z
-x,-y,-z
x,-y,z
1/2+x,1/2+y,z
1/2-x,1/2+y,-z
1/2-x,1/2-y,-z
1/2+x,1/2-y,z
loop_
_atom_site_type_symbol
_atom_site_label
_atom_site_fract_x
_atom_site_fract_y
_atom_site_fract_z
Si Si1 0.545303 0.823209 0.905556
Si Si2 0.373852 0.826659 0.483369
Si Si3 0.225361 0.669092 0.046621
Si Si4 0.754204 0.173342 0.744696
Si Si5 0.360956 0.822505 0.822963
Si Si6 0.064756 0.824344 0.588409
Si Si7 0.598471 0.168104 0.808630
Si Si8 0.420086 0.822989 0.734748
O O1 0.554731 0.775107 0.818395
O O2 0.483817 0.762592 0.843679
O O3 0.547731 0.000000 0.916103
O O4 0.593515 0.759311 0.040433
O O5 0.306983 0.798888 0.386439
O O6 0.405189 0.742808 0.451586
O O7 0.396357 0.762104 0.608262
O O8 0.388181 0.000000 0.493087
O O9 0.247760 0.500000 0.083350
O O10 0.247176 0.755627 0.162233
O O11 0.250000 0.750000 0.000000
O O12 0.158136 0.673091 0.944696
O O13 0.800075 0.251171 0.750254
O O14 0.768626 0.000000 0.774227
O O15 0.380735 0.768636 0.756297
O O16 0.355205 0.000000 0.821152
O O17 0.097526 0.773723 0.723452
O O18 0.000000 0.769068 0.500000
O O19 0.068510 0.000000 0.586776
O O20 0.584495 0.000000 0.757229
O O21 0.421071 0.000000 0.734075
#
# Coordination Sequence:
#
# PCOD8093134 Si02
#       8
#     8   8   8   8   8   8   8   8
#     4   9  16  31  56  88 116 140 181 239 294 344
#     4  10  22  40  59  82 112 153 203 241 278 338
#     4  11  22  37  57  84 113 145 189 236 286 342
#     4  11  23  38  56  81 117 157 195 238 285 340
#     4  10  19  35  59  88 116 146 187 240 296 348
#     4  11  24  39  56  84 119 153 189 232 287 345
#     4  10  20  35  57  83 111 146 190 233 278 337
#     4   9  18  33  59  87 111 144 191 244 292 338
#
# _framework density 19.698553
#
# number of rings (size 3 to 8) (size 9 to 14) (size 15 to 20)
#    0.000    1.875    1.250    3.000    0.000    9.000 
#    0.000    0.625    0.000    2.250    0.000    0.000 
#    0.000    0.000    0.000    0.000    0.000    0.000 
#
# Total GULP energy -396854.810692 kJ/mol
# GULP energy per Si atom -12401.712834 kJ/mol
# Density = 1.965372 g / cm^3
# Si number density = 19.698553 Si / 1000 Ang^3
#
#
#
# Elastic Constant Matrix: (Units=GPa)
#
#
# Indices 1 2 3 4 5 6 
#
# 1 150.0159 47.5234 44.8910 0.0000 -9.0912 0.0000
# 2 47.5234 61.3230 34.7829 0.0000 0.5207 0.0000
# 3 44.8910 34.7829 100.9451 0.0000 -9.1169 0.0000
# 4 0.0000 0.0000 0.0000 18.8117 0.0000 6.2657
# 5 -9.0912 0.5207 -9.1169 0.0000 34.2703 0.0000
# 6 0.0000 0.0000 0.0000 6.2657 0.0000 22.8938
#
#
#
# Elastic Compliance Matrix: (Units=1/GPa)
#
#
# Indices 1 2 3 4 5 6 
#
# 1 0.009296 -0.006194 -0.001812 0.000000 0.002078 0.000000
# 2 -0.006194 0.024562 -0.006036 0.000000 -0.003622 0.000000
# 3 -0.001812 -0.006036 0.013071 0.000000 0.003088 0.000000
# 4 0.000000 0.000000 0.000000 0.058490 0.000000 -0.016008
# 5 0.002078 -0.003622 0.003088 0.000000 0.030608 0.000000
# 6 0.000000 0.000000 0.000000 -0.016008 0.000000 0.048061
#
#
# Mechanical properties :
#
#
# Convention : Reuss Voigt Hill
#
# Bulk Modulus (GPa) = 53.06514 62.96428 58.01471
# Shear Modulus (GPa) = 22.88814 27.53427 25.21121
#
# Velocity S-wave (km/s) = 3.41239 3.74275 3.58138
# Velocity P-wave (km/s) = 6.52096 7.12115 6.82766
#
# Compressibility (1/GPa) = 0.01884476
#
# Stress axis : x y z
#
# Youngs Moduli (GPa) = 107.56820 40.71371 76.50558
#
# Poissons Ratio (x) = 0.25219 0.13864
# Poissons Ratio (y) = 0.66630 0.46177
# Poissons Ratio (z) = 0.19493 0.24574
#
# Static dielectric constant tensor:
#      x y z
#    x 3.801790 0.000000 0.088950 
#    y 0.000000 2.680590 0.000000 
#    z 0.088950 0.000000 3.714100 
# 
# 
# High freq. dielectric constant tensor:
#      x y z
#    x 1.785420 0.000000 0.000630 
#    y 0.000000 1.735660 0.000000 
#    z 0.000630 0.000000 1.774700 
# 
# From -- ./inp_files/250064.got.cif
#   From: 2010.06.25/outbox.cif.g09.slc.cpg/sg12_126_cif.got.tgz:250064.got - 2010.06.28 00:19:55.
