data_PCOD8093652
_publ_section_title
;
Structure prediction by ZEFSAII (Michael W. Deem and Ramdas Pophale) SiO2 
 PCOD8093652
Probable space group: C 2/M
;
_chemical_formula_sum "Si O2"
_cell_formula_units_Z 48
_cell_length_a 9.383363
_cell_length_b 16.969548
_cell_length_c 29.945205
_cell_angle_alpha 90.000000
_cell_angle_beta 32.222748
_cell_angle_gamma 90.000000
_cell_volume 2542.471873
_symmetry_space_group_name_H-M "C 2/M"
_symmetry_group_IT_number 12
_symmetry_cell_setting 'monoclinic'
loop_
_space_group_symop_operation_xyz
x,y,z
-x,y,-z
-x,-y,-z
x,-y,z
1/2+x,1/2+y,z
1/2-x,1/2+y,-z
1/2-x,1/2-y,-z
1/2+x,1/2-y,z
loop_
_atom_site_type_symbol
_atom_site_label
_atom_site_fract_x
_atom_site_fract_y
_atom_site_fract_z
Si Si1 0.459771 0.184348 0.458765
Si Si2 0.483389 0.409776 0.453583
Si Si3 0.882669 0.713185 0.309792
Si Si4 0.776054 0.309915 0.952139
Si Si5 0.059386 0.777674 0.799794
Si Si6 0.619295 0.908833 0.919951
O O1 0.500000 0.184859 0.500000
O O2 0.326776 0.101502 0.479278
O O3 0.742661 0.203544 0.360387
O O4 0.250000 0.250000 0.500000
O O5 0.500000 0.379802 0.500000
O O6 0.567351 0.500000 0.426567
O O7 0.681489 0.359770 0.369687
O O8 0.971789 0.721296 0.234897
O O9 0.134711 0.696080 0.274784
O O10 0.982508 0.274689 0.862417
O O11 0.897796 0.390111 0.940678
O O12 0.500000 0.328073 0.000000
O O13 0.750000 0.250000 0.000000
O O14 0.879533 0.855574 0.842908
O O15 0.702136 0.000000 0.894700
O O16 0.500000 0.887880 0.000000
#
# Coordination Sequence:
#
# PCOD8093652 Si02
#       6
#     8   8   8   8   8   8
#     4  10  19  36  58  84 112 149 199 244 282 355
#     4  10  21  39  60  84 118 160 204 248 299 358
#     4  11  21  34  60  90 116 153 202 247 305 361
#     4  12  20  39  66  90 118 161 211 246 286 370
#     4  12  21  36  61  91 121 158 196 253 304 358
#     4  11  24  42  63  91 123 159 206 256 302 356
#
# _framework density 18.879265
#
# number of rings (size 3 to 8) (size 9 to 14) (size 15 to 20)
#    0.000    1.000    5.000    5.000    0.000    1.333 
#    0.000    1.667    0.000    0.000    0.000    0.000 
#    0.000    0.000    0.000    0.000    0.000    0.000 
#
# Total GULP energy -297585.260355 kJ/mol
# GULP energy per Si atom -12399.385848 kJ/mol
# Density = 1.883629 g / cm^3
# Si number density = 18.879265 Si / 1000 Ang^3
#
#
#
# Elastic Constant Matrix: (Units=GPa)
#
#
# Indices 1 2 3 4 5 6 
#
# 1 147.9791 46.8198 48.3491 0.0138 -6.6671 -0.0030
# 2 46.8198 91.4261 46.6258 0.0442 2.0701 -0.0127
# 3 48.3491 46.6258 99.4505 -0.1158 -3.6508 -0.0151
# 4 0.0138 0.0442 -0.1158 30.2576 0.0032 -1.2659
# 5 -6.6671 2.0701 -3.6508 0.0032 45.9953 0.0091
# 6 -0.0030 -0.0127 -0.0151 -1.2659 0.0091 25.6388
#
#
#
# Elastic Compliance Matrix: (Units=1/GPa)
#
#
# Indices 1 2 3 4 5 6 
#
# 1 0.008677 -0.003077 -0.002733 -0.000010 0.001179 -0.000003
# 2 -0.003077 0.015530 -0.005845 -0.000043 -0.001609 0.000002
# 3 -0.002733 -0.005845 0.014160 0.000064 0.000991 0.000008
# 4 -0.000010 -0.000043 0.000064 0.033118 0.000003 0.001635
# 5 0.001179 -0.001609 0.000991 0.000003 0.022063 -0.000008
# 6 -0.000003 0.000002 0.000008 0.001635 -0.000008 0.039084
#
#
# Mechanical properties :
#
#
# Convention : Reuss Voigt Hill
#
# Bulk Modulus (GPa) = 66.40097 69.16057 67.78077
# Shear Modulus (GPa) = 31.06328 33.51574 32.28951
#
# Velocity S-wave (km/s) = 4.06071 4.21796 4.14008
# Velocity P-wave (km/s) = 7.56529 7.77395 7.67033
#
# Compressibility (1/GPa) = 0.01506002
#
# Stress axis : x y z
#
# Youngs Moduli (GPa) = 115.24496 64.38965 70.61941
#
# Poissons Ratio (x) = 0.19810 0.19299
# Poissons Ratio (y) = 0.35457 0.41274
# Poissons Ratio (z) = 0.31494 0.37633
#
# Static dielectric constant tensor:
#      x y z
#    x 3.927680 -0.000030 -0.191230 
#    y -0.000030 3.411390 -0.000020 
#    z -0.191230 -0.000020 3.631480 
# 
# 
# High freq. dielectric constant tensor:
#      x y z
#    x 1.756160 0.000000 -0.001760 
#    y 0.000000 1.706520 -0.000010 
#    z -0.001760 -0.000010 1.737790 
# 
# From -- ./inp_files/256141.got.cif
#   From: 2010.06.25/outbox.cif.g09.slc.cpg/sg12_129_cif.got.tgz:256141.got - 2010.06.28 00:19:55.
