data_PCOD8093198
_publ_section_title
;
Structure prediction by ZEFSAII (Michael W. Deem and Ramdas Pophale) SiO2 
 PCOD8093198
Probable space group: C 2/M
;
_chemical_formula_sum "Si O2"
_cell_formula_units_Z 48
_cell_length_a 18.170384
_cell_length_b 26.615940
_cell_length_c 7.514423
_cell_angle_alpha 90.000000
_cell_angle_beta 36.149085
_cell_angle_gamma 90.000000
_cell_volume 2143.736320
_symmetry_space_group_name_H-M "C 2/M"
_symmetry_group_IT_number 12
_symmetry_cell_setting 'monoclinic'
loop_
_space_group_symop_operation_xyz
x,y,z
-x,y,-z
-x,-y,-z
x,-y,z
1/2+x,1/2+y,z
1/2-x,1/2+y,-z
1/2-x,1/2-y,-z
1/2+x,1/2-y,z
loop_
_atom_site_type_symbol
_atom_site_label
_atom_site_fract_x
_atom_site_fract_y
_atom_site_fract_z
Si Si1 0.723901 0.725326 0.863834
Si Si2 0.237182 0.442249 0.789982
Si Si3 0.272487 0.559024 0.318304
Si Si4 0.013565 0.606279 0.771070
Si Si5 0.993331 0.283225 0.312534
Si Si6 0.369092 0.380872 0.838260
O O1 0.855945 0.729271 0.496268
O O2 0.750000 0.750000 0.000000
O O3 0.608765 0.754139 0.988025
O O4 0.697099 0.667049 0.947547
O O5 0.270162 0.500000 0.769619
O O6 0.290269 0.426704 0.490820
O O7 0.292138 0.405448 0.828738
O O8 0.087741 0.435940 0.082057
O O9 0.264433 0.500000 0.313904
O O10 0.148485 0.582678 0.471394
O O11 0.384271 0.580096 0.974992
O O12 0.986285 0.657067 0.716908
O O13 0.000000 0.622754 0.000000
O O14 0.000000 0.262223 0.500000
O O15 0.500000 0.364941 0.500000
#
# Coordination Sequence:
#
# PCOD8093198 Si02
#       6
#     8   8   8   8   8   8
#     4  10  20  36  61  87 117 159 209 257 314 371
#     4  10  22  39  62  92 125 163 207 257 312 366
#     4  10  22  40  62  92 128 162 203 258 312 369
#     4  10  20  37  62  90 124 159 202 259 315 373
#     4  10  19  35  60  85 119 161 205 256 318 368
#     4  12  24  40  63  89 123 167 214 254 307 377
#
# _framework density 22.390813000000001
#
# number of rings (size 3 to 8) (size 9 to 14) (size 15 to 20)
#    0.000    1.667    1.667    4.500    0.000    4.000 
#    0.000    4.167   11.000    0.000    0.000    0.000 
#    0.000    0.000    0.000    0.000    0.000    0.000 
#
# Total GULP energy -297427.717197 kJ/mol
# GULP energy per Si atom -12392.821550 kJ/mol
# Density = 2.233985 g / cm^3
# Si number density = 22.390813 Si / 1000 Ang^3
#
#
#
# Elastic Constant Matrix: (Units=GPa)
#
#
# Indices 1 2 3 4 5 6 
#
# 1 49.5377 33.8921 27.4255 0.0000 -7.2174 0.0000
# 2 33.8921 116.5594 29.6634 0.0000 -8.0677 0.0000
# 3 27.4255 29.6634 101.9276 0.0000 -21.7253 0.0000
# 4 0.0000 0.0000 0.0000 32.8318 0.0000 -12.6844
# 5 -7.2174 -8.0677 -21.7253 0.0000 31.9062 0.0000
# 6 0.0000 0.0000 0.0000 -12.6844 0.0000 8.7291
#
#
#
# Elastic Compliance Matrix: (Units=1/GPa)
#
#
# Indices 1 2 3 4 5 6 
#
# 1 0.027852 -0.006671 -0.005345 0.000000 0.000974 0.000000
# 2 -0.006671 0.010873 -0.001293 0.000000 0.000360 0.000000
# 3 -0.005345 -0.001293 0.013216 0.000000 0.007463 0.000000
# 4 0.000000 0.000000 0.000000 0.069445 0.000000 0.100912
# 5 0.000974 0.000360 0.007463 0.000000 0.036735 0.000000
# 6 0.000000 0.000000 0.000000 0.100912 0.000000 0.261197
#
#
# Mechanical properties :
#
#
# Convention : Reuss Voigt Hill
#
# Bulk Modulus (GPa) = 39.48886 49.99853 44.74369
# Shear Modulus (GPa) = 11.00410 26.49632 18.75021
#
# Velocity S-wave (km/s) = 2.21929 3.44373 2.89694
# Velocity P-wave (km/s) = 4.92356 6.17987 5.58714
#
# Compressibility (1/GPa) = 0.02532360
#
# Stress axis : x y z
#
# Youngs Moduli (GPa) = 35.90449 91.97202 75.66622
#
# Poissons Ratio (x) = 0.61352 0.40444
# Poissons Ratio (y) = 0.23951 0.09781
# Poissons Ratio (z) = 0.19191 0.11888
#
# Static dielectric constant tensor:
#      x y z
#    x 3.998480 0.000000 -0.364730 
#    y 0.000000 0.157680 0.000000 
#    z -0.364730 0.000000 4.556360 
# 
# 
# High freq. dielectric constant tensor:
#      x y z
#    x 1.856920 0.000000 -0.006160 
#    y 0.000000 1.886580 0.000000 
#    z -0.006160 0.000000 1.888630 
# 
# From -- ./inp_files/51951.got.cif
#   From: 2010.06.25/outbox.cif.g09.slc.cpg/sg12_26_cif.got.tgz:51951.got - 2010.06.28 00:19:55.
