data_PCOD8093623
_publ_section_title
;
Structure prediction by ZEFSAII (Michael W. Deem and Ramdas Pophale) SiO2 
 PCOD8093623
Probable space group: C 2/M
;
_chemical_formula_sum "Si O2"
_cell_formula_units_Z 64
_cell_length_a 25.160770
_cell_length_b 9.102772
_cell_length_c 14.537141
_cell_angle_alpha 90.000000
_cell_angle_beta 91.187071
_cell_angle_gamma 90.000000
_cell_volume 3328.766858
_symmetry_space_group_name_H-M "C 2/M"
_symmetry_group_IT_number 12
_symmetry_cell_setting 'monoclinic'
loop_
_space_group_symop_operation_xyz
x,y,z
-x,y,-z
-x,-y,-z
x,-y,z
1/2+x,1/2+y,z
1/2-x,1/2+y,-z
1/2-x,1/2-y,-z
1/2+x,1/2-y,z
loop_
_atom_site_type_symbol
_atom_site_label
_atom_site_fract_x
_atom_site_fract_y
_atom_site_fract_z
Si Si1 0.941790 0.174158 0.797029
Si Si2 0.800025 0.327481 0.958862
Si Si3 0.902679 0.829703 0.992781
Si Si4 0.144460 0.166645 0.352463
Si Si5 0.940663 0.830459 0.192779
Si Si6 0.230805 0.164951 0.210863
Si Si7 0.843439 0.328283 0.284970
Si Si8 0.306528 0.174298 0.484625
O O1 0.900049 0.231742 0.719184
O O2 0.001303 0.225537 0.771921
O O3 0.938626 0.000000 0.800753
O O4 0.928737 0.231706 0.899578
O O5 0.796071 0.500000 0.969772
O O6 0.801699 0.279367 0.852451
O O7 0.750000 0.250000 0.000000
O O8 0.851372 0.268252 0.013338
O O9 0.940373 0.806981 0.082250
O O10 0.886369 0.000000 0.981233
O O11 0.202838 0.166513 0.308726
O O12 0.149166 0.271311 0.440754
O O13 0.129489 0.000000 0.381413
O O14 0.895471 0.746852 0.246585
O O15 0.932363 0.000000 0.216311
O O16 0.292174 0.213107 0.221398
O O17 0.227037 0.000000 0.168727
O O18 0.853982 0.500000 0.282899
O O19 0.830928 0.276876 0.387938
O O20 0.250000 0.250000 0.500000
O O21 0.298666 0.000000 0.491318
#
# Coordination Sequence:
#
# PCOD8093623 Si02
#       8
#     8   8   8   8   8   8   8   8
#     4   9  18  36  61  86 116 150 189 236 287 336
#     4  12  24  35  50  78 115 153 193 232 282 339
#     4  10  19  36  59  83 113 149 191 238 286 333
#     4  10  19  36  61  87 114 147 182 230 291 339
#     4  10  21  36  59  88 112 147 198 240 276 332
#     4  10  19  36  58  80 111 149 185 225 287 347
#     4  10  22  39  57  80 116 154 184 228 292 346
#     4  11  22  38  60  87 116 149 191 235 287 346
#
# _framework density 19.226338999999999
#
# number of rings (size 3 to 8) (size 9 to 14) (size 15 to 20)
#    0.000    1.750    2.500    2.625    0.000    6.000 
#    0.000    1.875    0.000    5.250    0.000    0.000 
#    0.000    0.000    0.000    0.000    0.000    0.000 
#
# Total GULP energy -396741.446081 kJ/mol
# GULP energy per Si atom -12398.170190 kJ/mol
# Density = 1.918258 g / cm^3
# Si number density = 19.226339 Si / 1000 Ang^3
#
#
#
# Elastic Constant Matrix: (Units=GPa)
#
#
# Indices 1 2 3 4 5 6 
#
# 1 131.4461 32.0205 39.0059 0.0000 4.3913 0.0000
# 2 32.0205 68.9717 30.4264 0.0000 3.9811 0.0000
# 3 39.0059 30.4264 87.6167 0.0000 6.1315 0.0000
# 4 0.0000 0.0000 0.0000 30.2461 0.0000 0.7155
# 5 4.3913 3.9811 6.1315 0.0000 23.9040 0.0000
# 6 0.0000 0.0000 0.0000 0.7155 0.0000 27.5811
#
#
#
# Elastic Compliance Matrix: (Units=1/GPa)
#
#
# Indices 1 2 3 4 5 6 
#
# 1 0.009243 -0.002910 -0.003075 0.000000 -0.000425 0.000000
# 2 -0.002910 0.018081 -0.004898 0.000000 -0.001220 0.000000
# 3 -0.003075 -0.004898 0.014649 0.000000 -0.002377 0.000000
# 4 0.000000 0.000000 0.000000 0.033082 0.000000 -0.000858
# 5 -0.000425 -0.001220 -0.002377 0.000000 0.042725 0.000000
# 6 0.000000 0.000000 0.000000 -0.000858 0.000000 0.036279
#
#
# Mechanical properties :
#
#
# Convention : Reuss Voigt Hill
#
# Bulk Modulus (GPa) = 49.48562 54.54890 52.01726
# Shear Modulus (GPa) = 27.38806 28.78503 28.08655
#
# Velocity S-wave (km/s) = 3.77836 3.87352 3.82624
# Velocity P-wave (km/s) = 6.69545 6.95982 6.82891
#
# Compressibility (1/GPa) = 0.02020789
#
# Stress axis : x y z
#
# Youngs Moduli (GPa) = 108.18768 55.30682 68.26259
#
# Poissons Ratio (x) = 0.16096 0.20988
# Poissons Ratio (y) = 0.31487 0.33434
# Poissons Ratio (z) = 0.33263 0.27088
#
# Static dielectric constant tensor:
#      x y z
#    x 3.588120 0.000000 0.151560 
#    y 0.000000 3.550080 0.000000 
#    z 0.151560 0.000000 3.720270 
# 
# 
# High freq. dielectric constant tensor:
#      x y z
#    x 1.749090 0.000000 0.006560 
#    y 0.000000 1.723990 0.000000 
#    z 0.006560 0.000000 1.748560 
# 
# From -- ./inp_files/238748.got.cif
#   From: 2010.06.25/outbox.cif.g09.slc.cpg/sg12_120_cif.got.tgz:238748.got - 2010.06.28 00:19:55.
