data_PCOD8093053
_publ_section_title
;
Structure prediction by ZEFSAII (Michael W. Deem and Ramdas Pophale) SiO2 
 PCOD8093053
Probable space group: C 2/M
;
_chemical_formula_sum "Si O2"
_cell_formula_units_Z 48
_cell_length_a 31.877103
_cell_length_b 16.721843
_cell_length_c 15.819936
_cell_angle_alpha 90.000000
_cell_angle_beta 162.667386
_cell_angle_gamma 90.000000
_cell_volume 2512.261746
_symmetry_space_group_name_H-M "C 2/M"
_symmetry_group_IT_number 12
_symmetry_cell_setting 'monoclinic'
loop_
_space_group_symop_operation_xyz
x,y,z
-x,y,-z
-x,-y,-z
x,-y,z
1/2+x,1/2+y,z
1/2-x,1/2+y,-z
1/2-x,1/2-y,-z
1/2+x,1/2-y,z
loop_
_atom_site_type_symbol
_atom_site_label
_atom_site_fract_x
_atom_site_fract_y
_atom_site_fract_z
Si Si1 0.163110 0.911365 0.333129
Si Si2 0.144155 0.792527 0.732910
Si Si3 0.302344 0.907422 0.921375
Si Si4 0.610126 0.647141 0.403246
Si Si5 0.196756 0.091329 0.214321
Si Si6 0.582916 0.805156 0.449559
O O1 0.188327 0.852806 0.461789
O O2 0.233030 0.878994 0.380273
O O3 0.222365 0.000000 0.469161
O O4 0.000000 0.919053 0.000000
O O5 0.217801 0.871990 0.838529
O O6 0.105440 0.730514 0.585148
O O7 0.000000 0.819671 0.500000
O O8 0.250000 0.750000 0.000000
O O9 0.210327 0.898358 0.660771
O O10 0.336276 0.000000 0.004605
O O11 0.444871 0.858705 0.181505
O O12 0.571915 0.736621 0.357594
O O13 0.467567 0.596890 0.123014
O O14 0.280974 0.142328 0.308307
O O15 0.243811 0.000000 0.295661
#
# Coordination Sequence:
#
# PCOD8093053 Si02
#       6
#     8   8   8   8   8   8
#     4   8  15  30  53  81 114 150 194 243 280 320
#     4  11  23  44  66  85 114 152 188 232 288 349
#     4  11  23  39  60  89 120 149 186 237 290 340
#     4  10  19  35  59  84 112 155 200 235 277 332
#     4  10  20  36  58  83 113 155 199 236 280 338
#     4  11  23  38  59  84 120 151 182 235 296 347
#
# _framework density 19.106287999999999
#
# number of rings (size 3 to 8) (size 9 to 14) (size 15 to 20)
#    0.000    1.833    1.667    5.000    2.333    1.000 
#    0.000    5.000    0.000    3.000    0.000    0.000 
#    0.000    0.000    0.000    0.000    0.000    0.000 
#
# Total GULP energy -297544.201958 kJ/mol
# GULP energy per Si atom -12397.675082 kJ/mol
# Density = 1.906280 g / cm^3
# Si number density = 19.106288 Si / 1000 Ang^3
#
#
#
# Elastic Constant Matrix: (Units=GPa)
#
#
# Indices 1 2 3 4 5 6 
#
# 1 101.0555 52.7542 42.3192 0.0000 -11.8196 0.0000
# 2 52.7542 119.2591 35.1562 0.0000 -5.8534 0.0000
# 3 42.3192 35.1562 73.0267 0.0000 -6.1116 0.0000
# 4 0.0000 0.0000 0.0000 39.9407 0.0000 23.2085
# 5 -11.8196 -5.8534 -6.1116 0.0000 31.7942 0.0000
# 6 0.0000 0.0000 0.0000 23.2085 0.0000 50.3597
#
#
#
# Elastic Compliance Matrix: (Units=1/GPa)
#
#
# Indices 1 2 3 4 5 6 
#
# 1 0.015492 -0.004798 -0.006362 0.000000 0.003653 0.000000
# 2 -0.004798 0.011284 -0.002670 0.000000 -0.000220 0.000000
# 3 -0.006362 -0.002670 0.018728 0.000000 0.000743 0.000000
# 4 0.000000 0.000000 0.000000 0.034194 0.000000 -0.015758
# 5 0.003653 -0.000220 0.000743 0.000000 0.032913 0.000000
# 6 0.000000 0.000000 0.000000 -0.015758 0.000000 0.027119
#
#
# Mechanical properties :
#
#
# Convention : Reuss Voigt Hill
#
# Bulk Modulus (GPa) = 56.04314 61.53341 58.78827
# Shear Modulus (GPa) = 28.84541 35.29303 32.06922
#
# Velocity S-wave (km/s) = 3.88974 4.30256 4.10135
# Velocity P-wave (km/s) = 7.04056 7.54708 7.29822
#
# Compressibility (1/GPa) = 0.01784340
#
# Stress axis : x y z
#
# Youngs Moduli (GPa) = 64.55061 88.62216 53.39591
#
# Poissons Ratio (x) = 0.42521 0.33970
# Poissons Ratio (y) = 0.30972 0.14257
# Poissons Ratio (z) = 0.41067 0.23663
#
# Static dielectric constant tensor:
#      x y z
#    x 3.926890 0.000000 -0.015300 
#    y 0.000000 3.453590 0.000000 
#    z -0.015300 0.000000 3.355060 
# 
# 
# High freq. dielectric constant tensor:
#      x y z
#    x 1.756200 0.000000 -0.002090 
#    y 0.000000 1.737110 0.000000 
#    z -0.002090 0.000000 1.732620 
# 
# From -- ./inp_files/195960.got.cif
#   From: 2010.06.25/outbox.cif.g09.slc.cpg/sg12_98_cif.got.tgz:195960.got - 2010.06.28 00:19:55.
