data_PCOD8093894
_publ_section_title
;
Structure prediction by ZEFSAII (Michael W. Deem and Ramdas Pophale) SiO2 
 PCOD8093894
Probable space group: C 2/M
;
_chemical_formula_sum "Si O2"
_cell_formula_units_Z 56
_cell_length_a 9.742606
_cell_length_b 16.228485
_cell_length_c 29.876866
_cell_angle_alpha 90.000000
_cell_angle_beta 144.385504
_cell_angle_gamma 90.000000
_cell_volume 2750.782980
_symmetry_space_group_name_H-M "C 2/M"
_symmetry_group_IT_number 12
_symmetry_cell_setting 'monoclinic'
loop_
_space_group_symop_operation_xyz
x,y,z
-x,y,-z
-x,-y,-z
x,-y,z
1/2+x,1/2+y,z
1/2-x,1/2+y,-z
1/2-x,1/2-y,-z
1/2+x,1/2-y,z
loop_
_atom_site_type_symbol
_atom_site_label
_atom_site_fract_x
_atom_site_fract_y
_atom_site_fract_z
Si Si1 0.537373 0.169016 0.059473
Si Si2 0.487929 0.247846 0.447175
Si Si3 0.953451 0.860238 0.035940
Si Si4 0.949300 0.837687 0.774206
Si Si5 0.729268 0.089155 0.799663
Si Si6 0.737866 0.835118 0.301411
Si Si7 0.344138 0.597346 0.650749
O O1 0.541948 0.267053 0.060533
O O2 0.782903 0.137963 0.144281
O O3 0.500000 0.133841 0.000000
O O4 0.327579 0.133284 0.033592
O O5 0.500000 0.285481 0.500000
O O6 0.343015 0.309397 0.377234
O O7 0.381378 0.154646 0.420876
O O8 0.750000 0.250000 0.500000
O O9 0.092047 0.906148 0.111499
O O10 0.000000 0.901104 0.000000
O O11 0.786487 0.849566 0.774531
O O12 0.911404 0.741561 0.756363
O O13 0.882896 0.893247 0.714072
O O14 0.458726 0.095703 0.743777
O O15 0.761902 0.000000 0.786910
O O16 0.934425 0.868209 0.319093
O O17 0.298440 0.500000 0.627788
#
# Coordination Sequence:
#
# PCOD8093894 Si02
#       7
#     8   8   8   8   8   8   8
#     4  10  19  36  60  87 114 161 225 273 305 367
#     4  11  23  46  73 101 128 166 213 257 301 374
#     4  10  22  35  58  87 120 161 218 273 321 368
#     4  11  22  40  66  92 122 171 225 263 309 381
#     4  12  25  41  60  92 134 167 206 269 331 376
#     4  11  24  42  69  95 127 169 216 253 307 384
#     4  11  25  43  66  99 135 169 205 258 320 379
#
# _framework density 20.357838999999998
#
# number of rings (size 3 to 8) (size 9 to 14) (size 15 to 20)
#    0.000    1.143    4.286    2.571    4.000    0.571 
#    0.000    2.143    0.000    2.143    0.000    0.000 
#    0.000    0.000    0.000    0.000    0.000    0.000 
#
# Total GULP energy -347111.868887 kJ/mol
# GULP energy per Si atom -12396.852460 kJ/mol
# Density = 2.031150 g / cm^3
# Si number density = 20.357839 Si / 1000 Ang^3
#
#
#
# Elastic Constant Matrix: (Units=GPa)
#
#
# Indices 1 2 3 4 5 6 
#
# 1 142.9674 21.0488 51.5927 0.0002 -3.0185 -0.0002
# 2 21.0488 61.3632 24.3379 0.0000 -0.3855 0.0001
# 3 51.5927 24.3379 118.0780 0.0008 1.1420 -0.0015
# 4 0.0002 0.0000 0.0008 -0.2301 0.0003 33.6362
# 5 -3.0185 -0.3855 1.1420 0.0003 45.8966 -0.0004
# 6 -0.0002 0.0001 -0.0015 33.6362 -0.0004 -56.1014
#
#
#
# Elastic Compliance Matrix: (Units=1/GPa)
#
#
# Indices 1 2 3 4 5 6 
#
# 1 0.008457 -0.001556 -0.003380 0.000000 0.000627 0.000000
# 2 -0.001556 0.018036 -0.003039 0.000000 0.000125 0.000000
# 3 -0.003380 -0.003039 0.010577 0.000000 -0.000511 0.000000
# 4 0.000000 0.000000 0.000000 0.050158 0.000000 0.030073
# 5 0.000627 0.000125 -0.000511 0.000000 0.021843 0.000000
# 6 0.000000 0.000000 0.000000 0.030073 0.000000 0.000206
#
#
# Mechanical properties :
#
#
# Convention : Reuss Voigt Hill
#
# Bulk Modulus (GPa) = 47.34954 57.37416 52.36185
# Shear Modulus (GPa) = 37.80194 12.94165 25.37179
#
# Velocity S-wave (km/s) = 4.31382 2.52406 3.53411
# Velocity P-wave (km/s) = 6.93694 6.06123 6.51382
#
# Compressibility (1/GPa) = 0.02111953
#
# Stress axis : x y z
#
# Youngs Moduli (GPa) = 118.24730 55.44388 94.54195
#
# Poissons Ratio (x) = 0.08628 0.31959
# Poissons Ratio (y) = 0.18401 0.28730
# Poissons Ratio (z) = 0.39973 0.16849
#
# Static dielectric constant tensor:
#      x y z
#    x 3.856070 0.000000 -0.050240 
#    y 0.000000 3.476410 0.000000 
#    z -0.050240 0.000000 3.802370 
# 
# 
# High freq. dielectric constant tensor:
#      x y z
#    x 1.815070 0.000000 -0.000840 
#    y 0.000000 1.771840 0.000000 
#    z -0.000840 0.000000 1.804400 
# 
# From -- ./inp_files/372819.got.cif
#   From: 2010.06.25/outbox.cif.g09.slc.cpg/sg12_187_cif.got.tgz:372819.got - 2010.06.28 00:19:55.
