data_PCOD8093023
_publ_section_title
;
Structure prediction by ZEFSAII (Michael W. Deem and Ramdas Pophale) SiO2 
 PCOD8093023
Probable space group: C 2/M
;
_chemical_formula_sum "Si O2"
_cell_formula_units_Z 56
_cell_length_a 20.508359
_cell_length_b 8.812021
_cell_length_c 17.707310
_cell_angle_alpha 90.000000
_cell_angle_beta 63.493860
_cell_angle_gamma 90.000000
_cell_volume 2863.696583
_symmetry_space_group_name_H-M "C 2/M"
_symmetry_group_IT_number 12
_symmetry_cell_setting 'monoclinic'
loop_
_space_group_symop_operation_xyz
x,y,z
-x,y,-z
-x,-y,-z
x,-y,z
1/2+x,1/2+y,z
1/2-x,1/2+y,-z
1/2-x,1/2-y,-z
1/2+x,1/2-y,z
loop_
_atom_site_type_symbol
_atom_site_label
_atom_site_fract_x
_atom_site_fract_y
_atom_site_fract_z
Si Si1 0.159835 0.825292 0.752792
Si Si2 0.686068 0.679193 0.308938
Si Si3 0.170889 0.320881 0.031736
Si Si4 0.404055 0.319715 0.788197
Si Si5 0.582627 0.325272 0.947811
Si Si6 0.077087 0.180949 0.490403
Si Si7 0.565137 0.680277 0.664321
O O1 0.231530 0.730979 0.731664
O O2 0.103084 0.805008 0.849967
O O3 0.121938 0.758777 0.697086
O O4 0.182042 0.000000 0.731014
O O5 0.682483 0.500000 0.313869
O O6 0.650217 0.735584 0.249621
O O7 0.641222 0.745207 0.403741
O O8 0.178814 0.500000 0.032160
O O9 0.117316 0.261501 0.123805
O O10 0.250000 0.250000 0.000000
O O11 0.137354 0.275533 0.968613
O O12 0.400978 0.500000 0.801613
O O13 0.484278 0.261879 0.724888
O O14 0.589553 0.500000 0.970419
O O15 0.500000 0.267409 0.000000
O O16 0.089621 0.240473 0.569292
O O17 0.000000 0.243014 0.500000
O O18 0.075943 0.000000 0.489658
O O19 0.563948 0.500000 0.666610
#
# Coordination Sequence:
#
# PCOD8093023 Si02
#       7
#     8   8   8   8   8   8   8
#     4  10  21  35  53  80 113 148 180 220 276 336
#     4  10  20  33  55  84 112 144 183 231 277 323
#     4  12  25  39  57  83 114 148 189 237 288 340
#     4  10  19  35  59  83 106 139 187 237 282 327
#     4  10  21  40  63  84 111 150 194 236 284 342
#     4   9  15  29  54  85 111 137 182 234 272 311
#     4   9  17  32  56  82 109 142 185 227 267 324
#
# _framework density 19.555145
#
# number of rings (size 3 to 8) (size 9 to 14) (size 15 to 20)
#    0.000    2.000    1.429    3.000    0.000    6.571 
#    0.000    2.143    0.000    1.286    0.000    0.000 
#    0.000    0.000    0.000    0.000    0.000    0.000 
#
# Total GULP energy -347256.333660 kJ/mol
# GULP energy per Si atom -12402.011916 kJ/mol
# Density = 1.951064 g / cm^3
# Si number density = 19.555145 Si / 1000 Ang^3
#
#
#
# Elastic Constant Matrix: (Units=GPa)
#
#
# Indices 1 2 3 4 5 6 
#
# 1 108.8577 9.9554 16.8588 0.0001 11.1609 -0.0001
# 2 9.9554 35.3261 12.2386 0.0002 5.3256 0.0000
# 3 16.8588 12.2386 89.3085 0.0000 11.6517 -0.0002
# 4 0.0001 0.0002 0.0000 14.0225 0.0000 1.6420
# 5 11.1609 5.3256 11.6517 0.0000 41.3766 0.0000
# 6 -0.0001 0.0000 -0.0002 1.6420 0.0000 24.5469
#
#
#
# Elastic Compliance Matrix: (Units=1/GPa)
#
#
# Indices 1 2 3 4 5 6 
#
# 1 0.009778 -0.001999 -0.001309 0.000000 -0.002012 0.000000
# 2 -0.001999 0.030438 -0.003481 0.000000 -0.002398 0.000000
# 3 -0.001309 -0.003481 0.012268 0.000000 -0.002653 0.000000
# 4 0.000000 0.000000 0.000000 0.071877 0.000000 -0.004808
# 5 -0.002012 -0.002398 -0.002653 0.000000 0.025767 0.000000
# 6 0.000000 0.000000 0.000000 -0.004808 0.000000 0.041060
#
#
# Mechanical properties :
#
#
# Convention : Reuss Voigt Hill
#
# Bulk Modulus (GPa) = 25.70313 34.62198 30.16255
# Shear Modulus (GPa) = 22.96373 28.95184 25.95779
#
# Velocity S-wave (km/s) = 3.43053 3.85193 3.64732
# Velocity P-wave (km/s) = 5.37251 6.12588 5.76152
#
# Compressibility (1/GPa) = 0.03890577
#
# Stress axis : x y z
#
# Youngs Moduli (GPa) = 102.26902 32.85314 81.51600
#
# Poissons Ratio (x) = 0.06566 0.10674
# Poissons Ratio (y) = 0.20441 0.28376
# Poissons Ratio (z) = 0.13392 0.11436
#
# Static dielectric constant tensor:
#      x y z
#    x 3.659720 0.000000 0.108070 
#    y 0.000000 3.157380 0.000000 
#    z 0.108070 0.000000 3.895660 
# 
# 
# High freq. dielectric constant tensor:
#      x y z
#    x 1.771710 0.000000 0.003140 
#    y 0.000000 1.716670 0.000000 
#    z 0.003140 0.000000 1.780840 
# 
# From -- ./inp_files/275286.got.cif
#   From: 2010.06.25/outbox.cif.g09.slc.cpg/sg12_138_cif.got.tgz:275286.got - 2010.06.28 00:19:55.
