data_PCOD8093694
_publ_section_title
;
Structure prediction by ZEFSAII (Michael W. Deem and Ramdas Pophale) SiO2 
 PCOD8093694
Probable space group: C 2/M
;
_chemical_formula_sum "Si O2"
_cell_formula_units_Z 56
_cell_length_a 19.995086
_cell_length_b 9.136108
_cell_length_c 16.208147
_cell_angle_alpha 90.000000
_cell_angle_beta 88.332397
_cell_angle_gamma 90.000000
_cell_volume 2959.605968
_symmetry_space_group_name_H-M "C 2/M"
_symmetry_group_IT_number 12
_symmetry_cell_setting 'monoclinic'
loop_
_space_group_symop_operation_xyz
x,y,z
-x,y,-z
-x,-y,-z
x,-y,z
1/2+x,1/2+y,z
1/2-x,1/2+y,-z
1/2-x,1/2-y,-z
1/2+x,1/2-y,z
loop_
_atom_site_type_symbol
_atom_site_label
_atom_site_fract_x
_atom_site_fract_y
_atom_site_fract_z
Si Si1 0.515375 0.169215 0.759896
Si Si2 0.878449 0.670507 0.687242
Si Si3 0.439021 0.828172 0.061989
Si Si4 0.761480 0.173562 0.243252
Si Si5 0.301696 0.674872 0.059222
Si Si6 0.381290 0.331121 0.349160
Si Si7 0.573952 0.669010 0.475451
O O1 0.436521 0.199564 0.752009
O O2 0.538919 0.224495 0.848142
O O3 0.552628 0.253821 0.686370
O O4 0.532235 0.000000 0.748472
O O5 0.869928 0.500000 0.668927
O O6 0.810853 0.737461 0.729013
O O7 0.893368 0.744132 0.599869
O O8 0.375397 0.734478 0.035554
O O9 0.421193 0.000000 0.059522
O O10 0.500000 0.790815 0.000000
O O11 0.782145 0.227304 0.151835
O O12 0.815200 0.233936 0.307747
O O13 0.758609 0.000000 0.244738
O O14 0.299705 0.500000 0.049305
O O15 0.250000 0.750000 0.000000
O O16 0.388971 0.500000 0.325522
O O17 0.377465 0.308262 0.447537
O O18 0.500000 0.729120 0.500000
O O19 0.568555 0.500000 0.449761
#
# Coordination Sequence:
#
# PCOD8093694 Si02
#       7
#     8   8   8   8   8   8   8
#     4  10  20  34  56  84 111 144 188 235 278 330
#     4  10  21  36  56  82 112 146 189 231 278 339
#     4  10  22  39  61  88 119 152 191 241 294 344
#     4   9  20  38  59  81 110 150 188 228 282 342
#     4  11  23  40  63  87 118 156 194 236 288 347
#     4  10  19  36  59  79 108 150 189 227 281 339
#     4  10  20  34  54  81 113 146 184 232 285 335
#
# _framework density 18.921437000000001
#
# number of rings (size 3 to 8) (size 9 to 14) (size 15 to 20)
#    0.000    2.000    2.857    0.429    2.000    1.714 
#    0.000    2.143    0.000    0.000    0.000    0.000 
#    0.000    0.000    0.000    0.000    0.000    0.000 
#
# Total GULP energy -347251.025952 kJ/mol
# GULP energy per Si atom -12401.822355 kJ/mol
# Density = 1.887837 g / cm^3
# Si number density = 18.921437 Si / 1000 Ang^3
#
#
#
# Elastic Constant Matrix: (Units=GPa)
#
#
# Indices 1 2 3 4 5 6 
#
# 1 149.5469 45.5249 60.4558 0.0000 2.5218 0.0000
# 2 45.5249 48.0358 35.2935 0.0000 2.2763 0.0000
# 3 60.4558 35.2935 100.4448 0.0000 9.1768 0.0000
# 4 0.0000 0.0000 0.0000 25.5944 0.0000 3.2518
# 5 2.5218 2.2763 9.1768 0.0000 38.2851 0.0000
# 6 0.0000 0.0000 0.0000 3.2518 0.0000 25.0740
#
#
#
# Elastic Compliance Matrix: (Units=1/GPa)
#
#
# Indices 1 2 3 4 5 6 
#
# 1 0.010366 -0.007047 -0.003823 0.000000 0.000652 0.000000
# 2 -0.007047 0.032871 -0.007333 0.000000 0.000268 0.000000
# 3 -0.003823 -0.007333 0.015101 0.000000 -0.002932 0.000000
# 4 0.000000 0.000000 0.000000 0.039726 0.000000 -0.005152
# 5 0.000652 0.000268 -0.002932 0.000000 0.026764 0.000000
# 6 0.000000 0.000000 0.000000 -0.005152 0.000000 0.040550
#
#
# Mechanical properties :
#
#
# Convention : Reuss Voigt Hill
#
# Bulk Modulus (GPa) = 45.59272 64.50843 55.05057
# Shear Modulus (GPa) = 23.91249 28.24092 26.07671
#
# Velocity S-wave (km/s) = 3.55882 3.86753 3.71638
# Velocity P-wave (km/s) = 6.40586 7.35598 6.89730
#
# Compressibility (1/GPa) = 0.02193333
#
# Stress axis : x y z
#
# Youngs Moduli (GPa) = 96.46463 30.42150 66.21950
#
# Poissons Ratio (x) = 0.21437 0.25316
# Poissons Ratio (y) = 0.67975 0.48561
# Poissons Ratio (z) = 0.36879 0.22309
#
# Static dielectric constant tensor:
#      x y z
#    x 3.713530 0.000000 0.113740 
#    y 0.000000 3.252480 0.000000 
#    z 0.113740 0.000000 3.568390 
# 
# 
# High freq. dielectric constant tensor:
#      x y z
#    x 1.744560 0.000000 0.009510 
#    y 0.000000 1.713340 0.000000 
#    z 0.009510 0.000000 1.743310 
# 
# From -- ./inp_files/231016.got.cif
#   From: 2010.06.25/outbox.cif.g09.slc.cpg/sg12_116_cif.got.tgz:231016.got - 2010.06.28 00:19:55.
