data_PCOD8093343
_publ_section_title
;
Structure prediction by ZEFSAII (Michael W. Deem and Ramdas Pophale) SiO2 
 PCOD8093343
Probable space group: C 2/M
;
_chemical_formula_sum "Si O2"
_cell_formula_units_Z 64
_cell_length_a 28.434141
_cell_length_b 9.008791
_cell_length_c 19.643805
_cell_angle_alpha 90.000000
_cell_angle_beta 39.457773
_cell_angle_gamma 90.000000
_cell_volume 3197.821294
_symmetry_space_group_name_H-M "C 2/M"
_symmetry_group_IT_number 12
_symmetry_cell_setting 'monoclinic'
loop_
_space_group_symop_operation_xyz
x,y,z
-x,y,-z
-x,-y,-z
x,-y,z
1/2+x,1/2+y,z
1/2-x,1/2+y,-z
1/2-x,1/2-y,-z
1/2+x,1/2-y,z
loop_
_atom_site_type_symbol
_atom_site_label
_atom_site_fract_x
_atom_site_fract_y
_atom_site_fract_z
Si Si1 0.712973 0.167507 0.979878
Si Si2 0.940321 0.324742 0.369283
Si Si3 0.782675 0.823025 0.530986
Si Si4 0.781918 0.171573 0.268889
Si Si5 0.700543 0.170790 0.226293
Si Si6 0.464055 0.176469 0.608938
Si Si7 0.567404 0.324709 0.968824
Si Si8 0.449986 0.166981 0.871880
O O1 0.735546 0.239520 0.883162
O O2 0.741341 0.000000 0.948581
O O3 0.750000 0.250000 0.000000
O O4 0.625000 0.177002 0.088112
O O5 0.923302 0.500000 0.394715
O O6 0.865087 0.233530 0.452942
O O7 0.989988 0.268602 0.377122
O O8 0.982898 0.286858 0.252093
O O9 0.750000 0.750000 0.500000
O O10 0.731311 0.774098 0.651172
O O11 0.781644 0.000000 0.524883
O O12 0.713314 0.187553 0.293070
O O13 0.855862 0.231922 0.149283
O O14 0.790334 0.000000 0.282645
O O15 0.620456 0.234422 0.294308
O O16 0.708573 0.000000 0.195314
O O17 0.500000 0.241385 0.500000
O O18 0.463008 0.000000 0.607328
O O19 0.567948 0.500000 0.968626
O O20 0.500000 0.260341 0.000000
O O21 0.554727 0.275600 0.059790
O O22 0.461319 0.000000 0.886460
#
# Coordination Sequence:
#
# PCOD8093343 Si02
#       8
#     8   8   8   8   8   8   8   8
#     4  11  22  36  56  85 122 162 204 248 297 355
#     4  10  21  40  62  89 124 160 206 255 303 360
#     4  12  27  45  66  91 121 159 204 255 310 365
#     4  10  21  40  65  93 127 163 202 251 305 365
#     4  10  19  35  61  90 120 158 202 245 298 359
#     4   9  17  32  59  89 118 159 206 249 294 355
#     4  10  22  39  62  93 124 158 200 252 306 362
#     4  10  22  39  60  88 124 164 204 251 303 363
#
# _framework density 20.013627
#
# number of rings (size 3 to 8) (size 9 to 14) (size 15 to 20)
#    0.000    1.750    1.250    3.000    1.750    6.250 
#    0.000    1.875    0.000    1.500    0.000    0.000 
#    0.000    0.000    0.000    0.000    0.000    0.000 
#
# Total GULP energy -396872.269708 kJ/mol
# GULP energy per Si atom -12402.258428 kJ/mol
# Density = 1.996808 g / cm^3
# Si number density = 20.013627 Si / 1000 Ang^3
#
#
#
# Elastic Constant Matrix: (Units=GPa)
#
#
# Indices 1 2 3 4 5 6 
#
# 1 130.3124 40.2017 49.1677 -0.0093 1.2966 0.0092
# 2 40.2017 75.3965 39.8110 -0.0296 6.0563 0.0272
# 3 49.1677 39.8110 119.9117 -0.0136 5.6147 0.0142
# 4 -0.0093 -0.0296 -0.0136 31.2761 0.0076 2.6542
# 5 1.2966 6.0563 5.6147 0.0076 34.7266 -0.0067
# 6 0.0092 0.0272 0.0142 2.6542 -0.0067 26.6493
#
#
#
# Elastic Compliance Matrix: (Units=1/GPa)
#
#
# Indices 1 2 3 4 5 6 
#
# 1 0.009922 -0.003862 -0.002822 -0.000002 0.000759 0.000002
# 2 -0.003862 0.017718 -0.004193 0.000016 -0.002268 -0.000017
# 3 -0.002822 -0.004193 0.010932 0.000000 -0.000931 -0.000001
# 4 -0.000002 0.000016 0.000000 0.032246 -0.000010 -0.003212
# 5 0.000759 -0.002268 -0.000931 -0.000010 0.029314 0.000011
# 6 0.000002 -0.000017 -0.000001 -0.003212 0.000011 0.037844
#
#
# Mechanical properties :
#
#
# Convention : Reuss Voigt Hill
#
# Bulk Modulus (GPa) = 59.45331 64.88683 62.17007
# Shear Modulus (GPa) = 30.24127 31.62642 30.93384
#
# Velocity S-wave (km/s) = 3.89142 3.97954 3.93573
# Velocity P-wave (km/s) = 7.06836 7.32171 7.19615
#
# Compressibility (1/GPa) = 0.01681992
#
# Stress axis : x y z
#
# Youngs Moduli (GPa) = 100.78234 56.43857 91.47247
#
# Poissons Ratio (x) = 0.21794 0.25814
# Poissons Ratio (y) = 0.38918 0.38354
# Poissons Ratio (z) = 0.28441 0.23665
#
# Static dielectric constant tensor:
#      x y z
#    x 3.802950 -0.000020 -0.109890 
#    y -0.000020 3.484760 0.000060 
#    z -0.109890 0.000060 4.088110 
# 
# 
# High freq. dielectric constant tensor:
#      x y z
#    x 1.793470 0.000000 -0.001580 
#    y 0.000000 1.754780 0.000000 
#    z -0.001580 0.000000 1.792320 
# 
# From -- ./inp_files/295557.got.cif
#   From: 2010.06.25/outbox.cif.g09.slc.cpg/sg12_148_cif.got.tgz:295557.got - 2010.06.28 00:19:55.
