data_PCOD8093653
_publ_section_title
;
Structure prediction by ZEFSAII (Michael W. Deem and Ramdas Pophale) SiO2 
 PCOD8093653
Probable space group: C 2/M
;
_chemical_formula_sum "Si O2"
_cell_formula_units_Z 64
_cell_length_a 10.601732
_cell_length_b 18.202582
_cell_length_c 28.423512
_cell_angle_alpha 90.000000
_cell_angle_beta 143.683348
_cell_angle_gamma 90.000000
_cell_volume 3248.558604
_symmetry_space_group_name_H-M "C 2/M"
_symmetry_group_IT_number 12
_symmetry_cell_setting 'monoclinic'
loop_
_space_group_symop_operation_xyz
x,y,z
-x,y,-z
-x,-y,-z
x,-y,z
1/2+x,1/2+y,z
1/2-x,1/2+y,-z
1/2-x,1/2-y,-z
1/2+x,1/2-y,z
loop_
_atom_site_type_symbol
_atom_site_label
_atom_site_fract_x
_atom_site_fract_y
_atom_site_fract_z
Si Si1 0.471452 0.174629 0.845251
Si Si2 0.157733 0.087166 0.004636
Si Si3 0.502887 0.158991 0.252042
Si Si4 0.774860 0.233879 0.452942
Si Si5 0.471687 0.339129 0.856767
Si Si6 0.841371 0.081428 0.729595
Si Si7 0.974210 0.193980 0.701162
Si Si8 0.636103 0.918816 0.377744
O O1 0.607075 0.121646 0.919563
O O2 0.507749 0.137977 0.805198
O O3 0.567455 0.257047 0.879359
O O4 0.222161 0.173853 0.780949
O O5 0.175642 0.000000 0.008182
O O6 0.077934 0.115957 0.930640
O O7 0.000000 0.111633 0.000000
O O8 0.604008 0.240154 0.287953
O O9 0.635790 0.098560 0.321474
O O10 0.275328 0.167381 0.207292
O O11 0.750000 0.250000 0.500000
O O12 0.589195 0.280531 0.370675
O O13 0.761615 0.145608 0.442220
O O14 0.000000 0.261406 0.500000
O O15 0.498591 0.381119 0.815239
O O16 0.847119 0.123150 0.681246
O O17 0.602009 0.080068 0.675143
O O18 0.928569 0.000000 0.747247
O O19 0.740098 0.000000 0.416682
#
# Coordination Sequence:
#
# PCOD8093653 Si02
#       8
#     8   8   8   8   8   8   8   8
#     4  11  21  36  60  83 114 156 202 251 295 354
#     4  11  23  37  54  82 123 159 199 255 309 354
#     4   9  18  33  58  85 111 150 201 248 288 341
#     4  11  24  40  67  94 124 161 199 249 310 375
#     4  10  19  36  58  84 112 155 206 251 298 348
#     4  10  19  36  61  86 117 159 203 244 297 358
#     4  10  22  37  60  86 120 152 198 245 297 363
#     4   9  20  36  60  88 120 154 194 245 297 358
#
# _framework density 19.701045000000001
#
# number of rings (size 3 to 8) (size 9 to 14) (size 15 to 20)
#    0.000    1.875    2.500    2.250    3.500    1.750 
#    0.000    1.250    0.000    3.750    0.000    0.000 
#    0.000    0.000    0.000    0.000    0.000    0.000 
#
# Total GULP energy -396642.623034 kJ/mol
# GULP energy per Si atom -12395.081970 kJ/mol
# Density = 1.965620 g / cm^3
# Si number density = 19.701045 Si / 1000 Ang^3
#
#
#
# Elastic Constant Matrix: (Units=GPa)
#
#
# Indices 1 2 3 4 5 6 
#
# 1 61.0244 40.8806 20.7884 0.0001 -14.2524 0.0001
# 2 40.8806 128.0377 41.2511 0.0002 -11.3830 0.0001
# 3 20.7884 41.2511 81.2348 0.0001 -12.2026 0.0001
# 4 0.0001 0.0002 0.0001 30.0309 -0.0001 -1.0184
# 5 -14.2524 -11.3830 -12.2026 -0.0001 31.9347 0.0000
# 6 0.0001 0.0001 0.0001 -1.0184 0.0000 25.3406
#
#
#
# Elastic Compliance Matrix: (Units=1/GPa)
#
#
# Indices 1 2 3 4 5 6 
#
# 1 0.022732 -0.006081 -0.001624 0.000000 0.007357 0.000000
# 2 -0.006081 0.011043 -0.004103 0.000000 -0.000346 0.000000
# 3 -0.001624 -0.004103 0.015363 0.000000 0.003683 0.000000
# 4 0.000000 0.000000 0.000000 0.033344 0.000000 0.001340
# 5 0.007357 -0.000346 0.003683 0.000000 0.035881 0.000000
# 6 0.000000 0.000000 0.000000 0.001340 0.000000 0.039516
#
#
# Mechanical properties :
#
#
# Convention : Reuss Voigt Hill
#
# Bulk Modulus (GPa) = 39.18388 52.90410 46.04399
# Shear Modulus (GPa) = 26.31533 28.61969 27.46751
#
# Velocity S-wave (km/s) = 3.65873 3.81556 3.73797
# Velocity P-wave (km/s) = 6.14661 6.80611 6.48475
#
# Compressibility (1/GPa) = 0.02552070
#
# Stress axis : x y z
#
# Youngs Moduli (GPa) = 43.99105 90.55534 65.09315
#
# Poissons Ratio (x) = 0.55063 0.10573
# Poissons Ratio (y) = 0.26749 0.26711
# Poissons Ratio (z) = 0.07146 0.37159
#
# Static dielectric constant tensor:
#      x y z
#    x 3.393490 0.000000 -0.102330 
#    y 0.000000 3.822650 0.000000 
#    z -0.102330 0.000000 3.571720 
# 
# 
# High freq. dielectric constant tensor:
#      x y z
#    x 1.753590 0.000000 -0.009990 
#    y 0.000000 1.770050 0.000000 
#    z -0.009990 0.000000 1.759820 
# 
# From -- ./inp_files/306219.got.cif
#   From: 2010.06.25/outbox.cif.g09.slc.cpg/sg12_154_cif.got.tgz:306219.got - 2010.06.28 00:19:55.
