data_PCOD8093109
_publ_section_title
;
Structure prediction by ZEFSAII (Michael W. Deem and Ramdas Pophale) SiO2 
 PCOD8093109
Probable space group: C 2/M
;
_chemical_formula_sum "Si O2"
_cell_formula_units_Z 64
_cell_length_a 15.218257
_cell_length_b 8.793228
_cell_length_c 24.186934
_cell_angle_alpha 90.000000
_cell_angle_beta 89.163335
_cell_angle_gamma 90.000000
_cell_volume 3236.292470
_symmetry_space_group_name_H-M "C 2/M"
_symmetry_group_IT_number 12
_symmetry_cell_setting 'monoclinic'
loop_
_space_group_symop_operation_xyz
x,y,z
-x,y,-z
-x,-y,-z
x,-y,z
1/2+x,1/2+y,z
1/2-x,1/2+y,-z
1/2-x,1/2-y,-z
1/2+x,1/2-y,z
loop_
_atom_site_type_symbol
_atom_site_label
_atom_site_fract_x
_atom_site_fract_y
_atom_site_fract_z
Si Si1 0.489905 0.819444 0.938607
Si Si2 0.637042 0.323492 0.862530
Si Si3 0.832504 0.323233 0.868409
Si Si4 0.401461 0.825892 0.249871
Si Si5 0.759683 0.681049 0.439900
Si Si6 0.592922 0.680907 0.635205
Si Si7 0.108512 0.327471 0.247641
Si Si8 0.393007 0.678722 0.639660
O O1 0.570235 0.770278 0.899892
O O2 0.399127 0.754365 0.913404
O O3 0.489466 0.000000 0.941496
O O4 0.500000 0.750185 0.000000
O O5 0.610422 0.500000 0.861841
O O6 0.732914 0.297941 0.888982
O O7 0.643255 0.261792 0.800283
O O8 0.855877 0.500000 0.861615
O O9 0.848665 0.251281 0.807422
O O10 0.372599 0.742852 0.306406
O O11 0.504896 0.815937 0.240530
O O12 0.368908 0.000000 0.252003
O O13 0.765405 0.500000 0.442500
O O14 0.750000 0.750000 0.500000
O O15 0.848926 0.746048 0.413254
O O16 0.674494 0.736806 0.406182
O O17 0.601335 0.500000 0.633773
O O18 0.492165 0.735592 0.625805
O O19 0.139783 0.500000 0.255754
O O20 0.140808 0.237174 0.300913
O O21 0.392740 0.500000 0.642598
#
# Coordination Sequence:
#
# PCOD8093109 Si02
#       8
#     8   8   8   8   8   8   8   8
#     4  10  21  41  64  81 109 156 201 238 284 346
#     4  11  22  35  56  86 119 151 188 239 294 343
#     4   9  19  36  55  83 116 151 189 233 289 346
#     4  10  19  35  59  86 118 153 193 237 283 346
#     4  11  24  42  61  86 118 156 198 242 287 343
#     4  10  21  39  61  87 118 154 193 239 294 345
#     4   9  17  33  58  82 113 151 189 231 284 345
#     4   9  21  39  58  84 118 151 191 238 288 340
#
# _framework density 19.775715000000002
#
# number of rings (size 3 to 8) (size 9 to 14) (size 15 to 20)
#    0.000    2.125    1.250    1.500    1.750    3.250 
#    0.000    4.375    0.000    0.000    0.000    0.000 
#    0.000    0.000    0.000    0.000    0.000    0.000 
#
# Total GULP energy -396818.643950 kJ/mol
# GULP energy per Si atom -12400.582623 kJ/mol
# Density = 1.973070 g / cm^3
# Si number density = 19.775715 Si / 1000 Ang^3
#
#
#
# Elastic Constant Matrix: (Units=GPa)
#
#
# Indices 1 2 3 4 5 6 
#
# 1 86.4900 15.4227 48.1848 0.0000 18.5645 0.0000
# 2 15.4227 24.1900 12.6596 0.0000 8.2671 0.0000
# 3 48.1848 12.6596 127.2265 0.0000 22.9561 0.0000
# 4 0.0000 0.0000 0.0000 28.6071 0.0000 -3.1963
# 5 18.5645 8.2671 22.9561 0.0000 26.3139 0.0000
# 6 0.0000 0.0000 0.0000 -3.1963 0.0000 25.5280
#
#
#
# Elastic Compliance Matrix: (Units=1/GPa)
#
#
# Indices 1 2 3 4 5 6 
#
# 1 0.016428 -0.006138 -0.004590 0.000000 -0.005657 0.000000
# 2 -0.006138 0.049207 -0.000669 0.000000 -0.010545 0.000000
# 3 -0.004590 -0.000669 0.010732 0.000000 -0.005914 0.000000
# 4 0.000000 0.000000 0.000000 0.035452 0.000000 0.004439
# 5 -0.005657 -0.010545 -0.005914 0.000000 0.050466 0.000000
# 6 0.000000 0.000000 0.000000 0.004439 0.000000 0.039728
#
#
# Mechanical properties :
#
#
# Convention : Reuss Voigt Hill
#
# Bulk Modulus (GPa) = 18.66635 43.38230 31.02432
# Shear Modulus (GPa) = 20.60437 26.86576 23.73506
#
# Velocity S-wave (km/s) = 3.23135 3.68981 3.46817
# Velocity P-wave (km/s) = 4.83546 6.33544 5.63558
#
# Compressibility (1/GPa) = 0.05357235
#
# Stress axis : x y z
#
# Youngs Moduli (GPa) = 60.87083 20.32228 93.17779
#
# Poissons Ratio (x) = 0.12475 0.42772
# Poissons Ratio (y) = 0.37365 0.06231
# Poissons Ratio (z) = 0.27942 0.01359
#
# Static dielectric constant tensor:
#      x y z
#    x 3.734100 0.000000 0.160060 
#    y 0.000000 3.467080 0.000000 
#    z 0.160060 0.000000 3.753090 
# 
# 
# High freq. dielectric constant tensor:
#      x y z
#    x 1.777700 0.000000 0.002450 
#    y 0.000000 1.756610 0.000000 
#    z 0.002450 0.000000 1.772150 
# 
# From -- ./inp_files/338807.got.cif
#   From: 2010.06.25/outbox.cif.g09.slc.cpg/sg12_170_cif.got.tgz:338807.got - 2010.06.28 00:19:55.
