data_PCOD8093160
_publ_section_title
;
Structure prediction by ZEFSAII (Michael W. Deem and Ramdas Pophale) SiO2 
 PCOD8093160
Probable space group: C 2/M
;
_chemical_formula_sum "Si O2"
_cell_formula_units_Z 56
_cell_length_a 17.372598
_cell_length_b 17.631912
_cell_length_c 14.461890
_cell_angle_alpha 90.000000
_cell_angle_beta 140.791705
_cell_angle_gamma 90.000000
_cell_volume 2800.293347
_symmetry_space_group_name_H-M "C 2/M"
_symmetry_group_IT_number 12
_symmetry_cell_setting 'monoclinic'
loop_
_space_group_symop_operation_xyz
x,y,z
-x,y,-z
-x,-y,-z
x,-y,z
1/2+x,1/2+y,z
1/2-x,1/2+y,-z
1/2-x,1/2-y,-z
1/2+x,1/2-y,z
loop_
_atom_site_type_symbol
_atom_site_label
_atom_site_fract_x
_atom_site_fract_y
_atom_site_fract_z
Si Si1 0.537765 0.587022 0.751364
Si Si2 0.871173 0.697282 0.850313
Si Si3 0.698218 0.279449 0.857628
Si Si4 0.964985 0.283804 0.567718
Si Si5 0.068527 0.139543 0.156627
Si Si6 0.301582 0.649409 0.459773
Si Si7 0.306024 0.086994 0.457008
O O1 0.576677 0.500000 0.794925
O O2 0.651071 0.633658 0.815604
O O3 0.511839 0.621280 0.828424
O O4 0.419758 0.593933 0.573517
O O5 0.799539 0.727310 0.873065
O O6 0.904066 0.770720 0.819063
O O7 0.786804 0.639506 0.712149
O O8 0.000000 0.658083 0.000000
O O9 0.586122 0.222095 0.740168
O O10 0.750000 0.250000 0.000000
O O11 0.853940 0.234994 0.507306
O O12 0.923310 0.371402 0.522712
O O13 0.000000 0.251201 0.500000
O O14 0.193754 0.092392 0.281144
O O15 0.000000 0.112773 0.000000
O O16 0.221395 0.631899 0.474277
O O17 0.338031 0.000000 0.507083
#
# Coordination Sequence:
#
# PCOD8093160 Si02
#       7
#     8   8   8   8   8   8   8
#     4  10  23  39  63  93 124 163 204 252 308 359
#     4  11  22  36  63  95 116 153 208 259 302 358
#     4  11  23  40  64  92 122 159 203 258 308 363
#     4  11  21  38  62  89 118 156 209 254 304 356
#     4  10  19  35  59  91 124 156 206 255 303 358
#     4  10  20  38  63  88 118 158 209 251 287 358
#     4  11  23  36  57  89 127 166 200 244 310 374
#
# _framework density 19.997906
#
# number of rings (size 3 to 8) (size 9 to 14) (size 15 to 20)
#    0.000    1.429    2.857    3.857    6.000    1.429 
#    0.000    2.857    0.000    2.143    0.000    0.000 
#    0.000    0.000    0.000    0.000    0.000    0.000 
#
# Total GULP energy -347110.562286 kJ/mol
# GULP energy per Si atom -12396.805796 kJ/mol
# Density = 1.995239 g / cm^3
# Si number density = 19.997906 Si / 1000 Ang^3
#
#
#
# Elastic Constant Matrix: (Units=GPa)
#
#
# Indices 1 2 3 4 5 6 
#
# 1 66.0599 42.8848 44.2271 0.0000 3.2094 0.0000
# 2 42.8848 98.0892 27.3790 0.0000 -3.1955 0.0000
# 3 44.2271 27.3790 162.7350 0.0000 -8.8878 0.0000
# 4 0.0000 0.0000 0.0000 19.7639 0.0000 0.6780
# 5 3.2094 -3.1955 -8.8878 0.0000 30.4836 0.0000
# 6 0.0000 0.0000 0.0000 0.6780 0.0000 15.5897
#
#
#
# Elastic Compliance Matrix: (Units=1/GPa)
#
#
# Indices 1 2 3 4 5 6 
#
# 1 0.025452 -0.009747 -0.005568 0.000000 -0.005325 0.000000
# 2 -0.009747 0.014441 0.000364 0.000000 0.002646 0.000000
# 3 -0.005568 0.000364 0.007755 0.000000 0.002885 0.000000
# 4 0.000000 0.000000 0.000000 0.050673 0.000000 -0.002204
# 5 -0.005325 0.002646 0.002885 0.000000 0.034484 0.000000
# 6 0.000000 0.000000 0.000000 -0.002204 0.000000 0.064241
#
#
# Mechanical properties :
#
#
# Convention : Reuss Voigt Hill
#
# Bulk Modulus (GPa) = 56.35383 61.76289 59.05836
# Shear Modulus (GPa) = 21.47197 27.32699 24.39948
#
# Velocity S-wave (km/s) = 3.28031 3.70062 3.49678
# Velocity P-wave (km/s) = 6.52597 7.01507 6.77493
#
# Compressibility (1/GPa) = 0.01774502
#
# Stress axis : x y z
#
# Youngs Moduli (GPa) = 39.29000 69.24844 128.95605
#
# Poissons Ratio (x) = 0.67495 0.71804
# Poissons Ratio (y) = 0.38295 -0.04693
# Poissons Ratio (z) = 0.21877 -0.02520
#
# Static dielectric constant tensor:
#      x y z
#    x 3.199990 0.000000 -0.277230 
#    y 0.000000 3.419280 0.000000 
#    z -0.277230 0.000000 3.648200 
# 
# 
# High freq. dielectric constant tensor:
#      x y z
#    x 1.779800 0.000000 0.000070 
#    y 0.000000 1.747590 0.000000 
#    z 0.000070 0.000000 1.790910 
# 
# From -- ./inp_files/226594.got.cif
#   From: 2010.06.25/outbox.cif.g09.slc.cpg/sg12_114_cif.got.tgz:226594.got - 2010.06.28 00:19:55.
