data_PCOD8093387
_publ_section_title
;
Structure prediction by ZEFSAII (Michael W. Deem and Ramdas Pophale) SiO2 
 PCOD8093387
Probable space group: C 2/M
;
_chemical_formula_sum "Si O2"
_cell_formula_units_Z 56
_cell_length_a 20.130302
_cell_length_b 8.797009
_cell_length_c 17.581549
_cell_angle_alpha 90.000000
_cell_angle_beta 116.029101
_cell_angle_gamma 90.000000
_cell_volume 2797.660394
_symmetry_space_group_name_H-M "C 2/M"
_symmetry_group_IT_number 12
_symmetry_cell_setting 'monoclinic'
loop_
_space_group_symop_operation_xyz
x,y,z
-x,y,-z
-x,-y,-z
x,-y,z
1/2+x,1/2+y,z
1/2-x,1/2+y,-z
1/2-x,1/2-y,-z
1/2+x,1/2-y,z
loop_
_atom_site_type_symbol
_atom_site_label
_atom_site_fract_x
_atom_site_fract_y
_atom_site_fract_z
Si Si1 0.172568 0.820895 0.664003
Si Si2 0.418506 0.320691 0.966233
Si Si3 0.826203 0.179363 0.064286
Si Si4 0.827622 0.821999 0.777124
Si Si5 0.591087 0.821004 0.756839
Si Si6 0.175565 0.821771 0.493073
Si Si7 0.435142 0.676547 0.691372
O O1 0.253878 0.773825 0.730636
O O2 0.110118 0.737790 0.682162
O O3 0.159080 0.768657 0.570458
O O4 0.162893 0.000000 0.668878
O O5 0.424142 0.500000 0.958357
O O6 0.365554 0.259528 0.872958
O O7 0.500000 0.247462 0.000000
O O8 0.387482 0.275980 0.032793
O O9 0.849788 0.247991 0.156365
O O10 0.817271 0.000000 0.067870
O O11 0.750000 0.250000 0.000000
O O12 0.882200 0.788204 0.735202
O O13 0.807229 0.000000 0.771469
O O14 0.508485 0.774792 0.737813
O O15 0.599630 0.000000 0.764985
O O16 0.250000 0.750000 0.500000
O O17 0.106350 0.772652 0.406441
O O18 0.187945 0.000000 0.494262
O O19 0.457862 0.500000 0.700966
#
# Coordination Sequence:
#
# PCOD8093387 Si02
#       7
#     8   8   8   8   8   8   8
#     4  11  23  39  61  89 122 157 198 250 306 365
#     4   9  18  33  56  85 113 148 194 241 288 347
#     4  11  22  39  63  89 122 161 202 250 305 365
#     4  10  19  35  62  91 119 155 200 245 298 366
#     4  12  26  42  60  86 121 163 211 258 308 361
#     4  10  21  38  63  93 123 158 198 244 302 370
#     4  10  21  39  63  90 123 162 200 247 306 366
#
# _framework density 20.016725000000001
#
# number of rings (size 3 to 8) (size 9 to 14) (size 15 to 20)
#    0.000    1.571    1.429    3.857    0.000    5.714 
#    0.000    3.571    0.000    3.000    0.000    0.000 
#    0.000    0.000    0.000    0.000    0.000    0.000 
#
# Total GULP energy -347332.528284 kJ/mol
# GULP energy per Si atom -12404.733153 kJ/mol
# Density = 1.997117 g / cm^3
# Si number density = 20.016725 Si / 1000 Ang^3
#
#
#
# Elastic Constant Matrix: (Units=GPa)
#
#
# Indices 1 2 3 4 5 6 
#
# 1 73.4880 33.7630 3.6896 0.0000 -1.8739 0.0000
# 2 33.7630 63.2075 21.6107 0.0000 -7.1596 0.0000
# 3 3.6896 21.6107 94.0648 0.0000 -7.1964 0.0000
# 4 0.0000 0.0000 0.0000 26.7924 0.0000 5.0096
# 5 -1.8739 -7.1596 -7.1964 0.0000 35.4007 0.0000
# 6 0.0000 0.0000 0.0000 5.0096 0.0000 34.3877
#
#
#
# Elastic Compliance Matrix: (Units=1/GPa)
#
#
# Indices 1 2 3 4 5 6 
#
# 1 0.018290 -0.010413 0.001613 0.000000 -0.000810 0.000000
# 2 -0.010413 0.023358 -0.004712 0.000000 0.003215 0.000000
# 3 0.001613 -0.004712 0.011767 0.000000 0.001524 0.000000
# 4 0.000000 0.000000 0.000000 0.038369 0.000000 -0.005590
# 5 -0.000810 0.003215 0.001524 0.000000 0.029165 0.000000
# 6 0.000000 0.000000 0.000000 -0.005590 0.000000 0.029894
#
#
# Mechanical properties :
#
#
# Convention : Reuss Voigt Hill
#
# Bulk Modulus (GPa) = 37.89155 38.76522 38.32838
# Shear Modulus (GPa) = 26.78586 30.76262 28.77424
#
# Velocity S-wave (km/s) = 3.66207 3.92452 3.79556
# Velocity P-wave (km/s) = 6.07059 6.32014 6.19662
#
# Compressibility (1/GPa) = 0.02639111
#
# Stress axis : x y z
#
# Youngs Moduli (GPa) = 54.67416 42.81118 84.98429
#
# Poissons Ratio (x) = 0.44580 -0.13708
# Poissons Ratio (y) = 0.56933 0.40045
# Poissons Ratio (z) = -0.08819 0.20173
#
# Static dielectric constant tensor:
#      x y z
#    x 3.944270 0.000000 -0.402310 
#    y 0.000000 3.444280 0.000000 
#    z -0.402310 0.000000 4.331800 
# 
# 
# High freq. dielectric constant tensor:
#      x y z
#    x 1.790720 0.000000 -0.004230 
#    y 0.000000 1.762830 0.000000 
#    z -0.004230 0.000000 1.799230 
# 
# From -- ./inp_files/275521.got.cif
#   From: 2010.06.25/outbox.cif.g09.slc.cpg/sg12_138_cif.got.tgz:275521.got - 2010.06.28 00:19:55.
