data_PCOD8093429
_publ_section_title
;
Structure prediction by ZEFSAII (Michael W. Deem and Ramdas Pophale) SiO2 
 PCOD8093429
Probable space group: C 2/M
;
_chemical_formula_sum "Si O2"
_cell_formula_units_Z 56
_cell_length_a 9.739616
_cell_length_b 15.537315
_cell_length_c 25.452174
_cell_angle_alpha 90.000000
_cell_angle_beta 48.218923
_cell_angle_gamma 90.000000
_cell_volume 2872.133065
_symmetry_space_group_name_H-M "C 2/M"
_symmetry_group_IT_number 12
_symmetry_cell_setting 'monoclinic'
loop_
_space_group_symop_operation_xyz
x,y,z
-x,y,-z
-x,-y,-z
x,-y,z
1/2+x,1/2+y,z
1/2-x,1/2+y,-z
1/2-x,1/2-y,-z
1/2+x,1/2-y,z
loop_
_atom_site_type_symbol
_atom_site_label
_atom_site_fract_x
_atom_site_fract_y
_atom_site_fract_z
Si Si1 0.593031 0.903405 0.851627
Si Si2 0.185095 0.251564 0.758047
Si Si3 0.801075 0.828959 0.524678
Si Si4 0.710627 0.904120 0.447101
Si Si5 0.339788 0.833315 0.001590
Si Si6 0.897030 0.247743 0.338006
Si Si7 0.080086 0.902773 0.152614
O O1 0.576305 0.833771 0.809252
O O2 0.784242 0.888171 0.833127
O O3 0.585095 0.000000 0.830114
O O4 0.422624 0.892917 0.934770
O O5 0.207408 0.260922 0.690069
O O6 0.388657 0.250800 0.729853
O O7 0.087602 0.163337 0.799753
O O8 0.750000 0.750000 0.500000
O O9 0.780053 0.909422 0.490562
O O10 0.656296 0.827045 0.609854
O O11 0.000000 0.822973 0.500000
O O12 0.500000 0.870726 0.500000
O O13 0.835228 0.842809 0.379362
O O14 0.725225 0.000000 0.419763
O O15 0.186877 0.888622 0.070816
O O16 0.500000 0.802355 0.000000
O O17 0.250000 0.750000 0.000000
O O18 0.001687 0.000000 0.172799
#
# Coordination Sequence:
#
# PCOD8093429 Si02
#       7
#     8   8   8   8   8   8   8
#     4  10  21  39  61  87 120 160 206 250 301 360
#     4  12  22  37  59  87 124 168 199 243 298 367
#     4  10  19  37  60  84 112 146 193 246 292 351
#     4  10  21  39  63  89 116 153 202 256 303 352
#     4  10  19  35  65  89 113 151 205 260 302 348
#     4  11  22  36  59  85 120 157 197 237 299 362
#     4  10  21  39  62  88 118 159 209 253 298 356
#
# _framework density 19.497703999999999
#
# number of rings (size 3 to 8) (size 9 to 14) (size 15 to 20)
#    0.000    1.571    2.857    4.714    0.000    3.143 
#    0.000    2.143    0.000    0.857    0.000    0.000 
#    0.000    0.000    0.000    0.000    0.000    0.000 
#
# Total GULP energy -347143.344088 kJ/mol
# GULP energy per Si atom -12397.976575 kJ/mol
# Density = 1.945333 g / cm^3
# Si number density = 19.497704 Si / 1000 Ang^3
#
#
#
# Elastic Constant Matrix: (Units=GPa)
#
#
# Indices 1 2 3 4 5 6 
#
# 1 82.2232 32.6846 28.2157 0.0003 -1.6223 -0.0003
# 2 32.6846 130.3793 51.3119 0.0004 0.5369 -0.0004
# 3 28.2157 51.3119 110.8308 -0.0001 2.8736 -0.0003
# 4 0.0003 0.0004 -0.0001 24.8400 -0.0004 -1.6551
# 5 -1.6223 0.5369 2.8736 -0.0004 35.5345 0.0003
# 6 -0.0003 -0.0004 -0.0003 -1.6551 0.0003 25.3564
#
#
#
# Elastic Compliance Matrix: (Units=1/GPa)
#
#
# Indices 1 2 3 4 5 6 
#
# 1 0.014027 -0.002575 -0.002402 0.000000 0.000874 0.000000
# 2 -0.002575 0.009853 -0.003907 0.000000 0.000050 0.000000
# 3 -0.002402 -0.003907 0.011469 0.000000 -0.000978 0.000000
# 4 0.000000 0.000000 0.000000 0.040434 0.000000 0.002639
# 5 0.000874 0.000050 -0.000978 0.000000 0.028260 0.000000
# 6 0.000000 0.000000 0.000000 0.002639 0.000000 0.039610
#
#
# Mechanical properties :
#
#
# Convention : Reuss Voigt Hill
#
# Bulk Modulus (GPa) = 56.88042 60.87306 58.87674
# Shear Modulus (GPa) = 29.89001 31.22759 30.55880
#
# Velocity S-wave (km/s) = 3.91960 4.00635 3.96321
# Velocity P-wave (km/s) = 7.05128 7.25875 7.15577
#
# Compressibility (1/GPa) = 0.01758074
#
# Stress axis : x y z
#
# Youngs Moduli (GPa) = 71.29162 101.49168 87.19466
#
# Poissons Ratio (x) = 0.26132 0.20941
# Poissons Ratio (y) = 0.18356 0.34071
# Poissons Ratio (z) = 0.17121 0.39658
#
# Static dielectric constant tensor:
#      x y z
#    x 3.682260 0.000000 0.177980 
#    y 0.000000 3.687620 0.000000 
#    z 0.177980 0.000000 3.708890 
# 
# 
# High freq. dielectric constant tensor:
#      x y z
#    x 1.752240 0.000000 0.003170 
#    y 0.000000 1.749570 0.000000 
#    z 0.003170 0.000000 1.768500 
# 
# From -- ./inp_files/333302.got.cif
#   From: 2010.06.25/outbox.cif.g09.slc.cpg/sg12_167_cif.got.tgz:333302.got - 2010.06.28 00:19:55.
