data_PCOD8093339
_publ_section_title
;
Structure prediction by ZEFSAII (Michael W. Deem and Ramdas Pophale) SiO2 
 PCOD8093339
Probable space group: C 2/M
;
_chemical_formula_sum "Si O2"
_cell_formula_units_Z 48
_cell_length_a 15.527699
_cell_length_b 10.337476
_cell_length_c 25.833210
_cell_angle_alpha 90.000000
_cell_angle_beta 145.078602
_cell_angle_gamma 90.000000
_cell_volume 2373.772912
_symmetry_space_group_name_H-M "C 2/M"
_symmetry_group_IT_number 12
_symmetry_cell_setting 'monoclinic'
loop_
_space_group_symop_operation_xyz
x,y,z
-x,y,-z
-x,-y,-z
x,-y,z
1/2+x,1/2+y,z
1/2-x,1/2+y,-z
1/2-x,1/2-y,-z
1/2+x,1/2-y,z
loop_
_atom_site_type_symbol
_atom_site_label
_atom_site_fract_x
_atom_site_fract_y
_atom_site_fract_z
Si Si1 0.622598 0.148715 0.296842
Si Si2 0.570536 0.357398 0.936757
Si Si3 0.817847 0.150333 0.494346
Si Si4 0.331845 0.146294 0.857881
Si Si5 0.151029 0.148926 0.672351
Si Si6 0.824981 0.767206 0.119773
O O1 0.727682 0.169711 0.397652
O O2 0.713618 0.213423 0.293776
O O3 0.461174 0.215827 0.222264
O O4 0.586555 0.000000 0.269200
O O5 0.502352 0.500000 0.914442
O O6 0.459612 0.247051 0.903588
O O7 0.605935 0.351831 0.892847
O O8 0.727571 0.346175 0.045280
O O9 0.750000 0.250000 0.500000
O O10 0.989467 0.200419 0.574426
O O11 0.810352 0.000000 0.509587
O O12 0.184328 0.171775 0.749490
O O13 0.284272 0.156147 0.894489
O O14 0.392836 0.000000 0.878470
O O15 0.152886 0.000000 0.657537
#
# Coordination Sequence:
#
# PCOD8093339 Si02
#       6
#     8   8   8   8   8   8
#     4  10  19  35  61  90 118 156 203 249 300 361
#     4  11  25  42  61  90 126 161 204 257 311 363
#     4  10  20  35  59  88 119 154 198 246 296 358
#     4  11  23  41  65  90 122 163 208 252 301 363
#     4   9  18  35  59  88 118 153 199 246 293 355
#     4  11  23  39  63  90 123 161 204 255 309 362
#
# _framework density 20.220976
#
# number of rings (size 3 to 8) (size 9 to 14) (size 15 to 20)
#    0.000    1.667    1.667    3.000    0.000    8.000 
#    0.000    1.667    0.000    1.000    0.000    0.000 
#    0.000    0.000    0.000    0.000    0.000    0.000 
#
# Total GULP energy -297400.690912 kJ/mol
# GULP energy per Si atom -12391.695455 kJ/mol
# Density = 2.017495 g / cm^3
# Si number density = 20.220976 Si / 1000 Ang^3
#
#
#
# Elastic Constant Matrix: (Units=GPa)
#
#
# Indices 1 2 3 4 5 6 
#
# 1 123.3118 50.0116 30.2865 0.0000 2.4885 0.0000
# 2 50.0116 101.5826 45.8387 0.0000 4.8785 0.0000
# 3 30.2865 45.8387 122.8231 0.0000 2.4931 0.0000
# 4 0.0000 0.0000 0.0000 22.6836 0.0000 6.2831
# 5 2.4885 4.8785 2.4931 0.0000 30.8100 0.0000
# 6 0.0000 0.0000 0.0000 6.2831 0.0000 25.5593
#
#
#
# Elastic Compliance Matrix: (Units=1/GPa)
#
#
# Indices 1 2 3 4 5 6 
#
# 1 0.010193 -0.004670 -0.000770 0.000000 -0.000022 0.000000
# 2 -0.004670 0.014049 -0.004061 0.000000 -0.001519 0.000000
# 3 -0.000770 -0.004061 0.009849 0.000000 -0.000092 0.000000
# 4 0.000000 0.000000 0.000000 0.047306 0.000000 -0.011629
# 5 -0.000022 -0.001519 -0.000092 0.000000 0.032707 0.000000
# 6 0.000000 0.000000 0.000000 -0.011629 0.000000 0.041983
#
#
# Mechanical properties :
#
#
# Convention : Reuss Voigt Hill
#
# Bulk Modulus (GPa) = 66.27204 66.66567 66.46886
# Shear Modulus (GPa) = 27.75969 30.58264 29.17116
#
# Velocity S-wave (km/s) = 3.70917 3.89321 3.80230
# Velocity P-wave (km/s) = 7.15465 7.29723 7.22629
#
# Compressibility (1/GPa) = 0.01508932
#
# Stress axis : x y z
#
# Youngs Moduli (GPa) = 98.10639 71.18191 101.53221
#
# Poissons Ratio (x) = 0.33240 0.07821
# Poissons Ratio (y) = 0.45812 0.41230
# Poissons Ratio (z) = 0.07557 0.28905
#
# Static dielectric constant tensor:
#      x y z
#    x 3.748100 0.000000 0.370260 
#    y 0.000000 3.371660 0.000000 
#    z 0.370260 0.000000 3.347000 
# 
# 
# High freq. dielectric constant tensor:
#      x y z
#    x 1.791980 0.000000 -0.005040 
#    y 0.000000 1.757970 0.000000 
#    z -0.005040 0.000000 1.810630 
# 
# From -- ./inp_files/360969.got.cif
#   From: 2010.06.25/outbox.cif.g09.slc.cpg/sg12_181_cif.got.tgz:360969.got - 2010.06.28 00:19:55.
