data_PCOD8093130
_publ_section_title
;
Structure prediction by ZEFSAII (Michael W. Deem and Ramdas Pophale) SiO2 
 PCOD8093130
Probable space group: C 2/M
;
_chemical_formula_sum "Si O2"
_cell_formula_units_Z 64
_cell_length_a 17.998638
_cell_length_b 20.257180
_cell_length_c 11.876543
_cell_angle_alpha 90.000000
_cell_angle_beta 51.084221
_cell_angle_gamma 90.000000
_cell_volume 3369.205076
_symmetry_space_group_name_H-M "C 2/M"
_symmetry_group_IT_number 12
_symmetry_cell_setting 'monoclinic'
loop_
_space_group_symop_operation_xyz
x,y,z
-x,y,-z
-x,-y,-z
x,-y,z
1/2+x,1/2+y,z
1/2-x,1/2+y,-z
1/2-x,1/2-y,-z
1/2+x,1/2-y,z
loop_
_atom_site_type_symbol
_atom_site_label
_atom_site_fract_x
_atom_site_fract_y
_atom_site_fract_z
Si Si1 0.390636 0.749489 0.335633
Si Si2 0.273388 0.177523 0.825507
Si Si3 0.893808 0.572708 0.581828
Si Si4 0.933258 0.225511 0.963632
Si Si5 0.277221 0.287194 0.652587
Si Si6 0.878853 0.636403 0.944410
Si Si7 0.420175 0.101350 0.315037
Si Si8 0.707464 0.072931 0.770175
O O1 0.496550 0.720603 0.212092
O O2 0.350218 0.710393 0.479841
O O3 0.321400 0.749375 0.290748
O O4 0.390905 0.824799 0.371854
O O5 0.309403 0.116810 0.714609
O O6 0.309911 0.245604 0.731407
O O7 0.314302 0.171050 0.911468
O O8 0.158698 0.178054 0.953335
O O9 0.887138 0.500000 0.644368
O O10 0.880410 0.562107 0.460355
O O11 0.000000 0.603828 0.500000
O O12 0.906257 0.303322 0.002893
O O13 0.000000 0.201374 0.000000
O O14 0.275309 0.364803 0.682852
O O15 0.965544 0.598386 0.802608
O O16 0.829052 0.580811 0.067246
O O17 0.377964 0.073564 0.239327
O O18 0.757062 0.000000 0.715557
#
# Coordination Sequence:
#
# PCOD8093130 Si02
#       8
#     8   8   8   8   8   8   8   8
#     4   9  18  33  58  86 118 150 194 255 304 340
#     4  12  22  37  62  87 120 163 204 247 308 370
#     4  11  23  39  57  87 126 158 191 248 315 372
#     4  11  20  36  57  88 119 153 199 256 305 352
#     4  10  19  35  59  87 119 155 205 255 300 352
#     4  11  22  35  55  84 123 155 200 243 302 370
#     4  10  19  36  57  83 119 155 197 241 292 373
#     4  11  23  36  56  86 121 164 200 240 303 369
#
# _framework density 18.995578999999999
#
# number of rings (size 3 to 8) (size 9 to 14) (size 15 to 20)
#    0.000    1.375    5.000    2.625    0.000    2.000 
#    0.000    0.000    0.000    1.125    0.000    0.875 
#    0.000    0.000    0.000    0.000    0.000    0.000 
#
# Total GULP energy -396533.435065 kJ/mol
# GULP energy per Si atom -12391.669846 kJ/mol
# Density = 1.895234 g / cm^3
# Si number density = 18.995579 Si / 1000 Ang^3
#
#
#
# Elastic Constant Matrix: (Units=GPa)
#
#
# Indices 1 2 3 4 5 6 
#
# 1 67.8061 34.2768 30.5053 0.0000 12.2230 0.0000
# 2 34.2768 115.5744 57.0096 0.0000 -7.2424 0.0000
# 3 30.5053 57.0096 91.8924 0.0000 -2.5521 0.0000
# 4 0.0000 0.0000 0.0000 22.5705 0.0000 -1.0254
# 5 12.2230 -7.2424 -2.5521 0.0000 32.2203 0.0000
# 6 0.0000 0.0000 0.0000 -1.0254 0.0000 15.6337
#
#
#
# Elastic Compliance Matrix: (Units=1/GPa)
#
#
# Indices 1 2 3 4 5 6 
#
# 1 0.020648 -0.004601 -0.004255 0.000000 -0.009204 0.000000
# 2 -0.004601 0.013650 -0.006822 0.000000 0.004273 0.000000
# 3 -0.004255 -0.006822 0.016566 0.000000 0.001393 0.000000
# 4 0.000000 0.000000 0.000000 0.044438 0.000000 0.002915
# 5 -0.009204 0.004273 0.001393 0.000000 0.035599 0.000000
# 6 0.000000 0.000000 0.000000 0.002915 0.000000 0.064156
#
#
# Mechanical properties :
#
#
# Convention : Reuss Voigt Hill
#
# Bulk Modulus (GPa) = 51.26644 57.65068 54.45856
# Shear Modulus (GPa) = 21.46694 24.31697 22.89195
#
# Velocity S-wave (km/s) = 3.36535 3.58178 3.47525
# Velocity P-wave (km/s) = 6.49214 6.89355 6.69585
#
# Compressibility (1/GPa) = 0.01950594
#
# Stress axis : x y z
#
# Youngs Moduli (GPa) = 48.43187 73.25940 60.36422
#
# Poissons Ratio (x) = 0.33709 0.25687
# Poissons Ratio (y) = 0.22285 0.41182
# Poissons Ratio (z) = 0.20609 0.49980
#
# Static dielectric constant tensor:
#      x y z
#    x 3.411180 0.000000 0.049770 
#    y 0.000000 3.310940 0.000000 
#    z 0.049770 0.000000 3.588330 
# 
# 
# High freq. dielectric constant tensor:
#      x y z
#    x 1.717700 0.000000 0.021190 
#    y 0.000000 1.713850 0.000000 
#    z 0.021190 0.000000 1.750710 
# 
# From -- ./inp_files/159515.got.cif
#   From: 2010.06.25/outbox.cif.g09.slc.cpg/sg12_80_cif.got.tgz:159515.got - 2010.06.28 00:19:55.
