data_PCOD8093751
_publ_section_title
;
Structure prediction by ZEFSAII (Michael W. Deem and Ramdas Pophale) SiO2 
 PCOD8093751
Probable space group: C 2/M
;
_chemical_formula_sum "Si O2"
_cell_formula_units_Z 48
_cell_length_a 15.529142
_cell_length_b 16.315703
_cell_length_c 9.130094
_cell_angle_alpha 90.000000
_cell_angle_beta 104.704995
_cell_angle_gamma 90.000000
_cell_volume 2237.511499
_symmetry_space_group_name_H-M "C 2/M"
_symmetry_group_IT_number 12
_symmetry_cell_setting 'monoclinic'
loop_
_space_group_symop_operation_xyz
x,y,z
-x,y,-z
-x,-y,-z
x,-y,z
1/2+x,1/2+y,z
1/2-x,1/2+y,-z
1/2-x,1/2-y,-z
1/2+x,1/2-y,z
loop_
_atom_site_type_symbol
_atom_site_label
_atom_site_fract_x
_atom_site_fract_y
_atom_site_fract_z
Si Si1 0.396413 0.903186 0.476317
Si Si2 0.459796 0.680479 0.135439
Si Si3 0.887766 0.090603 0.654335
Si Si4 0.684672 0.215672 0.793213
Si Si5 0.245010 0.669892 0.403416
Si Si6 0.808624 0.910458 0.937914
O O1 0.500000 0.879440 0.500000
O O2 0.337781 0.854329 0.334716
O O3 0.351259 0.875919 0.614146
O O4 0.383243 0.000000 0.448080
O O5 0.531325 0.654208 0.289062
O O6 0.407513 0.757434 0.176305
O O7 0.500000 0.711732 0.000000
O O8 0.397014 0.602425 0.072671
O O9 0.827591 0.112698 0.487922
O O10 0.828885 0.092514 0.774523
O O11 0.926795 0.000000 0.644612
O O12 0.738131 0.296030 0.754112
O O13 0.743597 0.167214 0.940731
O O14 0.250000 0.750000 0.500000
O O15 0.768582 0.000000 0.962376
#
# Coordination Sequence:
#
# PCOD8093751 Si02
#       6
#     8   8   8   8   8   8
#     4  10  21  36  57  84 116 154 192 230 286 355
#     4  10  23  37  58  86 117 154 202 243 287 339
#     4  10  19  36  59  83 117 153 187 237 297 353
#     4  11  22  35  61  85 118 153 196 239 296 341
#     4  10  20  34  57  87 115 147 191 237 296 346
#     4  10  19  37  60  81 111 154 200 238 284 346
#
# _framework density 21.452404000000001
#
# number of rings (size 3 to 8) (size 9 to 14) (size 15 to 20)
#    0.000    1.833    3.333    2.000    4.667    2.000 
#    0.000    4.167    0.000    4.000    0.000    0.000 
#    0.000    0.000    0.000    0.000    0.000    0.000 
#
# Total GULP energy -297379.929566 kJ/mol
# GULP energy per Si atom -12390.830399 kJ/mol
# Density = 2.140358 g / cm^3
# Si number density = 21.452404 Si / 1000 Ang^3
#
#
#
# Elastic Constant Matrix: (Units=GPa)
#
#
# Indices 1 2 3 4 5 6 
#
# 1 146.0594 63.7174 29.6151 0.0000 6.7462 0.0000
# 2 63.7174 112.1603 18.7433 0.0000 -6.7085 0.0000
# 3 29.6151 18.7433 39.8141 0.0000 4.2043 0.0000
# 4 0.0000 0.0000 0.0000 12.7874 0.0000 4.9097
# 5 6.7462 -6.7085 4.2043 0.0000 24.7487 0.0000
# 6 0.0000 0.0000 0.0000 4.9097 0.0000 42.3645
#
#
#
# Elastic Compliance Matrix: (Units=1/GPa)
#
#
# Indices 1 2 3 4 5 6 
#
# 1 0.010259 -0.005227 -0.004812 0.000000 -0.003396 0.000000
# 2 -0.005227 0.012640 -0.002622 0.000000 0.005297 0.000000
# 3 -0.004812 -0.002622 0.030412 0.000000 -0.004565 0.000000
# 4 0.000000 0.000000 0.000000 0.081844 0.000000 -0.009485
# 5 -0.003396 0.005297 -0.004565 0.000000 0.043543 0.000000
# 6 0.000000 0.000000 0.000000 -0.009485 0.000000 0.024704
#
#
# Mechanical properties :
#
#
# Convention : Reuss Voigt Hill
#
# Bulk Modulus (GPa) = 35.72670 58.02060 46.87365
# Shear Modulus (GPa) = 21.00359 28.37732 24.69045
#
# Velocity S-wave (km/s) = 3.13242 3.64098 3.39623
# Velocity P-wave (km/s) = 5.45645 6.69183 6.10546
#
# Compressibility (1/GPa) = 0.02799027
#
# Stress axis : x y z
#
# Youngs Moduli (GPa) = 97.47137 79.11187 32.88144
#
# Poissons Ratio (x) = 0.41354 0.15822
# Poissons Ratio (y) = 0.50951 0.08621
# Poissons Ratio (z) = 0.46902 0.20741
#
# Static dielectric constant tensor:
#      x y z
#    x 4.120120 0.000000 0.047020 
#    y 0.000000 3.793260 0.000000 
#    z 0.047020 0.000000 1.643020 
# 
# 
# High freq. dielectric constant tensor:
#      x y z
#    x 1.839830 0.000000 0.009760 
#    y 0.000000 1.847470 0.000000 
#    z 0.009760 0.000000 1.811330 
# 
# From -- ./inp_files/143086.got.cif
#   From: 2010.06.25/outbox.cif.g09.slc.cpg/sg12_72_cif.got.tgz:143086.got - 2010.06.28 00:19:55.
