data_PCOD8093717
_publ_section_title
;
Structure prediction by ZEFSAII (Michael W. Deem and Ramdas Pophale) SiO2 
 PCOD8093717
Probable space group: C 2/M
;
_chemical_formula_sum "Si O2"
_cell_formula_units_Z 56
_cell_length_a 9.297054
_cell_length_b 19.892769
_cell_length_c 17.759077
_cell_angle_alpha 90.000000
_cell_angle_beta 123.463174
_cell_angle_gamma 90.000000
_cell_volume 2740.010332
_symmetry_space_group_name_H-M "C 2/M"
_symmetry_group_IT_number 12
_symmetry_cell_setting 'monoclinic'
loop_
_space_group_symop_operation_xyz
x,y,z
-x,y,-z
-x,-y,-z
x,-y,z
1/2+x,1/2+y,z
1/2-x,1/2+y,-z
1/2-x,1/2-y,-z
1/2+x,1/2-y,z
loop_
_atom_site_type_symbol
_atom_site_label
_atom_site_fract_x
_atom_site_fract_y
_atom_site_fract_z
Si Si1 0.930084 0.924112 0.679160
Si Si2 0.248345 0.739567 0.305298
Si Si3 0.664884 0.075953 0.899465
Si Si4 0.302014 0.128431 0.821373
Si Si5 0.810700 0.136496 0.794274
Si Si6 0.315545 0.679650 0.054496
Si Si7 0.116182 0.792922 0.413058
O O1 0.851710 0.916388 0.739851
O O2 0.845612 0.872556 0.592435
O O3 0.133961 0.911753 0.746622
O O4 0.896360 0.000000 0.640672
O O5 0.154581 0.685495 0.226691
O O6 0.306065 0.804496 0.273849
O O7 0.110322 0.759827 0.328533
O O8 0.426124 0.712483 0.394309
O O9 0.464928 0.079204 0.866030
O O10 0.699235 0.098296 0.823975
O O11 0.728025 0.000000 0.927807
O O12 0.780688 0.120385 0.986656
O O13 0.284902 0.164410 0.897165
O O14 0.980062 0.176164 0.873432
O O15 0.250000 0.750000 0.000000
O O16 0.250000 0.750000 0.500000
#
# Coordination Sequence:
#
# PCOD8093717 Si02
#       7
#     8   8   8   8   8   8   8
#     4   9  19  37  59  80 107 148 186 217 268 336
#     4  10  19  36  59  82 106 140 180 220 271 324
#     4  12  24  35  52  81 115 147 184 238 290 325
#     4  10  21  36  56  78 108 147 189 232 273 330
#     4  10  21  36  56  78 108 147 189 232 273 330
#     4  11  23  38  55  77 108 149 197 242 283 324
#     4  10  20  34  59  88 112 136 169 221 273 329
#
# _framework density 20.43788
#
# number of rings (size 3 to 8) (size 9 to 14) (size 15 to 20)
#    0.000    1.714    0.000    5.571    0.000    5.714 
#    0.000    0.000    0.000   17.143    0.000    0.000 
#    0.000    0.000    0.000    0.000    0.000    0.000 
#
# Total GULP energy -347046.913998 kJ/mol
# GULP energy per Si atom -12394.532643 kJ/mol
# Density = 2.039136 g / cm^3
# Si number density = 20.437880 Si / 1000 Ang^3
#
#
#
# Elastic Constant Matrix: (Units=GPa)
#
#
# Indices 1 2 3 4 5 6 
#
# 1 71.0938 17.5563 5.6867 0.0000 -0.6570 0.0000
# 2 17.5563 143.7350 45.5254 0.0000 -8.0448 0.0000
# 3 5.6867 45.5254 60.4964 0.0000 -1.6239 0.0000
# 4 0.0000 0.0000 0.0000 31.9380 0.0000 0.1996
# 5 -0.6570 -8.0448 -1.6239 0.0000 17.8132 0.0000
# 6 0.0000 0.0000 0.0000 0.1996 0.0000 22.2135
#
#
#
# Elastic Compliance Matrix: (Units=1/GPa)
#
#
# Indices 1 2 3 4 5 6 
#
# 1 0.014505 -0.001776 -0.000034 0.000000 -0.000270 0.000000
# 2 -0.001776 0.009576 -0.006942 0.000000 0.003626 0.000000
# 3 -0.000034 -0.006942 0.021726 0.000000 -0.001156 0.000000
# 4 0.000000 0.000000 0.000000 0.031312 0.000000 -0.000281
# 5 -0.000270 0.003626 -0.001156 0.000000 0.057661 0.000000
# 6 0.000000 0.000000 0.000000 -0.000281 0.000000 0.045020
#
#
# Mechanical properties :
#
#
# Convention : Reuss Voigt Hill
#
# Bulk Modulus (GPa) = 35.33253 45.87356 40.60304
# Shear Modulus (GPa) = 24.18520 28.16339 26.17429
#
# Velocity S-wave (km/s) = 3.44372 3.71617 3.58253
# Velocity P-wave (km/s) = 5.75652 6.39588 6.08461
#
# Compressibility (1/GPa) = 0.02830253
#
# Stress axis : x y z
#
# Youngs Moduli (GPa) = 68.94309 104.42974 46.02775
#
# Poissons Ratio (x) = 0.18546 0.00158
# Poissons Ratio (y) = 0.12244 0.31952
# Poissons Ratio (z) = 0.00236 0.72493
#
# Static dielectric constant tensor:
#      x y z
#    x 3.708640 0.000000 -0.174740 
#    y 0.000000 3.709300 0.000000 
#    z -0.174740 0.000000 3.542180 
# 
# 
# High freq. dielectric constant tensor:
#      x y z
#    x 1.807820 0.000000 -0.007760 
#    y 0.000000 1.798390 0.000000 
#    z -0.007760 0.000000 1.779680 
# 
# From -- ./inp_files/258249.got.cif
#   From: 2010.06.25/outbox.cif.g09.slc.cpg/sg12_130_cif.got.tgz:258249.got - 2010.06.28 00:19:55.
