data_PCOD8093794
_publ_section_title
;
Structure prediction by ZEFSAII (Michael W. Deem and Ramdas Pophale) SiO2 
 PCOD8093794
Probable space group: C 2/M
;
_chemical_formula_sum "Si O2"
_cell_formula_units_Z 64
_cell_length_a 26.385065
_cell_length_b 17.853594
_cell_length_c 21.079640
_cell_angle_alpha 90.000000
_cell_angle_beta 19.678140
_cell_angle_gamma 90.000000
_cell_volume 3343.771618
_symmetry_space_group_name_H-M "C 2/M"
_symmetry_group_IT_number 12
_symmetry_cell_setting 'monoclinic'
loop_
_space_group_symop_operation_xyz
x,y,z
-x,y,-z
-x,-y,-z
x,-y,z
1/2+x,1/2+y,z
1/2-x,1/2+y,-z
1/2-x,1/2-y,-z
1/2+x,1/2-y,z
loop_
_atom_site_type_symbol
_atom_site_label
_atom_site_fract_x
_atom_site_fract_y
_atom_site_fract_z
Si Si1 0.174837 0.775907 0.787763
Si Si2 0.732309 0.202234 0.083454
Si Si3 0.332768 0.705065 0.717491
Si Si4 0.043472 0.584513 0.238697
Si Si5 0.206576 0.085285 0.670977
Si Si6 0.320679 0.816640 0.337609
Si Si7 0.595715 0.087563 0.032442
Si Si8 0.560878 0.671604 0.736050
O O1 0.259792 0.761477 0.752923
O O2 0.202009 0.863069 0.738819
O O3 0.236864 0.720785 0.659771
O O4 0.000000 0.758210 0.000000
O O5 0.663615 0.252574 0.219966
O O6 0.615154 0.135978 0.208149
O O7 0.750000 0.250000 0.000000
O O8 0.890496 0.164878 0.914540
O O9 0.500000 0.682167 0.500000
O O10 0.235924 0.629143 0.834706
O O11 0.087885 0.500000 0.203681
O O12 0.101357 0.605707 0.100627
O O13 0.864497 0.595043 0.449024
O O14 0.080401 0.112810 0.770223
O O15 0.175429 0.000000 0.728423
O O16 0.438465 0.883947 0.187449
O O17 0.408107 0.755889 0.277383
O O18 0.172470 0.848392 0.546754
O O19 0.609828 0.000000 0.001351
#
# Coordination Sequence:
#
# PCOD8093794 Si02
#       8
#     8   8   8   8   8   8   8   8
#     4  11  22  38  60  85 122 161 201 248 302 368
#     4  12  23  39  62  93 122 164 210 254 309 359
#     4  12  25  40  60  91 125 165 212 255 296 365
#     4  10  21  38  61  89 123 157 197 253 315 369
#     4  10  21  38  62  91 121 160 203 249 310 369
#     4  10  19  36  59  91 116 152 198 255 305 355
#     4  11  21  40  64  89 122 159 199 253 318 366
#     4  10  20  33  64  89 120 150 205 259 297 354
#
# _framework density 19.140063000000001
#
# number of rings (size 3 to 8) (size 9 to 14) (size 15 to 20)
#    0.000    1.250    5.000    1.500    5.250    1.000 
#    0.000    1.875    0.000    2.250    0.000    0.000 
#    0.000    0.000    0.000    0.000    0.000    0.000 
#
# Total GULP energy -396958.584893 kJ/mol
# GULP energy per Si atom -12404.955778 kJ/mol
# Density = 1.909650 g / cm^3
# Si number density = 19.140063 Si / 1000 Ang^3
#
#
#
# Elastic Constant Matrix: (Units=GPa)
#
#
# Indices 1 2 3 4 5 6 
#
# 1 94.3395 49.7178 22.2824 0.0021 3.0969 -0.0016
# 2 49.7178 117.7620 33.2616 0.0094 -0.3140 -0.0063
# 3 22.2824 33.2616 92.5177 0.0110 -1.3886 -0.0107
# 4 0.0021 0.0094 0.0110 23.5024 -0.0054 -0.9422
# 5 3.0969 -0.3140 -1.3886 -0.0054 30.5167 0.0033
# 6 -0.0016 -0.0063 -0.0107 -0.9422 0.0033 22.6154
#
#
#
# Elastic Compliance Matrix: (Units=1/GPa)
#
#
# Indices 1 2 3 4 5 6 
#
# 1 0.013858 -0.005460 -0.001398 0.000001 -0.001526 -0.000001
# 2 -0.005460 0.011603 -0.002848 -0.000003 0.000544 0.000001
# 3 -0.001398 -0.002848 0.012179 -0.000004 0.000667 0.000005
# 4 0.000001 -0.000003 -0.000004 0.042620 0.000007 0.001776
# 5 -0.001526 0.000544 0.000667 0.000007 0.032960 -0.000004
# 6 -0.000001 0.000001 0.000005 0.001776 -0.000004 0.044292
#
#
# Mechanical properties :
#
#
# Convention : Reuss Voigt Hill
#
# Bulk Modulus (GPa) = 54.85943 57.23810 56.04876
# Shear Modulus (GPa) = 27.32264 28.61740 27.97002
#
# Velocity S-wave (km/s) = 3.78234 3.87092 3.82689
# Velocity P-wave (km/s) = 6.91369 7.06742 6.99098
#
# Compressibility (1/GPa) = 0.01822841
#
# Stress axis : x y z
#
# Youngs Moduli (GPa) = 72.16252 86.18666 82.10645
#
# Poissons Ratio (x) = 0.47057 0.11475
# Poissons Ratio (y) = 0.39400 0.23386
# Poissons Ratio (z) = 0.10085 0.24548
#
# Static dielectric constant tensor:
#      x y z
#    x 3.566870 -0.000010 0.083170 
#    y -0.000010 3.501410 0.000010 
#    z 0.083170 0.000010 3.565490 
# 
# 
# High freq. dielectric constant tensor:
#      x y z
#    x 1.738980 0.000000 0.005400 
#    y 0.000000 1.735040 0.000000 
#    z 0.005400 0.000000 1.748370 
# 
# From -- ./inp_files/326114.got.cif
#   From: 2010.06.25/outbox.cif.g09.slc.cpg/sg12_164_cif.got.tgz:326114.got - 2010.06.28 00:19:55.
