data_PCOD8093126
_publ_section_title
;
Structure prediction by ZEFSAII (Michael W. Deem and Ramdas Pophale) SiO2 
 PCOD8093126
Probable space group: C 2/M
;
_chemical_formula_sum "Si O2"
_cell_formula_units_Z 40
_cell_length_a 19.254986
_cell_length_b 8.723556
_cell_length_c 13.626720
_cell_angle_alpha 90.000000
_cell_angle_beta 59.824087
_cell_angle_gamma 90.000000
_cell_volume 1978.728252
_symmetry_space_group_name_H-M "C 2/M"
_symmetry_group_IT_number 12
_symmetry_cell_setting 'monoclinic'
loop_
_space_group_symop_operation_xyz
x,y,z
-x,y,-z
-x,-y,-z
x,-y,z
1/2+x,1/2+y,z
1/2-x,1/2+y,-z
1/2-x,1/2-y,-z
1/2+x,1/2-y,z
loop_
_atom_site_type_symbol
_atom_site_label
_atom_site_fract_x
_atom_site_fract_y
_atom_site_fract_z
Si Si1 0.442236 0.180921 0.459636
Si Si2 0.126087 0.818499 0.834198
Si Si3 0.665081 0.681857 0.027585
Si Si4 0.764051 0.679724 0.594210
Si Si5 0.995289 0.682140 0.793202
O O1 0.500000 0.255967 0.500000
O O2 0.354033 0.225389 0.560574
O O3 0.460951 0.243139 0.336942
O O4 0.454804 0.000000 0.446738
O O5 0.201205 0.755138 0.717600
O O6 0.044214 0.743018 0.852788
O O7 0.115894 0.000000 0.833658
O O8 0.144076 0.766978 0.931876
O O9 0.668678 0.500000 0.035598
O O10 0.594648 0.750255 0.145278
O O11 0.750000 0.750000 0.000000
O O12 0.753536 0.500000 0.592872
O O13 0.750000 0.750000 0.500000
O O14 0.990747 0.500000 0.801197
#
# Coordination Sequence:
#
# PCOD8093126 Si02
#       5
#     8   8   8   8   8
#     4   9  19  34  57  86 118 154 193 236 286 346
#     4  10  22  39  62  86 118 158 198 241 291 350
#     4  11  25  43  62  87 117 154 197 244 297 349
#     4  10  19  35  59  87 116 150 190 238 289 345
#     4  11  22  38  63  90 118 155 199 242 290 347
#
# _framework density 20.215005000000001
#
# number of rings (size 3 to 8) (size 9 to 14) (size 15 to 20)
#    0.000    1.800    2.000    1.800    2.800    4.000 
#    0.000    0.000    0.000    3.000    0.000    0.000 
#    0.000    0.000    0.000    0.000    0.000    0.000 
#
# Total GULP energy -248005.997568 kJ/mol
# GULP energy per Si atom -12400.299878 kJ/mol
# Density = 2.016899 g / cm^3
# Si number density = 20.215005 Si / 1000 Ang^3
#
#
#
# Elastic Constant Matrix: (Units=GPa)
#
#
# Indices 1 2 3 4 5 6 
#
# 1 144.4865 33.7404 33.0675 0.0000 -7.9399 0.0000
# 2 33.7404 42.2119 22.0131 0.0000 -3.4866 0.0000
# 3 33.0675 22.0131 87.3374 0.0000 -13.2298 0.0000
# 4 0.0000 0.0000 0.0000 26.2317 0.0000 -3.0988
# 5 -7.9399 -3.4866 -13.2298 0.0000 42.1597 0.0000
# 6 0.0000 0.0000 0.0000 -3.0988 0.0000 33.1785
#
#
#
# Elastic Compliance Matrix: (Units=1/GPa)
#
#
# Indices 1 2 3 4 5 6 
#
# 1 0.008759 -0.006067 -0.001694 0.000000 0.000616 0.000000
# 2 -0.006067 0.031478 -0.005686 0.000000 -0.000324 0.000000
# 3 -0.001694 -0.005686 0.014074 0.000000 0.003627 0.000000
# 4 0.000000 0.000000 0.000000 0.038547 0.000000 0.003600
# 5 0.000616 -0.000324 0.003627 0.000000 0.024947 0.000000
# 6 0.000000 0.000000 0.000000 0.003600 0.000000 0.030476
#
#
# Mechanical properties :
#
#
# Convention : Reuss Voigt Hill
#
# Bulk Modulus (GPa) = 36.47334 50.18640 43.32987
# Shear Modulus (GPa) = 27.12762 32.66164 29.89463
#
# Velocity S-wave (km/s) = 3.66724 4.02395 3.84973
# Velocity P-wave (km/s) = 6.00112 6.81688 6.42196
#
# Compressibility (1/GPa) = 0.02741728
#
# Stress axis : x y z
#
# Youngs Moduli (GPa) = 114.16295 31.76833 71.05458
#
# Poissons Ratio (x) = 0.19275 0.12036
# Poissons Ratio (y) = 0.69265 0.40400
# Poissons Ratio (z) = 0.19338 0.18063
#
# Static dielectric constant tensor:
#      x y z
#    x 2.308770 0.000000 0.797790 
#    y 0.000000 2.739200 0.000000 
#    z 0.797790 0.000000 3.464730 
# 
# 
# High freq. dielectric constant tensor:
#      x y z
#    x 1.802360 0.000000 -0.008750 
#    y 0.000000 1.764370 0.000000 
#    z -0.008750 0.000000 1.803090 
# 
# From -- ./inp_files/220552.got.cif
#   From: 2010.06.25/outbox.cif.g09.slc.cpg/sg12_111_cif.got.tgz:220552.got - 2010.06.28 00:19:55.
