data_PCOD8093541
_publ_section_title
;
Structure prediction by ZEFSAII (Michael W. Deem and Ramdas Pophale) SiO2 
 PCOD8093541
Probable space group: C 2/M
;
_chemical_formula_sum "Si O2"
_cell_formula_units_Z 64
_cell_length_a 32.963658
_cell_length_b 9.088001
_cell_length_c 23.575764
_cell_angle_alpha 90.000000
_cell_angle_beta 28.381197
_cell_angle_gamma 90.000000
_cell_volume 3357.142659
_symmetry_space_group_name_H-M "C 2/M"
_symmetry_group_IT_number 12
_symmetry_cell_setting 'monoclinic'
loop_
_space_group_symop_operation_xyz
x,y,z
-x,y,-z
-x,-y,-z
x,-y,z
1/2+x,1/2+y,z
1/2-x,1/2+y,-z
1/2-x,1/2-y,-z
1/2+x,1/2-y,z
loop_
_atom_site_type_symbol
_atom_site_label
_atom_site_fract_x
_atom_site_fract_y
_atom_site_fract_z
Si Si1 0.169827 0.831618 0.573674
Si Si2 0.132747 0.674315 0.084113
Si Si3 0.384356 0.674884 0.482561
Si Si4 0.751210 0.324538 0.258803
Si Si5 0.575459 0.673093 0.263383
Si Si6 0.508359 0.668285 0.157787
Si Si7 0.571806 0.327503 0.955882
Si Si8 0.787760 0.827568 0.817839
O O1 0.250000 0.750000 0.500000
O O2 0.142624 0.764965 0.546043
O O3 0.093407 0.814310 0.712692
O O4 0.196096 0.000000 0.532986
O O5 0.133877 0.500000 0.089464
O O6 0.132649 0.746863 0.145958
O O7 0.048470 0.724000 0.154579
O O8 0.214340 0.735790 0.949285
O O9 0.387254 0.500000 0.478706
O O10 0.317736 0.733452 0.611049
O O11 0.478772 0.733908 0.382507
O O12 0.757147 0.500000 0.252083
O O13 0.842488 0.260082 0.163681
O O14 0.721789 0.261490 0.233587
O O15 0.578209 0.500000 0.246919
O O16 0.619114 0.708578 0.270561
O O17 0.534899 0.500000 0.138742
O O18 0.538220 0.716759 0.059071
O O19 0.590709 0.500000 0.927522
O O20 0.500000 0.277149 0.000000
O O21 0.773481 0.000000 0.830491
#
# Coordination Sequence:
#
# PCOD8093541 Si02
#       8
#     8   8   8   8   8   8   8   8
#     4  10  21  37  55  81 108 139 181 223 267 321
#     4  11  20  33  53  84 115 138 175 227 272 316
#     4   9  19  35  56  78 106 141 182 221 262 320
#     4  10  20  37  56  80 111 141 177 226 272 315
#     4  10  19  36  57  78 108 147 182 218 266 324
#     4  10  20  37  59  79 108 147 181 218 268 323
#     4  10  22  38  57  82 108 141 184 222 263 323
#     4   9  19  33  54  82 110 139 179 224 269 320
#
# _framework density 19.063829999999999
#
# number of rings (size 3 to 8) (size 9 to 14) (size 15 to 20)
#    0.000    2.125    2.500    0.750    1.750    1.250 
#    0.000    4.375    0.000    0.000    0.000    1.750 
#    0.000    0.000    0.000    0.000    0.000    0.000 
#
# Total GULP energy -396820.731369 kJ/mol
# GULP energy per Si atom -12400.647855 kJ/mol
# Density = 1.902044 g / cm^3
# Si number density = 19.063830 Si / 1000 Ang^3
#
#
#
# Elastic Constant Matrix: (Units=GPa)
#
#
# Indices 1 2 3 4 5 6 
#
# 1 109.7552 21.5229 55.5542 0.0061 -13.1932 -0.0025
# 2 21.5229 32.5933 23.4779 0.0024 -3.9000 -0.0018
# 3 55.5542 23.4779 134.4099 -0.0037 -2.2536 0.0045
# 4 0.0061 0.0024 -0.0037 23.7399 0.0062 -0.7782
# 5 -13.1932 -3.9000 -2.2536 0.0062 37.7146 -0.0006
# 6 -0.0025 -0.0018 0.0045 -0.7782 -0.0006 21.3168
#
#
#
# Elastic Compliance Matrix: (Units=1/GPa)
#
#
# Indices 1 2 3 4 5 6 
#
# 1 0.012698 -0.004814 -0.004346 -0.000004 0.003684 0.000002
# 2 -0.004814 0.037329 -0.004499 -0.000004 0.001907 0.000003
# 3 -0.004346 -0.004499 0.009999 0.000003 -0.001388 -0.000003
# 4 -0.000004 -0.000004 0.000003 0.042174 -0.000009 0.001540
# 5 0.003684 0.001907 -0.001388 -0.000009 0.027918 0.000001
# 6 0.000002 0.000003 -0.000003 0.001540 0.000001 0.046967
#
#
# Mechanical properties :
#
#
# Convention : Reuss Voigt Hill
#
# Bulk Modulus (GPa) = 30.57287 53.09649 41.83468
# Shear Modulus (GPa) = 23.22308 28.30116 25.76212
#
# Velocity S-wave (km/s) = 3.49402 3.85716 3.68007
# Velocity P-wave (km/s) = 5.68766 6.91009 6.32846
#
# Compressibility (1/GPa) = 0.03270874
#
# Stress axis : x y z
#
# Youngs Moduli (GPa) = 78.75505 26.78908 100.01424
#
# Poissons Ratio (x) = 0.12896 0.43462
# Poissons Ratio (y) = 0.37911 0.44994
# Poissons Ratio (z) = 0.34223 0.12052
#
# Static dielectric constant tensor:
#      x y z
#    x 3.692420 -0.000030 0.110210 
#    y -0.000030 3.153420 0.000040 
#    z 0.110210 0.000040 3.637350 
# 
# 
# High freq. dielectric constant tensor:
#      x y z
#    x 1.751230 0.000000 -0.001610 
#    y 0.000000 1.704400 0.000000 
#    z -0.001610 0.000000 1.748430 
# 
# From -- ./inp_files/353289.got.cif
#   From: 2010.06.25/outbox.cif.g09.slc.cpg/sg12_177_cif.got.tgz:353289.got - 2010.06.28 00:19:55.
