data_PCOD8093498
_publ_section_title
;
Structure prediction by ZEFSAII (Michael W. Deem and Ramdas Pophale) SiO2 
 PCOD8093498
Probable space group: C 2/M
;
_chemical_formula_sum "Si O2"
_cell_formula_units_Z 56
_cell_length_a 30.578583
_cell_length_b 25.770220
_cell_length_c 12.561113
_cell_angle_alpha 90.000000
_cell_angle_beta 163.319276
_cell_angle_gamma 90.000000
_cell_volume 2841.210425
_symmetry_space_group_name_H-M "C 2/M"
_symmetry_group_IT_number 12
_symmetry_cell_setting 'monoclinic'
loop_
_space_group_symop_operation_xyz
x,y,z
-x,y,-z
-x,-y,-z
x,-y,z
1/2+x,1/2+y,z
1/2-x,1/2+y,-z
1/2-x,1/2-y,-z
1/2+x,1/2-y,z
loop_
_atom_site_type_symbol
_atom_site_label
_atom_site_fract_x
_atom_site_fract_y
_atom_site_fract_z
Si Si1 0.139558 0.142478 0.749893
Si Si2 0.554683 0.292309 0.857217
Si Si3 0.571992 0.105193 0.273863
Si Si4 0.157393 0.697135 0.608387
Si Si5 0.372657 0.605609 0.864309
Si Si6 0.709382 0.941645 0.292432
Si Si7 0.325523 0.559933 0.341848
O O1 0.206753 0.093510 0.840209
O O2 0.000000 0.123132 0.500000
O O3 0.073308 0.182141 0.512323
O O4 0.272393 0.175489 0.117284
O O5 0.479283 0.238189 0.711555
O O6 0.708204 0.280036 0.150863
O O7 0.594026 0.332346 0.045371
O O8 0.572594 0.148075 0.364393
O O9 0.741810 0.086285 0.641837
O O10 0.500000 0.130197 0.000000
O O11 0.463209 0.059752 0.064869
O O12 0.322550 0.595295 0.625347
O O13 0.511511 0.570497 0.224932
O O14 0.708592 0.925821 0.165415
O O15 0.771001 0.000000 0.448291
O O16 0.311471 0.500000 0.274871
#
# Coordination Sequence:
#
# PCOD8093498 Si02
#       7
#     8   8   8   8   8   8   8
#     4   9  19  36  55  77 106 141 183 224 264 321
#     4   9  19  34  55  81 106 136 179 223 264 318
#     4   9  20  37  54  77 109 142 180 217 256 319
#     4  10  19  36  56  77 106 139 176 223 272 314
#     4   9  18  34  55  81 109 141 178 217 261 318
#     4  10  20  35  55  80 111 144 178 218 265 316
#     4  10  20  34  54  83 112 138 177 226 270 312
#
# _framework density 19.709909
#
# number of rings (size 3 to 8) (size 9 to 14) (size 15 to 20)
#    0.000    2.571    0.000    2.143    0.000    6.857 
#    0.000   12.143    0.000    1.714    0.000    0.000 
#    0.000    0.000    0.000    0.000    0.000    0.000 
#
# Total GULP energy -346914.522702 kJ/mol
# GULP energy per Si atom -12389.804382 kJ/mol
# Density = 1.966505 g / cm^3
# Si number density = 19.709909 Si / 1000 Ang^3
#
#
#
# Elastic Constant Matrix: (Units=GPa)
#
#
# Indices 1 2 3 4 5 6 
#
# 1 65.4697 33.6140 8.0657 0.0000 0.6544 0.0000
# 2 33.6140 67.5046 17.3980 0.0000 0.8582 0.0000
# 3 8.0657 17.3980 50.3873 0.0000 8.4188 0.0000
# 4 0.0000 0.0000 0.0000 30.4667 0.0000 3.5540
# 5 0.6544 0.8582 8.4188 0.0000 22.6029 0.0000
# 6 0.0000 0.0000 0.0000 3.5540 0.0000 11.3957
#
#
#
# Elastic Compliance Matrix: (Units=1/GPa)
#
#
# Indices 1 2 3 4 5 6 
#
# 1 0.020526 -0.010301 0.000325 0.000000 -0.000324 0.000000
# 2 -0.010301 0.021483 -0.006059 0.000000 0.001740 0.000000
# 3 0.000325 -0.006059 0.023300 0.000000 -0.008458 0.000000
# 4 0.000000 0.000000 0.000000 0.034062 0.000000 -0.010623
# 5 -0.000324 0.001740 -0.008458 0.000000 0.047336 0.000000
# 6 0.000000 0.000000 0.000000 -0.010623 0.000000 0.091065
#
#
# Mechanical properties :
#
#
# Convention : Reuss Voigt Hill
#
# Bulk Modulus (GPa) = 30.08566 33.50189 31.79377
# Shear Modulus (GPa) = 17.79862 21.17864 19.48863
#
# Velocity S-wave (km/s) = 3.00830 3.28154 3.14789
# Velocity P-wave (km/s) = 5.23105 5.60289 5.42016
#
# Compressibility (1/GPa) = 0.03323843
#
# Stress axis : x y z
#
# Youngs Moduli (GPa) = 48.71851 46.54923 42.91931
#
# Poissons Ratio (x) = 0.47949 -0.01396
# Poissons Ratio (y) = 0.50183 0.26007
# Poissons Ratio (z) = -0.01584 0.28206
#
# Static dielectric constant tensor:
#      x y z
#    x 3.868070 0.000000 0.070600 
#    y 0.000000 3.482120 0.000000 
#    z 0.070600 0.000000 3.692750 
# 
# 
# High freq. dielectric constant tensor:
#      x y z
#    x 1.770890 0.000000 0.005020 
#    y 0.000000 1.752780 0.000000 
#    z 0.005020 0.000000 1.764100 
# 
# From -- ./inp_files/190405.got.cif
#   From: 2010.06.25/outbox.cif.g09.slc.cpg/sg12_96_cif.got.tgz:190405.got - 2010.06.28 00:19:55.
