data_PCOD8093285
_publ_section_title
;
Structure prediction by ZEFSAII (Michael W. Deem and Ramdas Pophale) SiO2 
 PCOD8093285
Probable space group: C 2/M
;
_chemical_formula_sum "Si O2"
_cell_formula_units_Z 48
_cell_length_a 26.498092
_cell_length_b 24.920444
_cell_length_c 11.180233
_cell_angle_alpha 90.000000
_cell_angle_beta 21.734783
_cell_angle_gamma 90.000000
_cell_volume 2733.930988
_symmetry_space_group_name_H-M "C 2/M"
_symmetry_group_IT_number 12
_symmetry_cell_setting 'monoclinic'
loop_
_space_group_symop_operation_xyz
x,y,z
-x,y,-z
-x,-y,-z
x,-y,z
1/2+x,1/2+y,z
1/2-x,1/2+y,-z
1/2-x,1/2-y,-z
1/2+x,1/2-y,z
loop_
_atom_site_type_symbol
_atom_site_label
_atom_site_fract_x
_atom_site_fract_y
_atom_site_fract_z
Si Si1 0.651378 0.562185 0.123964
Si Si2 0.917198 0.654882 0.899398
Si Si3 0.355657 0.060050 0.880551
Si Si4 0.858561 0.754436 0.865118
Si Si5 0.275845 0.152072 0.702181
Si Si6 0.151762 0.300235 0.699741
O O1 0.500000 0.574888 0.500000
O O2 0.671341 0.500000 0.043966
O O3 0.743988 0.579170 0.031511
O O4 0.693662 0.597784 0.915741
O O5 0.854004 0.598078 0.999471
O O6 0.877323 0.697442 0.886519
O O7 0.079920 0.651893 0.548282
O O8 0.848914 0.667473 0.175795
O O9 0.500000 0.063465 0.500000
O O10 0.323879 0.000000 0.995831
O O11 0.000000 0.775456 0.500000
O O12 0.750000 0.750000 0.000000
O O13 0.810866 0.796637 0.068279
O O14 0.294806 0.157871 0.517794
O O15 0.250000 0.250000 0.500000
O O16 0.000000 0.279288 0.000000
#
# Coordination Sequence:
#
# PCOD8093285 Si02
#       6
#     8   8   8   8   8   8
#     4  10  21  38  59  86 117 146 180 230 286 336
#     4  11  21  37  56  81 115 142 189 236 268 333
#     4  10  19  35  61  83 110 149 180 223 286 333
#     4  12  22  32  52  79 110 143 176 230 284 326
#     4  11  21  37  57  81 111 147 190 227 280 329
#     4  10  22  40  57  76 110 156 189 230 278 324
#
# _framework density 17.557136
#
# number of rings (size 3 to 8) (size 9 to 14) (size 15 to 20)
#    0.000    1.333    5.000    2.000    0.000    0.000 
#    3.000    0.833    0.000    3.000    0.000    3.500 
#    0.000    0.000    0.000    0.000    0.000    0.000 
#
# Total GULP energy -297658.955454 kJ/mol
# GULP energy per Si atom -12402.456477 kJ/mol
# Density = 1.751718 g / cm^3
# Si number density = 17.557136 Si / 1000 Ang^3
#
#
#
# Elastic Constant Matrix: (Units=GPa)
#
#
# Indices 1 2 3 4 5 6 
#
# 1 100.0705 44.9869 49.4231 0.0010 6.5291 -0.0027
# 2 44.9869 99.0137 37.2126 0.0019 12.0551 -0.0041
# 3 49.4231 37.2126 106.7113 0.0013 1.7275 -0.0063
# 4 0.0010 0.0019 0.0013 31.4585 0.0003 -1.0036
# 5 6.5291 12.0551 1.7275 0.0003 29.9395 -0.0004
# 6 -0.0027 -0.0041 -0.0063 -1.0036 -0.0004 23.9438
#
#
#
# Elastic Compliance Matrix: (Units=1/GPa)
#
#
# Indices 1 2 3 4 5 6 
#
# 1 0.014688 -0.004598 -0.005182 0.000000 -0.001053 -0.000001
# 2 -0.004598 0.013686 -0.002573 0.000000 -0.004360 0.000001
# 3 -0.005182 -0.002573 0.012645 0.000000 0.001436 0.000002
# 4 0.000000 0.000000 0.000000 0.031830 0.000000 0.001334
# 5 -0.001053 -0.004360 0.001436 0.000000 0.035303 0.000000
# 6 -0.000001 0.000001 0.000002 0.001334 0.000000 0.041820
#
#
# Mechanical properties :
#
#
# Convention : Reuss Voigt Hill
#
# Bulk Modulus (GPa) = 61.29710 63.22675 62.26192
# Shear Modulus (GPa) = 27.75978 28.67989 28.21983
#
# Velocity S-wave (km/s) = 3.98063 4.04606 4.01348
# Velocity P-wave (km/s) = 7.49106 7.61037 7.55095
#
# Compressibility (1/GPa) = 0.01631399
#
# Stress axis : x y z
#
# Youngs Moduli (GPa) = 68.08284 73.06596 79.08130
#
# Poissons Ratio (x) = 0.33593 0.40983
# Poissons Ratio (y) = 0.31302 0.20346
# Poissons Ratio (z) = 0.35283 0.18798
#
# Static dielectric constant tensor:
#      x y z
#    x 3.238740 -0.000010 -0.019900 
#    y -0.000010 3.359410 0.000040 
#    z -0.019900 0.000040 3.378240 
# 
# 
# High freq. dielectric constant tensor:
#      x y z
#    x 1.675170 0.000000 -0.007970 
#    y 0.000000 1.677800 0.000000 
#    z -0.007970 0.000000 1.686040 
# 
# From -- ./inp_files/121886.got.cif
#   From: 2010.06.25/outbox.cif.g09.slc.cpg/sg12_61_cif.got.tgz:121886.got - 2010.06.28 00:19:55.
