data_PCOD8093672
_publ_section_title
;
Structure prediction by ZEFSAII (Michael W. Deem and Ramdas Pophale) SiO2 
 PCOD8093672
Probable space group: C 2/M
;
_chemical_formula_sum "Si O2"
_cell_formula_units_Z 56
_cell_length_a 15.338243
_cell_length_b 18.102744
_cell_length_c 10.583630
_cell_angle_alpha 90.000000
_cell_angle_beta 98.038579
_cell_angle_gamma 90.000000
_cell_volume 2909.820840
_symmetry_space_group_name_H-M "C 2/M"
_symmetry_group_IT_number 12
_symmetry_cell_setting 'monoclinic'
loop_
_space_group_symop_operation_xyz
x,y,z
-x,y,-z
-x,-y,-z
x,-y,z
1/2+x,1/2+y,z
1/2-x,1/2+y,-z
1/2-x,1/2-y,-z
1/2+x,1/2-y,z
loop_
_atom_site_type_symbol
_atom_site_label
_atom_site_fract_x
_atom_site_fract_y
_atom_site_fract_z
Si Si1 0.696153 0.915091 0.323551
Si Si2 0.003227 0.841877 0.336098
Si Si3 0.583550 0.327887 0.933155
Si Si4 0.074249 0.343656 0.911334
Si Si5 0.524474 0.170601 0.360679
Si Si6 0.372300 0.415952 0.491982
Si Si7 0.745109 0.913941 0.049212
O O1 0.618296 0.863072 0.349039
O O2 0.770057 0.902062 0.446179
O O3 0.732208 0.891733 0.193556
O O4 0.664650 0.000000 0.314916
O O5 0.945956 0.861921 0.204416
O O6 0.931803 0.857451 0.429681
O O7 0.033893 0.757523 0.344954
O O8 0.092191 0.894107 0.360059
O O9 0.603355 0.240859 0.934775
O O10 0.672904 0.368891 0.993145
O O11 0.500000 0.346649 0.000000
O O12 0.043045 0.359371 0.760435
O O13 0.158126 0.395141 0.952075
O O14 0.000000 0.364581 0.000000
O O15 0.500000 0.148339 0.500000
O O16 0.396570 0.500000 0.461755
O O17 0.765814 0.000000 0.039851
#
# Coordination Sequence:
#
# PCOD8093672 Si02
#       7
#     8   8   8   8   8   8   8
#     4  10  22  38  60  86 116 157 199 242 295 354
#     4  10  19  36  58  89 116 149 194 232 297 354
#     4  10  22  39  60  87 122 155 192 247 304 350
#     4  10  21  40  63  89 119 157 202 244 296 359
#     4  11  22  39  60  88 121 153 196 252 300 346
#     4  10  19  36  61  86 113 150 195 239 282 347
#     4  11  22  39  62  87 116 158 208 244 288 361
#
# _framework density 19.245170999999999
#
# number of rings (size 3 to 8) (size 9 to 14) (size 15 to 20)
#    0.000    1.714    4.286    1.286    0.000    2.571 
#    2.571    0.000    0.000    0.000    0.000    0.000 
#    0.000    0.000    0.000    0.000    0.000    0.000 
#
# Total GULP energy -346990.318807 kJ/mol
# GULP energy per Si atom -12392.511386 kJ/mol
# Density = 1.920137 g / cm^3
# Si number density = 19.245171 Si / 1000 Ang^3
#
#
#
# Elastic Constant Matrix: (Units=GPa)
#
#
# Indices 1 2 3 4 5 6 
#
# 1 109.8939 49.0643 28.7366 0.0000 13.6158 0.0000
# 2 49.0643 65.6194 15.0316 0.0000 6.7726 0.0000
# 3 28.7366 15.0316 76.4533 0.0000 12.0408 0.0000
# 4 0.0000 0.0000 0.0000 24.2407 0.0000 8.1578
# 5 13.6158 6.7726 12.0408 0.0000 31.6968 0.0000
# 6 0.0000 0.0000 0.0000 8.1578 0.0000 36.7426
#
#
#
# Elastic Compliance Matrix: (Units=1/GPa)
#
#
# Indices 1 2 3 4 5 6 
#
# 1 0.014754 -0.010009 -0.003102 0.000000 -0.003021 0.000000
# 2 -0.010009 0.022916 -0.000691 0.000000 -0.000334 0.000000
# 3 -0.003102 -0.000691 0.015049 0.000000 -0.004237 0.000000
# 4 0.000000 0.000000 0.000000 0.044584 0.000000 -0.009899
# 5 -0.003021 -0.000334 -0.004237 0.000000 0.034527 0.000000
# 6 0.000000 0.000000 0.000000 -0.009899 0.000000 0.029414
#
#
# Mechanical properties :
#
#
# Convention : Reuss Voigt Hill
#
# Bulk Modulus (GPa) = 39.81663 48.62573 44.22118
# Shear Modulus (GPa) = 25.35235 29.14495 27.24865
#
# Velocity S-wave (km/s) = 3.63345 3.89576 3.76689
# Velocity P-wave (km/s) = 6.19166 6.74961 6.47664
#
# Compressibility (1/GPa) = 0.02511514
#
# Stress axis : x y z
#
# Youngs Moduli (GPa) = 67.77852 43.63723 66.45039
#
# Poissons Ratio (x) = 0.43678 0.20612
# Poissons Ratio (y) = 0.67842 0.04590
# Poissons Ratio (z) = 0.21024 0.03014
#
# Static dielectric constant tensor:
#      x y z
#    x 3.356350 0.000000 0.203500 
#    y 0.000000 3.407520 0.000000 
#    z 0.203500 0.000000 3.292000 
# 
# 
# High freq. dielectric constant tensor:
#      x y z
#    x 1.740090 0.000000 0.024560 
#    y 0.000000 1.745180 0.000000 
#    z 0.024560 0.000000 1.755770 
# 
# From -- ./inp_files/145649.got.cif
#   From: 2010.06.25/outbox.cif.g09.slc.cpg/sg12_73_cif.got.tgz:145649.got - 2010.06.28 00:19:55.
