data_PCOD8093922
_publ_section_title
;
Structure prediction by ZEFSAII (Michael W. Deem and Ramdas Pophale) SiO2 
 PCOD8093922
Probable space group: C 2/M
;
_chemical_formula_sum "Si O2"
_cell_formula_units_Z 56
_cell_length_a 8.916122
_cell_length_b 22.985876
_cell_length_c 16.036836
_cell_angle_alpha 90.000000
_cell_angle_beta 56.127833
_cell_angle_gamma 90.000000
_cell_volume 2728.864441
_symmetry_space_group_name_H-M "C 2/M"
_symmetry_group_IT_number 12
_symmetry_cell_setting 'monoclinic'
loop_
_space_group_symop_operation_xyz
x,y,z
-x,y,-z
-x,-y,-z
x,-y,z
1/2+x,1/2+y,z
1/2-x,1/2+y,-z
1/2-x,1/2-y,-z
1/2+x,1/2-y,z
loop_
_atom_site_type_symbol
_atom_site_label
_atom_site_fract_x
_atom_site_fract_y
_atom_site_fract_z
Si Si1 0.976198 0.933798 0.317364
Si Si2 0.876191 0.433477 0.243227
Si Si3 0.089592 0.679159 0.672957
Si Si4 0.033785 0.885625 0.856909
Si Si5 0.213709 0.781805 0.726701
Si Si6 0.201323 0.347421 0.462788
Si Si7 0.247218 0.432906 0.056941
O O1 0.184216 0.914940 0.264948
O O2 0.922610 0.923134 0.238382
O O3 0.841726 0.900694 0.421618
O O4 0.949814 0.000000 0.349433
O O5 0.875423 0.500000 0.277697
O O6 0.925919 0.389421 0.302335
O O7 0.029980 0.427380 0.123900
O O8 0.174295 0.713040 0.726791
O O9 0.204336 0.683547 0.552073
O O10 0.896214 0.708723 0.720345
O O11 0.058526 0.817266 0.825331
O O12 0.177154 0.906055 0.881090
O O13 0.830574 0.896995 0.953327
O O14 0.225330 0.802333 0.627519
O O15 0.000000 0.369048 0.500000
O O16 0.308129 0.500000 0.029951
#
# Coordination Sequence:
#
# PCOD8093922 Si02
#       7
#     8   8   8   8   8   8   8
#     4  10  21  37  58  89 125 161 198 250 305 353
#     4  10  23  40  60  87 124 161 201 248 302 359
#     4  11  22  41  61  87 121 160 202 248 301 357
#     4  10  19  36  60  91 117 152 203 249 296 356
#     4  10  22  38  62  87 120 155 199 253 301 357
#     4   9  21  39  58  89 119 154 208 249 297 358
#     4  10  19  36  64  90 117 161 203 248 299 357
#
# _framework density 20.521356000000001
#
# number of rings (size 3 to 8) (size 9 to 14) (size 15 to 20)
#    0.000    2.000    1.429    2.143    4.000    2.000 
#    0.000    4.286    0.000    0.000    0.000    0.000 
#    0.000    0.000    0.000    0.000    0.000    0.000 
#
# Total GULP energy -347097.236818 kJ/mol
# GULP energy per Si atom -12396.329886 kJ/mol
# Density = 2.047465 g / cm^3
# Si number density = 20.521356 Si / 1000 Ang^3
#
#
#
# Elastic Constant Matrix: (Units=GPa)
#
#
# Indices 1 2 3 4 5 6 
#
# 1 69.3523 46.2811 31.3743 0.0000 -13.6245 0.0000
# 2 46.2811 111.1713 50.8538 0.0000 -4.7476 0.0000
# 3 31.3743 50.8538 100.4951 0.0000 -12.5643 0.0000
# 4 0.0000 0.0000 0.0000 27.8788 0.0000 -1.2774
# 5 -13.6245 -4.7476 -12.5643 0.0000 32.3390 0.0000
# 6 0.0000 0.0000 0.0000 -1.2774 0.0000 26.2575
#
#
#
# Elastic Compliance Matrix: (Units=1/GPa)
#
#
# Indices 1 2 3 4 5 6 
#
# 1 0.022074 -0.007994 -0.001923 0.000000 0.007379 0.000000
# 2 -0.007994 0.014611 -0.005309 0.000000 -0.003286 0.000000
# 3 -0.001923 -0.005309 0.013705 0.000000 0.003735 0.000000
# 4 0.000000 0.000000 0.000000 0.035950 0.000000 0.001749
# 5 0.007379 -0.003286 0.003735 0.000000 0.035000 0.000000
# 6 0.000000 0.000000 0.000000 0.001749 0.000000 0.038169
#
#
# Mechanical properties :
#
#
# Convention : Reuss Voigt Hill
#
# Bulk Modulus (GPa) = 50.15928 59.78190 54.97059
# Shear Modulus (GPa) = 25.43139 27.46236 26.44688
#
# Velocity S-wave (km/s) = 3.52414 3.66216 3.59381
# Velocity P-wave (km/s) = 6.40741 6.86124 6.63821
#
# Compressibility (1/GPa) = 0.01993649
#
# Stress axis : x y z
#
# Youngs Moduli (GPa) = 45.30251 68.43987 72.96845
#
# Poissons Ratio (x) = 0.54714 0.14035
# Poissons Ratio (y) = 0.36217 0.38737
# Poissons Ratio (z) = 0.08713 0.36333
#
# Static dielectric constant tensor:
#      x y z
#    x 3.637900 0.000000 -0.227690 
#    y 0.000000 3.685190 0.000000 
#    z -0.227690 0.000000 3.752770 
# 
# 
# High freq. dielectric constant tensor:
#      x y z
#    x 1.795790 0.000000 -0.012880 
#    y 0.000000 1.797490 0.000000 
#    z -0.012880 0.000000 1.795150 
# 
# From -- ./inp_files/198802.got.cif
#   From: 2010.06.25/outbox.cif.g09.slc.cpg/sg12_100_cif.got.tgz:198802.got - 2010.06.28 00:19:55.
