data_PCOD8093359
_publ_section_title
;
Structure prediction by ZEFSAII (Michael W. Deem and Ramdas Pophale) SiO2 
 PCOD8093359
Probable space group: C 2/M
;
_chemical_formula_sum "Si O2"
_cell_formula_units_Z 64
_cell_length_a 29.126353
_cell_length_b 15.266516
_cell_length_c 8.755193
_cell_angle_alpha 90.000000
_cell_angle_beta 126.034659
_cell_angle_gamma 90.000000
_cell_volume 3148.171788
_symmetry_space_group_name_H-M "C 2/M"
_symmetry_group_IT_number 12
_symmetry_cell_setting 'monoclinic'
loop_
_space_group_symop_operation_xyz
x,y,z
-x,y,-z
-x,-y,-z
x,-y,z
1/2+x,1/2+y,z
1/2-x,1/2+y,-z
1/2-x,1/2-y,-z
1/2+x,1/2-y,z
loop_
_atom_site_type_symbol
_atom_site_label
_atom_site_fract_x
_atom_site_fract_y
_atom_site_fract_z
Si Si1 0.677370 0.257794 0.009187
Si Si2 0.504592 0.166982 0.182235
Si Si3 0.397957 0.598061 0.976774
Si Si4 0.626276 0.901137 0.402415
Si Si5 0.117356 0.598869 0.034884
Si Si6 0.875564 0.099630 0.586950
Si Si7 0.694935 0.251461 0.689164
Si Si8 0.510656 0.349724 0.344120
O O1 0.638363 0.334818 0.995924
O O2 0.649808 0.163491 0.985228
O O3 0.738490 0.262879 0.209349
O O4 0.681850 0.271685 0.838541
O O5 0.559834 0.107182 0.311572
O O6 0.508606 0.246880 0.306721
O O7 0.500000 0.203315 0.000000
O O8 0.450203 0.108691 0.116326
O O9 0.374005 0.500000 0.954866
O O10 0.395500 0.625165 0.795343
O O11 0.463430 0.600305 0.153576
O O12 0.636494 0.879472 0.244735
O O13 0.662932 0.835848 0.575463
O O14 0.645352 0.000000 0.478025
O O15 0.133900 0.500000 0.022279
O O16 0.824319 0.164115 0.444451
O O17 0.928001 0.111797 0.575462
O O18 0.853257 0.000000 0.533296
O O19 0.500000 0.367158 0.500000
#
# Coordination Sequence:
#
# PCOD8093359 Si02
#       8
#     8   8   8   8   8   8   8   8
#     4  11  25  43  62  87 122 163 205 254 311 363
#     4  10  19  35  61  91 125 161 195 239 299 362
#     4  11  24  42  65  92 122 160 206 254 304 362
#     4  10  21  38  63  93 124 160 201 246 300 362
#     4  10  21  38  63  93 124 160 201 246 300 362
#     4  11  24  42  65  92 122 160 206 254 304 362
#     4  11  25  43  62  87 122 163 205 254 311 363
#     4  12  23  36  61  95 129 162 197 243 307 371
#
# _framework density 20.329257999999999
#
# number of rings (size 3 to 8) (size 9 to 14) (size 15 to 20)
#    0.000    1.250    2.500    3.375    0.000    8.500 
#    0.000    5.000    0.000    2.250    0.000    0.000 
#    0.000    0.000    0.000    0.000    0.000    0.000 
#
# Total GULP energy -396971.827607 kJ/mol
# GULP energy per Si atom -12405.369613 kJ/mol
# Density = 2.028299 g / cm^3
# Si number density = 20.329258 Si / 1000 Ang^3
#
#
#
# Elastic Constant Matrix: (Units=GPa)
#
#
# Indices 1 2 3 4 5 6 
#
# 1 40.8808 8.6584 -4.0033 0.0000 9.4911 0.0000
# 2 8.6584 111.8552 26.8377 0.0000 5.1179 0.0000
# 3 -4.0033 26.8377 78.5946 0.0000 11.2846 0.0000
# 4 0.0000 0.0000 0.0000 5.8325 0.0000 0.0924
# 5 9.4911 5.1179 11.2846 0.0000 33.9523 0.0000
# 6 0.0000 0.0000 0.0000 0.0924 0.0000 1.8488
#
#
#
# Elastic Compliance Matrix: (Units=1/GPa)
#
#
# Indices 1 2 3 4 5 6 
#
# 1 0.027293 -0.002561 0.003470 0.000000 -0.008397 0.000000
# 2 -0.002561 0.009983 -0.003598 0.000000 0.000407 0.000000
# 3 0.003470 -0.003598 0.014901 0.000000 -0.005380 0.000000
# 4 0.000000 0.000000 0.000000 0.171589 0.000000 -0.008579
# 5 -0.008397 0.000407 -0.005380 0.000000 0.033527 0.000000
# 6 0.000000 0.000000 0.000000 -0.008579 0.000000 0.541317
#
#
# Mechanical properties :
#
#
# Convention : Reuss Voigt Hill
#
# Bulk Modulus (GPa) = 21.36733 32.70178 27.03456
# Shear Modulus (GPa) = 6.10062 21.64925 13.87494
#
# Velocity S-wave (km/s) = 1.73419 3.26687 2.61532
# Velocity P-wave (km/s) = 3.81357 5.50916 4.73784
#
# Compressibility (1/GPa) = 0.04680042
#
# Stress axis : x y z
#
# Youngs Moduli (GPa) = 36.63929 100.17047 67.10806
#
# Poissons Ratio (x) = 0.25655 -0.23289
# Poissons Ratio (y) = 0.09384 0.24144
# Poissons Ratio (z) = -0.12715 0.36039
#
# Static dielectric constant tensor:
#      x y z
#    x 3.652850 0.000000 0.045510 
#    y 0.000000 3.734520 0.000000 
#    z 0.045510 0.000000 3.746700 
# 
# 
# High freq. dielectric constant tensor:
#      x y z
#    x 1.789330 0.000000 0.000060 
#    y 0.000000 1.804180 0.000000 
#    z 0.000060 0.000000 1.795970 
# 
# From -- ./inp_files/112025.got.cif
#   From: 2010.06.25/outbox.cif.g09.slc.cpg/sg12_57_cif.got.tgz:112025.got - 2010.06.28 00:19:55.
