data_PCOD8093659
_publ_section_title
;
Structure prediction by ZEFSAII (Michael W. Deem and Ramdas Pophale) SiO2 
 PCOD8093659
Probable space group: C 2/M
;
_chemical_formula_sum "Si O2"
_cell_formula_units_Z 56
_cell_length_a 10.901050
_cell_length_b 19.333271
_cell_length_c 13.772506
_cell_angle_alpha 90.000000
_cell_angle_beta 98.645975
_cell_angle_gamma 90.000000
_cell_volume 2869.611429
_symmetry_space_group_name_H-M "C 2/M"
_symmetry_group_IT_number 12
_symmetry_cell_setting 'monoclinic'
loop_
_space_group_symop_operation_xyz
x,y,z
-x,y,-z
-x,-y,-z
x,-y,z
1/2+x,1/2+y,z
1/2-x,1/2+y,-z
1/2-x,1/2-y,-z
1/2+x,1/2-y,z
loop_
_atom_site_type_symbol
_atom_site_label
_atom_site_fract_x
_atom_site_fract_y
_atom_site_fract_z
Si Si1 0.215572 0.155926 0.401385
Si Si2 0.377282 0.920194 0.924500
Si Si3 0.508374 0.316101 0.752584
Si Si4 0.066255 0.334793 0.256133
Si Si5 0.562122 0.078490 0.604530
Si Si6 0.903312 0.921493 0.076004
Si Si7 0.191051 0.801230 0.604244
O O1 0.124702 0.159191 0.299614
O O2 0.290352 0.084805 0.396036
O O3 0.151379 0.160327 0.499617
O O4 0.316734 0.218501 0.409446
O O5 0.374098 0.872874 0.828814
O O6 0.244729 0.909068 0.966059
O O7 0.390246 0.000000 0.894803
O O8 0.500000 0.898420 0.000000
O O9 0.500003 0.236324 0.786750
O O10 0.555670 0.364691 0.842755
O O11 0.599211 0.327253 0.674308
O O12 0.169343 0.319890 0.349294
O O13 0.967379 0.382555 0.298679
O O14 0.500000 0.109778 0.500000
O O15 0.520991 0.000000 0.614486
O O16 0.917098 0.000000 0.118059
O O17 0.000000 0.911240 0.000000
#
# Coordination Sequence:
#
# PCOD8093659 Si02
#       7
#     8   8   8   8   8   8   8
#     4  10  21  34  58  87 122 164 201 246 288 360
#     4  10  22  42  66  89 115 157 206 254 310 372
#     4  11  22  37  63  93 119 158 203 250 305 366
#     4  11  21  37  62  89 119 157 202 249 302 361
#     4  11  22  36  55  84 124 163 204 250 298 352
#     4  10  23  45  68  89 122 162 203 257 321 383
#     4  10  19  36  58  84 122 161 203 240 295 352
#
# _framework density 19.514835999999999
#
# number of rings (size 3 to 8) (size 9 to 14) (size 15 to 20)
#    0.000    1.571    4.286    0.857    0.000    2.286 
#    0.000    3.571    0.000    1.714    0.000    0.000 
#    0.000    0.000    0.000    0.000    0.000    0.000 
#
# Total GULP energy -347047.354542 kJ/mol
# GULP energy per Si atom -12394.548376 kJ/mol
# Density = 1.947042 g / cm^3
# Si number density = 19.514836 Si / 1000 Ang^3
#
#
#
# Elastic Constant Matrix: (Units=GPa)
#
#
# Indices 1 2 3 4 5 6 
#
# 1 110.5877 41.3261 42.0212 0.0000 -7.0700 0.0000
# 2 41.3261 84.2009 47.1659 0.0000 -1.6917 0.0000
# 3 42.0212 47.1659 83.3173 0.0000 -5.4217 0.0000
# 4 0.0000 0.0000 0.0000 29.5508 0.0000 1.8697
# 5 -7.0700 -1.6917 -5.4217 0.0000 35.9089 0.0000
# 6 0.0000 0.0000 0.0000 1.8697 0.0000 25.3937
#
#
#
# Elastic Compliance Matrix: (Units=1/GPa)
#
#
# Indices 1 2 3 4 5 6 
#
# 1 0.011989 -0.003695 -0.003850 0.000000 0.001605 0.000000
# 2 -0.003695 0.018546 -0.008711 0.000000 -0.001169 0.000000
# 3 -0.003850 -0.008711 0.018986 0.000000 0.001698 0.000000
# 4 0.000000 0.000000 0.000000 0.033998 0.000000 -0.002503
# 5 0.001605 -0.001169 0.001698 0.000000 0.028366 0.000000
# 6 0.000000 0.000000 0.000000 -0.002503 0.000000 0.039564
#
#
# Mechanical properties :
#
#
# Convention : Reuss Voigt Hill
#
# Bulk Modulus (GPa) = 58.79728 59.90359 59.35044
# Shear Modulus (GPa) = 26.36667 28.01020 27.18844
#
# Velocity S-wave (km/s) = 3.67973 3.79268 3.73663
# Velocity P-wave (km/s) = 6.94614 7.06699 7.00682
#
# Compressibility (1/GPa) = 0.01700759
#
# Stress axis : x y z
#
# Youngs Moduli (GPa) = 83.40842 53.91922 52.66946
#
# Poissons Ratio (x) = 0.19924 0.20280
# Poissons Ratio (y) = 0.30821 0.45883
# Poissons Ratio (z) = 0.32116 0.46971
#
# Static dielectric constant tensor:
#      x y z
#    x 3.689250 0.000000 -0.002470 
#    y 0.000000 3.532600 0.000000 
#    z -0.002470 0.000000 3.440200 
# 
# 
# High freq. dielectric constant tensor:
#      x y z
#    x 1.770030 0.000000 -0.005590 
#    y 0.000000 1.753460 0.000000 
#    z -0.005590 0.000000 1.746160 
# 
# From -- ./inp_files/133317.got.cif
#   From: 2010.06.25/outbox.cif.g09.slc.cpg/sg12_67_cif.got.tgz:133317.got - 2010.06.28 00:19:55.
