data_PCOD8093709
_publ_section_title
;
Structure prediction by ZEFSAII (Michael W. Deem and Ramdas Pophale) SiO2 
 PCOD8093709
Probable space group: C 2/M
;
_chemical_formula_sum "Si O2"
_cell_formula_units_Z 64
_cell_length_a 15.126408
_cell_length_b 18.315679
_cell_length_c 16.393969
_cell_angle_alpha 90.000000
_cell_angle_beta 131.382743
_cell_angle_gamma 90.000000
_cell_volume 3407.876154
_symmetry_space_group_name_H-M "C 2/M"
_symmetry_group_IT_number 12
_symmetry_cell_setting 'monoclinic'
loop_
_space_group_symop_operation_xyz
x,y,z
-x,y,-z
-x,-y,-z
x,-y,z
1/2+x,1/2+y,z
1/2-x,1/2+y,-z
1/2-x,1/2-y,-z
1/2+x,1/2-y,z
loop_
_atom_site_type_symbol
_atom_site_label
_atom_site_fract_x
_atom_site_fract_y
_atom_site_fract_z
Si Si1 0.816043 0.916621 0.810794
Si Si2 0.366244 0.077409 0.430092
Si Si3 0.070360 0.336279 0.263833
Si Si4 0.697304 0.835201 0.878849
Si Si5 0.287571 0.334110 0.112647
Si Si6 0.115801 0.415694 0.123615
Si Si7 0.443741 0.663100 0.744715
Si Si8 0.759045 0.665550 0.493440
O O1 0.689105 0.909921 0.691861
O O2 0.793428 0.879944 0.884800
O O3 0.908960 0.875699 0.808640
O O4 0.858588 0.000000 0.849734
O O5 0.500000 0.065910 0.500000
O O6 0.348563 0.147562 0.475415
O O7 0.314431 0.000000 0.435004
O O8 0.091672 0.375354 0.192570
O O9 0.075585 0.249256 0.254521
O O10 0.178528 0.366044 0.387051
O O11 0.940444 0.356293 0.220765
O O12 0.721448 0.751167 0.872364
O O13 0.723403 0.852369 0.988920
O O14 0.227043 0.379415 0.147384
O O15 0.423088 0.358630 0.192275
O O16 0.145111 0.500000 0.157857
O O17 0.000000 0.405766 0.000000
O O18 0.366929 0.635359 0.618226
O O19 0.750000 0.750000 0.500000
#
# Coordination Sequence:
#
# PCOD8093709 Si02
#       8
#     8   8   8   8   8   8   8   8
#     4  10  20  33  51  79 112 140 172 216 266 324
#     4   9  17  30  49  75 107 140 171 211 267 319
#     4  10  19  36  59  81 109 141 184 231 268 312
#     4  10  20  34  56  84 104 139 186 223 270 323
#     4  10  21  38  56  76 107 144 182 226 269 319
#     4  11  23  38  56  81 111 143 183 231 281 324
#     4   9  20  37  56  81 111 146 180 216 268 328
#     4   9  18  33  54  81 109 140 179 222 266 313
#
# _framework density 18.780024999999998
#
# number of rings (size 3 to 8) (size 9 to 14) (size 15 to 20)
#    0.000    2.250    1.250    1.500    0.000    2.500 
#    0.000    1.250    0.000    0.750    0.000    0.000 
#    0.000    0.000    0.000    0.000    0.000    0.000 
#
# Total GULP energy -396438.813840 kJ/mol
# GULP energy per Si atom -12388.712932 kJ/mol
# Density = 1.873728 g / cm^3
# Si number density = 18.780025 Si / 1000 Ang^3
#
#
#
# Elastic Constant Matrix: (Units=GPa)
#
#
# Indices 1 2 3 4 5 6 
#
# 1 111.2487 57.0999 35.6809 0.0000 2.9265 0.0000
# 2 57.0999 75.6600 34.1012 0.0000 -5.7694 0.0000
# 3 35.6809 34.1012 83.9770 0.0000 5.3781 0.0000
# 4 0.0000 0.0000 0.0000 18.6158 0.0000 -0.5933
# 5 2.9265 -5.7694 5.3781 0.0000 26.4956 0.0000
# 6 0.0000 0.0000 0.0000 -0.5933 0.0000 25.8958
#
#
#
# Elastic Compliance Matrix: (Units=1/GPa)
#
#
# Indices 1 2 3 4 5 6 
#
# 1 0.015332 -0.011050 -0.001788 0.000000 -0.003737 0.000000
# 2 -0.011050 0.024801 -0.005876 0.000000 0.007814 0.000000
# 3 -0.001788 -0.005876 0.015322 0.000000 -0.004192 0.000000
# 4 0.000000 0.000000 0.000000 0.053757 0.000000 0.001232
# 5 -0.003737 0.007814 -0.004192 0.000000 0.040707 0.000000
# 6 0.000000 0.000000 0.000000 0.001232 0.000000 0.038645
#
#
# Mechanical properties :
#
#
# Convention : Reuss Voigt Hill
#
# Bulk Modulus (GPa) = 55.47378 58.29439 56.88409
# Shear Modulus (GPa) = 21.55151 23.80170 22.67660
#
# Velocity S-wave (km/s) = 3.39126 3.56391 3.47866
# Velocity P-wave (km/s) = 6.70351 6.93133 6.81837
#
# Compressibility (1/GPa) = 0.01802653
#
# Stress axis : x y z
#
# Youngs Moduli (GPa) = 65.22184 40.32108 65.26364
#
# Poissons Ratio (x) = 0.44556 0.11669
# Poissons Ratio (y) = 0.72071 0.38352
# Poissons Ratio (z) = 0.11661 0.23694
#
# Static dielectric constant tensor:
#      x y z
#    x 3.334980 0.000000 0.046010 
#    y 0.000000 3.609890 0.000000 
#    z 0.046010 0.000000 4.041080 
# 
# 
# High freq. dielectric constant tensor:
#      x y z
#    x 1.719750 0.000000 0.006960 
#    y 0.000000 1.723550 0.000000 
#    z 0.006960 0.000000 1.739570 
# 
# From -- ./inp_files/216773.got.cif
#   From: 2010.06.25/outbox.cif.g09.slc.cpg/sg12_109_cif.got.tgz:216773.got - 2010.06.28 00:19:55.
