data_PCOD8093973
_publ_section_title
;
Structure prediction by ZEFSAII (Michael W. Deem and Ramdas Pophale) SiO2 
 PCOD8093973
Probable space group: C 2/M
;
_chemical_formula_sum "Si O2"
_cell_formula_units_Z 64
_cell_length_a 28.975269
_cell_length_b 8.972089
_cell_length_c 12.543364
_cell_angle_alpha 90.000000
_cell_angle_beta 89.534158
_cell_angle_gamma 90.000000
_cell_volume 3260.774157
_symmetry_space_group_name_H-M "C 2/M"
_symmetry_group_IT_number 12
_symmetry_cell_setting 'monoclinic'
loop_
_space_group_symop_operation_xyz
x,y,z
-x,y,-z
-x,-y,-z
x,-y,z
1/2+x,1/2+y,z
1/2-x,1/2+y,-z
1/2-x,1/2-y,-z
1/2+x,1/2-y,z
loop_
_atom_site_type_symbol
_atom_site_label
_atom_site_fract_x
_atom_site_fract_y
_atom_site_fract_z
Si Si1 0.421127 0.826902 0.209306
Si Si2 0.764074 0.169697 0.105860
Si Si3 0.365906 0.334497 0.043273
Si Si4 0.483842 0.174101 0.881423
Si Si5 0.661288 0.825141 0.378509
Si Si6 0.390616 0.326362 0.813995
Si Si7 0.147181 0.325284 0.613849
Si Si8 0.752379 0.322683 0.320329
O O1 0.401590 0.777371 0.095618
O O2 0.475530 0.791125 0.205565
O O3 0.393152 0.753517 0.310012
O O4 0.412697 0.000000 0.216345
O O5 0.819154 0.173219 0.110783
O O6 0.742924 0.265536 0.201356
O O7 0.745370 0.000000 0.109916
O O8 0.750000 0.250000 0.000000
O O9 0.387301 0.500000 0.049426
O O10 0.358758 0.293853 0.918539
O O11 0.441798 0.272945 0.841703
O O12 0.470206 0.000000 0.880013
O O13 0.500000 0.220443 0.000000
O O14 0.630015 0.761978 0.284901
O O15 0.635122 0.792131 0.490813
O O16 0.711289 0.748192 0.390259
O O17 0.668848 0.000000 0.360458
O O18 0.391381 0.500000 0.783835
O O19 0.149783 0.500000 0.635066
O O20 0.198043 0.261289 0.641187
O O21 0.748481 0.500000 0.324866
#
# Coordination Sequence:
#
# PCOD8093973 Si02
#       8
#     8   8   8   8   8   8   8   8
#     4  10  19  36  61  87 115 146 187 235 289 344
#     4  11  22  35  52  80 117 157 197 240 292 350
#     4  10  21  35  53  80 114 148 186 233 286 344
#     4  10  20  35  60  92 119 149 192 238 288 355
#     4  11  23  40  60  84 116 154 202 246 293 349
#     4  11  23  39  59  85 120 157 194 239 297 350
#     4   9  20  38  61  87 115 154 198 246 292 345
#     4  11  21  37  60  86 117 152 197 245 296 352
#
# _framework density 19.627241000000001
#
# number of rings (size 3 to 8) (size 9 to 14) (size 15 to 20)
#    0.000    1.625    2.500    2.625    0.000    2.750 
#    0.000    3.750    0.000    3.750    0.000    0.000 
#    0.000    0.000    0.000    0.000    0.000    0.000 
#
# Total GULP energy -396715.865437 kJ/mol
# GULP energy per Si atom -12397.370795 kJ/mol
# Density = 1.958257 g / cm^3
# Si number density = 19.627241 Si / 1000 Ang^3
#
#
#
# Elastic Constant Matrix: (Units=GPa)
#
#
# Indices 1 2 3 4 5 6 
#
# 1 69.9812 32.6775 38.2527 0.0000 -9.9278 0.0000
# 2 32.6775 64.3897 28.1512 0.0000 -7.9552 0.0000
# 3 38.2527 28.1512 105.7871 0.0000 -11.7788 0.0000
# 4 0.0000 0.0000 0.0000 21.8629 0.0000 0.4931
# 5 -9.9278 -7.9552 -11.7788 0.0000 25.6969 0.0000
# 6 0.0000 0.0000 0.0000 0.4931 0.0000 29.9580
#
#
#
# Elastic Compliance Matrix: (Units=1/GPa)
#
#
# Indices 1 2 3 4 5 6 
#
# 1 0.021430 -0.008189 -0.005196 0.000000 0.003363 0.000000
# 2 -0.008189 0.021004 -0.002378 0.000000 0.002249 0.000000
# 3 -0.005196 -0.002378 0.012286 0.000000 0.002888 0.000000
# 4 0.000000 0.000000 0.000000 0.045757 0.000000 -0.000753
# 5 0.003363 0.002249 0.002888 0.000000 0.042234 0.000000
# 6 0.000000 0.000000 0.000000 -0.000753 0.000000 0.033392
#
#
# Mechanical properties :
#
#
# Convention : Reuss Voigt Hill
#
# Bulk Modulus (GPa) = 43.11201 48.70232 45.90716
# Shear Modulus (GPa) = 23.21693 24.90867 24.06280
#
# Velocity S-wave (km/s) = 3.44305 3.56629 3.50521
# Velocity P-wave (km/s) = 6.14973 6.46726 6.31049
#
# Compressibility (1/GPa) = 0.02319539
#
# Stress axis : x y z
#
# Youngs Moduli (GPa) = 46.66273 47.61071 81.39300
#
# Poissons Ratio (x) = 0.38988 0.42289
# Poissons Ratio (y) = 0.38211 0.19354
# Poissons Ratio (z) = 0.24244 0.11321
#
# Static dielectric constant tensor:
#      x y z
#    x 3.757370 0.000000 -0.363290 
#    y 0.000000 3.492680 0.000000 
#    z -0.363290 0.000000 3.709220 
# 
# 
# High freq. dielectric constant tensor:
#      x y z
#    x 1.761030 0.000000 -0.013680 
#    y 0.000000 1.755170 0.000000 
#    z -0.013680 0.000000 1.766400 
# 
# From -- ./inp_files/187424.got.cif
#   From: 2010.06.25/outbox.cif.g09.slc.cpg/sg12_94_cif.got.tgz:187424.got - 2010.06.28 00:19:55.
