data_PCOD8093431
_publ_section_title
;
Structure prediction by ZEFSAII (Michael W. Deem and Ramdas Pophale) SiO2 
 PCOD8093431
Probable space group: C 2/M
;
_chemical_formula_sum "Si O2"
_cell_formula_units_Z 56
_cell_length_a 9.701906
_cell_length_b 15.079656
_cell_length_c 19.520416
_cell_angle_alpha 90.000000
_cell_angle_beta 91.748204
_cell_angle_gamma 90.000000
_cell_volume 2854.535019
_symmetry_space_group_name_H-M "C 2/M"
_symmetry_group_IT_number 12
_symmetry_cell_setting 'monoclinic'
loop_
_space_group_symop_operation_xyz
x,y,z
-x,y,-z
-x,-y,-z
x,-y,z
1/2+x,1/2+y,z
1/2-x,1/2+y,-z
1/2-x,1/2-y,-z
1/2+x,1/2-y,z
loop_
_atom_site_type_symbol
_atom_site_label
_atom_site_fract_x
_atom_site_fract_y
_atom_site_fract_z
Si Si1 0.095248 0.898760 0.566101
Si Si2 0.841989 0.335437 0.995326
Si Si3 0.350113 0.100264 0.846817
Si Si4 0.716522 0.737324 0.237112
Si Si5 0.972882 0.748111 0.330315
Si Si6 0.585232 0.102729 0.433813
Si Si7 0.168373 0.401552 0.859228
O O1 0.253895 0.879074 0.548835
O O2 0.000000 0.879313 0.500000
O O3 0.041631 0.834884 0.624066
O O4 0.078436 0.000000 0.591090
O O5 0.807386 0.387696 0.925278
O O6 0.750000 0.250000 0.000000
O O7 0.809184 0.399009 0.058771
O O8 0.000000 0.304233 0.000000
O O9 0.264339 0.165327 0.796184
O O10 0.511019 0.122621 0.838628
O O11 0.315955 0.000000 0.824180
O O12 0.566837 0.726172 0.267537
O O13 0.729608 0.665571 0.177104
O O14 0.824796 0.720530 0.299184
O O15 0.034851 0.663742 0.370947
O O16 0.500000 0.128997 0.500000
O O17 0.559171 0.000000 0.413470
O O18 0.204060 0.500000 0.834237
#
# Coordination Sequence:
#
# PCOD8093431 Si02
#       7
#     8   8   8   8   8   8   8
#     4  10  23  43  66  93 124 156 198 252 301 350
#     4  10  19  35  65  89 117 154 202 259 308 355
#     4  10  21  39  63  88 118 162 208 250 305 366
#     4  12  24  39  60  89 122 165 205 247 298 359
#     4  12  25  40  63  90 124 165 204 241 301 362
#     4  10  23  43  67  93 121 158 202 247 297 357
#     4  10  21  39  62  89 120 158 208 255 301 361
#
# _framework density 19.617906000000001
#
# number of rings (size 3 to 8) (size 9 to 14) (size 15 to 20)
#    0.000    1.429    4.286    0.857    2.000    5.143 
#    0.000    0.000    0.000    0.857    0.000    0.000 
#    0.000    0.000    0.000    0.000    0.000    0.000 
#
# Total GULP energy -347296.933149 kJ/mol
# GULP energy per Si atom -12403.461898 kJ/mol
# Density = 1.957326 g / cm^3
# Si number density = 19.617906 Si / 1000 Ang^3
#
#
#
# Elastic Constant Matrix: (Units=GPa)
#
#
# Indices 1 2 3 4 5 6 
#
# 1 59.1530 46.8367 37.2687 0.0000 2.5592 0.0000
# 2 46.8367 115.4622 55.6004 0.0000 -14.8759 0.0000
# 3 37.2687 55.6004 98.8846 0.0000 -10.0182 0.0000
# 4 0.0000 0.0000 0.0000 20.4842 0.0000 3.8473
# 5 2.5592 -14.8759 -10.0182 0.0000 34.1777 0.0000
# 6 0.0000 0.0000 0.0000 3.8473 0.0000 29.0155
#
#
#
# Elastic Compliance Matrix: (Units=1/GPa)
#
#
# Indices 1 2 3 4 5 6 
#
# 1 0.028959 -0.009809 -0.006236 0.000000 -0.008266 0.000000
# 2 -0.009809 0.015574 -0.004430 0.000000 0.006214 0.000000
# 3 -0.006236 -0.004430 0.015259 0.000000 0.003012 0.000000
# 4 0.000000 0.000000 0.000000 0.050065 0.000000 -0.006638
# 5 -0.008266 0.006214 0.003012 0.000000 0.033465 0.000000
# 6 0.000000 0.000000 0.000000 -0.006638 0.000000 0.035345
#
#
# Mechanical properties :
#
#
# Convention : Reuss Voigt Hill
#
# Bulk Modulus (GPa) = 53.07637 61.43460 57.25549
# Shear Modulus (GPa) = 22.13389 25.65506 23.89447
#
# Velocity S-wave (km/s) = 3.36259 3.62019 3.49376
# Velocity P-wave (km/s) = 6.49537 6.98984 6.74714
#
# Compressibility (1/GPa) = 0.01884077
#
# Stress axis : x y z
#
# Youngs Moduli (GPa) = 34.53207 64.21049 65.53330
#
# Poissons Ratio (x) = 0.62982 0.40869
# Poissons Ratio (y) = 0.33872 0.29033
# Poissons Ratio (z) = 0.21536 0.28447
#
# Static dielectric constant tensor:
#      x y z
#    x 3.571460 0.000000 -0.036960 
#    y 0.000000 3.682860 0.000000 
#    z -0.036960 0.000000 3.695250 
# 
# 
# High freq. dielectric constant tensor:
#      x y z
#    x 1.757340 0.000000 -0.003860 
#    y 0.000000 1.770000 0.000000 
#    z -0.003860 0.000000 1.771550 
# 
# From -- ./inp_files/300163.got.cif
#   From: 2010.06.25/outbox.cif.g09.slc.cpg/sg12_151_cif.got.tgz:300163.got - 2010.06.28 00:19:55.
