data_PCOD8093496
_publ_section_title
;
Structure prediction by ZEFSAII (Michael W. Deem and Ramdas Pophale) SiO2 
 PCOD8093496
Probable space group: C 2/M
;
_chemical_formula_sum "Si O2"
_cell_formula_units_Z 48
_cell_length_a 15.893788
_cell_length_b 31.860423
_cell_length_c 8.913198
_cell_angle_alpha 90.000000
_cell_angle_beta 31.972776
_cell_angle_gamma 90.000000
_cell_volume 2389.966451
_symmetry_space_group_name_H-M "C 2/M"
_symmetry_group_IT_number 12
_symmetry_cell_setting 'monoclinic'
loop_
_space_group_symop_operation_xyz
x,y,z
-x,y,-z
-x,-y,-z
x,-y,z
1/2+x,1/2+y,z
1/2-x,1/2+y,-z
1/2-x,1/2-y,-z
1/2+x,1/2-y,z
loop_
_atom_site_type_symbol
_atom_site_label
_atom_site_fract_x
_atom_site_fract_y
_atom_site_fract_z
Si Si1 0.180951 0.235341 0.257584
Si Si2 0.324040 0.694277 0.239034
Si Si3 0.674492 0.923597 0.695142
Si Si4 0.674712 0.830423 0.768426
Si Si5 0.001104 0.952141 0.326639
Si Si6 0.662506 0.398236 0.841702
O O1 0.211484 0.270489 0.338309
O O2 0.260569 0.191115 0.179241
O O3 0.000000 0.226658 0.500000
O O4 0.250000 0.250000 0.000000
O O5 0.281256 0.684038 0.471942
O O6 0.309746 0.651149 0.162718
O O7 0.500000 0.712134 0.000000
O O8 0.682358 0.880288 0.776085
O O9 0.821828 0.951047 0.531121
O O10 0.696193 0.916093 0.481101
O O11 0.500000 0.943782 0.000000
O O12 0.500000 0.814011 0.000000
O O13 0.000000 0.936423 0.500000
O O14 0.060147 0.000000 0.226891
O O15 0.134693 0.924624 0.036211
O O16 0.500000 0.402521 0.000000
#
# Coordination Sequence:
#
# PCOD8093496 Si02
#       6
#     8   8   8   8   8   8
#     4  12  24  34  49  79 110 139 180 226 271 315
#     4  10  19  36  56  73  99 140 185 222 267 320
#     4   9  19  35  58  84 106 138 186 231 268 314
#     4  10  20  37  56  74 104 145 182 218 268 322
#     4  10  21  37  57  83 114 146 177 216 276 340
#     4   8  17  34  57  80 102 140 187 225 265 324
#
# _framework density 20.083964000000002
#
# number of rings (size 3 to 8) (size 9 to 14) (size 15 to 20)
#    0.000    2.167    0.000    4.000    0.000    5.333 
#    0.000    0.833    0.000    2.000    0.000    0.000 
#    0.000    0.000    0.000    0.000    0.000    0.000 
#
# Total GULP energy -297444.528267 kJ/mol
# GULP energy per Si atom -12393.522011 kJ/mol
# Density = 2.003825 g / cm^3
# Si number density = 20.083964 Si / 1000 Ang^3
#
#
#
# Elastic Constant Matrix: (Units=GPa)
#
#
# Indices 1 2 3 4 5 6 
#
# 1 73.1210 25.7983 20.5086 0.0000 -2.0701 0.0000
# 2 25.7983 76.7113 15.1147 0.0000 10.3142 0.0000
# 3 20.5086 15.1147 101.8165 0.0000 -6.3990 0.0000
# 4 0.0000 0.0000 0.0000 21.1582 0.0000 8.7298
# 5 -2.0701 10.3142 -6.3990 0.0000 35.8048 0.0000
# 6 0.0000 0.0000 0.0000 8.7298 0.0000 25.9798
#
#
#
# Elastic Compliance Matrix: (Units=1/GPa)
#
#
# Indices 1 2 3 4 5 6 
#
# 1 0.016258 -0.005276 -0.002364 0.000000 0.002037 0.000000
# 2 -0.005276 0.015820 -0.001609 0.000000 -0.005150 0.000000
# 3 -0.002364 -0.001609 0.010677 0.000000 0.002235 0.000000
# 4 0.000000 0.000000 0.000000 0.054870 0.000000 -0.018438
# 5 0.002037 -0.005150 0.002235 0.000000 0.029930 0.000000
# 6 0.000000 0.000000 0.000000 -0.018438 0.000000 0.044687
#
#
# Mechanical properties :
#
#
# Convention : Reuss Voigt Hill
#
# Bulk Modulus (GPa) = 41.22497 41.61021 41.41759
# Shear Modulus (GPa) = 25.14774 29.27037 27.20905
#
# Velocity S-wave (km/s) = 3.54238 3.82173 3.68471
# Velocity P-wave (km/s) = 6.10755 6.34329 6.22653
#
# Compressibility (1/GPa) = 0.02425714
#
# Stress axis : x y z
#
# Youngs Moduli (GPa) = 61.50827 63.21232 93.65873
#
# Poissons Ratio (x) = 0.33350 0.22137
# Poissons Ratio (y) = 0.32451 0.15073
# Poissons Ratio (z) = 0.14538 0.10173
#
# Static dielectric constant tensor:
#      x y z
#    x 3.470740 0.000000 0.132260 
#    y 0.000000 3.899360 0.000000 
#    z 0.132260 0.000000 3.905840 
# 
# 
# High freq. dielectric constant tensor:
#      x y z
#    x 1.754820 0.000000 0.003650 
#    y 0.000000 1.780370 0.000000 
#    z 0.003650 0.000000 1.798630 
# 
# From -- ./inp_files/80553.got.cif
#   From: 2010.06.25/outbox.cif.g09.slc.cpg/sg12_41_cif.got.tgz:80553.got - 2010.06.28 00:19:55.
