data_PCOD8093290
_publ_section_title
;
Structure prediction by ZEFSAII (Michael W. Deem and Ramdas Pophale) SiO2 
 PCOD8093290
Probable space group: C 2/M
;
_chemical_formula_sum "Si O2"
_cell_formula_units_Z 48
_cell_length_a 20.519669
_cell_length_b 9.132723
_cell_length_c 14.978848
_cell_angle_alpha 90.000000
_cell_angle_beta 111.257250
_cell_angle_gamma 90.000000
_cell_volume 2616.057317
_symmetry_space_group_name_H-M "C 2/M"
_symmetry_group_IT_number 12
_symmetry_cell_setting 'monoclinic'
loop_
_space_group_symop_operation_xyz
x,y,z
-x,y,-z
-x,-y,-z
x,-y,z
1/2+x,1/2+y,z
1/2-x,1/2+y,-z
1/2-x,1/2-y,-z
1/2+x,1/2-y,z
loop_
_atom_site_type_symbol
_atom_site_label
_atom_site_fract_x
_atom_site_fract_y
_atom_site_fract_z
Si Si1 0.569023 0.327468 0.314406
Si Si2 0.422509 0.831512 0.982607
Si Si3 0.669290 0.672561 0.203799
Si Si4 0.070769 0.668884 0.809027
Si Si5 0.325866 0.826755 0.291603
Si Si6 0.923596 0.672212 0.498435
O O1 0.562357 0.500000 0.323452
O O2 0.627874 0.283972 0.272182
O O3 0.496008 0.266641 0.243511
O O4 0.592048 0.256439 0.418484
O O5 0.365635 0.741374 0.900425
O O6 0.418168 0.000000 0.950395
O O7 0.500000 0.770437 0.000000
O O8 0.404664 0.810834 0.077494
O O9 0.670182 0.500000 0.189322
O O10 0.747579 0.737460 0.251733
O O11 0.051081 0.500000 0.778522
O O12 0.133965 0.723354 0.777894
O O13 0.367274 0.769459 0.398906
O O14 0.322827 0.000000 0.294604
O O15 0.917066 0.500000 0.513138
O O16 0.000000 0.712256 0.500000
#
# Coordination Sequence:
#
# PCOD8093290 Si02
#       6
#     8   8   8   8   8   8
#     4  11  22  34  53  83 115 143 177 225 279 326
#     4  10  20  34  57  85 110 140 185 234 270 314
#     4  10  22  38  55  79 115 150 177 220 280 333
#     4  10  19  36  60  81 105 144 190 228 266 320
#     4   9  19  37  58  80 108 144 187 225 267 328
#     4  10  19  35  61  84 103 143 192 225 262 322
#
# _framework density 18.348222
#
# number of rings (size 3 to 8) (size 9 to 14) (size 15 to 20)
#    0.000    2.000    3.333    0.500    0.000    3.333 
#    0.000    1.667    0.000    0.000    0.000    0.000 
#    0.000    0.000    0.000    0.000    0.000    0.000 
#
# Total GULP energy -297668.653018 kJ/mol
# GULP energy per Si atom -12402.860542 kJ/mol
# Density = 1.830646 g / cm^3
# Si number density = 18.348222 Si / 1000 Ang^3
#
#
#
# Elastic Constant Matrix: (Units=GPa)
#
#
# Indices 1 2 3 4 5 6 
#
# 1 162.6427 38.9016 87.7006 0.0000 6.1127 0.0000
# 2 38.9016 26.4150 44.9719 0.0000 -7.8933 0.0000
# 3 87.7006 44.9719 151.7327 0.0000 2.2549 0.0000
# 4 0.0000 0.0000 0.0000 32.7421 0.0000 1.2142
# 5 6.1127 -7.8933 2.2549 0.0000 36.2254 0.0000
# 6 0.0000 0.0000 0.0000 1.2142 0.0000 14.3612
#
#
#
# Elastic Compliance Matrix: (Units=1/GPa)
#
#
# Indices 1 2 3 4 5 6 
#
# 1 0.010698 -0.013585 -0.002088 0.000000 -0.004635 0.000000
# 2 -0.013585 0.107664 -0.024464 0.000000 0.027275 0.000000
# 3 -0.002088 -0.024464 0.015136 0.000000 -0.005920 0.000000
# 4 0.000000 0.000000 0.000000 0.030638 0.000000 -0.002590
# 5 -0.004635 0.027275 -0.005920 0.000000 0.034699 0.000000
# 6 0.000000 0.000000 0.000000 -0.002590 0.000000 0.069851
#
#
# Mechanical properties :
#
#
# Convention : Reuss Voigt Hill
#
# Bulk Modulus (GPa) = 18.78835 75.99317 47.39076
# Shear Modulus (GPa) = 13.63512 27.94682 20.79097
#
# Velocity S-wave (km/s) = 2.72900 3.90697 3.36986
# Velocity P-wave (km/s) = 4.49355 7.86509 6.40514
#
# Compressibility (1/GPa) = 0.05322448
#
# Stress axis : x y z
#
# Youngs Moduli (GPa) = 93.47635 9.28815 66.06752
#
# Poissons Ratio (x) = 0.12618 0.13794
# Poissons Ratio (y) = 1.26991 1.61624
# Poissons Ratio (z) = 0.19517 0.22722
#
# Static dielectric constant tensor:
#      x y z
#    x 3.618050 0.000000 -0.059700 
#    y 0.000000 3.161030 0.000000 
#    z -0.059700 0.000000 3.522890 
# 
# 
# High freq. dielectric constant tensor:
#      x y z
#    x 1.715050 0.000000 -0.006170 
#    y 0.000000 1.688090 0.000000 
#    z -0.006170 0.000000 1.725270 
# 
# From -- ./inp_files/229833.got.cif
#   From: 2010.06.25/outbox.cif.g09.slc.cpg/sg12_115_cif.got.tgz:229833.got - 2010.06.28 00:19:55.
