data_PCOD8093195
_publ_section_title
;
Structure prediction by ZEFSAII (Michael W. Deem and Ramdas Pophale) SiO2 
 PCOD8093195
Probable space group: C 2/M
;
_chemical_formula_sum "Si O2"
_cell_formula_units_Z 48
_cell_length_a 26.805527
_cell_length_b 16.265436
_cell_length_c 11.732148
_cell_angle_alpha 90.000000
_cell_angle_beta 151.604316
_cell_angle_gamma 90.000000
_cell_volume 2432.601857
_symmetry_space_group_name_H-M "C 2/M"
_symmetry_group_IT_number 12
_symmetry_cell_setting 'monoclinic'
loop_
_space_group_symop_operation_xyz
x,y,z
-x,y,-z
-x,-y,-z
x,-y,z
1/2+x,1/2+y,z
1/2-x,1/2+y,-z
1/2-x,1/2-y,-z
1/2+x,1/2-y,z
loop_
_atom_site_type_symbol
_atom_site_label
_atom_site_fract_x
_atom_site_fract_y
_atom_site_fract_z
Si Si1 0.670170 0.662499 0.092831
Si Si2 0.845953 0.404732 0.880089
Si Si3 0.315345 0.826078 0.584910
Si Si4 0.800462 0.804106 0.267754
Si Si5 0.511439 0.771326 0.224709
Si Si6 0.381440 0.592064 0.236903
O O1 0.755544 0.631997 0.356858
O O2 0.712827 0.733911 0.094644
O O3 0.571462 0.697991 0.965398
O O4 0.639020 0.592023 0.940711
O O5 0.864679 0.500000 0.945423
O O6 0.835264 0.392927 0.722227
O O7 0.736727 0.373860 0.716510
O O8 0.946318 0.353548 0.129857
O O9 0.250000 0.750000 0.500000
O O10 0.426209 0.790678 0.765427
O O11 0.911158 0.761542 0.521660
O O12 0.806631 0.845821 0.156141
O O13 0.500000 0.618556 0.500000
O O14 0.360136 0.500000 0.238102
#
# Coordination Sequence:
#
# PCOD8093195 Si02
#       6
#     8   8   8   8   8   8
#     4  10  21  36  59  85 112 157 200 239 287 355
#     4  11  23  37  60  93 122 154 198 250 299 343
#     4  11  20  35  58  86 117 160 194 236 290 356
#     4  10  20  39  62  84 113 160 199 240 292 363
#     4  10  19  35  60  85 114 154 201 239 282 359
#     4  11  22  36  58  85 116 150 193 249 299 344
#
# _framework density 19.731960000000001
#
# number of rings (size 3 to 8) (size 9 to 14) (size 15 to 20)
#    0.000    1.500    6.667    1.500    0.000    2.000 
#    0.000    2.500    0.000    1.000    0.000   16.333 
#    0.000    0.000    0.000    0.000    0.000    0.000 
#
# Total GULP energy -297434.191392 kJ/mol
# GULP energy per Si atom -12393.091308 kJ/mol
# Density = 1.968705 g / cm^3
# Si number density = 19.731960 Si / 1000 Ang^3
#
#
#
# Elastic Constant Matrix: (Units=GPa)
#
#
# Indices 1 2 3 4 5 6 
#
# 1 88.0120 27.3281 47.9580 0.0000 -10.1130 0.0000
# 2 27.3281 80.9842 25.3958 0.0000 4.8496 0.0000
# 3 47.9580 25.3958 96.5273 0.0000 2.0299 0.0000
# 4 0.0000 0.0000 0.0000 20.0623 0.0000 -2.5633
# 5 -10.1130 4.8496 2.0299 0.0000 28.8381 0.0000
# 6 0.0000 0.0000 0.0000 -2.5633 0.0000 26.8544
#
#
#
# Elastic Compliance Matrix: (Units=1/GPa)
#
#
# Indices 1 2 3 4 5 6 
#
# 1 0.017778 -0.003953 -0.007950 0.000000 0.007459 0.000000
# 2 -0.003953 0.014456 -0.001762 0.000000 -0.003693 0.000000
# 3 -0.007950 -0.001762 0.014847 0.000000 -0.003537 0.000000
# 4 0.000000 0.000000 0.000000 0.050460 0.000000 0.004816
# 5 0.007459 -0.003693 -0.003537 0.000000 0.038162 0.000000
# 6 0.000000 0.000000 0.000000 0.004816 0.000000 0.037698
#
#
# Mechanical properties :
#
#
# Convention : Reuss Voigt Hill
#
# Bulk Modulus (GPa) = 50.62600 51.87637 51.25118
# Shear Modulus (GPa) = 24.11802 26.14041 25.12921
#
# Velocity S-wave (km/s) = 3.49991 3.64369 3.57252
# Velocity P-wave (km/s) = 6.48421 6.63699 6.56105
#
# Compressibility (1/GPa) = 0.01975269
#
# Stress axis : x y z
#
# Youngs Moduli (GPa) = 56.24792 69.17741 67.35237
#
# Poissons Ratio (x) = 0.27346 0.53544
# Poissons Ratio (y) = 0.22235 0.11864
# Poissons Ratio (z) = 0.44716 0.12186
#
# Static dielectric constant tensor:
#      x y z
#    x 3.692870 0.000000 0.193860 
#    y 0.000000 3.322020 0.000000 
#    z 0.193860 0.000000 3.744800 
# 
# 
# High freq. dielectric constant tensor:
#      x y z
#    x 1.772770 0.000000 0.011150 
#    y 0.000000 1.743070 0.000000 
#    z 0.011150 0.000000 1.769560 
# 
# From -- ./inp_files/177411.got.cif
#   From: 2010.06.25/outbox.cif.g09.slc.cpg/sg12_89_cif.got.tgz:177411.got - 2010.06.28 00:19:55.
