data_PCOD8093103
_publ_section_title
;
Structure prediction by ZEFSAII (Michael W. Deem and Ramdas Pophale) SiO2 
 PCOD8093103
Probable space group: C 2/M
;
_chemical_formula_sum "Si O2"
_cell_formula_units_Z 56
_cell_length_a 18.569048
_cell_length_b 8.673412
_cell_length_c 24.884781
_cell_angle_alpha 90.000000
_cell_angle_beta 46.212967
_cell_angle_gamma 90.000000
_cell_volume 2893.347648
_symmetry_space_group_name_H-M "C 2/M"
_symmetry_group_IT_number 12
_symmetry_cell_setting 'monoclinic'
loop_
_space_group_symop_operation_xyz
x,y,z
-x,y,-z
-x,-y,-z
x,-y,z
1/2+x,1/2+y,z
1/2-x,1/2+y,-z
1/2-x,1/2-y,-z
1/2+x,1/2-y,z
loop_
_atom_site_type_symbol
_atom_site_label
_atom_site_fract_x
_atom_site_fract_y
_atom_site_fract_z
Si Si1 0.142909 0.183783 0.572189
Si Si2 0.590607 0.317821 0.916457
Si Si3 0.224673 0.830193 0.296414
Si Si4 0.420915 0.678973 0.200372
Si Si5 0.496892 0.181564 0.265360
Si Si6 0.486856 0.316226 0.565941
Si Si7 0.207704 0.169712 0.181154
O O1 0.250000 0.250000 0.500000
O O2 0.094114 0.243270 0.653261
O O3 0.071689 0.245279 0.561558
O O4 0.149365 0.000000 0.572198
O O5 0.601735 0.500000 0.910387
O O6 0.565746 0.263296 0.868120
O O7 0.692507 0.254659 0.891702
O O8 0.500000 0.259641 0.000000
O O9 0.307467 0.714822 0.276739
O O10 0.119216 0.750347 0.361496
O O11 0.234611 0.852991 0.228629
O O12 0.235042 0.000000 0.318946
O O13 0.445200 0.500000 0.194181
O O14 0.490503 0.772149 0.205786
O O15 0.606179 0.234744 0.227797
O O16 0.488726 0.000000 0.276246
O O17 0.500000 0.249738 0.500000
O O18 0.486399 0.500000 0.567982
O O19 0.194797 0.000000 0.160880
#
# Coordination Sequence:
#
# PCOD8093103 Si02
#       7
#     8   8   8   8   8   8   8
#     4  11  23  40  58  83 117 155 196 244 298 349
#     4   9  19  38  63  91 122 153 187 231 286 351
#     4   9  17  33  55  79 108 145 186 231 282 341
#     4  10  21  36  57  86 117 148 187 238 288 341
#     4  12  24  39  59  82 114 158 202 245 291 344
#     4   9  18  33  54  78 107 143 185 230 281 339
#     4  10  19  35  59  86 115 150 191 237 286 342
#
# _framework density 19.354744
#
# number of rings (size 3 to 8) (size 9 to 14) (size 15 to 20)
#    0.000    2.000    1.429    2.571    2.000    1.429 
#    0.000    0.714    0.000    2.143    0.000    0.000 
#    0.000    0.000    0.000    0.000    0.000    0.000 
#
# Total GULP energy -346971.909799 kJ/mol
# GULP energy per Si atom -12391.853921 kJ/mol
# Density = 1.931069 g / cm^3
# Si number density = 19.354744 Si / 1000 Ang^3
#
#
#
# Elastic Constant Matrix: (Units=GPa)
#
#
# Indices 1 2 3 4 5 6 
#
# 1 82.4376 32.4594 44.7714 0.0000 -2.4796 0.0002
# 2 32.4594 84.1028 35.0707 -0.0001 -2.8183 0.0003
# 3 44.7714 35.0707 118.3751 0.0000 -19.9640 -0.0001
# 4 0.0000 -0.0001 0.0000 35.0155 0.0000 -30.8464
# 5 -2.4796 -2.8183 -19.9640 0.0000 32.8683 0.0000
# 6 0.0002 0.0003 -0.0001 -30.8464 0.0000 86.3603
#
#
#
# Elastic Compliance Matrix: (Units=1/GPa)
#
#
# Indices 1 2 3 4 5 6 
#
# 1 0.016698 -0.004246 -0.005466 0.000000 -0.002425 0.000000
# 2 -0.004246 0.014706 -0.002888 0.000000 -0.000814 0.000000
# 3 -0.005466 -0.002888 0.012545 0.000000 0.006959 0.000000
# 4 0.000000 0.000000 0.000000 0.041671 0.000000 0.014884
# 5 -0.002425 -0.000814 0.006959 0.000000 0.034399 0.000000
# 6 0.000000 0.000000 0.000000 0.014884 0.000000 0.016896
#
#
# Mechanical properties :
#
#
# Convention : Reuss Voigt Hill
#
# Bulk Modulus (GPa) = 53.34150 56.61316 54.97733
# Shear Modulus (GPa) = 29.69738 42.35643 36.02690
#
# Velocity S-wave (km/s) = 3.92136 4.68314 4.31907
# Velocity P-wave (km/s) = 6.93703 7.65220 7.30338
#
# Compressibility (1/GPa) = 0.01874713
#
# Stress axis : x y z
#
# Youngs Moduli (GPa) = 59.88659 67.99859 79.71582
#
# Poissons Ratio (x) = 0.28875 0.43576
# Poissons Ratio (y) = 0.25431 0.23023
# Poissons Ratio (z) = 0.32736 0.19639
#
# Static dielectric constant tensor:
#      x y z
#    x 3.634110 0.000000 -0.093650 
#    y 0.000000 3.570600 0.000000 
#    z -0.093650 0.000000 3.856590 
# 
# 
# High freq. dielectric constant tensor:
#      x y z
#    x 1.756080 0.000000 -0.009540 
#    y 0.000000 1.743100 0.000000 
#    z -0.009540 0.000000 1.744050 
# 
# From -- ./inp_files/342305.got.cif
#   From: 2010.06.25/outbox.cif.g09.slc.cpg/sg12_172_cif.got.tgz:342305.got - 2010.06.28 00:19:55.
