data_PCOD8093907
_publ_section_title
;
Structure prediction by ZEFSAII (Michael W. Deem and Ramdas Pophale) SiO2 
 PCOD8093907
Probable space group: C 2/M
;
_chemical_formula_sum "Si O2"
_cell_formula_units_Z 48
_cell_length_a 27.874791
_cell_length_b 8.704528
_cell_length_c 10.141156
_cell_angle_alpha 90.000000
_cell_angle_beta 89.165033
_cell_angle_gamma 90.000000
_cell_volume 2460.357365
_symmetry_space_group_name_H-M "C 2/M"
_symmetry_group_IT_number 12
_symmetry_cell_setting 'monoclinic'
loop_
_space_group_symop_operation_xyz
x,y,z
-x,y,-z
-x,-y,-z
x,-y,z
1/2+x,1/2+y,z
1/2-x,1/2+y,-z
1/2-x,1/2-y,-z
1/2+x,1/2-y,z
loop_
_atom_site_type_symbol
_atom_site_label
_atom_site_fract_x
_atom_site_fract_y
_atom_site_fract_z
Si Si1 0.977390 0.182731 0.636012
Si Si2 0.277573 0.819868 0.621308
Si Si3 0.280311 0.680276 0.115463
Si Si4 0.127265 0.817680 0.278346
Si Si5 0.537192 0.672020 0.881458
Si Si6 0.628154 0.821044 0.989415
O O1 0.923166 0.243586 0.659718
O O2 0.000000 0.248556 0.500000
O O3 0.011079 0.239828 0.753630
O O4 0.976383 0.000000 0.634805
O O5 0.250000 0.750000 0.500000
O O6 0.245959 0.778327 0.748820
O O7 0.330350 0.747502 0.632635
O O8 0.283715 0.000000 0.601654
O O9 0.286217 0.500000 0.094812
O O10 0.332027 0.760028 0.113493
O O11 0.250000 0.750000 0.000000
O O12 0.129376 0.000000 0.280684
O O13 0.132765 0.764847 0.127937
O O14 0.558039 0.500000 0.854578
O O15 0.578196 0.790189 0.919719
O O16 0.500000 0.661712 0.000000
O O17 0.635071 0.000000 0.016720
#
# Coordination Sequence:
#
# PCOD8093907 Si02
#       6
#     8   8   8   8   8   8
#     4   9  19  36  60  89 120 155 199 249 304 367
#     4  11  25  43  64  93 127 164 205 254 312 377
#     4  11  23  40  64  92 122 160 207 256 307 364
#     4  11  21  38  64  90 120 162 207 256 313 369
#     4  10  19  36  60  88 118 155 203 251 303 364
#     4  12  24  37  59  92 126 162 207 257 311 369
#
# _framework density 19.509361999999999
#
# number of rings (size 3 to 8) (size 9 to 14) (size 15 to 20)
#    0.000    1.333    3.333    3.000    0.000    3.667 
#    0.000    3.333    0.000    3.500    0.000    0.000 
#    0.000    0.000    0.000    0.000    0.000    0.000 
#
# Total GULP energy -297677.733545 kJ/mol
# GULP energy per Si atom -12403.238898 kJ/mol
# Density = 1.946496 g / cm^3
# Si number density = 19.509362 Si / 1000 Ang^3
#
#
#
# Elastic Constant Matrix: (Units=GPa)
#
#
# Indices 1 2 3 4 5 6 
#
# 1 141.2026 44.5298 63.1159 0.0000 12.2044 0.0000
# 2 44.5298 71.7041 44.5926 0.0000 -1.2631 0.0000
# 3 63.1159 44.5926 137.6791 0.0000 16.7671 0.0000
# 4 0.0000 0.0000 0.0000 24.5946 0.0000 5.5998
# 5 12.2044 -1.2631 16.7671 0.0000 37.1976 0.0000
# 6 0.0000 0.0000 0.0000 5.5998 0.0000 37.6094
#
#
#
# Elastic Compliance Matrix: (Units=1/GPa)
#
#
# Indices 1 2 3 4 5 6 
#
# 1 0.009943 -0.004431 -0.002865 0.000000 -0.002121 0.000000
# 2 -0.004431 0.019836 -0.004923 0.000000 0.004346 0.000000
# 3 -0.002865 -0.004923 0.010662 0.000000 -0.004033 0.000000
# 4 0.000000 0.000000 0.000000 0.042086 0.000000 -0.006266
# 5 -0.002121 0.004346 -0.004033 0.000000 0.029545 0.000000
# 6 0.000000 0.000000 0.000000 -0.006266 0.000000 0.027522
#
#
# Mechanical properties :
#
#
# Convention : Reuss Voigt Hill
#
# Bulk Modulus (GPa) = 62.48175 72.78470 67.63322
# Shear Modulus (GPa) = 29.52193 33.10350 31.31271
#
# Velocity S-wave (km/s) = 3.89423 4.12369 4.01060
# Velocity P-wave (km/s) = 7.23299 7.74995 7.49593
#
# Compressibility (1/GPa) = 0.01600467
#
# Stress axis : x y z
#
# Youngs Moduli (GPa) = 100.57137 50.41404 93.78949
#
# Poissons Ratio (x) = 0.22337 0.26869
# Poissons Ratio (y) = 0.44560 0.46170
# Poissons Ratio (z) = 0.28812 0.24817
#
# Static dielectric constant tensor:
#      x y z
#    x 3.759130 0.000000 -0.000840 
#    y 0.000000 3.467160 0.000000 
#    z -0.000840 0.000000 3.561100 
# 
# 
# High freq. dielectric constant tensor:
#      x y z
#    x 1.776500 0.000000 0.001370 
#    y 0.000000 1.749210 0.000000 
#    z 0.001370 0.000000 1.759850 
# 
# From -- ./inp_files/108631.got.cif
#   From: 2010.06.25/outbox.cif.g09.slc.cpg/sg12_55_cif.got.tgz:108631.got - 2010.06.28 00:19:55.
