data_PCOD8093983
_publ_section_title
;
Structure prediction by ZEFSAII (Michael W. Deem and Ramdas Pophale) SiO2 
 PCOD8093983
Probable space group: C 2/M
;
_chemical_formula_sum "Si O2"
_cell_formula_units_Z 64
_cell_length_a 15.385019
_cell_length_b 8.717826
_cell_length_c 27.835305
_cell_angle_alpha 90.000000
_cell_angle_beta 121.787664
_cell_angle_gamma 90.000000
_cell_volume 3173.396037
_symmetry_space_group_name_H-M "C 2/M"
_symmetry_group_IT_number 12
_symmetry_cell_setting 'monoclinic'
loop_
_space_group_symop_operation_xyz
x,y,z
-x,y,-z
-x,-y,-z
x,-y,z
1/2+x,1/2+y,z
1/2-x,1/2+y,-z
1/2-x,1/2-y,-z
1/2+x,1/2-y,z
loop_
_atom_site_type_symbol
_atom_site_label
_atom_site_fract_x
_atom_site_fract_y
_atom_site_fract_z
Si Si1 0.982095 0.818635 0.140330
Si Si2 0.653962 0.681357 0.259914
Si Si3 0.660703 0.823314 0.752484
Si Si4 0.202681 0.818467 0.379370
Si Si5 0.563015 0.318416 0.063261
Si Si6 0.281485 0.321506 0.133205
Si Si7 0.081471 0.179057 0.564587
Si Si8 0.015630 0.677050 0.370740
O O1 0.864647 0.776377 0.116815
O O2 0.055300 0.749671 0.203444
O O3 0.015091 0.749443 0.098381
O O4 0.998113 0.000000 0.144131
O O5 0.646116 0.500000 0.260644
O O6 0.754530 0.732272 0.260583
O O7 0.662121 0.745930 0.316281
O O8 0.668625 0.717123 0.801195
O O9 0.550216 0.799457 0.696753
O O10 0.679981 0.000000 0.772825
O O11 0.310300 0.740646 0.422930
O O12 0.120873 0.771068 0.396161
O O13 0.217708 0.000000 0.383700
O O14 0.554426 0.500000 0.061134
O O15 0.680930 0.274462 0.092802
O O16 0.500000 0.249703 0.000000
O O17 0.254421 0.500000 0.123692
O O18 0.000000 0.216620 0.500000
O O19 0.049804 0.265206 0.603619
O O20 0.088848 0.000000 0.577880
O O21 0.042186 0.500000 0.386670
#
# Coordination Sequence:
#
# PCOD8093983 Si02
#       8
#     8   8   8   8   8   8   8   8
#     4   9  18  34  56  81 114 150 184 227 284 348
#     4   9  16  32  59  85 114 152 189 230 287 350
#     4  10  19  36  61  87 118 155 193 235 285 350
#     4  11  22  39  64  93 122 159 201 245 305 366
#     4  10  21  39  61  80 105 152 203 240 285 350
#     4  11  22  35  56  87 117 149 187 237 298 348
#     4  11  25  44  64  88 120 160 207 257 303 353
#     4  11  23  40  63  93 125 160 200 247 303 360
#
# _framework density 20.167670000000001
#
# number of rings (size 3 to 8) (size 9 to 14) (size 15 to 20)
#    0.000    1.750    2.500    2.250    0.000    4.250 
#    0.000    1.250    0.000    0.000    0.000    0.000 
#    0.000    0.000    0.000    0.000    0.000    0.000 
#
# Total GULP energy -396876.165109 kJ/mol
# GULP energy per Si atom -12402.380160 kJ/mol
# Density = 2.012177 g / cm^3
# Si number density = 20.167670 Si / 1000 Ang^3
#
#
#
# Elastic Constant Matrix: (Units=GPa)
#
#
# Indices 1 2 3 4 5 6 
#
# 1 101.3185 9.7334 26.8051 0.0000 20.4534 0.0000
# 2 9.7334 30.5753 28.0941 0.0000 -0.1763 0.0000
# 3 26.8051 28.0941 95.6115 0.0000 12.3368 0.0000
# 4 0.0000 0.0000 0.0000 23.9393 0.0000 3.8980
# 5 20.4534 -0.1763 12.3368 0.0000 20.3126 0.0000
# 6 0.0000 0.0000 0.0000 3.8980 0.0000 30.4017
#
#
#
# Elastic Compliance Matrix: (Units=1/GPa)
#
#
# Indices 1 2 3 4 5 6 
#
# 1 0.012976 -0.003196 -0.001095 0.000000 -0.012428 0.000000
# 2 -0.003196 0.047195 -0.014582 0.000000 0.012485 0.000000
# 3 -0.001095 -0.014582 0.016194 0.000000 -0.008859 0.000000
# 4 0.000000 0.000000 0.000000 0.042663 0.000000 -0.005470
# 5 -0.012428 0.012485 -0.008859 0.000000 0.067234 0.000000
# 6 0.000000 0.000000 0.000000 -0.005470 0.000000 0.033594
#
#
# Mechanical properties :
#
#
# Convention : Reuss Voigt Hill
#
# Bulk Modulus (GPa) = 25.89528 39.64116 32.76822
# Shear Modulus (GPa) = 18.48602 25.78888 22.13745
#
# Velocity S-wave (km/s) = 3.03085 3.57980 3.31670
# Velocity P-wave (km/s) = 5.01158 6.06507 5.56332
#
# Compressibility (1/GPa) = 0.03861707
#
# Stress axis : x y z
#
# Youngs Moduli (GPa) = 77.06825 21.18886 61.75164
#
# Poissons Ratio (x) = 0.06772 0.06762
# Poissons Ratio (y) = 0.24633 0.90048
# Poissons Ratio (z) = 0.08439 0.30898
#
# Static dielectric constant tensor:
#      x y z
#    x 3.758860 0.000000 -0.031850 
#    y 0.000000 3.345800 0.000000 
#    z -0.031850 0.000000 3.785020 
# 
# 
# High freq. dielectric constant tensor:
#      x y z
#    x 1.800530 0.000000 0.005760 
#    y 0.000000 1.761290 0.000000 
#    z 0.005760 0.000000 1.787400 
# 
# From -- ./inp_files/375654.got.cif
#   From: 2010.06.25/outbox.cif.g09.slc.cpg/sg12_188_cif.got.tgz:375654.got - 2010.06.28 00:19:55.
