data_PCOD8093850
_publ_section_title
;
Structure prediction by ZEFSAII (Michael W. Deem and Ramdas Pophale) SiO2 
 PCOD8093850
Probable space group: C 2/M
;
_chemical_formula_sum "Si O2"
_cell_formula_units_Z 64
_cell_length_a 25.867935
_cell_length_b 9.172423
_cell_length_c 14.037918
_cell_angle_alpha 90.000000
_cell_angle_beta 87.553727
_cell_angle_gamma 90.000000
_cell_volume 3327.764445
_symmetry_space_group_name_H-M "C 2/M"
_symmetry_group_IT_number 12
_symmetry_cell_setting 'monoclinic'
loop_
_space_group_symop_operation_xyz
x,y,z
-x,y,-z
-x,-y,-z
x,-y,z
1/2+x,1/2+y,z
1/2-x,1/2+y,-z
1/2-x,1/2-y,-z
1/2+x,1/2-y,z
loop_
_atom_site_type_symbol
_atom_site_label
_atom_site_fract_x
_atom_site_fract_y
_atom_site_fract_z
Si Si1 0.276827 0.831908 0.911888
Si Si2 0.435238 0.830525 0.733428
Si Si3 0.258530 0.332287 0.293579
Si Si4 0.547612 0.666207 0.935810
Si Si5 0.153479 0.327274 0.399594
Si Si6 0.117875 0.166879 0.102308
Si Si7 0.948788 0.331976 0.259641
Si Si8 0.148609 0.326970 0.614014
O O1 0.242180 0.816306 0.820334
O O2 0.331994 0.763546 0.885262
O O3 0.284141 0.000000 0.939502
O O4 0.250000 0.750000 0.000000
O O5 0.397444 0.773363 0.652909
O O6 0.426944 0.732766 0.827607
O O7 0.494790 0.807074 0.697736
O O8 0.424055 0.000000 0.758321
O O9 0.266759 0.500000 0.322819
O O10 0.205139 0.271282 0.342827
O O11 0.305385 0.237217 0.327461
O O12 0.533879 0.500000 0.910369
O O13 0.558170 0.751120 0.838978
O O14 0.500000 0.733947 0.000000
O O15 0.599642 0.675919 0.994499
O O16 0.153089 0.500000 0.402401
O O17 0.151745 0.263893 0.506595
O O18 0.129319 0.000000 0.130084
O O19 0.939456 0.500000 0.236994
O O20 0.906091 0.275679 0.337763
O O21 0.154062 0.500000 0.613799
#
# Coordination Sequence:
#
# PCOD8093850 Si02
#       8
#     8   8   8   8   8   8   8   8
#     4  11  24  41  60  86 120 153 191 235 288 345
#     4  10  19  36  60  84 115 154 192 238 290 340
#     4  10  21  39  61  84 112 152 193 231 284 348
#     4  10  21  37  56  79 111 152 190 226 277 338
#     4   9  18  37  62  84 111 147 191 240 292 343
#     4  11  22  37  58  85 114 150 196 238 285 342
#     4  10  22  36  55  87 118 149 193 237 287 343
#     4  10  22  38  57  86 118 149 190 240 288 342
#
# _framework density 19.232130999999999
#
# number of rings (size 3 to 8) (size 9 to 14) (size 15 to 20)
#    0.000    1.875    2.500    1.125    1.750    3.250 
#    0.000    3.125    0.000    0.000    0.000    2.625 
#    0.000    0.000    0.000    0.000    0.000    0.000 
#
# Total GULP energy -396872.654794 kJ/mol
# GULP energy per Si atom -12402.270462 kJ/mol
# Density = 1.918836 g / cm^3
# Si number density = 19.232131 Si / 1000 Ang^3
#
#
#
# Elastic Constant Matrix: (Units=GPa)
#
#
# Indices 1 2 3 4 5 6 
#
# 1 128.0187 40.9841 57.1525 0.0000 -2.1848 0.0000
# 2 40.9841 64.8649 43.3736 0.0000 -1.3814 0.0000
# 3 57.1525 43.3736 117.2341 0.0000 -11.2047 0.0000
# 4 0.0000 0.0000 0.0000 21.8418 0.0000 2.1929
# 5 -2.1848 -1.3814 -11.2047 0.0000 33.4620 0.0000
# 6 0.0000 0.0000 0.0000 2.1929 0.0000 29.8610
#
#
#
# Elastic Compliance Matrix: (Units=1/GPa)
#
#
# Indices 1 2 3 4 5 6 
#
# 1 0.010875 -0.004379 -0.003751 0.000000 -0.000727 0.000000
# 2 -0.004379 0.022347 -0.006273 0.000000 -0.001464 0.000000
# 3 -0.003751 -0.006273 0.013049 0.000000 0.003866 0.000000
# 4 0.000000 0.000000 0.000000 0.046124 0.000000 -0.003387
# 5 -0.000727 -0.001464 0.003866 0.000000 0.031071 0.000000
# 6 0.000000 0.000000 0.000000 -0.003387 0.000000 0.033737
#
#
# Mechanical properties :
#
#
# Convention : Reuss Voigt Hill
#
# Bulk Modulus (GPa) = 57.25647 65.90421 61.58034
# Shear Modulus (GPa) = 26.06461 28.27347 27.16904
#
# Velocity S-wave (km/s) = 3.68538 3.83837 3.76265
# Velocity P-wave (km/s) = 6.92425 7.34753 7.13903
#
# Compressibility (1/GPa) = 0.01746527
#
# Stress axis : x y z
#
# Youngs Moduli (GPa) = 91.95004 44.74955 76.63377
#
# Poissons Ratio (x) = 0.19594 0.28748
# Poissons Ratio (y) = 0.40261 0.48072
# Poissons Ratio (z) = 0.34494 0.28071
#
# Static dielectric constant tensor:
#      x y z
#    x 3.682340 0.000000 -0.069410 
#    y 0.000000 3.355990 0.000000 
#    z -0.069410 0.000000 3.627110 
# 
# 
# High freq. dielectric constant tensor:
#      x y z
#    x 1.758550 0.000000 0.002750 
#    y 0.000000 1.730970 0.000000 
#    z 0.002750 0.000000 1.749730 
# 
# From -- ./inp_files/238713.got.cif
#   From: 2010.06.25/outbox.cif.g09.slc.cpg/sg12_120_cif.got.tgz:238713.got - 2010.06.28 00:19:55.
