data_PCOD8093249
_publ_section_title
;
Structure prediction by ZEFSAII (Michael W. Deem and Ramdas Pophale) SiO2 
 PCOD8093249
Probable space group: C 2/M
;
_chemical_formula_sum "Si O2"
_cell_formula_units_Z 48
_cell_length_a 19.623826
_cell_length_b 15.890036
_cell_length_c 10.566067
_cell_angle_alpha 90.000000
_cell_angle_beta 135.668103
_cell_angle_gamma 90.000000
_cell_volume 2302.413270
_symmetry_space_group_name_H-M "C 2/M"
_symmetry_group_IT_number 12
_symmetry_cell_setting 'monoclinic'
loop_
_space_group_symop_operation_xyz
x,y,z
-x,y,-z
-x,-y,-z
x,-y,z
1/2+x,1/2+y,z
1/2-x,1/2+y,-z
1/2-x,1/2-y,-z
1/2+x,1/2-y,z
loop_
_atom_site_type_symbol
_atom_site_label
_atom_site_fract_x
_atom_site_fract_y
_atom_site_fract_z
Si Si1 0.568905 0.384096 0.699845
Si Si2 0.946539 0.695490 0.307242
Si Si3 0.212342 0.403926 0.314075
Si Si4 0.063307 0.722680 0.203516
Si Si5 0.083108 0.093053 0.294868
Si Si6 0.789384 0.408648 0.971860
O O1 0.500000 0.425108 0.500000
O O2 0.585131 0.286944 0.689472
O O3 0.518730 0.402536 0.766967
O O4 0.675767 0.422746 0.850538
O O5 0.000000 0.652353 0.500000
O O6 0.012864 0.702379 0.270229
O O7 0.844996 0.648807 0.146289
O O8 0.174649 0.500000 0.287064
O O9 0.158916 0.336603 0.333209
O O10 0.327773 0.400081 0.489601
O O11 0.195091 0.372824 0.148253
O O12 0.087939 0.822589 0.214444
O O13 0.000000 0.692277 0.000000
O O14 0.087946 0.000000 0.231013
O O15 0.839277 0.500000 0.046309
#
# Coordination Sequence:
#
# PCOD8093249 Si02
#       6
#     8   8   8   8   8   8
#     4  10  19  35  60  88 121 160 202 248 303 364
#     4  10  23  41  60  87 123 162 204 252 301 357
#     4  10  21  37  61  92 121 158 207 252 296 364
#     4  11  22  40  63  88 122 165 205 248 305 362
#     4  10  21  37  58  89 125 159 201 251 305 364
#     4  11  21  35  60  92 123 158 203 250 304 364
#
# _framework density 20.847691000000001
#
# number of rings (size 3 to 8) (size 9 to 14) (size 15 to 20)
#    0.000    1.667    3.333    1.500    0.000    2.333 
#    0.000    0.000    0.000    4.000    0.000    0.000 
#    0.000    0.000    0.000    0.000    0.000    0.000 
#
# Total GULP energy -297392.692841 kJ/mol
# GULP energy per Si atom -12391.362202 kJ/mol
# Density = 2.080024 g / cm^3
# Si number density = 20.847691 Si / 1000 Ang^3
#
#
#
# Elastic Constant Matrix: (Units=GPa)
#
#
# Indices 1 2 3 4 5 6 
#
# 1 77.2175 44.2936 33.4987 0.0000 3.2605 0.0000
# 2 44.2936 109.4768 40.7935 0.0000 14.1837 0.0000
# 3 33.4987 40.7935 118.0214 0.0000 1.6876 0.0000
# 4 0.0000 0.0000 0.0000 129.9154 0.0000 -23.0547
# 5 3.2605 14.1837 1.6876 0.0000 29.9806 0.0000
# 6 0.0000 0.0000 0.0000 -23.0547 0.0000 27.1352
#
#
#
# Elastic Compliance Matrix: (Units=1/GPa)
#
#
# Indices 1 2 3 4 5 6 
#
# 1 0.017743 -0.006256 -0.002891 0.000000 0.001193 0.000000
# 2 -0.006256 0.013416 -0.002783 0.000000 -0.005510 0.000000
# 3 -0.002891 -0.002783 0.010240 0.000000 0.001054 0.000000
# 4 0.000000 0.000000 0.000000 0.009064 0.000000 0.007701
# 5 0.001193 -0.005510 0.001054 0.000000 0.035773 0.000000
# 6 0.000000 0.000000 0.000000 0.007701 0.000000 0.043395
#
#
# Mechanical properties :
#
#
# Convention : Reuss Voigt Hill
#
# Bulk Modulus (GPa) = 57.01158 60.20970 58.61064
# Shear Modulus (GPa) = 31.38002 49.81491 40.59747
#
# Velocity S-wave (km/s) = 3.88390 4.89352 4.41765
# Velocity P-wave (km/s) = 6.89341 7.80206 7.36177
#
# Compressibility (1/GPa) = 0.01754029
#
# Stress axis : x y z
#
# Youngs Moduli (GPa) = 56.36132 74.53613 97.65327
#
# Poissons Ratio (x) = 0.46630 0.28229
# Poissons Ratio (y) = 0.35259 0.27175
# Poissons Ratio (z) = 0.16292 0.20742
#
# Static dielectric constant tensor:
#      x y z
#    x 3.438270 0.000000 0.070710 
#    y 0.000000 4.012570 0.000000 
#    z 0.070710 0.000000 3.675370 
# 
# 
# High freq. dielectric constant tensor:
#      x y z
#    x 1.792790 0.000000 0.012550 
#    y 0.000000 1.829950 0.000000 
#    z 0.012550 0.000000 1.809060 
# 
# From -- ./inp_files/143166.got.cif
#   From: 2010.06.25/outbox.cif.g09.slc.cpg/sg12_72_cif.got.tgz:143166.got - 2010.06.28 00:19:55.
