data_PCOD8093146
_publ_section_title
;
Structure prediction by ZEFSAII (Michael W. Deem and Ramdas Pophale) SiO2 
 PCOD8093146
Probable space group: C 2/M
;
_chemical_formula_sum "Si O2"
_cell_formula_units_Z 64
_cell_length_a 16.682575
_cell_length_b 15.553285
_cell_length_c 23.137708
_cell_angle_alpha 90.000000
_cell_angle_beta 32.537901
_cell_angle_gamma 90.000000
_cell_volume 3229.034563
_symmetry_space_group_name_H-M "C 2/M"
_symmetry_group_IT_number 12
_symmetry_cell_setting 'monoclinic'
loop_
_space_group_symop_operation_xyz
x,y,z
-x,y,-z
-x,-y,-z
x,-y,z
1/2+x,1/2+y,z
1/2-x,1/2+y,-z
1/2-x,1/2-y,-z
1/2+x,1/2-y,z
loop_
_atom_site_type_symbol
_atom_site_label
_atom_site_fract_x
_atom_site_fract_y
_atom_site_fract_z
Si Si1 0.806907 0.690626 0.852098
Si Si2 0.593520 0.098564 0.704494
Si Si3 0.242988 0.099337 0.509201
Si Si4 0.062540 0.815002 0.320887
Si Si5 0.507753 0.745177 0.063938
Si Si6 0.291246 0.595640 0.195247
Si Si7 0.171492 0.402782 0.783136
Si Si8 0.002936 0.346060 0.429910
O O1 0.851163 0.768293 0.782941
O O2 0.743411 0.613241 0.851096
O O3 0.946034 0.655843 0.803990
O O4 0.680784 0.724289 0.973744
O O5 0.680601 0.135700 0.595853
O O6 0.695011 0.107309 0.699762
O O7 0.547042 0.000000 0.721271
O O8 0.348262 0.116143 0.499808
O O9 0.086309 0.145119 0.615070
O O10 0.208823 0.000000 0.522101
O O11 0.171598 0.886969 0.280889
O O12 0.022349 0.751343 0.397365
O O13 0.403962 0.668086 0.151591
O O14 0.457004 0.836661 0.119576
O O15 0.500000 0.748418 0.000000
O O16 0.361035 0.500000 0.158321
O O17 0.138751 0.596696 0.324198
O O18 0.118538 0.500000 0.829842
O O19 0.000000 0.350215 0.500000
#
# Coordination Sequence:
#
# PCOD8093146 Si02
#       8
#     8   8   8   8   8   8   8   8
#     4  10  20  37  61  85 120 151 200 247 301 359
#     4  10  22  38  61  88 119 158 199 250 303 356
#     4  11  23  39  58  85 120 159 201 245 298 357
#     4  11  22  39  58  90 117 159 204 247 298 357
#     4  10  20  39  59  91 117 153 206 247 306 356
#     4  10  19  35  59  89 122 154 195 243 294 358
#     4  11  23  40  61  89 122 159 205 251 299 356
#     4  11  23  37  63  90 124 162 195 241 300 370
#
# _framework density 19.820164999999999
#
# number of rings (size 3 to 8) (size 9 to 14) (size 15 to 20)
#    0.000    1.500    6.250    1.500    1.750    4.500 
#    0.000    1.875    0.000    0.000    0.000    0.000 
#    0.000    0.000    0.000    0.000    0.000    0.000 
#
# Total GULP energy -396797.186249 kJ/mol
# GULP energy per Si atom -12399.912070 kJ/mol
# Density = 1.977505 g / cm^3
# Si number density = 19.820165 Si / 1000 Ang^3
#
#
#
# Elastic Constant Matrix: (Units=GPa)
#
#
# Indices 1 2 3 4 5 6 
#
# 1 89.8376 33.8813 49.2948 0.0012 -10.5164 -0.0001
# 2 33.8813 120.7496 41.5236 0.0021 -8.8566 -0.0003
# 3 49.2948 41.5236 93.2272 0.0039 -19.0105 -0.0006
# 4 0.0012 0.0021 0.0039 16.3174 -0.0014 -8.6592
# 5 -10.5164 -8.8566 -19.0105 -0.0014 28.3005 -0.0001
# 6 -0.0001 -0.0003 -0.0006 -8.6592 -0.0001 20.9693
#
#
#
# Elastic Compliance Matrix: (Units=1/GPa)
#
#
# Indices 1 2 3 4 5 6 
#
# 1 0.016032 -0.001869 -0.007589 0.000001 0.000275 0.000000
# 2 -0.001869 0.009998 -0.003440 0.000000 0.000124 0.000000
# 3 -0.007589 -0.003440 0.017933 -0.000003 0.008150 -0.000001
# 4 0.000001 0.000000 -0.000003 0.078483 0.000002 0.032409
# 5 0.000275 0.000124 0.008150 0.000002 0.040951 0.000001
# 6 0.000000 0.000000 -0.000001 0.032409 0.000001 0.061072
#
#
# Mechanical properties :
#
#
# Convention : Reuss Voigt Hill
#
# Bulk Modulus (GPa) = 55.03951 61.46819 58.25385
# Shear Modulus (GPa) = 19.50692 25.05842 22.28267
#
# Velocity S-wave (km/s) = 3.14059 3.55954 3.35661
# Velocity P-wave (km/s) = 6.40163 6.92633 6.66914
#
# Compressibility (1/GPa) = 0.01816877
#
# Stress axis : x y z
#
# Youngs Moduli (GPa) = 62.37463 100.02110 55.76290
#
# Poissons Ratio (x) = 0.18691 0.42317
# Poissons Ratio (y) = 0.11656 0.19181
# Poissons Ratio (z) = 0.47335 0.34405
#
# Static dielectric constant tensor:
#      x y z
#    x 3.431840 0.000000 -0.217770 
#    y 0.000000 3.652120 0.000000 
#    z -0.217770 0.000000 3.764260 
# 
# 
# High freq. dielectric constant tensor:
#      x y z
#    x 1.755510 0.000000 -0.013950 
#    y 0.000000 1.776500 0.000000 
#    z -0.013950 0.000000 1.767320 
# 
# From -- ./inp_files/344009.got.cif
#   From: 2010.06.25/outbox.cif.g09.slc.cpg/sg12_173_cif.got.tgz:344009.got - 2010.06.28 00:19:55.
