data_PCOD8093036
_publ_section_title
;
Structure prediction by ZEFSAII (Michael W. Deem and Ramdas Pophale) SiO2 
 PCOD8093036
Probable space group: C 2/M
;
_chemical_formula_sum "Si O2"
_cell_formula_units_Z 48
_cell_length_a 29.571238
_cell_length_b 9.066917
_cell_length_c 14.559887
_cell_angle_alpha 90.000000
_cell_angle_beta 38.712749
_cell_angle_gamma 90.000000
_cell_volume 2441.497840
_symmetry_space_group_name_H-M "C 2/M"
_symmetry_group_IT_number 12
_symmetry_cell_setting 'monoclinic'
loop_
_space_group_symop_operation_xyz
x,y,z
-x,y,-z
-x,-y,-z
x,-y,z
1/2+x,1/2+y,z
1/2-x,1/2+y,-z
1/2-x,1/2-y,-z
1/2+x,1/2-y,z
loop_
_atom_site_type_symbol
_atom_site_label
_atom_site_fract_x
_atom_site_fract_y
_atom_site_fract_z
Si Si1 0.065782 0.330159 0.660442
Si Si2 0.701459 0.667735 0.504842
Si Si3 0.775152 0.324670 0.867116
Si Si4 0.953633 0.330112 0.990516
Si Si5 0.700370 0.830044 0.822438
Si Si6 0.567632 0.175131 0.450181
O O1 0.090643 0.500000 0.618447
O O2 0.123220 0.240491 0.628662
O O3 0.059393 0.266357 0.567542
O O4 0.990399 0.310468 0.832788
O O5 0.694310 0.500000 0.547848
O O6 0.750000 0.750000 0.500000
O O7 0.734391 0.682318 0.351736
O O8 0.771189 0.500000 0.882520
O O9 0.719530 0.271548 0.877962
O O10 0.856660 0.271536 0.713611
O O11 0.750000 0.250000 0.000000
O O12 0.944884 0.500000 0.031963
O O13 0.872734 0.265117 0.108755
O O14 0.000000 0.253987 0.000000
O O15 0.688883 0.000000 0.872566
O O16 0.500000 0.240698 0.500000
O O17 0.564004 0.000000 0.455481
#
# Coordination Sequence:
#
# PCOD8093036 Si02
#       6
#     8   8   8   8   8   8
#     4  10  19  35  59  83 112 147 190 238 285 336
#     4  11  22  36  58  85 117 152 191 236 287 344
#     4  11  23  39  61  87 117 149 189 239 291 348
#     4   9  18  33  56  85 114 149 194 237 276 329
#     4  10  21  38  60  86 116 151 193 239 284 337
#     4   9  19  35  58  86 110 144 193 238 281 335
#
# _framework density 19.660062
#
# number of rings (size 3 to 8) (size 9 to 14) (size 15 to 20)
#    0.000    2.000    1.667    2.000    2.333    3.333 
#    0.000    0.833    0.000    4.500    0.000    0.000 
#    0.000    0.000    0.000    0.000    0.000    0.000 
#
# Total GULP energy -297609.636414 kJ/mol
# GULP energy per Si atom -12400.401517 kJ/mol
# Density = 1.961531 g / cm^3
# Si number density = 19.660062 Si / 1000 Ang^3
#
#
#
# Elastic Constant Matrix: (Units=GPa)
#
#
# Indices 1 2 3 4 5 6 
#
# 1 127.0983 27.2566 27.6062 0.0000 -8.0271 0.0000
# 2 27.2566 60.9447 16.5988 -0.0002 2.3089 0.0001
# 3 27.6062 16.5988 75.2755 0.0000 -2.8199 0.0000
# 4 0.0000 -0.0002 0.0000 22.6326 0.0001 1.4028
# 5 -8.0271 2.3089 -2.8199 0.0001 39.6204 0.0000
# 6 0.0000 0.0001 0.0000 1.4028 0.0000 31.7877
#
#
#
# Elastic Compliance Matrix: (Units=1/GPa)
#
#
# Indices 1 2 3 4 5 6 
#
# 1 0.009303 -0.003535 -0.002561 0.000000 0.001909 0.000000
# 2 -0.003535 0.018867 -0.002940 0.000000 -0.002025 0.000000
# 3 -0.002561 -0.002940 0.014898 0.000000 0.000713 0.000000
# 4 0.000000 0.000000 0.000000 0.044305 0.000000 -0.001955
# 5 0.001909 -0.002025 0.000713 0.000000 0.025795 0.000000
# 6 0.000000 0.000000 0.000000 -0.001955 0.000000 0.031545
#
#
# Mechanical properties :
#
#
# Convention : Reuss Voigt Hill
#
# Bulk Modulus (GPa) = 40.00488 45.13797 42.57143
# Shear Modulus (GPa) = 29.21980 31.59860 30.40920
#
# Velocity S-wave (km/s) = 3.85938 4.01340 3.93714
# Velocity P-wave (km/s) = 6.34446 6.66975 6.50914
#
# Compressibility (1/GPa) = 0.02499695
#
# Stress axis : x y z
#
# Youngs Moduli (GPa) = 107.49431 53.00314 67.12095
#
# Poissons Ratio (x) = 0.18739 0.17187
# Poissons Ratio (y) = 0.38004 0.19730
# Poissons Ratio (z) = 0.27525 0.15580
#
# Static dielectric constant tensor:
#      x y z
#    x 2.000890 0.000020 4.086870 
#    y 0.000020 3.406410 -0.000040 
#    z 4.086870 -0.000040 -4.989580 
# 
# 
# High freq. dielectric constant tensor:
#      x y z
#    x 1.779430 0.000000 -0.000510 
#    y 0.000000 1.725750 0.000000 
#    z -0.000510 0.000000 1.775790 
# 
# From -- ./inp_files/230441.got.cif
#   From: 2010.06.25/outbox.cif.g09.slc.cpg/sg12_116_cif.got.tgz:230441.got - 2010.06.28 00:19:55.
