data_PCOD8093239
_publ_section_title
;
Structure prediction by ZEFSAII (Michael W. Deem and Ramdas Pophale) SiO2 
 PCOD8093239
Probable space group: C 2/M
;
_chemical_formula_sum "Si O2"
_cell_formula_units_Z 64
_cell_length_a 15.384051
_cell_length_b 8.542821
_cell_length_c 33.281603
_cell_angle_alpha 90.000000
_cell_angle_beta 45.804841
_cell_angle_gamma 90.000000
_cell_volume 3136.006399
_symmetry_space_group_name_H-M "C 2/M"
_symmetry_group_IT_number 12
_symmetry_cell_setting 'monoclinic'
loop_
_space_group_symop_operation_xyz
x,y,z
-x,y,-z
-x,-y,-z
x,-y,z
1/2+x,1/2+y,z
1/2-x,1/2+y,-z
1/2-x,1/2-y,-z
1/2+x,1/2-y,z
loop_
_atom_site_type_symbol
_atom_site_label
_atom_site_fract_x
_atom_site_fract_y
_atom_site_fract_z
Si Si1 0.717796 0.818835 0.625937
Si Si2 0.363143 0.314770 0.861394
Si Si3 0.543629 0.814730 0.863786
Si Si4 0.155182 0.816570 0.561848
Si Si5 0.492530 0.681864 0.739458
Si Si6 0.593001 0.813275 0.936904
Si Si7 0.714648 0.681443 0.258712
Si Si8 0.607125 0.818005 0.370485
O O1 0.702213 0.714990 0.591396
O O2 0.610388 0.783610 0.691882
O O3 0.844787 0.774729 0.606004
O O4 0.717778 0.000000 0.613743
O O5 0.358344 0.500000 0.861811
O O6 0.423431 0.256471 0.882951
O O7 0.439281 0.254379 0.798569
O O8 0.226838 0.247453 0.903450
O O9 0.551761 0.751384 0.906594
O O10 0.661752 0.758916 0.801349
O O11 0.535332 0.000000 0.866090
O O12 0.250000 0.750000 0.500000
O O13 0.027791 0.733861 0.596090
O O14 0.138263 0.000000 0.560987
O O15 0.529320 0.500000 0.730238
O O16 0.393827 0.709553 0.737068
O O17 0.594584 0.000000 0.936618
O O18 0.500000 0.747122 0.000000
O O19 0.721893 0.500000 0.268937
O O20 0.693877 0.784490 0.304763
O O21 0.609680 0.000000 0.379774
#
# Coordination Sequence:
#
# PCOD8093239 Si02
#       8
#     8   8   8   8   8   8   8   8
#     4  12  25  42  65  96 128 164 206 250 304 365
#     4  10  20  35  56  84 114 151 194 241 296 357
#     4  10  20  35  56  84 114 151 194 241 296 357
#     4  12  26  47  70  95 127 165 209 258 305 356
#     4  10  19  35  60  87 120 158 196 243 302 364
#     4   9  18  35  57  78 106 150 200 243 292 359
#     4  10  19  35  60  87 120 158 196 243 302 364
#     4  12  25  42  65  96 128 164 206 250 304 365
#
# _framework density 20.408121999999999
#
# number of rings (size 3 to 8) (size 9 to 14) (size 15 to 20)
#    0.000    1.375    2.500    4.125    0.000    4.000 
#    0.000    3.125    0.000    0.750    0.000    0.000 
#    0.000    0.000    0.000    0.000    0.000    0.000 
#
# Total GULP energy -396966.485157 kJ/mol
# GULP energy per Si atom -12405.202661 kJ/mol
# Density = 2.036167 g / cm^3
# Si number density = 20.408122 Si / 1000 Ang^3
#
#
#
# Elastic Constant Matrix: (Units=GPa)
#
#
# Indices 1 2 3 4 5 6 
#
# 1 124.1193 9.7769 50.4231 0.0008 15.6397 0.0030
# 2 9.7769 53.9834 17.7603 0.0030 -2.0402 0.0034
# 3 50.4231 17.7603 137.9677 0.0006 3.9044 0.0016
# 4 0.0008 0.0030 0.0006 20.9545 0.0002 1.9193
# 5 15.6397 -2.0402 3.9044 0.0002 7.1252 0.0002
# 6 0.0030 0.0034 0.0016 1.9193 0.0002 32.9360
#
#
#
# Elastic Compliance Matrix: (Units=1/GPa)
#
#
# Indices 1 2 3 4 5 6 
#
# 1 0.013246 -0.002201 -0.003776 0.000000 -0.027637 -0.000001
# 2 -0.002201 0.020060 -0.002110 -0.000003 0.011732 -0.000002
# 3 -0.003776 -0.002110 0.008819 0.000000 0.002851 0.000000
# 4 0.000000 -0.000003 0.000000 0.047978 -0.000003 -0.002796
# 5 -0.027637 0.011732 0.002851 -0.000003 0.202806 0.000000
# 6 -0.000001 -0.000002 0.000000 -0.002796 0.000000 0.030525
#
#
# Mechanical properties :
#
#
# Convention : Reuss Voigt Hill
#
# Bulk Modulus (GPa) = 38.53264 52.44342 45.48803
# Shear Modulus (GPa) = 14.35712 28.07717 21.21714
#
# Velocity S-wave (km/s) = 2.65524 3.71318 3.22785
# Velocity P-wave (km/s) = 5.32188 6.64355 6.01910
#
# Compressibility (1/GPa) = 0.02595203
#
# Stress axis : x y z
#
# Youngs Moduli (GPa) = 75.49210 49.84943 113.39302
#
# Poissons Ratio (x) = 0.10974 0.42814
# Poissons Ratio (y) = 0.16618 0.23924
# Poissons Ratio (z) = 0.28504 0.10517
#
# Static dielectric constant tensor:
#      x y z
#    x 3.830430 -0.000010 0.006820 
#    y -0.000010 3.436090 0.000000 
#    z 0.006820 0.000000 3.861810 
# 
# 
# High freq. dielectric constant tensor:
#      x y z
#    x 1.815450 0.000000 0.001740 
#    y 0.000000 1.777120 0.000000 
#    z 0.001740 0.000000 1.797820 
# 
# From -- ./inp_files/375369.got.cif
#   From: 2010.06.25/outbox.cif.g09.slc.cpg/sg12_188_cif.got.tgz:375369.got - 2010.06.28 00:19:55.
