data_PCOD8093587
_publ_section_title
;
Structure prediction by ZEFSAII (Michael W. Deem and Ramdas Pophale) SiO2 
 PCOD8093587
Probable space group: C 2/M
;
_chemical_formula_sum "Si O2"
_cell_formula_units_Z 56
_cell_length_a 14.361148
_cell_length_b 16.226599
_cell_length_c 11.056242
_cell_angle_alpha 90.000000
_cell_angle_beta 78.249451
_cell_angle_gamma 90.000000
_cell_volume 2522.471078
_symmetry_space_group_name_H-M "C 2/M"
_symmetry_group_IT_number 12
_symmetry_cell_setting 'monoclinic'
loop_
_space_group_symop_operation_xyz
x,y,z
-x,y,-z
-x,-y,-z
x,-y,z
1/2+x,1/2+y,z
1/2-x,1/2+y,-z
1/2-x,1/2-y,-z
1/2+x,1/2-y,z
loop_
_atom_site_type_symbol
_atom_site_label
_atom_site_fract_x
_atom_site_fract_y
_atom_site_fract_z
Si Si1 0.733409 0.824636 0.676550
Si Si2 0.105728 0.095084 0.953449
Si Si3 0.405208 0.363799 0.477599
Si Si4 0.607900 0.092426 0.200926
Si Si5 0.278211 0.094547 0.068343
Si Si6 0.715016 0.362328 0.705053
Si Si7 0.043961 0.319877 0.609796
O O1 0.834577 0.861122 0.610928
O O2 0.706359 0.847196 0.820935
O O3 0.746630 0.727475 0.652133
O O4 0.647944 0.857231 0.612706
O O5 0.146148 0.151095 0.836497
O O6 0.108282 0.000000 0.910251
O O7 0.168828 0.106233 0.056723
O O8 0.000000 0.127258 0.000000
O O9 0.500000 0.412099 0.500000
O O10 0.345119 0.407753 0.386091
O O11 0.445206 0.277889 0.411518
O O12 0.691996 0.087687 0.278715
O O13 0.527196 0.157785 0.260657
O O14 0.565075 0.000000 0.202878
O O15 0.650774 0.120405 0.059691
O O16 0.297464 0.000000 0.100215
O O17 0.000000 0.360950 0.500000
#
# Coordination Sequence:
#
# PCOD8093587 Si02
#       7
#     8   8   8   8   8   8   8
#     4  11  22  37  60  88 121 157 193 248 301 345
#     4   9  19  36  57  79 113 156 192 237 290 346
#     4  10  21  37  59  83 120 156 190 245 304 347
#     4  10  21  39  63  88 120 161 199 241 296 359
#     4   9  21  40  59  85 121 158 193 239 299 357
#     4  10  19  36  57  88 114 151 201 245 289 347
#     4  10  20  38  58  84 116 160 197 238 291 356
#
# _framework density 22.200454000000001
#
# number of rings (size 3 to 8) (size 9 to 14) (size 15 to 20)
#    0.000    2.143    0.000    5.571    2.000    3.714 
#    5.143    4.286    0.000    2.143    0.000    0.000 
#    0.000    0.000    0.000    0.000    0.000    0.000 
#
# Total GULP energy -347010.312532 kJ/mol
# GULP energy per Si atom -12393.225448 kJ/mol
# Density = 2.214992 g / cm^3
# Si number density = 22.200454 Si / 1000 Ang^3
#
#
#
# Elastic Constant Matrix: (Units=GPa)
#
#
# Indices 1 2 3 4 5 6 
#
# 1 113.5408 8.4642 42.0423 0.0000 -6.8773 0.0000
# 2 8.4642 30.5924 19.3869 0.0000 -3.4146 0.0000
# 3 42.0423 19.3869 92.9849 0.0000 3.1908 0.0000
# 4 0.0000 0.0000 0.0000 -0.0536 0.0000 -2.2174
# 5 -6.8773 -3.4146 3.1908 0.0000 44.6705 0.0000
# 6 0.0000 0.0000 0.0000 -2.2174 0.0000 17.1833
#
#
#
# Elastic Compliance Matrix: (Units=1/GPa)
#
#
# Indices 1 2 3 4 5 6 
#
# 1 0.010760 0.000437 -0.005027 0.000000 0.002049 0.000000
# 2 0.000437 0.038220 -0.008289 0.000000 0.003581 0.000000
# 3 -0.005027 -0.008289 0.014840 0.000000 -0.002468 0.000000
# 4 0.000000 0.000000 0.000000 -2.943323 0.000000 -0.379821
# 5 0.002049 0.003581 -0.002468 0.000000 0.023152 0.000000
# 6 0.000000 0.000000 0.000000 -0.379821 0.000000 0.009182
#
#
# Mechanical properties :
#
#
# Convention : Reuss Voigt Hill
#
# Bulk Modulus (GPa) = 26.27251 41.87832 34.07542
# Shear Modulus (GPa) = -1.78017 23.50834 10.86409
#
# Velocity S-wave (km/s) = -0.89644 3.25762 2.21456
# Velocity P-wave (km/s) = 3.28458 5.74927 4.68202
#
# Compressibility (1/GPa) = 0.03806259
#
# Stress axis : x y z
#
# Youngs Moduli (GPa) = 92.93504 26.16463 67.38518
#
# Poissons Ratio (x) = -0.01143 0.33872
# Poissons Ratio (y) = -0.04061 0.55856
# Poissons Ratio (z) = 0.46714 0.21688
#
# Static dielectric constant tensor:
#      x y z
#    x 4.479850 0.000000 0.135810 
#    y 0.000000 3.490280 0.000000 
#    z 0.135810 0.000000 3.970180 
# 
# 
# High freq. dielectric constant tensor:
#      x y z
#    x 1.889520 0.000000 0.001300 
#    y 0.000000 1.828150 0.000000 
#    z 0.001300 0.000000 1.875390 
# 
# From -- ./inp_files/145486.got.cif
#   From: 2010.06.25/outbox.cif.g09.slc.cpg/sg12_73_cif.got.tgz:145486.got - 2010.06.28 00:19:55.
