data_PCOD8093681
_publ_section_title
;
Structure prediction by ZEFSAII (Michael W. Deem and Ramdas Pophale) SiO2 
 PCOD8093681
Probable space group: C 2/M
;
_chemical_formula_sum "Si O2"
_cell_formula_units_Z 48
_cell_length_a 20.157896
_cell_length_b 9.280666
_cell_length_c 14.579369
_cell_angle_alpha 90.000000
_cell_angle_beta 72.458024
_cell_angle_gamma 90.000000
_cell_volume 2600.651302
_symmetry_space_group_name_H-M "C 2/M"
_symmetry_group_IT_number 12
_symmetry_cell_setting 'monoclinic'
loop_
_space_group_symop_operation_xyz
x,y,z
-x,y,-z
-x,-y,-z
x,-y,z
1/2+x,1/2+y,z
1/2-x,1/2+y,-z
1/2-x,1/2-y,-z
1/2+x,1/2-y,z
loop_
_atom_site_type_symbol
_atom_site_label
_atom_site_fract_x
_atom_site_fract_y
_atom_site_fract_z
Si Si1 0.956757 0.665429 0.725261
Si Si2 0.631949 0.167474 0.417613
Si Si3 0.411808 0.329025 0.389596
Si Si4 0.204425 0.168777 0.893070
Si Si5 0.285610 0.329447 0.315051
Si Si6 0.150570 0.666294 0.076716
O O1 0.982403 0.500000 0.712882
O O2 0.903478 0.693123 0.665062
O O3 0.917933 0.702166 0.836208
O O4 0.021691 0.771941 0.692868
O O5 0.589468 0.258489 0.509761
O O6 0.710640 0.228343 0.379478
O O7 0.629719 0.000000 0.447051
O O8 0.416478 0.500000 0.396773
O O9 0.343307 0.278951 0.363184
O O10 0.194782 0.229781 0.794048
O O11 0.282384 0.208826 0.891153
O O12 0.190059 0.000000 0.903908
O O13 0.148654 0.244469 0.983050
O O14 0.280113 0.500000 0.309711
O O15 0.153492 0.500000 0.048602
#
# Coordination Sequence:
#
# PCOD8093681 Si02
#       6
#     8   8   8   8   8   8
#     4  10  20  36  56  76 102 140 178 208 250 311
#     4  10  19  36  59  76  96 137 185 215 246 303
#     4  11  23  35  50  77 111 138 167 215 265 303
#     4   9  16  31  55  79 101 129 168 212 256 303
#     4   9  18  35  56  77 103 138 175 209 253 311
#     4   9  17  31  53  80 103 127 167 216 257 296
#
# _framework density 18.456916
#
# number of rings (size 3 to 8) (size 9 to 14) (size 15 to 20)
#    0.000    2.333    1.667    1.500    0.000    3.333 
#    0.000    4.167    0.000    5.000    0.000    0.000 
#    0.000    0.000    0.000    0.000    0.000    0.000 
#
# Total GULP energy -297642.942008 kJ/mol
# GULP energy per Si atom -12401.789250 kJ/mol
# Density = 1.841491 g / cm^3
# Si number density = 18.456916 Si / 1000 Ang^3
#
#
#
# Elastic Constant Matrix: (Units=GPa)
#
#
# Indices 1 2 3 4 5 6 
#
# 1 67.7108 26.3702 14.6239 0.0000 -20.2182 0.0000
# 2 26.3702 50.4751 34.8161 0.0000 -9.3108 0.0000
# 3 14.6239 34.8161 102.9081 0.0000 -17.8122 0.0000
# 4 0.0000 0.0000 0.0000 30.6132 0.0000 -4.0230
# 5 -20.2182 -9.3108 -17.8122 0.0000 25.1764 0.0000
# 6 0.0000 0.0000 0.0000 -4.0230 0.0000 24.8779
#
#
#
# Elastic Compliance Matrix: (Units=1/GPa)
#
#
# Indices 1 2 3 4 5 6 
#
# 1 0.023680 -0.011647 0.003557 0.000000 0.017226 0.000000
# 2 -0.011647 0.031902 -0.009931 0.000000 -0.004582 0.000000
# 3 0.003557 -0.009931 0.014165 0.000000 0.009206 0.000000
# 4 0.000000 0.000000 0.000000 0.033375 0.000000 0.005397
# 5 0.017226 -0.004582 0.009206 0.000000 0.058372 0.000000
# 6 0.000000 0.000000 0.000000 0.005397 0.000000 0.041069
#
#
# Mechanical properties :
#
#
# Convention : Reuss Voigt Hill
#
# Bulk Modulus (GPa) = 29.66973 41.41269 35.54121
# Shear Modulus (GPa) = 20.01279 25.81907 22.91593
#
# Velocity S-wave (km/s) = 3.29644 3.74422 3.52744
# Velocity P-wave (km/s) = 5.53161 6.41705 5.99071
#
# Compressibility (1/GPa) = 0.03370438
#
# Stress axis : x y z
#
# Youngs Moduli (GPa) = 42.22945 31.34630 70.59575
#
# Poissons Ratio (x) = 0.36511 -0.25111
# Poissons Ratio (y) = 0.49187 0.70108
# Poissons Ratio (z) = -0.15021 0.31130
#
# Static dielectric constant tensor:
#      x y z
#    x 3.343300 0.000000 -0.076630 
#    y 0.000000 3.166820 0.000000 
#    z -0.076630 0.000000 3.554970 
# 
# 
# High freq. dielectric constant tensor:
#      x y z
#    x 1.701890 0.000000 -0.006600 
#    y 0.000000 1.694030 0.000000 
#    z -0.006600 0.000000 1.729430 
# 
# From -- ./inp_files/229898.got.cif
#   From: 2010.06.25/outbox.cif.g09.slc.cpg/sg12_115_cif.got.tgz:229898.got - 2010.06.28 00:19:55.
