data_PCOD8093462
_publ_section_title
;
Structure prediction by ZEFSAII (Michael W. Deem and Ramdas Pophale) SiO2 
 PCOD8093462
Probable space group: C 2/M
;
_chemical_formula_sum "Si O2"
_cell_formula_units_Z 48
_cell_length_a 12.391530
_cell_length_b 13.864684
_cell_length_c 22.558665
_cell_angle_alpha 90.000000
_cell_angle_beta 138.639917
_cell_angle_gamma 90.000000
_cell_volume 2561.009466
_symmetry_space_group_name_H-M "C 2/M"
_symmetry_group_IT_number 12
_symmetry_cell_setting 'monoclinic'
loop_
_space_group_symop_operation_xyz
x,y,z
-x,y,-z
-x,-y,-z
x,-y,z
1/2+x,1/2+y,z
1/2-x,1/2+y,-z
1/2-x,1/2-y,-z
1/2+x,1/2-y,z
loop_
_atom_site_type_symbol
_atom_site_label
_atom_site_fract_x
_atom_site_fract_y
_atom_site_fract_z
Si Si1 0.416551 0.224433 0.781473
Si Si2 0.751410 0.109730 0.519815
Si Si3 0.259384 0.719736 0.406237
Si Si4 0.258110 0.889268 0.085603
Si Si5 0.117609 0.889995 0.645031
Si Si6 0.558656 0.610529 0.118289
O O1 0.394611 0.239132 0.701365
O O2 0.587928 0.175718 0.866792
O O3 0.267467 0.156509 0.744219
O O4 0.406100 0.326933 0.809239
O O5 0.675310 0.179395 0.538784
O O6 0.698980 0.147518 0.433319
O O7 0.947147 0.117846 0.608947
O O8 0.689684 0.000000 0.502739
O O9 0.400650 0.668779 0.424825
O O10 0.180490 0.857816 0.116141
O O11 0.314248 0.000000 0.112128
O O12 0.126910 0.874736 0.979493
O O13 0.161369 0.000000 0.648066
O O14 0.589360 0.500000 0.148737
#
# Coordination Sequence:
#
# PCOD8093462 Si02
#       6
#     8   8   8   8   8   8
#     4  10  20  29  54  78 103 122 172 215 247 282
#     4  10  19  36  54  71 103 138 168 204 250 302
#     4   9  21  31  52  78 100 129 173 204 248 293
#     4   9  18  34  54  75 100 133 169 203 247 304
#     4   9  19  33  52  74  97 131 168 206 248 295
#     4   9  19  35  53  72 101 138 166 198 254 307
#
# _framework density 18.742609999999999
#
# number of rings (size 3 to 8) (size 9 to 14) (size 15 to 20)
#    1.000    1.667    0.000    3.000    2.333    2.000 
#    0.000    0.000    0.000    9.000    0.000    5.833 
#    0.000    0.000    0.000    0.000    0.000    0.000 
#
# Total GULP energy -297408.905541 kJ/mol
# GULP energy per Si atom -12392.037731 kJ/mol
# Density = 1.869995 g / cm^3
# Si number density = 18.742610 Si / 1000 Ang^3
#
#
#
# Elastic Constant Matrix: (Units=GPa)
#
#
# Indices 1 2 3 4 5 6 
#
# 1 28.3010 20.3160 8.5945 0.0000 6.3822 0.0000
# 2 20.3160 121.6040 28.0719 0.0000 -3.9133 0.0000
# 3 8.5945 28.0719 57.0781 0.0000 6.8714 0.0000
# 4 0.0000 0.0000 0.0000 30.7393 0.0000 -4.8658
# 5 6.3822 -3.9133 6.8714 0.0000 13.9934 0.0000
# 6 0.0000 0.0000 0.0000 -4.8658 0.0000 25.3622
#
#
#
# Elastic Compliance Matrix: (Units=1/GPa)
#
#
# Indices 1 2 3 4 5 6 
#
# 1 0.046867 -0.008605 0.000041 0.000000 -0.023802 0.000000
# 2 -0.008605 0.011218 -0.005390 0.000000 0.009709 0.000000
# 3 0.000041 -0.005390 0.021627 0.000000 -0.012146 0.000000
# 4 0.000000 0.000000 0.000000 0.033551 0.000000 0.006437
# 5 -0.023802 0.009709 -0.012146 0.000000 0.090997 0.000000
# 6 0.000000 0.000000 0.000000 0.006437 0.000000 0.040664
#
#
# Mechanical properties :
#
#
# Convention : Reuss Voigt Hill
#
# Bulk Modulus (GPa) = 19.30421 35.66087 27.48254
# Shear Modulus (GPa) = 17.23547 24.01903 20.62725
#
# Velocity S-wave (km/s) = 3.03576 3.58372 3.32106
# Velocity P-wave (km/s) = 4.75497 6.01598 5.42226
#
# Compressibility (1/GPa) = 0.05180216
#
# Stress axis : x y z
#
# Youngs Moduli (GPa) = 21.33696 89.14409 46.23884
#
# Poissons Ratio (x) = 0.76711 -0.00188
# Poissons Ratio (y) = 0.18361 0.24923
# Poissons Ratio (z) = -0.00087 0.48050
#
# Static dielectric constant tensor:
#      x y z
#    x 3.101940 0.000000 0.064980 
#    y 0.000000 3.436510 0.000000 
#    z 0.064980 0.000000 3.267620 
# 
# 
# High freq. dielectric constant tensor:
#      x y z
#    x 1.701240 0.000000 0.007470 
#    y 0.000000 1.731160 0.000000 
#    z 0.007470 0.000000 1.721330 
# 
# From -- ./inp_files/305187.got.cif
#   From: 2010.06.25/outbox.cif.g09.slc.cpg/sg12_153_cif.got.tgz:305187.got - 2010.06.28 00:19:55.
