data_PCOD8093676
_publ_section_title
;
Structure prediction by ZEFSAII (Michael W. Deem and Ramdas Pophale) SiO2 
 PCOD8093676
Probable space group: C 2/M
;
_chemical_formula_sum "Si O2"
_cell_formula_units_Z 40
_cell_length_a 27.154251
_cell_length_b 18.125589
_cell_length_c 9.099547
_cell_angle_alpha 90.000000
_cell_angle_beta 25.768467
_cell_angle_gamma 90.000000
_cell_volume 1947.039997
_symmetry_space_group_name_H-M "C 2/M"
_symmetry_group_IT_number 12
_symmetry_cell_setting 'monoclinic'
loop_
_space_group_symop_operation_xyz
x,y,z
-x,y,-z
-x,-y,-z
x,-y,z
1/2+x,1/2+y,z
1/2-x,1/2+y,-z
1/2-x,1/2-y,-z
1/2+x,1/2-y,z
loop_
_atom_site_type_symbol
_atom_site_label
_atom_site_fract_x
_atom_site_fract_y
_atom_site_fract_z
Si Si1 0.697393 0.152232 0.088935
Si Si2 0.349781 0.306669 0.218089
Si Si3 0.632938 0.306454 0.147459
Si Si4 0.282256 0.084420 0.261550
Si Si5 0.485850 0.167749 0.870183
O O1 0.692953 0.226857 0.004283
O O2 0.596840 0.149116 0.477323
O O3 0.816711 0.143641 0.856385
O O4 0.694370 0.087418 0.976698
O O5 0.250000 0.250000 0.500000
O O6 0.334179 0.371930 0.380256
O O7 0.336810 0.342294 0.090783
O O8 0.464370 0.257034 0.924108
O O9 0.500000 0.295604 0.500000
O O10 0.268705 0.000000 0.344462
O O11 0.385061 0.120471 0.073368
O O12 0.500000 0.142231 0.000000
#
# Coordination Sequence:
#
# PCOD8093676 Si02
#       5
#     8   8   8   8   8
#     4  11  21  36  62  97 124 158 210 260 323 366
#     4  10  19  36  58  90 126 158 207 258 306 369
#     4  11  20  36  61  95 122 154 208 269 314 361
#     4  11  24  41  61  93 136 171 206 256 325 391
#     4  11  22  37  63 100 126 163 211 268 319 368
#
# _framework density 20.544004999999999
#
# number of rings (size 3 to 8) (size 9 to 14) (size 15 to 20)
#    0.000    1.200    6.000    3.000    2.800    2.000 
#    0.000    3.000    0.000    6.600    0.000    0.000 
#    0.000    0.000    0.000    0.000    0.000    0.000 
#
# Total GULP energy -247831.641943 kJ/mol
# GULP energy per Si atom -12391.582097 kJ/mol
# Density = 2.049725 g / cm^3
# Si number density = 20.544005 Si / 1000 Ang^3
#
#
#
# Elastic Constant Matrix: (Units=GPa)
#
#
# Indices 1 2 3 4 5 6 
#
# 1 141.2356 30.2014 45.6638 0.0000 12.9448 0.0000
# 2 30.2014 91.0292 19.8852 0.0000 5.9190 0.0000
# 3 45.6638 19.8852 57.8165 0.0000 14.2344 0.0000
# 4 0.0000 0.0000 0.0000 19.2379 0.0000 5.9846
# 5 12.9448 5.9190 14.2344 0.0000 44.6964 0.0000
# 6 0.0000 0.0000 0.0000 5.9846 0.0000 15.3210
#
#
#
# Elastic Compliance Matrix: (Units=1/GPa)
#
#
# Indices 1 2 3 4 5 6 
#
# 1 0.009745 -0.001674 -0.007032 0.000000 -0.000361 0.000000
# 2 -0.001674 0.012169 -0.002806 0.000000 -0.000233 0.000000
# 3 -0.007032 -0.002806 0.025198 0.000000 -0.005617 0.000000
# 4 0.000000 0.000000 0.000000 0.059171 0.000000 -0.023113
# 5 -0.000361 -0.000233 -0.005617 0.000000 0.024297 0.000000
# 6 0.000000 0.000000 0.000000 -0.023113 0.000000 0.074298
#
#
# Mechanical properties :
#
#
# Convention : Reuss Voigt Hill
#
# Bulk Modulus (GPa) = 41.51401 53.50916 47.51158
# Shear Modulus (GPa) = 21.19262 28.80645 24.99954
#
# Velocity S-wave (km/s) = 3.21529 3.74864 3.49216
# Velocity P-wave (km/s) = 5.83398 6.69619 6.27990
#
# Compressibility (1/GPa) = 0.02408826
#
# Stress axis : x y z
#
# Youngs Moduli (GPa) = 102.61759 82.17680 39.68566
#
# Poissons Ratio (x) = 0.13752 0.27907
# Poissons Ratio (y) = 0.17173 0.11137
# Poissons Ratio (z) = 0.72162 0.23060
#
# Static dielectric constant tensor:
#      x y z
#    x 3.775870 0.000000 0.021140 
#    y 0.000000 3.430590 0.000000 
#    z 0.021140 0.000000 4.092660 
# 
# 
# High freq. dielectric constant tensor:
#      x y z
#    x 1.820860 0.000000 0.016180 
#    y 0.000000 1.742020 0.000000 
#    z 0.016180 0.000000 1.809920 
# 
# From -- ./inp_files/74953.got.cif
#   From: 2010.06.25/outbox.cif.g09.slc.cpg/sg12_38_cif.got.tgz:74953.got - 2010.06.28 00:19:55.
