data_PCOD8093419
_publ_section_title
;
Structure prediction by ZEFSAII (Michael W. Deem and Ramdas Pophale) SiO2 
 PCOD8093419
Probable space group: C 2/M
;
_chemical_formula_sum "Si O2"
_cell_formula_units_Z 56
_cell_length_a 19.000776
_cell_length_b 19.413168
_cell_length_c 9.890911
_cell_angle_alpha 90.000000
_cell_angle_beta 55.413800
_cell_angle_gamma 90.000000
_cell_volume 3003.640677
_symmetry_space_group_name_H-M "C 2/M"
_symmetry_group_IT_number 12
_symmetry_cell_setting 'monoclinic'
loop_
_space_group_symop_operation_xyz
x,y,z
-x,y,-z
-x,-y,-z
x,-y,z
1/2+x,1/2+y,z
1/2-x,1/2+y,-z
1/2-x,1/2-y,-z
1/2+x,1/2-y,z
loop_
_atom_site_type_symbol
_atom_site_label
_atom_site_fract_x
_atom_site_fract_y
_atom_site_fract_z
Si Si1 0.765177 0.184649 0.322849
Si Si2 0.361246 0.418268 0.407305
Si Si3 0.234772 0.922526 0.215081
Si Si4 0.295433 0.320191 0.992693
Si Si5 0.992480 0.175147 0.845969
Si Si6 0.410096 0.924067 0.168195
Si Si7 0.618840 0.786871 0.666191
O O1 0.795462 0.119633 0.378587
O O2 0.675120 0.216128 0.469436
O O3 0.832047 0.248524 0.262801
O O4 0.755477 0.159055 0.180555
O O5 0.359308 0.500000 0.381845
O O6 0.328238 0.400262 0.593922
O O7 0.457052 0.389363 0.277493
O O8 0.223058 0.876924 0.097311
O O9 0.333938 0.915937 0.144984
O O10 0.211809 0.000000 0.198380
O O11 0.396810 0.319174 0.899627
O O12 0.250000 0.250000 0.000000
O O13 0.031332 0.245757 0.744230
O O14 0.000000 0.168635 0.000000
O O15 0.400476 0.866761 0.291970
O O16 0.405811 0.000000 0.240672
O O17 0.500000 0.912079 0.000000
#
# Coordination Sequence:
#
# PCOD8093419 Si02
#       7
#     8   8   8   8   8   8   8
#     4  10  21  38  60  91 116 163 204 242 301 361
#     4  10  21  40  67  91 120 162 209 253 297 368
#     4  10  23  42  62  91 129 162 197 254 319 367
#     4  12  26  40  60  92 127 163 199 253 315 366
#     4  11  23  40  61  93 118 163 211 251 302 359
#     4  10  20  34  62  92 113 155 208 249 294 355
#     4  10  19  35  64  82 120 149 203 258 282 345
#
# _framework density 18.644041000000001
#
# number of rings (size 3 to 8) (size 9 to 14) (size 15 to 20)
#    0.000    1.571    4.286    1.286    6.000    2.000 
#    0.000    1.429    0.000    0.000    0.000    3.000 
#    0.000    0.000    0.000    0.000    0.000    0.000 
#
# Total GULP energy -347047.887749 kJ/mol
# GULP energy per Si atom -12394.567420 kJ/mol
# Density = 1.860161 g / cm^3
# Si number density = 18.644041 Si / 1000 Ang^3
#
#
#
# Elastic Constant Matrix: (Units=GPa)
#
#
# Indices 1 2 3 4 5 6 
#
# 1 75.4022 35.0990 53.2597 0.0000 -12.2367 0.0000
# 2 35.0990 131.0247 63.1308 0.0000 6.1258 0.0000
# 3 53.2597 63.1308 131.8830 0.0000 2.5860 0.0000
# 4 0.0000 0.0000 0.0000 31.8842 0.0000 6.4364
# 5 -12.2367 6.1258 2.5860 0.0000 32.4377 0.0000
# 6 0.0000 0.0000 0.0000 6.4364 0.0000 19.5549
#
#
#
# Elastic Compliance Matrix: (Units=1/GPa)
#
#
# Indices 1 2 3 4 5 6 
#
# 1 0.021231 -0.002463 -0.007573 0.000000 0.009078 0.000000
# 2 -0.002463 0.010279 -0.003876 0.000000 -0.002561 0.000000
# 3 -0.007573 -0.003876 0.012557 0.000000 -0.003126 0.000000
# 4 0.000000 0.000000 0.000000 0.033596 0.000000 -0.011058
# 5 0.009078 -0.002561 -0.003126 0.000000 0.034986 0.000000
# 6 0.000000 0.000000 0.000000 -0.011058 0.000000 0.054778
#
#
# Mechanical properties :
#
#
# Convention : Reuss Voigt Hill
#
# Bulk Modulus (GPa) = 61.56016 71.25433 66.40724
# Shear Modulus (GPa) = 24.91723 29.23005 27.07364
#
# Velocity S-wave (km/s) = 3.65974 3.96384 3.81482
# Velocity P-wave (km/s) = 7.13783 7.69744 7.42291
#
# Compressibility (1/GPa) = 0.01624427
#
# Stress axis : x y z
#
# Youngs Moduli (GPa) = 47.10083 97.28547 79.63530
#
# Poissons Ratio (x) = 0.23961 0.60308
# Poissons Ratio (y) = 0.11601 0.30863
# Poissons Ratio (z) = 0.35669 0.37704
#
# Static dielectric constant tensor:
#      x y z
#    x 3.750160 0.000000 -0.675780 
#    y 0.000000 3.747680 0.000000 
#    z -0.675780 0.000000 4.124180 
# 
# 
# High freq. dielectric constant tensor:
#      x y z
#    x 1.703390 0.000000 -0.024690 
#    y 0.000000 1.735610 0.000000 
#    z -0.024690 0.000000 1.731520 
# 
# From -- ./inp_files/77397.got.cif
#   From: 2010.06.25/outbox.cif.g09.slc.cpg/sg12_39_cif.got.tgz:77397.got - 2010.06.28 00:19:55.
