data_PCOD8093888
_publ_section_title
;
Structure prediction by ZEFSAII (Michael W. Deem and Ramdas Pophale) SiO2 
 PCOD8093888
Probable space group: C 2/M
;
_chemical_formula_sum "Si O2"
_cell_formula_units_Z 64
_cell_length_a 29.341595
_cell_length_b 8.430197
_cell_length_c 14.933961
_cell_angle_alpha 90.000000
_cell_angle_beta 59.510318
_cell_angle_gamma 90.000000
_cell_volume 3183.192496
_symmetry_space_group_name_H-M "C 2/M"
_symmetry_group_IT_number 12
_symmetry_cell_setting 'monoclinic'
loop_
_space_group_symop_operation_xyz
x,y,z
-x,y,-z
-x,-y,-z
x,-y,z
1/2+x,1/2+y,z
1/2-x,1/2+y,-z
1/2-x,1/2-y,-z
1/2+x,1/2-y,z
loop_
_atom_site_type_symbol
_atom_site_label
_atom_site_fract_x
_atom_site_fract_y
_atom_site_fract_z
Si Si1 0.025129 0.817309 0.707956
Si Si2 0.103480 0.683465 0.768754
Si Si3 0.214622 0.817058 0.613311
Si Si4 0.253993 0.317658 0.220581
Si Si5 0.445853 0.187075 0.504930
Si Si6 0.143029 0.689070 0.270977
Si Si7 0.586998 0.183969 0.148790
Si Si8 0.130891 0.185598 0.926643
O O1 0.060010 0.785986 0.760659
O O2 0.058224 0.773541 0.586428
O O3 0.973188 0.708597 0.762061
O O4 0.008125 0.000000 0.723432
O O5 0.089869 0.500000 0.769509
O O6 0.160870 0.718334 0.670845
O O7 0.100458 0.727549 0.876537
O O8 0.250000 0.750000 0.500000
O O9 0.247744 0.795094 0.671094
O O10 0.200268 0.000000 0.610990
O O11 0.251887 0.500000 0.195127
O O12 0.201394 0.237013 0.231231
O O13 0.308844 0.245948 0.126540
O O14 0.500000 0.234031 0.500000
O O15 0.397588 0.251873 0.613349
O O16 0.442289 0.000000 0.492252
O O17 0.142799 0.500000 0.276410
O O18 0.124696 0.744690 0.191154
O O19 0.596720 0.000000 0.117900
O O20 0.599837 0.286444 0.048766
O O21 0.133110 0.000000 0.900433
#
# Coordination Sequence:
#
# PCOD8093888 Si02
#       8
#     8   8   8   8   8   8   8   8
#     4  12  25  40  59  88 123 156 196 248 305 359
#     4  11  23  41  63  86 115 156 202 248 300 360
#     4  10  20  35  56  86 122 159 201 247 296 353
#     4   8  17  34  56  83 117 157 196 238 291 346
#     4  10  19  36  60  86 119 161 202 243 290 348
#     4   9  18  34  58  87 119 157 202 243 283 344
#     4  11  22  39  62  88 116 155 205 246 291 357
#     4  10  21  40  62  87 121 154 192 249 307 355
#
# _framework density 20.105602000000001
#
# number of rings (size 3 to 8) (size 9 to 14) (size 15 to 20)
#    0.000    1.875    1.250    4.125    1.750    1.250 
#    0.000    2.500    0.000    9.000    0.000    0.000 
#    0.000    0.000    0.000    0.000    0.000    0.000 
#
# Total GULP energy -396877.381994 kJ/mol
# GULP energy per Si atom -12402.418187 kJ/mol
# Density = 2.005984 g / cm^3
# Si number density = 20.105602 Si / 1000 Ang^3
#
#
#
# Elastic Constant Matrix: (Units=GPa)
#
#
# Indices 1 2 3 4 5 6 
#
# 1 112.7419 13.9398 18.8911 0.0000 14.3128 0.0000
# 2 13.9398 52.6781 17.9917 0.0001 4.0782 0.0000
# 3 18.8911 17.9917 102.2708 0.0000 15.4497 0.0000
# 4 0.0000 0.0001 0.0000 24.3301 0.0000 1.0130
# 5 14.3128 4.0782 15.4497 0.0000 20.9247 0.0000
# 6 0.0000 0.0000 0.0000 1.0130 0.0000 21.6359
#
#
#
# Elastic Compliance Matrix: (Units=1/GPa)
#
#
# Indices 1 2 3 4 5 6 
#
# 1 0.009975 -0.001974 -0.000588 0.000000 -0.006004 0.000000
# 2 -0.001974 0.020628 -0.003220 0.000000 -0.000293 0.000000
# 3 -0.000588 -0.003220 0.011590 0.000000 -0.007528 0.000000
# 4 0.000000 0.000000 0.000000 0.041182 0.000000 -0.001928
# 5 -0.006004 -0.000293 -0.007528 0.000000 0.057512 0.000000
# 6 0.000000 0.000000 0.000000 -0.001928 0.000000 0.046310
#
#
# Mechanical properties :
#
#
# Convention : Reuss Voigt Hill
#
# Bulk Modulus (GPa) = 32.64929 41.03733 36.84331
# Shear Modulus (GPa) = 23.92683 27.83601 25.88142
#
# Velocity S-wave (km/s) = 3.45346 3.72491 3.59175
# Velocity P-wave (km/s) = 5.67239 6.24141 5.96369
#
# Compressibility (1/GPa) = 0.03062853
#
# Stress axis : x y z
#
# Youngs Moduli (GPa) = 100.25443 48.47781 86.27906
#
# Poissons Ratio (x) = 0.09569 0.05076
# Poissons Ratio (y) = 0.19788 0.27783
# Poissons Ratio (z) = 0.05898 0.15610
#
# Static dielectric constant tensor:
#      x y z
#    x 3.875850 0.000000 -0.024160 
#    y 0.000000 3.374960 0.000000 
#    z -0.024160 0.000000 3.587000 
# 
# 
# High freq. dielectric constant tensor:
#      x y z
#    x 1.791230 0.000000 0.001840 
#    y 0.000000 1.763940 0.000000 
#    z 0.001840 0.000000 1.788360 
# 
# From -- ./inp_files/249119.got.cif
#   From: 2010.06.25/outbox.cif.g09.slc.cpg/sg12_125_cif.got.tgz:249119.got - 2010.06.28 00:19:55.
