data_PCOD8093459
_publ_section_title
;
Structure prediction by ZEFSAII (Michael W. Deem and Ramdas Pophale) SiO2 
 PCOD8093459
Probable space group: C 2/M
;
_chemical_formula_sum "Si O2"
_cell_formula_units_Z 52
_cell_length_a 11.313313
_cell_length_b 22.766837
_cell_length_c 13.901016
_cell_angle_alpha 90.000000
_cell_angle_beta 50.449825
_cell_angle_gamma 90.000000
_cell_volume 2760.776873
_symmetry_space_group_name_H-M "C 2/M"
_symmetry_group_IT_number 12
_symmetry_cell_setting 'monoclinic'
loop_
_space_group_symop_operation_xyz
x,y,z
-x,y,-z
-x,-y,-z
x,-y,z
1/2+x,1/2+y,z
1/2-x,1/2+y,-z
1/2-x,1/2-y,-z
1/2+x,1/2-y,z
loop_
_atom_site_type_symbol
_atom_site_label
_atom_site_fract_x
_atom_site_fract_y
_atom_site_fract_z
Si Si1 0.219580 0.933023 0.169543
Si Si2 0.467272 0.331718 0.669568
Si Si3 0.000000 0.182831 0.000000
Si Si4 0.794800 0.632940 0.936388
Si Si5 0.489201 0.754732 0.819567
Si Si6 0.760399 0.173005 0.598539
Si Si7 0.586565 0.933770 0.746606
O O1 0.070826 0.900500 0.291956
O O2 0.365369 0.930692 0.165812
O O3 0.173409 0.000000 0.170448
O O4 0.266387 0.898710 0.050900
O O5 0.415994 0.295662 0.790554
O O6 0.646424 0.320839 0.549941
O O7 0.367172 0.310256 0.632389
O O8 0.140349 0.139787 0.954425
O O9 0.051762 0.223834 0.883746
O O10 0.862353 0.698210 0.917683
O O11 0.916679 0.592066 0.817696
O O12 0.616954 0.783920 0.684742
O O13 0.706788 0.105267 0.625242
O O14 0.592966 0.000000 0.703845
#
# Coordination Sequence:
#
# PCOD8093459 Si02
#       7
#     8   8   4   8   8   8   8
#     4  10  20  35  56  81 109 143 180 226 276 318
#     4  10  19  36  53  82 112 140 176 226 270 323
#     4  12  24  34  53  84 111 150 180 218 272 328
#     4  11  22  35  54  80 112 144 181 224 270 324
#     4  11  22  35  55  78 113 146 182 218 268 322
#     4   9  20  33  57  82 109 139 179 222 275 320
#     4   9  19  35  57  81 106 140 182 227 275 321
#
# _framework density 18.835277000000001
#
# number of rings (size 3 to 8) (size 9 to 14) (size 15 to 20)
#    0.000    1.846    1.538    2.769    6.462    1.846 
#    0.000    4.615    0.000    0.000    0.000    1.077 
#    0.000    0.000    0.000    0.000    0.000    0.000 
#
# Total GULP energy -322266.043836 kJ/mol
# GULP energy per Si atom -12394.847840 kJ/mol
# Density = 1.879241 g / cm^3
# Si number density = 18.835277 Si / 1000 Ang^3
#
#
#
# Elastic Constant Matrix: (Units=GPa)
#
#
# Indices 1 2 3 4 5 6 
#
# 1 71.8899 40.1622 23.5119 0.0000 -9.7112 0.0000
# 2 40.1622 126.0974 35.9943 0.0000 3.0704 0.0000
# 3 23.5119 35.9943 71.6016 0.0000 0.1324 0.0000
# 4 0.0000 0.0000 0.0000 21.8478 0.0000 3.3536
# 5 -9.7112 3.0704 0.1324 0.0000 23.9997 0.0000
# 6 0.0000 0.0000 0.0000 3.3536 0.0000 24.8975
#
#
#
# Elastic Compliance Matrix: (Units=1/GPa)
#
#
# Indices 1 2 3 4 5 6 
#
# 1 0.019200 -0.005274 -0.003669 0.000000 0.008464 0.000000
# 2 -0.005274 0.010740 -0.003661 0.000000 -0.003488 0.000000
# 3 -0.003669 -0.003661 0.017013 0.000000 -0.001110 0.000000
# 4 0.000000 0.000000 0.000000 0.046737 0.000000 -0.006295
# 5 0.008464 -0.003488 -0.001110 0.000000 0.045544 0.000000
# 6 0.000000 0.000000 0.000000 -0.006295 0.000000 0.041013
#
#
# Mechanical properties :
#
#
# Convention : Reuss Voigt Hill
#
# Bulk Modulus (GPa) = 45.98640 52.10287 49.04464
# Shear Modulus (GPa) = 23.50685 25.47704 24.49195
#
# Velocity S-wave (km/s) = 3.53657 3.68179 3.60991
# Velocity P-wave (km/s) = 6.41440 6.76732 6.59322
#
# Compressibility (1/GPa) = 0.02174556
#
# Stress axis : x y z
#
# Youngs Moduli (GPa) = 52.08374 93.10967 58.77747
#
# Poissons Ratio (x) = 0.49105 0.21566
# Poissons Ratio (y) = 0.27469 0.21517
# Poissons Ratio (z) = 0.19110 0.34085
#
# Static dielectric constant tensor:
#      x y z
#    x 3.276590 0.000000 -0.199480 
#    y 0.000000 3.609420 0.000000 
#    z -0.199480 0.000000 3.538460 
# 
# 
# High freq. dielectric constant tensor:
#      x y z
#    x 1.705380 0.000000 -0.013320 
#    y 0.000000 1.737930 0.000000 
#    z -0.013320 0.000000 1.732860 
# 
# From -- ./inp_files/207588.got.cif
#   From: 2010.06.25/outbox.cif.g09.slc.cpg/sg12_104_cif.got.tgz:207588.got - 2010.06.28 00:19:55.
