data_PCOD8093629
_publ_section_title
;
Structure prediction by ZEFSAII (Michael W. Deem and Ramdas Pophale) SiO2 
 PCOD8093629
Probable space group: C 2/M
;
_chemical_formula_sum "Si O2"
_cell_formula_units_Z 48
_cell_length_a 31.516575
_cell_length_b 8.464989
_cell_length_c 9.627753
_cell_angle_alpha 90.000000
_cell_angle_beta 77.176332
_cell_angle_gamma 90.000000
_cell_volume 2504.498023
_symmetry_space_group_name_H-M "C 2/M"
_symmetry_group_IT_number 12
_symmetry_cell_setting 'monoclinic'
loop_
_space_group_symop_operation_xyz
x,y,z
-x,y,-z
-x,-y,-z
x,-y,z
1/2+x,1/2+y,z
1/2-x,1/2+y,-z
1/2-x,1/2-y,-z
1/2+x,1/2-y,z
loop_
_atom_site_type_symbol
_atom_site_label
_atom_site_fract_x
_atom_site_fract_y
_atom_site_fract_z
Si Si1 0.564095 0.314344 0.171963
Si Si2 0.390082 0.315582 0.365090
Si Si3 0.127374 0.316574 0.913275
Si Si4 0.701778 0.313296 0.044108
Si Si5 0.482426 0.816510 0.361625
Si Si6 0.361939 0.313669 0.678812
O O1 0.555308 0.500000 0.189914
O O2 0.586432 0.277066 0.008012
O O3 0.518858 0.221835 0.219717
O O4 0.596307 0.247841 0.268165
O O5 0.382211 0.500000 0.342437
O O6 0.440820 0.287836 0.355782
O O7 0.362778 0.254061 0.519566
O O8 0.371889 0.215199 0.250971
O O9 0.121122 0.500000 0.947963
O O10 0.173225 0.259929 0.941784
O O11 0.701016 0.500000 0.026803
O O12 0.681913 0.261738 0.208534
O O13 0.750000 0.250000 0.000000
O O14 0.500000 0.766443 0.500000
O O15 0.469807 0.000000 0.364474
O O16 0.366339 0.500000 0.677615
#
# Coordination Sequence:
#
# PCOD8093629 Si02
#       6
#     8   8   8   8   8   8
#     4  10  19  36  58  81 108 151 199 238 277 334
#     4  11  21  37  58  82 112 153 193 235 283 336
#     4  11  23  39  57  84 118 150 183 235 291 340
#     4  10  20  39  64  91 114 145 185 229 278 342
#     4  11  22  34  52  83 118 151 191 240 283 332
#     4   8  17  33  57  83 110 142 186 232 277 330
#
# _framework density 19.165516
#
# number of rings (size 3 to 8) (size 9 to 14) (size 15 to 20)
#    0.000    1.833    1.667    4.500    0.000    1.333 
#    0.000    6.667    0.000    0.000    0.000    0.000 
#    0.000    0.000    0.000    0.000    0.000    0.000 
#
# Total GULP energy -297632.423126 kJ/mol
# GULP energy per Si atom -12401.350964 kJ/mol
# Density = 1.912189 g / cm^3
# Si number density = 19.165516 Si / 1000 Ang^3
#
#
#
# Elastic Constant Matrix: (Units=GPa)
#
#
# Indices 1 2 3 4 5 6 
#
# 1 107.7261 16.2109 55.3267 0.0000 -15.6854 0.0000
# 2 16.2109 61.4899 19.2511 0.0000 1.9639 0.0000
# 3 55.3267 19.2511 133.3778 0.0000 -3.9194 0.0000
# 4 0.0000 0.0000 0.0000 26.4330 0.0000 0.3324
# 5 -15.6854 1.9639 -3.9194 0.0000 26.6947 0.0000
# 6 0.0000 0.0000 0.0000 0.3324 0.0000 31.0276
#
#
#
# Elastic Compliance Matrix: (Units=1/GPa)
#
#
# Indices 1 2 3 4 5 6 
#
# 1 0.013197 -0.002158 -0.004952 0.000000 0.007186 0.000000
# 2 -0.002158 0.017456 -0.001706 0.000000 -0.002803 0.000000
# 3 -0.004952 -0.001706 0.009758 0.000000 -0.001351 0.000000
# 4 0.000000 0.000000 0.000000 0.037837 0.000000 -0.000405
# 5 0.007186 -0.002803 -0.001351 0.000000 0.041691 0.000000
# 6 0.000000 0.000000 0.000000 -0.000405 0.000000 0.032234
#
#
# Mechanical properties :
#
#
# Convention : Reuss Voigt Hill
#
# Bulk Modulus (GPa) = 43.90258 53.79681 48.84970
# Shear Modulus (GPa) = 28.18527 30.95139 29.56833
#
# Velocity S-wave (km/s) = 3.83903 4.02301 3.93210
# Velocity P-wave (km/s) = 6.52746 7.05053 6.79403
#
# Compressibility (1/GPa) = 0.02277770
#
# Stress axis : x y z
#
# Youngs Moduli (GPa) = 75.77471 57.28796 102.47933
#
# Poissons Ratio (x) = 0.12366 0.50743
# Poissons Ratio (y) = 0.16356 0.17488
# Poissons Ratio (z) = 0.37520 0.09776
#
# Static dielectric constant tensor:
#      x y z
#    x 3.311220 0.000000 -0.133900 
#    y 0.000000 3.376510 0.000000 
#    z -0.133900 0.000000 3.725500 
# 
# 
# High freq. dielectric constant tensor:
#      x y z
#    x 1.727670 0.000000 -0.011530 
#    y 0.000000 1.743960 0.000000 
#    z -0.011530 0.000000 1.749720 
# 
# From -- ./inp_files/108719.got.cif
#   From: 2010.06.25/outbox.cif.g09.slc.cpg/sg12_55_cif.got.tgz:108719.got - 2010.06.28 00:19:55.
