data_PCOD8093286
_publ_section_title
;
Structure prediction by ZEFSAII (Michael W. Deem and Ramdas Pophale) SiO2 
 PCOD8093286
Probable space group: C 2/M
;
_chemical_formula_sum "Si O2"
_cell_formula_units_Z 48
_cell_length_a 19.715110
_cell_length_b 12.783349
_cell_length_c 16.829115
_cell_angle_alpha 90.000000
_cell_angle_beta 145.805931
_cell_angle_gamma 90.000000
_cell_volume 2383.634773
_symmetry_space_group_name_H-M "C 2/M"
_symmetry_group_IT_number 12
_symmetry_cell_setting 'monoclinic'
loop_
_space_group_symop_operation_xyz
x,y,z
-x,y,-z
-x,-y,-z
x,-y,z
1/2+x,1/2+y,z
1/2-x,1/2+y,-z
1/2-x,1/2-y,-z
1/2+x,1/2-y,z
loop_
_atom_site_type_symbol
_atom_site_label
_atom_site_fract_x
_atom_site_fract_y
_atom_site_fract_z
Si Si1 0.308923 0.618101 0.293295
Si Si2 0.398222 0.876279 0.156469
Si Si3 0.275762 0.261118 0.911306
Si Si4 0.453816 0.384162 0.580872
Si Si5 0.494419 0.377998 0.902455
Si Si6 0.886775 0.241837 0.661715
O O1 0.253549 0.500000 0.244767
O O2 0.220284 0.705984 0.171956
O O3 0.418662 0.615841 0.338074
O O4 0.351113 0.658708 0.420670
O O5 0.351886 0.818975 0.192881
O O6 0.538066 0.850951 0.268076
O O7 0.386052 0.000000 0.153180
O O8 0.305603 0.833239 0.000665
O O9 0.377092 0.350895 0.012188
O O10 0.413827 0.500000 0.564580
O O11 0.461579 0.324522 0.670562
O O12 0.464944 0.500000 0.864122
O O13 0.393421 0.311783 0.755425
O O14 0.500000 0.345275 0.000000
O O15 0.750000 0.250000 0.500000
#
# Coordination Sequence:
#
# PCOD8093286 Si02
#       6
#     8   8   8   8   8   8
#     4   9  17  31  57  86 112 140 182 240 289 336
#     4  10  21  36  55  86 114 144 192 239 289 343
#     4  10  19  35  61  83 112 151 183 239 293 346
#     4   9  18  33  54  83 111 143 188 233 283 340
#     4  10  23  41  60  85 116 154 198 237 284 351
#     4  11  23  38  60  82 113 160 194 241 285 341
#
# _framework density 20.137314
#
# number of rings (size 3 to 8) (size 9 to 14) (size 15 to 20)
#    0.000    2.167    1.667    2.500    2.333    1.333 
#    0.000    0.000    0.000    3.500    0.000    0.000 
#    0.000    0.000    0.000    0.000    0.000    0.000 
#
# Total GULP energy -297378.075947 kJ/mol
# GULP energy per Si atom -12390.753164 kJ/mol
# Density = 2.009148 g / cm^3
# Si number density = 20.137314 Si / 1000 Ang^3
#
#
#
# Elastic Constant Matrix: (Units=GPa)
#
#
# Indices 1 2 3 4 5 6 
#
# 1 50.4250 26.0623 26.2223 0.0000 -9.2056 0.0000
# 2 26.0623 98.1092 44.6790 0.0000 -4.0568 0.0000
# 3 26.2223 44.6790 100.9524 0.0000 -2.2710 0.0000
# 4 0.0000 0.0000 0.0000 24.7184 0.0000 -6.1766
# 5 -9.2056 -4.0568 -2.2710 0.0000 40.2789 0.0000
# 6 0.0000 0.0000 0.0000 -6.1766 0.0000 19.2043
#
#
#
# Elastic Compliance Matrix: (Units=1/GPa)
#
#
# Indices 1 2 3 4 5 6 
#
# 1 0.025427 -0.004494 -0.004501 0.000000 0.005105 0.000000
# 2 -0.004494 0.013598 -0.004849 0.000000 0.000069 0.000000
# 3 -0.004501 -0.004849 0.013204 0.000000 -0.000773 0.000000
# 4 0.000000 0.000000 0.000000 0.043991 0.000000 0.014149
# 5 0.005105 0.000069 -0.000773 0.000000 0.025957 0.000000
# 6 0.000000 0.000000 0.000000 0.014149 0.000000 0.056622
#
#
# Mechanical properties :
#
#
# Convention : Reuss Voigt Hill
#
# Bulk Modulus (GPa) = 40.74955 49.26822 45.00889
# Shear Modulus (GPa) = 23.29206 27.00853 25.15029
#
# Velocity S-wave (km/s) = 3.40466 3.66624 3.53787
# Velocity P-wave (km/s) = 5.97791 6.51467 6.25205
#
# Compressibility (1/GPa) = 0.02454015
#
# Stress axis : x y z
#
# Youngs Moduli (GPa) = 39.32901 73.54218 75.73738
#
# Poissons Ratio (x) = 0.33047 0.34089
# Poissons Ratio (y) = 0.17673 0.36727
# Poissons Ratio (z) = 0.17702 0.35662
#
# Static dielectric constant tensor:
#      x y z
#    x 3.561620 0.000000 -0.313060 
#    y 0.000000 3.643780 0.000000 
#    z -0.313060 0.000000 3.819400 
# 
# 
# High freq. dielectric constant tensor:
#      x y z
#    x 1.772220 0.000000 -0.014400 
#    y 0.000000 1.778410 0.000000 
#    z -0.014400 0.000000 1.783410 
# 
# From -- ./inp_files/289459.got.cif
#   From: 2010.06.25/outbox.cif.g09.slc.cpg/sg12_145_cif.got.tgz:289459.got - 2010.06.28 00:19:55.
