data_PCOD8093900
_publ_section_title
;
Structure prediction by ZEFSAII (Michael W. Deem and Ramdas Pophale) SiO2 
 PCOD8093900
Probable space group: C 2/M
;
_chemical_formula_sum "Si O2"
_cell_formula_units_Z 64
_cell_length_a 15.362491
_cell_length_b 8.676631
_cell_length_c 24.052949
_cell_angle_alpha 90.000000
_cell_angle_beta 89.962146
_cell_angle_gamma 90.000000
_cell_volume 3206.129095
_symmetry_space_group_name_H-M "C 2/M"
_symmetry_group_IT_number 12
_symmetry_cell_setting 'monoclinic'
loop_
_space_group_symop_operation_xyz
x,y,z
-x,y,-z
-x,-y,-z
x,-y,z
1/2+x,1/2+y,z
1/2-x,1/2+y,-z
1/2-x,1/2-y,-z
1/2+x,1/2-y,z
loop_
_atom_site_type_symbol
_atom_site_label
_atom_site_fract_x
_atom_site_fract_y
_atom_site_fract_z
Si Si1 0.033041 0.682153 0.439424
Si Si2 0.374659 0.816823 0.364182
Si Si3 0.040259 0.178889 0.941007
Si Si4 0.371984 0.817833 0.239830
Si Si5 0.776941 0.319579 0.058441
Si Si6 0.221581 0.323656 0.169286
Si Si7 0.527891 0.177514 0.163270
Si Si8 0.280253 0.317612 0.558092
O O1 0.047003 0.500000 0.436853
O O2 0.961484 0.741317 0.395403
O O3 0.000000 0.733215 0.500000
O O4 0.124122 0.761828 0.424783
O O5 0.374391 0.747659 0.301896
O O6 0.287934 0.758476 0.395450
O O7 0.375406 0.000000 0.363346
O O8 0.972474 0.219086 0.892464
O O9 0.122643 0.286372 0.929389
O O10 0.067060 0.000000 0.939529
O O11 0.000000 0.223588 0.000000
O O12 0.283348 0.770318 0.209971
O O13 0.456025 0.757240 0.206139
O O14 0.374769 0.000000 0.243155
O O15 0.757831 0.500000 0.058241
O O16 0.721268 0.241611 0.106900
O O17 0.750000 0.250000 0.000000
O O18 0.252814 0.500000 0.168367
O O19 0.122743 0.307296 0.191437
O O20 0.508795 0.000000 0.147469
O O21 0.278820 0.500000 0.553364
O O22 0.250000 0.250000 0.500000
#
# Coordination Sequence:
#
# PCOD8093900 Si02
#       8
#     8   8   8   8   8   8   8   8
#     4  10  19  36  60  87 120 161 202 246 305 362
#     4   9  20  38  60  85 121 162 203 246 300 365
#     4  11  23  38  59  89 122 154 194 245 304 363
#     4  10  21  41  64  86 116 164 209 245 297 363
#     4  12  24  39  60  88 122 160 201 248 303 362
#     4  11  23  40  62  91 123 157 200 254 305 354
#     4  10  22  39  61  87 117 156 200 245 298 358
#     4  11  21  36  58  88 122 161 203 251 304 359
#
# _framework density 19.961766999999998
#
# number of rings (size 3 to 8) (size 9 to 14) (size 15 to 20)
#    0.000    1.500    2.500    3.000    0.000    5.250 
#    0.000    3.125    0.000    0.000    0.000    0.000 
#    0.000    0.000    0.000    0.000    0.000    0.000 
#
# Total GULP energy -396905.684227 kJ/mol
# GULP energy per Si atom -12403.302632 kJ/mol
# Density = 1.991633 g / cm^3
# Si number density = 19.961767 Si / 1000 Ang^3
#
#
#
# Elastic Constant Matrix: (Units=GPa)
#
#
# Indices 1 2 3 4 5 6 
#
# 1 148.2488 16.0785 65.7098 0.0000 -4.1033 0.0000
# 2 16.0785 25.3612 16.6407 0.0000 -10.6716 0.0000
# 3 65.7098 16.6407 159.6165 0.0000 -2.2219 0.0000
# 4 0.0000 0.0000 0.0000 18.5179 0.0000 3.8951
# 5 -4.1033 -10.6716 -2.2219 0.0000 31.0337 0.0000
# 6 0.0000 0.0000 0.0000 3.8951 0.0000 34.8776
#
#
#
# Elastic Compliance Matrix: (Units=1/GPa)
#
#
# Indices 1 2 3 4 5 6 
#
# 1 0.008506 -0.003449 -0.003146 0.000000 -0.000287 0.000000
# 2 -0.003449 0.051123 -0.003675 0.000000 0.016861 0.000000
# 3 -0.003146 -0.003675 0.007928 0.000000 -0.001112 0.000000
# 4 0.000000 0.000000 0.000000 0.055301 0.000000 -0.006176
# 5 -0.000287 0.016861 -0.001112 0.000000 0.037903 0.000000
# 6 0.000000 0.000000 0.000000 -0.006176 0.000000 0.029361
#
#
# Mechanical properties :
#
#
# Convention : Reuss Voigt Hill
#
# Bulk Modulus (GPa) = 21.26919 58.89828 40.08373
# Shear Modulus (GPa) = 22.09110 32.53900 27.31505
#
# Velocity S-wave (km/s) = 3.33028 4.04179 3.70316
# Velocity P-wave (km/s) = 5.04636 7.16596 6.19745
#
# Compressibility (1/GPa) = 0.04701637
#
# Stress axis : x y z
#
# Youngs Moduli (GPa) = 117.56360 19.56064 126.13720
#
# Poissons Ratio (x) = 0.06746 0.39684
# Poissons Ratio (y) = 0.40547 0.46359
# Poissons Ratio (z) = 0.36987 0.07189
#
# Static dielectric constant tensor:
#      x y z
#    x 3.855300 0.000000 -0.063580 
#    y 0.000000 3.460040 0.000000 
#    z -0.063580 0.000000 3.813930 
# 
# 
# High freq. dielectric constant tensor:
#      x y z
#    x 1.794040 0.000000 -0.000370 
#    y 0.000000 1.764260 0.000000 
#    z -0.000370 0.000000 1.777610 
# 
# From -- ./inp_files/338903.got.cif
#   From: 2010.06.25/outbox.cif.g09.slc.cpg/sg12_170_cif.got.tgz:338903.got - 2010.06.28 00:19:55.
