data_PCOD8093078
_publ_section_title
;
Structure prediction by ZEFSAII (Michael W. Deem and Ramdas Pophale) SiO2 
 PCOD8093078
Probable space group: C 2/M
;
_chemical_formula_sum "Si O2"
_cell_formula_units_Z 64
_cell_length_a 23.853173
_cell_length_b 15.029824
_cell_length_c 17.277675
_cell_angle_alpha 90.000000
_cell_angle_beta 148.329858
_cell_angle_gamma 90.000000
_cell_volume 3252.130676
_symmetry_space_group_name_H-M "C 2/M"
_symmetry_group_IT_number 12
_symmetry_cell_setting 'monoclinic'
loop_
_space_group_symop_operation_xyz
x,y,z
-x,y,-z
-x,-y,-z
x,-y,z
1/2+x,1/2+y,z
1/2-x,1/2+y,-z
1/2-x,1/2-y,-z
1/2+x,1/2-y,z
loop_
_atom_site_type_symbol
_atom_site_label
_atom_site_fract_x
_atom_site_fract_y
_atom_site_fract_z
Si Si1 0.404448 0.397152 0.832909
Si Si2 0.194730 0.599560 0.323423
Si Si3 0.347982 0.317134 0.606459
Si Si4 0.233773 0.603500 0.200691
Si Si5 0.519990 0.102038 0.859833
Si Si6 0.671366 0.896599 0.626358
Si Si7 0.492017 0.802098 0.677090
Si Si8 0.391660 0.747826 0.332050
O O1 0.424289 0.500000 0.836062
O O2 0.404117 0.342917 0.752477
O O3 0.293153 0.382816 0.745263
O O4 0.500000 0.361379 0.000000
O O5 0.160554 0.500000 0.261360
O O6 0.291326 0.598476 0.498532
O O7 0.233627 0.642669 0.288115
O O8 0.088576 0.648133 0.233560
O O9 0.250000 0.250000 0.500000
O O10 0.435435 0.282447 0.649139
O O11 0.270463 0.500000 0.237764
O O12 0.311284 0.665103 0.241442
O O13 0.114294 0.616141 0.030488
O O14 0.550287 0.143344 0.813026
O O15 0.494374 0.000000 0.814080
O O16 0.594522 0.864254 0.467320
O O17 0.652110 0.838168 0.680309
O O18 0.647170 0.000000 0.616661
O O19 0.585447 0.768791 0.730505
O O20 0.500000 0.716056 0.500000
#
# Coordination Sequence:
#
# PCOD8093078 Si02
#       8
#     8   8   8   8   8   8   8   8
#     4  10  22  40  61  88 122 158 198 246 303 364
#     4  10  19  35  59  85 114 146 186 241 295 352
#     4  12  21  36  58  89 117 151 192 239 296 357
#     4  10  22  39  59  83 115 154 196 241 294 350
#     4  10  20  35  56  85 116 148 186 238 303 359
#     4  10  20  38  62  87 117 156 198 244 297 355
#     4  11  22  36  55  85 119 153 194 246 290 351
#     4  10  23  39  57  82 114 149 204 247 288 349
#
# _framework density 19.679406
#
# number of rings (size 3 to 8) (size 9 to 14) (size 15 to 20)
#    0.000    1.625    2.500    2.625    0.000    8.000 
#    0.000    1.250    0.000    3.000    0.000    0.000 
#    0.000    0.000    0.000    0.000    0.000    0.000 
#
# Total GULP energy -396787.134951 kJ/mol
# GULP energy per Si atom -12399.597967 kJ/mol
# Density = 1.963461 g / cm^3
# Si number density = 19.679406 Si / 1000 Ang^3
#
#
#
# Elastic Constant Matrix: (Units=GPa)
#
#
# Indices 1 2 3 4 5 6 
#
# 1 148.4100 58.5484 50.1783 0.0000 -7.8803 0.0000
# 2 58.5484 86.4745 44.5965 0.0000 1.0964 0.0000
# 3 50.1783 44.5965 101.3572 0.0000 -13.5558 0.0000
# 4 0.0000 0.0000 0.0000 29.0889 0.0000 0.3975
# 5 -7.8803 1.0964 -13.5558 0.0000 29.4957 0.0000
# 6 0.0000 0.0000 0.0000 0.3975 0.0000 28.4383
#
#
#
# Elastic Compliance Matrix: (Units=1/GPa)
#
#
# Indices 1 2 3 4 5 6 
#
# 1 0.009734 -0.005502 -0.002155 0.000000 0.001814 0.000000
# 2 -0.005502 0.018482 -0.006070 0.000000 -0.004947 0.000000
# 3 -0.002155 -0.006070 0.014445 0.000000 0.006288 0.000000
# 4 0.000000 0.000000 0.000000 0.034384 0.000000 -0.000481
# 5 0.001814 -0.004947 0.006288 0.000000 0.037462 0.000000
# 6 0.000000 0.000000 0.000000 -0.000481 0.000000 0.035171
#
#
# Mechanical properties :
#
#
# Convention : Reuss Voigt Hill
#
# Bulk Modulus (GPa) = 65.76034 71.43199 68.59617
# Shear Modulus (GPa) = 27.44239 29.59917 28.52078
#
# Velocity S-wave (km/s) = 3.73832 3.88244 3.81106
# Velocity P-wave (km/s) = 7.21954 7.51495 7.36872
#
# Compressibility (1/GPa) = 0.01520673
#
# Stress axis : x y z
#
# Youngs Moduli (GPa) = 102.73682 54.10634 69.22852
#
# Poissons Ratio (x) = 0.29767 0.14922
# Poissons Ratio (y) = 0.56522 0.42021
# Poissons Ratio (z) = 0.22144 0.32842
#
# Static dielectric constant tensor:
#      x y z
#    x 3.686960 0.000000 -0.037720 
#    y 0.000000 3.575920 0.000000 
#    z -0.037720 0.000000 3.568430 
# 
# 
# High freq. dielectric constant tensor:
#      x y z
#    x 1.768890 0.000000 -0.006780 
#    y 0.000000 1.767410 0.000000 
#    z -0.006780 0.000000 1.760870 
# 
# From -- ./inp_files/278170.got.cif
#   From: 2010.06.25/outbox.cif.g09.slc.cpg/sg12_140_cif.got.tgz:278170.got - 2010.06.28 00:19:55.
