data_PCOD8093373
_publ_section_title
;
Structure prediction by ZEFSAII (Michael W. Deem and Ramdas Pophale) SiO2 
 PCOD8093373
Probable space group: C 2/M
;
_chemical_formula_sum "Si O2"
_cell_formula_units_Z 64
_cell_length_a 23.265721
_cell_length_b 14.351407
_cell_length_c 14.468078
_cell_angle_alpha 90.000000
_cell_angle_beta 137.037418
_cell_angle_gamma 90.000000
_cell_volume 3292.310753
_symmetry_space_group_name_H-M "C 2/M"
_symmetry_group_IT_number 12
_symmetry_cell_setting 'monoclinic'
loop_
_space_group_symop_operation_xyz
x,y,z
-x,y,-z
-x,-y,-z
x,-y,z
1/2+x,1/2+y,z
1/2-x,1/2+y,-z
1/2-x,1/2-y,-z
1/2+x,1/2-y,z
loop_
_atom_site_type_symbol
_atom_site_label
_atom_site_fract_x
_atom_site_fract_y
_atom_site_fract_z
Si Si1 0.635505 0.712969 0.438683
Si Si2 0.423162 0.602081 0.461674
Si Si3 0.156916 0.394284 0.988021
Si Si4 0.416342 0.607573 0.961469
Si Si5 0.400793 0.106652 0.873667
Si Si6 0.157420 0.103451 0.816254
Si Si7 0.049796 0.771457 0.815979
Si Si8 0.190991 0.782883 0.306802
O O1 0.611702 0.633097 0.481628
O O2 0.546445 0.760992 0.310618
O O3 0.706749 0.776215 0.572815
O O4 0.669064 0.672021 0.380818
O O5 0.500000 0.657814 0.500000
O O6 0.459764 0.500000 0.527161
O O7 0.346418 0.601174 0.299574
O O8 0.137762 0.500000 0.936193
O O9 0.092621 0.328102 0.861389
O O10 0.147093 0.383067 0.086091
O O11 0.247657 0.361704 0.055446
O O12 0.395839 0.500000 0.963539
O O13 0.338588 0.649822 0.810829
O O14 0.500000 0.613503 0.000000
O O15 0.430687 0.670537 0.068223
O O16 0.354326 0.180658 0.751660
O O17 0.392480 0.000000 0.825854
O O18 0.500000 0.133153 0.000000
O O19 0.084712 0.167870 0.772476
O O20 0.145022 0.000000 0.842994
#
# Coordination Sequence:
#
# PCOD8093373 Si02
#       8
#     8   8   8   8   8   8   8   8
#     4  11  24  36  59  84 122 163 204 249 300 365
#     4  10  20  36  58  87 120 155 198 252 306 360
#     4  10  21  36  58  88 119 150 194 251 306 359
#     4  11  23  39  62  87 120 161 201 249 305 371
#     4  10  19  35  62  88 115 152 193 244 301 354
#     4  10  21  37  58  90 122 151 198 254 308 364
#     4  12  21  38  61  91 119 162 201 253 307 365
#     4  11  22  41  56  87 124 162 204 248 300 366
#
# _framework density 19.439235
#
# number of rings (size 3 to 8) (size 9 to 14) (size 15 to 20)
#    0.000    1.375    3.750    2.625    0.000    2.500 
#    0.000    2.500    0.000    0.000    0.000    0.875 
#    0.000    0.000    0.000    0.000    0.000    0.000 
#
# Total GULP energy -396457.044882 kJ/mol
# GULP energy per Si atom -12389.282653 kJ/mol
# Density = 1.939499 g / cm^3
# Si number density = 19.439235 Si / 1000 Ang^3
#
#
#
# Elastic Constant Matrix: (Units=GPa)
#
#
# Indices 1 2 3 4 5 6 
#
# 1 93.1650 30.6507 38.4349 0.0000 13.2726 0.0000
# 2 30.6507 78.3696 43.1732 0.0000 11.3998 0.0000
# 3 38.4349 43.1732 127.8078 0.0000 22.1731 0.0000
# 4 0.0000 0.0000 0.0000 19.9092 0.0000 4.3572
# 5 13.2726 11.3998 22.1731 0.0000 39.4017 0.0000
# 6 0.0000 0.0000 0.0000 4.3572 0.0000 19.5209
#
#
#
# Elastic Compliance Matrix: (Units=1/GPa)
#
#
# Indices 1 2 3 4 5 6 
#
# 1 0.013184 -0.003525 -0.002416 0.000000 -0.002061 0.000000
# 2 -0.003525 0.016727 -0.004385 0.000000 -0.001184 0.000000
# 3 -0.002416 -0.004385 0.010717 0.000000 -0.003948 0.000000
# 4 0.000000 0.000000 0.000000 0.052808 0.000000 -0.011787
# 5 -0.002061 -0.001184 -0.003948 0.000000 0.028639 0.000000
# 6 0.000000 0.000000 0.000000 -0.011787 0.000000 0.053858
#
#
# Mechanical properties :
#
#
# Convention : Reuss Voigt Hill
#
# Bulk Modulus (GPa) = 50.06218 58.20666 54.13442
# Shear Modulus (GPa) = 24.60116 28.23860 26.41988
#
# Velocity S-wave (km/s) = 3.56130 3.81551 3.69060
# Velocity P-wave (km/s) = 6.53602 7.02985 6.78743
#
# Compressibility (1/GPa) = 0.01997516
#
# Stress axis : x y z
#
# Youngs Moduli (GPa) = 75.84985 59.78523 93.30997
#
# Poissons Ratio (x) = 0.21076 0.22546
# Poissons Ratio (y) = 0.26740 0.40912
# Poissons Ratio (z) = 0.18327 0.26213
#
# Static dielectric constant tensor:
#      x y z
#    x 3.704530 0.000000 0.208580 
#    y 0.000000 3.521670 0.000000 
#    z 0.208580 0.000000 3.778060 
# 
# 
# High freq. dielectric constant tensor:
#      x y z
#    x 1.765090 0.000000 0.010680 
#    y 0.000000 1.733430 0.000000 
#    z 0.010680 0.000000 1.760370 
# 
# From -- ./inp_files/240705.got.cif
#   From: 2010.06.25/outbox.cif.g09.slc.cpg/sg12_121_cif.got.tgz:240705.got - 2010.06.28 00:19:55.
