data_PCOD8093044
_publ_section_title
;
Structure prediction by ZEFSAII (Michael W. Deem and Ramdas Pophale) SiO2 
 PCOD8093044
Probable space group: C 2/M
;
_chemical_formula_sum "Si O2"
_cell_formula_units_Z 64
_cell_length_a 19.617036
_cell_length_b 19.265470
_cell_length_c 19.796881
_cell_angle_alpha 90.000000
_cell_angle_beta 28.939149
_cell_angle_gamma 90.000000
_cell_volume 3620.327441
_symmetry_space_group_name_H-M "C 2/M"
_symmetry_group_IT_number 12
_symmetry_cell_setting 'monoclinic'
loop_
_space_group_symop_operation_xyz
x,y,z
-x,y,-z
-x,-y,-z
x,-y,z
1/2+x,1/2+y,z
1/2-x,1/2+y,-z
1/2-x,1/2-y,-z
1/2+x,1/2-y,z
loop_
_atom_site_type_symbol
_atom_site_label
_atom_site_fract_x
_atom_site_fract_y
_atom_site_fract_z
Si Si1 0.676525 0.578523 0.193963
Si Si2 0.109647 0.201634 0.346772
Si Si3 0.119968 0.782769 0.699412
Si Si4 0.435938 0.783042 0.390929
Si Si5 0.915347 0.076856 0.324657
Si Si6 0.094874 0.287666 0.856674
Si Si7 0.507200 0.920802 0.117236
Si Si8 0.891242 0.577823 0.365226
O O1 0.669653 0.500000 0.227418
O O2 0.653710 0.628866 0.276279
O O3 0.554665 0.592214 0.245859
O O4 0.825777 0.593615 0.028904
O O5 0.246601 0.233654 0.263184
O O6 0.000000 0.185184 0.500000
O O7 0.054448 0.256920 0.339755
O O8 0.284465 0.762555 0.552991
O O9 0.042122 0.754299 0.700126
O O10 0.097569 0.865998 0.723064
O O11 0.049447 0.750357 0.826953
O O12 0.450010 0.866421 0.368425
O O13 0.778813 0.083932 0.491947
O O14 0.920601 0.000000 0.287185
O O15 0.072689 0.370567 0.866004
O O16 0.000000 0.259974 0.000000
O O17 0.452059 0.903666 0.239603
O O18 0.471665 0.000000 0.127477
O O19 0.936749 0.500000 0.348382
#
# Coordination Sequence:
#
# PCOD8093044 Si02
#       8
#     8   8   8   8   8   8   8   8
#     4  10  21  37  53  79 116 151 185 222 271 330
#     4  12  24  37  55  81 115 147 184 230 283 326
#     4  10  19  35  60  82 110 147 184 230 280 325
#     4  10  19  35  59  84 110 144 185 232 280 323
#     4   9  18  34  60  87 109 139 189 237 272 320
#     4  12  24  39  54  82 115 150 190 226 275 336
#     4  10  21  37  55  78 114 155 185 219 273 332
#     4   9  18  34  60  86 108 141 189 232 272 326
#
# _framework density 17.677959000000001
#
# number of rings (size 3 to 8) (size 9 to 14) (size 15 to 20)
#    0.000    1.750    5.000    0.000    1.750    1.000 
#    2.250    1.875    0.000    1.500    0.000    0.000 
#    0.000    0.000    0.000    0.000    0.000    0.000 
#
# Total GULP energy -396782.000279 kJ/mol
# GULP energy per Si atom -12399.437509 kJ/mol
# Density = 1.763772 g / cm^3
# Si number density = 17.677959 Si / 1000 Ang^3
#
#
#
# Elastic Constant Matrix: (Units=GPa)
#
#
# Indices 1 2 3 4 5 6 
#
# 1 85.1689 44.8192 42.7209 0.0041 3.7503 -0.0004
# 2 44.8192 94.7215 30.5965 0.0076 5.8694 0.0012
# 3 42.7209 30.5965 93.1226 0.0225 5.6647 0.0003
# 4 0.0041 0.0076 0.0225 19.2835 -0.0050 -2.3943
# 5 3.7503 5.8694 5.6647 -0.0050 32.2321 -0.0010
# 6 -0.0004 0.0012 0.0003 -2.3943 -0.0010 18.6168
#
#
#
# Elastic Compliance Matrix: (Units=1/GPa)
#
#
# Indices 1 2 3 4 5 6 
#
# 1 0.018391 -0.006695 -0.006248 0.000006 0.000177 0.000002
# 2 -0.006695 0.014318 -0.001539 -0.000003 -0.001558 -0.000001
# 3 -0.006248 -0.001539 0.014201 -0.000015 -0.001489 -0.000002
# 4 0.000006 -0.000003 -0.000015 0.052699 0.000011 0.006778
# 5 0.000177 -0.001558 -0.001489 0.000011 0.031550 0.000003
# 6 0.000002 -0.000001 -0.000002 0.006778 0.000003 0.054587
#
#
# Mechanical properties :
#
#
# Convention : Reuss Voigt Hill
#
# Bulk Modulus (GPa) = 55.71763 56.58733 56.15248
# Shear Modulus (GPa) = 22.65617 24.35158 23.50388
#
# Velocity S-wave (km/s) = 3.58384 3.71551 3.65027
# Velocity P-wave (km/s) = 6.97938 7.10537 7.04266
#
# Compressibility (1/GPa) = 0.01794764
#
# Stress axis : x y z
#
# Youngs Moduli (GPa) = 54.37577 69.84002 70.41789
#
# Poissons Ratio (x) = 0.46755 0.43997
# Poissons Ratio (y) = 0.36402 0.10834
# Poissons Ratio (z) = 0.33974 0.10745
#
# Static dielectric constant tensor:
#      x y z
#    x 3.036740 0.000000 -0.035350 
#    y 0.000000 3.479940 0.000020 
#    z -0.035350 0.000020 3.348160 
# 
# 
# High freq. dielectric constant tensor:
#      x y z
#    x 1.656820 0.000000 -0.000660 
#    y 0.000000 1.688770 0.000000 
#    z -0.000660 0.000000 1.684930 
# 
# From -- ./inp_files/317807.got.cif
#   From: 2010.06.25/outbox.cif.g09.slc.cpg/sg12_159_cif.got.tgz:317807.got - 2010.06.28 00:19:55.
