data_PCOD8093242
_publ_section_title
;
Structure prediction by ZEFSAII (Michael W. Deem and Ramdas Pophale) SiO2 
 PCOD8093242
Probable space group: C 2/M
;
_chemical_formula_sum "Si O2"
_cell_formula_units_Z 64
_cell_length_a 12.743470
_cell_length_b 17.177792
_cell_length_c 30.287899
_cell_angle_alpha 90.000000
_cell_angle_beta 151.905281
_cell_angle_gamma 90.000000
_cell_volume 3122.346341
_symmetry_space_group_name_H-M "C 2/M"
_symmetry_group_IT_number 12
_symmetry_cell_setting 'monoclinic'
loop_
_space_group_symop_operation_xyz
x,y,z
-x,y,-z
-x,-y,-z
x,-y,z
1/2+x,1/2+y,z
1/2-x,1/2+y,-z
1/2-x,1/2-y,-z
1/2+x,1/2-y,z
loop_
_atom_site_type_symbol
_atom_site_label
_atom_site_fract_x
_atom_site_fract_y
_atom_site_fract_z
Si Si1 0.429775 0.590183 0.264579
Si Si2 0.953710 0.091450 0.082053
Si Si3 0.735678 0.413135 0.596479
Si Si4 0.082002 0.910400 0.225969
Si Si5 0.597860 0.906880 0.796305
Si Si6 0.950825 0.656562 0.601120
Si Si7 0.539220 0.907233 0.873990
Si Si8 0.776203 0.694784 0.443077
O O1 0.458671 0.500000 0.288139
O O2 0.423034 0.601078 0.209131
O O3 0.637963 0.634719 0.362481
O O4 0.198278 0.624346 0.197350
O O5 0.945742 0.110957 0.131133
O O6 0.176752 0.126343 0.142274
O O7 0.952860 0.000000 0.073201
O O8 0.734562 0.127451 0.977534
O O9 0.500000 0.368729 0.500000
O O10 0.681868 0.500000 0.592719
O O11 0.871148 0.416633 0.600786
O O12 0.884797 0.372671 0.690216
O O13 0.284669 0.849828 0.306052
O O14 0.167729 0.000000 0.255401
O O15 0.581617 0.876787 0.840211
O O16 0.596405 0.000000 0.792764
O O17 0.836216 0.653018 0.511175
O O18 0.876264 0.730830 0.602732
O O19 0.539757 0.000000 0.875715
O O20 0.000000 0.718672 0.500000
#
# Coordination Sequence:
#
# PCOD8093242 Si02
#       8
#     8   8   8   8   8   8   8   8
#     4  10  22  38  57  84 116 147 188 238 282 336
#     4   9  16  29  52  81 112 147 186 229 281 337
#     4  10  20  32  51  83 116 146 183 230 284 332
#     4  10  19  35  60  88 115 147 188 232 282 333
#     4   9  16  28  46  75 113 150 185 221 271 333
#     4  11  22  38  58  78 111 149 188 233 272 339
#     4   9  18  31  49  78 115 149 182 230 286 333
#     4  11  24  41  57  79 110 149 194 228 282 346
#
# _framework density 20.497406000000002
#
# number of rings (size 3 to 8) (size 9 to 14) (size 15 to 20)
#    0.000    2.125    2.500    1.125    1.750    3.250 
#    0.000    2.500    0.000    0.750    0.000    0.000 
#    0.000    0.000    0.000    0.000    0.000    0.000 
#
# Total GULP energy -396671.287374 kJ/mol
# GULP energy per Si atom -12395.977730 kJ/mol
# Density = 2.045075 g / cm^3
# Si number density = 20.497406 Si / 1000 Ang^3
#
#
#
# Elastic Constant Matrix: (Units=GPa)
#
#
# Indices 1 2 3 4 5 6 
#
# 1 145.6141 23.9032 65.4085 -0.0001 -16.2189 0.0000
# 2 23.9032 28.5784 29.7005 -0.0001 -2.1579 0.0000
# 3 65.4085 29.7005 152.9354 -0.0015 -13.8166 0.0005
# 4 -0.0001 -0.0001 -0.0015 10.5281 0.0003 3.1697
# 5 -16.2189 -2.1579 -13.8166 0.0003 39.6058 0.0001
# 6 0.0000 0.0000 0.0005 3.1697 0.0001 20.3282
#
#
#
# Elastic Compliance Matrix: (Units=1/GPa)
#
#
# Indices 1 2 3 4 5 6 
#
# 1 0.009155 -0.004554 -0.002803 0.000000 0.002523 0.000000
# 2 -0.004554 0.046118 -0.007176 0.000000 -0.001856 0.000000
# 3 -0.002803 -0.007176 0.009285 0.000001 0.001700 0.000000
# 4 0.000000 0.000000 0.000001 0.099662 -0.000001 -0.015540
# 5 0.002523 -0.001856 0.001700 -0.000001 0.026774 0.000000
# 6 0.000000 0.000000 0.000000 -0.015540 0.000000 0.051616
#
#
# Mechanical properties :
#
#
# Convention : Reuss Voigt Hill
#
# Bulk Modulus (GPa) = 28.17562 62.79472 45.48517
# Shear Modulus (GPa) = 17.63623 27.96682 22.80153
#
# Velocity S-wave (km/s) = 2.93646 3.69780 3.33890
# Velocity P-wave (km/s) = 5.02721 6.99525 6.09124
#
# Compressibility (1/GPa) = 0.03549168
#
# Stress axis : x y z
#
# Youngs Moduli (GPa) = 109.22747 21.68342 107.70164
#
# Poissons Ratio (x) = 0.09874 0.30192
# Poissons Ratio (y) = 0.49738 0.77291
# Poissons Ratio (z) = 0.30620 0.15561
#
# Static dielectric constant tensor:
#      x y z
#    x 3.887200 0.000000 -0.015710 
#    y 0.000000 3.197880 0.000000 
#    z -0.015710 0.000000 3.915820 
# 
# 
# High freq. dielectric constant tensor:
#      x y z
#    x 1.815380 0.000000 -0.004630 
#    y 0.000000 1.746730 0.000000 
#    z -0.004630 0.000000 1.808010 
# 
# From -- ./inp_files/374502.got.cif
#   From: 2010.06.25/outbox.cif.g09.slc.cpg/sg12_188_cif.got.tgz:374502.got - 2010.06.28 00:19:55.
