data_PCOD8093127
_publ_section_title
;
Structure prediction by ZEFSAII (Michael W. Deem and Ramdas Pophale) SiO2 
 PCOD8093127
Probable space group: C 2/M
;
_chemical_formula_sum "Si O2"
_cell_formula_units_Z 64
_cell_length_a 20.749958
_cell_length_b 8.697488
_cell_length_c 23.343390
_cell_angle_alpha 90.000000
_cell_angle_beta 48.458895
_cell_angle_gamma 90.000000
_cell_volume 3153.227278
_symmetry_space_group_name_H-M "C 2/M"
_symmetry_group_IT_number 12
_symmetry_cell_setting 'monoclinic'
loop_
_space_group_symop_operation_xyz
x,y,z
-x,y,-z
-x,-y,-z
x,-y,z
1/2+x,1/2+y,z
1/2-x,1/2+y,-z
1/2-x,1/2-y,-z
1/2+x,1/2-y,z
loop_
_atom_site_type_symbol
_atom_site_label
_atom_site_fract_x
_atom_site_fract_y
_atom_site_fract_z
Si Si1 0.522774 0.678816 0.691150
Si Si2 0.969687 0.175870 0.846960
Si Si3 0.711021 0.817136 0.580269
Si Si4 0.318866 0.179945 0.000930
Si Si5 0.700996 0.329246 0.357562
Si Si6 0.884166 0.320323 0.694502
Si Si7 0.709025 0.319771 0.860249
Si Si8 0.122070 0.670111 0.812520
O O1 0.543661 0.500000 0.671126
O O2 0.464641 0.709078 0.781974
O O3 0.612700 0.765989 0.645296
O O4 0.469544 0.736682 0.667576
O O5 0.910996 0.290862 0.917989
O O6 0.066344 0.208532 0.809963
O O7 0.944190 0.000000 0.875041
O O8 0.750000 0.750000 0.500000
O O9 0.772388 0.758071 0.596320
O O10 0.712290 0.000000 0.578783
O O11 0.304335 0.000000 0.019714
O O12 0.250000 0.250000 0.000000
O O13 0.305551 0.271221 0.066737
O O14 0.661429 0.500000 0.388502
O O15 0.632612 0.227020 0.362089
O O16 0.786578 0.339204 0.270610
O O17 0.901864 0.500000 0.686157
O O18 0.803921 0.272665 0.782081
O O19 0.695228 0.500000 0.860826
O O20 0.634630 0.232514 0.869183
O O21 0.079546 0.500000 0.839491
#
# Coordination Sequence:
#
# PCOD8093127 Si02
#       8
#     8   8   8   8   8   8   8   8
#     4  11  23  39  62  91 123 158 201 249 297 356
#     4  11  23  38  59  86 116 153 198 249 299 353
#     4  11  23  41  65  94 126 160 196 241 296 356
#     4  12  25  40  57  79 111 153 198 247 304 360
#     4   9  19  37  61  88 122 160 197 240 294 355
#     4  10  21  36  61  91 121 159 202 250 299 352
#     4  10  21  38  58  84 118 156 199 248 301 356
#     4  10  19  35  59  87 116 152 196 244 297 355
#
# _framework density 20.296666999999999
#
# number of rings (size 3 to 8) (size 9 to 14) (size 15 to 20)
#    0.000    1.500    1.250    4.125    0.000    7.000 
#    0.000    3.125    0.000    3.750    0.000    0.000 
#    0.000    0.000    0.000    0.000    0.000    0.000 
#
# Total GULP energy -396802.589802 kJ/mol
# GULP energy per Si atom -12400.080931 kJ/mol
# Density = 2.025047 g / cm^3
# Si number density = 20.296667 Si / 1000 Ang^3
#
#
#
# Elastic Constant Matrix: (Units=GPa)
#
#
# Indices 1 2 3 4 5 6 
#
# 1 130.7588 28.6531 30.6001 0.0001 29.8709 -0.0005
# 2 28.6531 61.3910 25.9056 0.0000 4.6149 -0.0018
# 3 30.6001 25.9056 67.2586 0.0000 23.6413 0.0000
# 4 0.0001 0.0000 0.0000 29.5656 0.0001 -0.1398
# 5 29.8709 4.6149 23.6413 0.0001 31.5779 -0.0001
# 6 -0.0005 -0.0018 0.0000 -0.1398 -0.0001 37.4909
#
#
#
# Elastic Compliance Matrix: (Units=1/GPa)
#
#
# Indices 1 2 3 4 5 6 
#
# 1 0.010779 -0.004384 0.000194 0.000000 -0.009701 0.000000
# 2 -0.004384 0.021567 -0.009041 0.000000 0.007764 0.000001
# 3 0.000194 -0.009041 0.024241 0.000000 -0.017011 0.000000
# 4 0.000000 0.000000 0.000000 0.033824 0.000000 0.000126
# 5 -0.009701 0.007764 -0.017011 0.000000 0.052445 0.000000
# 6 0.000000 0.000001 0.000000 0.000126 0.000000 0.026674
#
#
# Mechanical properties :
#
#
# Convention : Reuss Voigt Hill
#
# Bulk Modulus (GPa) = 33.19415 47.74734 40.47074
# Shear Modulus (GPa) = 24.26802 31.34352 27.80577
#
# Velocity S-wave (km/s) = 3.46159 3.93398 3.70532
# Velocity P-wave (km/s) = 5.68918 6.64912 6.18779
#
# Compressibility (1/GPa) = 0.03012579
#
# Stress axis : x y z
#
# Youngs Moduli (GPa) = 92.77380 46.36804 41.25183
#
# Poissons Ratio (x) = 0.20326 -0.00802
# Poissons Ratio (y) = 0.40668 0.37297
# Poissons Ratio (z) = -0.01803 0.41922
#
# Static dielectric constant tensor:
#      x y z
#    x 4.052780 0.000000 0.276140 
#    y 0.000000 3.815350 0.000000 
#    z 0.276140 0.000000 3.506150 
# 
# 
# High freq. dielectric constant tensor:
#      x y z
#    x 1.805870 0.000000 0.013980 
#    y 0.000000 1.801950 0.000000 
#    z 0.013980 0.000000 1.773040 
# 
# From -- ./inp_files/345954.got.cif
#   From: 2010.06.25/outbox.cif.g09.slc.cpg/sg12_173_cif.got.tgz:345954.got - 2010.06.28 00:19:55.
