data_PCOD8093868
_publ_section_title
;
Structure prediction by ZEFSAII (Michael W. Deem and Ramdas Pophale) SiO2 
 PCOD8093868
Probable space group: C 2/M
;
_chemical_formula_sum "Si O2"
_cell_formula_units_Z 48
_cell_length_a 10.859451
_cell_length_b 13.623624
_cell_length_c 20.430362
_cell_angle_alpha 90.000000
_cell_angle_beta 131.787668
_cell_angle_gamma 90.000000
_cell_volume 2253.688066
_symmetry_space_group_name_H-M "C 2/M"
_symmetry_group_IT_number 12
_symmetry_cell_setting 'monoclinic'
loop_
_space_group_symop_operation_xyz
x,y,z
-x,y,-z
-x,-y,-z
x,-y,z
1/2+x,1/2+y,z
1/2-x,1/2+y,-z
1/2-x,1/2-y,-z
1/2+x,1/2-y,z
loop_
_atom_site_type_symbol
_atom_site_label
_atom_site_fract_x
_atom_site_fract_y
_atom_site_fract_z
Si Si1 0.287619 0.889330 0.722514
Si Si2 0.568054 0.749401 0.856216
Si Si3 0.145784 0.890063 0.001754
Si Si4 0.494547 0.609883 0.282228
Si Si5 0.674286 0.638401 0.542296
Si Si6 0.329952 0.138256 0.466858
O O1 0.399984 0.811606 0.800848
O O2 0.100675 0.875717 0.682569
O O3 0.294743 0.868769 0.647417
O O4 0.351114 0.000000 0.758875
O O5 0.713183 0.828382 0.912256
O O6 0.579275 0.689936 0.792857
O O7 0.576043 0.668838 0.915446
O O8 0.208263 0.000000 0.003471
O O9 0.000000 0.903438 0.000000
O O10 0.463640 0.500000 0.243554
O O11 0.689528 0.624417 0.362252
O O12 0.500000 0.585968 0.500000
O O13 0.632881 0.748583 0.506419
O O14 0.767784 0.588577 0.513244
O O15 0.500000 0.089174 0.500000
#
# Coordination Sequence:
#
# PCOD8093868 Si02
#       6
#     8   8   8   8   8   8
#     4  11  23  38  62  93 123 161 214 259 299 360
#     4  11  22  40  65  91 123 158 196 251 310 366
#     4  10  22  42  66  91 121 157 196 240 304 383
#     4  11  23  39  61  91 126 163 207 259 310 360
#     4  10  19  36  60  85 119 171 213 253 308 362
#     4  10  21  36  59  86 124 168 214 260 310 360
#
# _framework density 21.298421000000001
#
# number of rings (size 3 to 8) (size 9 to 14) (size 15 to 20)
#    0.000    1.500    3.333    2.000    0.000    1.333 
#    3.000    0.000    0.000    8.000    0.000    0.000 
#    0.000    0.000    0.000    0.000    0.000    0.000 
#
# Total GULP energy -297490.111628 kJ/mol
# GULP energy per Si atom -12395.421318 kJ/mol
# Density = 2.124995 g / cm^3
# Si number density = 21.298421 Si / 1000 Ang^3
#
#
#
# Elastic Constant Matrix: (Units=GPa)
#
#
# Indices 1 2 3 4 5 6 
#
# 1 142.8452 42.1527 55.7501 0.0000 1.9772 0.0000
# 2 42.1527 137.7107 50.2825 0.0000 -1.8647 0.0000
# 3 55.7501 50.2825 131.0187 0.0000 -0.8141 0.0000
# 4 0.0000 0.0000 0.0000 -39.6200 0.0000 -7.2560
# 5 1.9772 -1.8647 -0.8141 0.0000 29.3298 0.0000
# 6 0.0000 0.0000 0.0000 -7.2560 0.0000 0.8403
#
#
#
# Elastic Compliance Matrix: (Units=1/GPa)
#
#
# Indices 1 2 3 4 5 6 
#
# 1 0.008676 -0.001531 -0.003109 0.000000 -0.000769 0.000000
# 2 -0.001531 0.008721 -0.002692 0.000000 0.000583 0.000000
# 3 -0.003109 -0.002692 0.009991 0.000000 0.000316 0.000000
# 4 0.000000 0.000000 0.000000 -0.009778 0.000000 -0.084428
# 5 -0.000769 0.000583 0.000316 0.000000 0.034193 0.000000
# 6 0.000000 0.000000 0.000000 -0.084428 0.000000 0.461001
#
#
# Mechanical properties :
#
#
# Convention : Reuss Voigt Hill
#
# Bulk Modulus (GPa) = 78.59185 78.66056 78.62621
# Shear Modulus (GPa) = 9.40363 15.66931 12.53647
#
# Velocity S-wave (km/s) = 2.10351 2.71533 2.42876
# Velocity P-wave (km/s) = 6.54829 6.84423 6.69789
#
# Compressibility (1/GPa) = 0.01272396
#
# Stress axis : x y z
#
# Youngs Moduli (GPa) = 115.25440 114.66563 100.09474
#
# Poissons Ratio (x) = 0.17555 0.31121
# Poissons Ratio (y) = 0.17645 0.26944
# Poissons Ratio (z) = 0.35834 0.30867
#
# Static dielectric constant tensor:
#      x y z
#    x 4.009880 0.000000 0.011070 
#    y 0.000000 4.035200 0.000000 
#    z 0.011070 0.000000 3.730350 
# 
# 
# High freq. dielectric constant tensor:
#      x y z
#    x 1.830850 0.000000 -0.000210 
#    y 0.000000 1.855090 0.000000 
#    z -0.000210 0.000000 1.824190 
# 
# From -- ./inp_files/251399.got.cif
#   From: 2010.06.25/outbox.cif.g09.slc.cpg/sg12_126_cif.got.tgz:251399.got - 2010.06.28 00:19:55.
