data_PCOD8093149
_publ_section_title
;
Structure prediction by ZEFSAII (Michael W. Deem and Ramdas Pophale) SiO2 
 PCOD8093149
Probable space group: C 2/M
;
_chemical_formula_sum "Si O2"
_cell_formula_units_Z 48
_cell_length_a 27.803669
_cell_length_b 8.804799
_cell_length_c 17.171009
_cell_angle_alpha 90.000000
_cell_angle_beta 144.470798
_cell_angle_gamma 90.000000
_cell_volume 2442.764267
_symmetry_space_group_name_H-M "C 2/M"
_symmetry_group_IT_number 12
_symmetry_cell_setting 'monoclinic'
loop_
_space_group_symop_operation_xyz
x,y,z
-x,y,-z
-x,-y,-z
x,-y,z
1/2+x,1/2+y,z
1/2-x,1/2+y,-z
1/2-x,1/2-y,-z
1/2+x,1/2-y,z
loop_
_atom_site_type_symbol
_atom_site_label
_atom_site_fract_x
_atom_site_fract_y
_atom_site_fract_z
Si Si1 0.047088 0.173826 0.982377
Si Si2 0.783022 0.677320 0.773271
Si Si3 0.873163 0.176073 0.154273
Si Si4 0.724798 0.176538 0.845363
Si Si5 0.286796 0.821477 0.470950
Si Si6 0.459462 0.324300 0.709363
O O1 0.123981 0.286328 0.077612
O O2 0.078881 0.000000 0.015947
O O3 0.000000 0.201993 0.000000
O O4 0.983750 0.212591 0.830014
O O5 0.770826 0.500000 0.743145
O O6 0.721000 0.732145 0.759428
O O7 0.766172 0.765227 0.671582
O O8 0.852668 0.273722 0.203696
O O9 0.965255 0.217759 0.248680
O O10 0.864145 0.000000 0.164022
O O11 0.810343 0.217045 0.001821
O O12 0.717644 0.000000 0.816777
O O13 0.250000 0.750000 0.500000
O O14 0.382188 0.777968 0.583919
O O15 0.277238 0.000000 0.464981
O O16 0.434636 0.500000 0.667540
#
# Coordination Sequence:
#
# PCOD8093149 Si02
#       6
#     8   8   8   8   8   8
#     4  10  20  36  60  88 119 155 195 246 303 358
#     4  12  24  39  61  89 121 158 203 249 299 357
#     4   9  18  34  58  89 124 160 196 241 301 361
#     4  10  19  35  59  89 123 159 199 245 301 356
#     4  12  26  44  64  87 120 161 205 249 302 361
#     4  10  20  38  61  89 124 160 199 245 303 362
#
# _framework density 19.649871000000001
#
# number of rings (size 3 to 8) (size 9 to 14) (size 15 to 20)
#    0.000    1.500    1.667    4.500    0.000    3.667 
#    0.000    0.833    0.000    5.000    0.000    0.000 
#    0.000    0.000    0.000    0.000    0.000    0.000 
#
# Total GULP energy -297741.473850 kJ/mol
# GULP energy per Si atom -12405.894744 kJ/mol
# Density = 1.960515 g / cm^3
# Si number density = 19.649871 Si / 1000 Ang^3
#
#
#
# Elastic Constant Matrix: (Units=GPa)
#
#
# Indices 1 2 3 4 5 6 
#
# 1 104.2223 48.5060 24.8458 0.0000 -3.2507 0.0000
# 2 48.5060 111.5761 23.9817 0.0000 -1.2332 0.0000
# 3 24.8458 23.9817 36.9891 0.0000 3.8752 0.0000
# 4 0.0000 0.0000 0.0000 31.1300 0.0000 2.9430
# 5 -3.2507 -1.2332 3.8752 0.0000 30.4460 0.0000
# 6 0.0000 0.0000 0.0000 2.9430 0.0000 36.1140
#
#
#
# Elastic Compliance Matrix: (Units=1/GPa)
#
#
# Indices 1 2 3 4 5 6 
#
# 1 0.013176 -0.004366 -0.006231 0.000000 0.002023 0.000000
# 2 -0.004366 0.011911 -0.004856 0.000000 0.000634 0.000000
# 3 -0.006231 -0.004856 0.034925 0.000000 -0.005307 0.000000
# 4 0.000000 0.000000 0.000000 0.032373 0.000000 -0.002638
# 5 0.002023 0.000634 -0.005307 0.000000 0.033762 0.000000
# 6 0.000000 0.000000 0.000000 -0.002638 0.000000 0.027905
#
#
# Mechanical properties :
#
#
# Convention : Reuss Voigt Hill
#
# Bulk Modulus (GPa) = 34.35889 49.71716 42.03802
# Shear Modulus (GPa) = 25.68562 29.90160 27.79361
#
# Velocity S-wave (km/s) = 3.61940 3.90515 3.76499
# Velocity P-wave (km/s) = 5.91525 6.75944 6.35139
#
# Compressibility (1/GPa) = 0.02910455
#
# Stress axis : x y z
#
# Youngs Moduli (GPa) = 75.89841 83.95285 28.63259
#
# Poissons Ratio (x) = 0.36655 0.17842
# Poissons Ratio (y) = 0.33139 0.13905
# Poissons Ratio (z) = 0.47294 0.40771
#
# Static dielectric constant tensor:
#      x y z
#    x 3.768020 0.000000 -0.045470 
#    y 0.000000 3.529320 0.000000 
#    z -0.045470 0.000000 3.434380 
# 
# 
# High freq. dielectric constant tensor:
#      x y z
#    x 1.783820 0.000000 -0.002100 
#    y 0.000000 1.763620 0.000000 
#    z -0.002100 0.000000 1.747470 
# 
# From -- ./inp_files/280785.got.cif
#   From: 2010.06.25/outbox.cif.g09.slc.cpg/sg12_141_cif.got.tgz:280785.got - 2010.06.28 00:19:55.
