data_PCOD8093630
_publ_section_title
;
Structure prediction by ZEFSAII (Michael W. Deem and Ramdas Pophale) SiO2 
 PCOD8093630
Probable space group: C 2/M
;
_chemical_formula_sum "Si O2"
_cell_formula_units_Z 40
_cell_length_a 20.519300
_cell_length_b 8.709617
_cell_length_c 15.433375
_cell_angle_alpha 90.000000
_cell_angle_beta 48.475317
_cell_angle_gamma 90.000000
_cell_volume 2064.966694
_symmetry_space_group_name_H-M "C 2/M"
_symmetry_group_IT_number 12
_symmetry_cell_setting 'monoclinic'
loop_
_space_group_symop_operation_xyz
x,y,z
-x,y,-z
-x,-y,-z
x,-y,z
1/2+x,1/2+y,z
1/2-x,1/2+y,-z
1/2-x,1/2-y,-z
1/2+x,1/2-y,z
loop_
_atom_site_type_symbol
_atom_site_label
_atom_site_fract_x
_atom_site_fract_y
_atom_site_fract_z
Si Si1 0.062575 0.682318 0.868171
Si Si2 0.506578 0.180705 0.257517
Si Si3 0.245992 0.817838 0.261956
Si Si4 0.808544 0.180703 0.875240
Si Si5 0.428076 0.318841 0.491312
O O1 0.064783 0.500000 0.872611
O O2 0.160506 0.749056 0.791374
O O3 0.029041 0.735474 0.804072
O O4 0.000000 0.747071 0.000000
O O5 0.592734 0.274809 0.198868
O O6 0.440096 0.225160 0.392077
O O7 0.525263 0.000000 0.241366
O O8 0.225281 0.751438 0.185510
O O9 0.168010 0.767203 0.393924
O O10 0.249374 0.000000 0.255638
O O11 0.799351 0.000000 0.884811
O O12 0.750000 0.250000 0.000000
O O13 0.500000 0.272229 0.500000
O O14 0.434549 0.500000 0.467280
#
# Coordination Sequence:
#
# PCOD8093630 Si02
#       5
#     8   8   8   8   8
#     4   9  18  34  55  80 111 147 189 232 277 338
#     4  11  22  35  56  86 115 145 184 235 288 333
#     4   9  18  34  57  79 106 149 194 229 273 338
#     4  11  21  36  58  84 111 146 192 236 279 331
#     4  10  19  36  58  81 110 150 192 232 280 337
#
# _framework density 19.370771000000001
#
# number of rings (size 3 to 8) (size 9 to 14) (size 15 to 20)
#    0.000    2.000    2.000    2.400    0.000    4.400 
#    0.000    0.000    0.000   14.400    0.000    0.000 
#    0.000    0.000    0.000    0.000    0.000    0.000 
#
# Total GULP energy -247991.699905 kJ/mol
# GULP energy per Si atom -12399.584995 kJ/mol
# Density = 1.932668 g / cm^3
# Si number density = 19.370771 Si / 1000 Ang^3
#
#
#
# Elastic Constant Matrix: (Units=GPa)
#
#
# Indices 1 2 3 4 5 6 
#
# 1 87.4174 13.3376 22.1283 -0.0002 16.9476 0.0001
# 2 13.3376 28.5891 15.7939 -0.0004 6.7719 0.0003
# 3 22.1283 15.7939 124.3090 -0.0002 16.8389 0.0001
# 4 -0.0002 -0.0004 -0.0002 31.9909 0.0000 3.8476
# 5 16.9476 6.7719 16.8389 0.0000 41.7805 0.0000
# 6 0.0001 0.0003 0.0001 3.8476 0.0000 18.8514
#
#
#
# Elastic Compliance Matrix: (Units=1/GPa)
#
#
# Indices 1 2 3 4 5 6 
#
# 1 0.013242 -0.004521 -0.001221 0.000000 -0.004147 0.000000
# 2 -0.004521 0.039947 -0.003852 0.000001 -0.003088 -0.000001
# 3 -0.001221 -0.003852 0.009096 0.000000 -0.002546 0.000000
# 4 0.000000 0.000001 0.000000 0.032046 0.000000 -0.006541
# 5 -0.004147 -0.003088 -0.002546 0.000000 0.027143 0.000000
# 6 0.000000 -0.000001 0.000000 -0.006541 0.000000 0.054381
#
#
# Mechanical properties :
#
#
# Convention : Reuss Voigt Hill
#
# Bulk Modulus (GPa) = 23.20360 38.09276 30.64818
# Shear Modulus (GPa) = 23.87653 31.12828 27.50241
#
# Velocity S-wave (km/s) = 3.51466 4.01305 3.77210
# Velocity P-wave (km/s) = 5.33621 6.41721 5.90151
#
# Compressibility (1/GPa) = 0.04309676
#
# Stress axis : x y z
#
# Youngs Moduli (GPa) = 75.51640 25.03297 109.93570
#
# Poissons Ratio (x) = 0.11317 0.13425
# Poissons Ratio (y) = 0.34141 0.42351
# Poissons Ratio (z) = 0.09222 0.09644
#
# Static dielectric constant tensor:
#      x y z
#    x 3.540890 0.000000 -0.626550 
#    y 0.000000 3.127220 0.000000 
#    z -0.626550 0.000000 1.860370 
# 
# 
# High freq. dielectric constant tensor:
#      x y z
#    x 1.761750 0.000000 -0.001550 
#    y 0.000000 1.714050 0.000000 
#    z -0.001550 0.000000 1.775330 
# 
# From -- ./inp_files/220593.got.cif
#   From: 2010.06.25/outbox.cif.g09.slc.cpg/sg12_111_cif.got.tgz:220593.got - 2010.06.28 00:19:55.
