data_PCOD8093246
_publ_section_title
;
Structure prediction by ZEFSAII (Michael W. Deem and Ramdas Pophale) SiO2 
 PCOD8093246
Probable space group: C 2/M
;
_chemical_formula_sum "Si O2"
_cell_formula_units_Z 64
_cell_length_a 15.322833
_cell_length_b 8.582161
_cell_length_c 33.730343
_cell_angle_alpha 90.000000
_cell_angle_beta 135.171953
_cell_angle_gamma 90.000000
_cell_volume 3127.045388
_symmetry_space_group_name_H-M "C 2/M"
_symmetry_group_IT_number 12
_symmetry_cell_setting 'monoclinic'
loop_
_space_group_symop_operation_xyz
x,y,z
-x,y,-z
-x,-y,-z
x,-y,z
1/2+x,1/2+y,z
1/2-x,1/2+y,-z
1/2-x,1/2-y,-z
1/2+x,1/2-y,z
loop_
_atom_site_type_symbol
_atom_site_label
_atom_site_fract_x
_atom_site_fract_y
_atom_site_fract_z
Si Si1 0.971530 0.318628 0.372769
Si Si2 0.333608 0.184104 0.061617
Si Si3 0.641394 0.181533 0.357684
Si Si4 0.515852 0.316093 0.243996
Si Si5 0.897780 0.815693 0.866390
Si Si6 0.082426 0.816056 0.562200
Si Si7 0.733574 0.683670 0.877563
Si Si8 0.223488 0.184741 0.252324
O O1 0.952797 0.500000 0.376237
O O2 0.981691 0.227771 0.417199
O O3 0.856448 0.254020 0.309788
O O4 0.096701 0.287403 0.388321
O O5 0.465565 0.267303 0.102278
O O6 0.266751 0.225434 0.081223
O O7 0.349459 0.000000 0.062397
O O8 0.250000 0.250000 0.000000
O O9 0.541524 0.258220 0.296498
O O10 0.778402 0.254091 0.395947
O O11 0.641916 0.000000 0.348235
O O12 0.521140 0.500000 0.245207
O O13 0.382495 0.258230 0.186150
O O14 0.619902 0.245158 0.248347
O O15 0.857820 0.729541 0.893894
O O16 0.804641 0.759829 0.801438
O O17 0.893453 0.000000 0.871581
O O18 0.000000 0.745771 0.500000
O O19 0.089682 0.000000 0.560209
O O20 0.730125 0.500000 0.884850
O O21 0.217852 0.000000 0.251785
#
# Coordination Sequence:
#
# PCOD8093246 Si02
#       8
#     8   8   8   8   8   8   8   8
#     4  10  20  36  58  83 112 147 191 236 285 346
#     4  12  26  45  67  92 122 163 209 256 306 357
#     4  10  21  36  56  84 114 148 191 241 292 352
#     4  10  19  35  60  88 120 156 191 236 292 351
#     4  11  22  41  66  94 127 163 201 248 303 359
#     4  10  22  39  55  76 111 150 190 242 299 348
#     4  11  23  41  63  93 128 162 201 247 299 363
#     4   9  17  33  58  86 119 153 184 233 297 352
#
# _framework density 20.466602999999999
#
# number of rings (size 3 to 8) (size 9 to 14) (size 15 to 20)
#    0.000    1.625    2.500    2.625    0.000    3.750 
#    0.000    3.750    0.000    0.000    0.000    0.000 
#    0.000    0.000    0.000    0.000    0.000    0.000 
#
# Total GULP energy -396887.919102 kJ/mol
# GULP energy per Si atom -12402.747472 kJ/mol
# Density = 2.042002 g / cm^3
# Si number density = 20.466603 Si / 1000 Ang^3
#
#
#
# Elastic Constant Matrix: (Units=GPa)
#
#
# Indices 1 2 3 4 5 6 
#
# 1 97.8868 10.4028 25.5267 0.0000 -23.6178 0.0000
# 2 10.4028 39.5411 23.5757 0.0000 -1.0078 0.0000
# 3 25.5267 23.5757 124.7184 0.0000 -22.4424 0.0000
# 4 0.0000 0.0000 0.0000 27.6438 0.0000 -4.8510
# 5 -23.6178 -1.0078 -22.4424 0.0000 23.9311 0.0000
# 6 0.0000 0.0000 0.0000 -4.8510 0.0000 30.6650
#
#
#
# Elastic Compliance Matrix: (Units=1/GPa)
#
#
# Indices 1 2 3 4 5 6 
#
# 1 0.013833 -0.003471 0.000307 0.000000 0.013793 0.000000
# 2 -0.003471 0.029807 -0.006393 0.000000 -0.008166 0.000000
# 3 0.000307 -0.006393 0.011031 0.000000 0.010379 0.000000
# 4 0.000000 0.000000 0.000000 0.037207 0.000000 0.005886
# 5 0.013793 -0.008166 0.010379 0.000000 0.064788 0.000000
# 6 0.000000 0.000000 0.000000 0.005886 0.000000 0.033542
#
#
# Mechanical properties :
#
#
# Convention : Reuss Voigt Hill
#
# Bulk Modulus (GPa) = 28.12409 42.35074 35.23742
# Shear Modulus (GPa) = 22.60651 29.95739 26.28195
#
# Velocity S-wave (km/s) = 3.32709 3.83001 3.58738
# Velocity P-wave (km/s) = 5.34141 6.34793 5.86630
#
# Compressibility (1/GPa) = 0.03555671
#
# Stress axis : x y z
#
# Youngs Moduli (GPa) = 72.29263 33.54909 90.65015
#
# Poissons Ratio (x) = 0.11644 -0.02782
# Poissons Ratio (y) = 0.25090 0.57957
# Poissons Ratio (z) = -0.02218 0.21450
#
# Static dielectric constant tensor:
#      x y z
#    x 3.806870 0.000000 0.064450 
#    y 0.000000 3.428660 0.000000 
#    z 0.064450 0.000000 3.811920 
# 
# 
# High freq. dielectric constant tensor:
#      x y z
#    x 1.813100 0.000000 -0.005120 
#    y 0.000000 1.778960 0.000000 
#    z -0.005120 0.000000 1.799280 
# 
# From -- ./inp_files/375542.got.cif
#   From: 2010.06.25/outbox.cif.g09.slc.cpg/sg12_188_cif.got.tgz:375542.got - 2010.06.28 00:19:55.
