data_PCOD8093998
_publ_section_title
;
Structure prediction by ZEFSAII (Michael W. Deem and Ramdas Pophale) SiO2 
 PCOD8093998
Probable space group: C 2/M
;
_chemical_formula_sum "Si O2"
_cell_formula_units_Z 48
_cell_length_a 8.671033
_cell_length_b 17.275764
_cell_length_c 15.310977
_cell_angle_alpha 90.000000
_cell_angle_beta 64.048960
_cell_angle_gamma 90.000000
_cell_volume 2062.300747
_symmetry_space_group_name_H-M "C 2/M"
_symmetry_group_IT_number 12
_symmetry_cell_setting 'monoclinic'
loop_
_space_group_symop_operation_xyz
x,y,z
-x,y,-z
-x,-y,-z
x,-y,z
1/2+x,1/2+y,z
1/2-x,1/2+y,-z
1/2-x,1/2-y,-z
1/2+x,1/2-y,z
loop_
_atom_site_type_symbol
_atom_site_label
_atom_site_fract_x
_atom_site_fract_y
_atom_site_fract_z
Si Si1 0.541993 0.214708 0.583439
Si Si2 0.678153 0.703067 0.715511
Si Si3 0.920150 0.087254 0.862670
Si Si4 0.298906 0.586345 0.555177
Si Si5 0.169107 0.627047 0.774047
Si Si6 0.878511 0.408996 0.956109
O O1 0.500000 0.255385 0.500000
O O2 0.590944 0.280170 0.642579
O O3 0.370369 0.169746 0.656312
O O4 0.694600 0.152892 0.528943
O O5 0.575745 0.642506 0.799293
O O6 0.700242 0.781683 0.764039
O O7 0.777571 0.086074 0.822339
O O8 0.992472 0.000000 0.856407
O O9 0.820262 0.117124 0.975982
O O10 0.500000 0.604915 0.500000
O O11 0.264975 0.500000 0.524745
O O12 0.228209 0.587349 0.670684
O O13 0.963099 0.614359 0.842048
O O14 0.875435 0.500000 0.967759
O O15 0.000000 0.370685 0.000000
#
# Coordination Sequence:
#
# PCOD8093998 Si02
#       6
#     8   8   8   8   8   8
#     4  11  25  41  62  86 122 166 209 255 312 373
#     4  11  23  40  61  91 124 163 206 256 312 373
#     4  10  20  36  61  92 123 161 208 257 303 362
#     4  10  23  41  63  94 126 161 206 254 308 370
#     4  10  19  36  61  88 124 163 204 251 304 366
#     4   8  15  30  56  89 121 158 203 250 305 360
#
# _framework density 23.274975999999999
#
# number of rings (size 3 to 8) (size 9 to 14) (size 15 to 20)
#    0.000    2.000    1.667    3.000    2.333    4.333 
#    0.000    0.000    0.000    0.500    0.000   10.500 
#    0.000    0.000    0.000    0.000    0.000    0.000 
#
# Total GULP energy -297319.630510 kJ/mol
# GULP energy per Si atom -12388.317938 kJ/mol
# Density = 2.322200 g / cm^3
# Si number density = 23.274976 Si / 1000 Ang^3
#
#
#
# Elastic Constant Matrix: (Units=GPa)
#
#
# Indices 1 2 3 4 5 6 
#
# 1 65.2926 13.9676 48.4711 0.0000 -32.9221 0.0000
# 2 13.9676 80.6075 29.0617 0.0000 -24.0728 0.0000
# 3 48.4711 29.0617 177.8506 0.0000 -43.0021 0.0000
# 4 0.0000 0.0000 0.0000 25.2715 0.0000 -20.2343
# 5 -32.9221 -24.0728 -43.0021 0.0000 39.7639 0.0000
# 6 0.0000 0.0000 0.0000 -20.2343 0.0000 15.7828
#
#
#
# Elastic Compliance Matrix: (Units=1/GPa)
#
#
# Indices 1 2 3 4 5 6 
#
# 1 0.027639 0.002623 -0.002768 0.000000 0.021478 0.000000
# 2 0.002623 0.015409 -0.000612 0.000000 0.010838 0.000000
# 3 -0.002768 -0.000612 0.007899 0.000000 0.005879 0.000000
# 4 0.000000 0.000000 0.000000 -1.493309 0.000000 -1.914486
# 5 0.021478 0.010838 0.005879 0.000000 0.055850 0.000000
# 6 0.000000 0.000000 0.000000 -1.914486 0.000000 -2.391092
#
#
# Mechanical properties :
#
#
# Convention : Reuss Voigt Hill
#
# Bulk Modulus (GPa) = 20.23002 56.30571 38.26786
# Shear Modulus (GPa) = -1.32992 31.64700 15.15854
#
# Velocity S-wave (km/s) = -0.75673 3.69141 2.55479
# Velocity P-wave (km/s) = 2.81906 6.51251 5.01796
#
# Compressibility (1/GPa) = 0.04943150
#
# Stress axis : x y z
#
# Youngs Moduli (GPa) = 36.18036 64.89857 126.60203
#
# Poissons Ratio (x) = -0.17022 0.35047
# Poissons Ratio (y) = -0.09490 0.07751
# Poissons Ratio (z) = 0.10016 0.03973
#
# Static dielectric constant tensor:
#      x y z
#    x 4.001910 0.000000 -0.338610 
#    y 0.000000 3.969800 0.000000 
#    z -0.338610 0.000000 4.888840 
# 
# 
# High freq. dielectric constant tensor:
#      x y z
#    x 1.890290 0.000000 -0.027180 
#    y 0.000000 1.899010 0.000000 
#    z -0.027180 0.000000 1.951290 
# 
# From -- ./inp_files/257896.got.cif
#   From: 2010.06.25/outbox.cif.g09.slc.cpg/sg12_129_cif.got.tgz:257896.got - 2010.06.28 00:19:55.
