data_PCOD8093568
_publ_section_title
;
Structure prediction by ZEFSAII (Michael W. Deem and Ramdas Pophale) SiO2 
 PCOD8093568
Probable space group: C 2/M
;
_chemical_formula_sum "Si O2"
_cell_formula_units_Z 48
_cell_length_a 9.163855
_cell_length_b 22.293901
_cell_length_c 13.154379
_cell_angle_alpha 90.000000
_cell_angle_beta 68.644491
_cell_angle_gamma 90.000000
_cell_volume 2502.893411
_symmetry_space_group_name_H-M "C 2/M"
_symmetry_group_IT_number 12
_symmetry_cell_setting 'monoclinic'
loop_
_space_group_symop_operation_xyz
x,y,z
-x,y,-z
-x,-y,-z
x,-y,z
1/2+x,1/2+y,z
1/2-x,1/2+y,-z
1/2-x,1/2-y,-z
1/2+x,1/2-y,z
loop_
_atom_site_type_symbol
_atom_site_label
_atom_site_fract_x
_atom_site_fract_y
_atom_site_fract_z
Si Si1 0.299784 0.378593 0.777643
Si Si2 0.514299 0.065883 0.117339
Si Si3 0.939708 0.932384 0.407562
Si Si4 0.838409 0.214123 0.601777
Si Si5 0.342894 0.429464 0.980582
Si Si6 0.175644 0.658922 0.462410
O O1 0.410944 0.430210 0.703842
O O2 0.346034 0.315150 0.712914
O O3 0.331703 0.382684 0.889832
O O4 0.115400 0.390296 0.800929
O O5 0.480177 0.000000 0.171056
O O6 0.500000 0.064788 0.000000
O O7 0.695297 0.084315 0.093537
O O8 0.796590 0.893027 0.400876
O O9 0.000000 0.906653 0.500000
O O10 0.878322 0.000000 0.433326
O O11 0.800937 0.284930 0.620971
O O12 0.702770 0.181567 0.571107
O O13 0.000000 0.206080 0.500000
O O14 0.336546 0.500000 0.947678
O O15 0.500000 0.414437 0.000000
O O16 0.000000 0.632798 0.500000
#
# Coordination Sequence:
#
# PCOD8093568 Si02
#       6
#     8   8   8   8   8   8
#     4  11  17  32  55  81 108 149 193 225 273 337
#     4   8  15  28  48  74 106 145 188 227 272 339
#     4  11  21  35  55  83 119 152 182 228 292 351
#     4  10  19  36  57  82 112 150 200 228 271 341
#     4   9  18  33  52  78 114 151 187 238 289 335
#     4  10  20  36  56  77 118 148 190 240 271 326
#
# _framework density 19.177803999999998
#
# number of rings (size 3 to 8) (size 9 to 14) (size 15 to 20)
#    0.000    2.167    3.333    2.500    0.000    0.333 
#    3.000    0.000    0.000    0.000    0.000   15.167 
#    0.000    0.000    0.000    0.000    0.000    0.000 
#
# Total GULP energy -297389.211594 kJ/mol
# GULP energy per Si atom -12391.217150 kJ/mol
# Density = 1.913415 g / cm^3
# Si number density = 19.177804 Si / 1000 Ang^3
#
#
#
# Elastic Constant Matrix: (Units=GPa)
#
#
# Indices 1 2 3 4 5 6 
#
# 1 159.3271 49.6096 43.5934 0.0000 -23.9487 0.0000
# 2 49.6096 103.3822 38.8759 0.0000 -5.5921 0.0000
# 3 43.5934 38.8759 70.1701 0.0000 -14.7834 0.0000
# 4 0.0000 0.0000 0.0000 20.1166 0.0000 2.9178
# 5 -23.9487 -5.5921 -14.7834 0.0000 29.2950 0.0000
# 6 0.0000 0.0000 0.0000 2.9178 0.0000 29.5681
#
#
#
# Elastic Compliance Matrix: (Units=1/GPa)
#
#
# Indices 1 2 3 4 5 6 
#
# 1 0.008693 -0.002869 -0.002718 0.000000 0.005187 0.000000
# 2 -0.002869 0.013204 -0.006150 0.000000 -0.002928 0.000000
# 3 -0.002718 -0.006150 0.020848 0.000000 0.007124 0.000000
# 4 0.000000 0.000000 0.000000 0.050432 0.000000 -0.004977
# 5 0.005187 -0.002928 0.007124 0.000000 0.041412 0.000000
# 6 0.000000 0.000000 0.000000 -0.004977 0.000000 0.034311
#
#
# Mechanical properties :
#
#
# Convention : Reuss Voigt Hill
#
# Bulk Modulus (GPa) = 51.89198 66.33749 59.11473
# Shear Modulus (GPa) = 25.15111 29.18262 27.16687
#
# Velocity S-wave (km/s) = 3.62535 3.90511 3.76783
# Velocity P-wave (km/s) = 6.68142 7.41614 7.05834
#
# Compressibility (1/GPa) = 0.01927080
#
# Stress axis : x y z
#
# Youngs Moduli (GPa) = 115.03356 75.73672 47.96602
#
# Poissons Ratio (x) = 0.21727 0.13039
# Poissons Ratio (y) = 0.33000 0.29498
# Poissons Ratio (z) = 0.31272 0.46577
#
# Static dielectric constant tensor:
#      x y z
#    x 3.874410 0.000000 -0.218430 
#    y 0.000000 3.361460 0.000000 
#    z -0.218430 0.000000 3.216310 
# 
# 
# High freq. dielectric constant tensor:
#      x y z
#    x 1.759810 0.000000 -0.019520 
#    y 0.000000 1.721890 0.000000 
#    z -0.019520 0.000000 1.709500 
# 
# From -- ./inp_files/122433.got.cif
#   From: 2010.06.25/outbox.cif.g09.slc.cpg/sg12_62_cif.got.tgz:122433.got - 2010.06.28 00:19:55.
