data_PCOD8093923
_publ_section_title
;
Structure prediction by ZEFSAII (Michael W. Deem and Ramdas Pophale) SiO2 
 PCOD8093923
Probable space group: C 2/M
;
_chemical_formula_sum "Si O2"
_cell_formula_units_Z 64
_cell_length_a 9.265550
_cell_length_b 17.420461
_cell_length_c 33.732111
_cell_angle_alpha 90.000000
_cell_angle_beta 143.079748
_cell_angle_gamma 90.000000
_cell_volume 3270.649905
_symmetry_space_group_name_H-M "C 2/M"
_symmetry_group_IT_number 12
_symmetry_cell_setting 'monoclinic'
loop_
_space_group_symop_operation_xyz
x,y,z
-x,y,-z
-x,-y,-z
x,-y,z
1/2+x,1/2+y,z
1/2-x,1/2+y,-z
1/2-x,1/2-y,-z
1/2+x,1/2-y,z
loop_
_atom_site_type_symbol
_atom_site_label
_atom_site_fract_x
_atom_site_fract_y
_atom_site_fract_z
Si Si1 0.982727 0.309135 0.645127
Si Si2 0.536448 0.411874 0.962515
Si Si3 0.981975 0.788519 0.570991
Si Si4 0.687407 0.590334 0.324131
Si Si5 0.823065 0.776766 0.236192
Si Si6 0.264167 0.415351 0.574640
Si Si7 0.058241 0.685569 0.967461
Si Si8 0.303324 0.212647 0.148830
O O1 0.079148 0.264408 0.627532
O O2 0.692314 0.304872 0.584937
O O3 0.087222 0.393644 0.656651
O O4 0.104642 0.273655 0.710175
O O5 0.475509 0.500000 0.940127
O O6 0.368095 0.359948 0.897482
O O7 0.500000 0.389517 0.000000
O O8 0.819768 0.396052 0.016318
O O9 0.750000 0.750000 0.500000
O O10 0.926005 0.868178 0.580050
O O11 0.624348 0.500000 0.307512
O O12 0.464412 0.643093 0.261856
O O13 0.745175 0.615748 0.382359
O O14 0.545108 0.800252 0.177252
O O15 0.865542 0.719426 0.208794
O O16 0.375969 0.500000 0.599120
O O17 0.000000 0.413936 0.500000
O O18 0.817492 0.705804 0.890238
O O19 0.250000 0.750000 0.000000
O O20 0.000000 0.687310 0.000000
#
# Coordination Sequence:
#
# PCOD8093923 Si02
#       8
#     8   8   8   8   8   8   8   8
#     4  12  22  40  60  88 125 163 210 259 315 373
#     4  10  21  39  62  93 129 159 197 256 317 368
#     4  12  22  36  64  95 122 157 213 266 317 384
#     4  11  24  43  63  88 127 168 209 266 325 370
#     4  12  22  39  61  88 122 167 215 260 291 373
#     4  10  21  39  62  90 123 159 203 261 327 384
#     4  10  19  36  60  91 119 150 194 247 299 363
#     4  11  21  36  64  89 118 164 213 247 303 369
#
# _framework density 19.567976999999999
#
# number of rings (size 3 to 8) (size 9 to 14) (size 15 to 20)
#    0.000    1.000    3.750    5.625    0.000    1.250 
#    0.000    1.250    0.000    3.750    0.000    0.000 
#    0.000    0.000    0.000    0.000    0.000    0.000 
#
# Total GULP energy -396670.862978 kJ/mol
# GULP energy per Si atom -12395.964468 kJ/mol
# Density = 1.952344 g / cm^3
# Si number density = 19.567977 Si / 1000 Ang^3
#
#
#
# Elastic Constant Matrix: (Units=GPa)
#
#
# Indices 1 2 3 4 5 6 
#
# 1 138.8209 51.9858 38.8053 0.0000 6.1446 0.0000
# 2 51.9858 100.5924 43.8404 -0.0001 -3.1973 0.0000
# 3 38.8053 43.8404 97.3572 -0.0002 -1.9710 0.0001
# 4 0.0000 -0.0001 -0.0002 30.7629 -0.0001 0.1694
# 5 6.1446 -3.1973 -1.9710 -0.0001 39.8065 0.0000
# 6 0.0000 0.0000 0.0001 0.1694 0.0000 27.5289
#
#
#
# Elastic Compliance Matrix: (Units=1/GPa)
#
#
# Indices 1 2 3 4 5 6 
#
# 1 0.009342 -0.004041 -0.001942 0.000000 -0.001863 0.000000
# 2 -0.004041 0.014137 -0.004724 0.000000 0.001525 0.000000
# 3 -0.001942 -0.004724 0.013184 0.000000 0.000573 0.000000
# 4 0.000000 0.000000 0.000000 0.032508 0.000000 -0.000200
# 5 -0.001863 0.001525 0.000573 0.000000 0.025560 0.000000
# 6 0.000000 0.000000 0.000000 -0.000200 0.000000 0.036327
#
#
# Mechanical properties :
#
#
# Convention : Reuss Voigt Hill
#
# Bulk Modulus (GPa) = 65.57643 67.33705 66.45674
# Shear Modulus (GPa) = 31.73499 33.09558 32.41528
#
# Velocity S-wave (km/s) = 4.03150 4.11702 4.07449
# Velocity P-wave (km/s) = 7.43341 7.55555 7.49473
#
# Compressibility (1/GPa) = 0.01524938
#
# Stress axis : x y z
#
# Youngs Moduli (GPa) = 107.04371 70.73680 75.84723
#
# Poissons Ratio (x) = 0.28584 0.14727
# Poissons Ratio (y) = 0.43255 0.35833
# Poissons Ratio (z) = 0.20784 0.33419
#
# Static dielectric constant tensor:
#      x y z
#    x 3.696320 0.000000 0.033450 
#    y 0.000000 3.703930 0.000000 
#    z 0.033450 0.000000 3.648400 
# 
# 
# High freq. dielectric constant tensor:
#      x y z
#    x 1.777880 0.000000 -0.002980 
#    y 0.000000 1.747540 0.000000 
#    z -0.002980 0.000000 1.763770 
# 
# From -- ./inp_files/373023.got.cif
#   From: 2010.06.25/outbox.cif.g09.slc.cpg/sg12_187_cif.got.tgz:373023.got - 2010.06.28 00:19:55.
