data_PCOD8093775
_publ_section_title
;
Structure prediction by ZEFSAII (Michael W. Deem and Ramdas Pophale) SiO2 
 PCOD8093775
Probable space group: C 2/M
;
_chemical_formula_sum "Si O2"
_cell_formula_units_Z 64
_cell_length_a 15.362464
_cell_length_b 8.669803
_cell_length_c 33.331024
_cell_angle_alpha 90.000000
_cell_angle_beta 46.192188
_cell_angle_gamma 90.000000
_cell_volume 3203.722704
_symmetry_space_group_name_H-M "C 2/M"
_symmetry_group_IT_number 12
_symmetry_cell_setting 'monoclinic'
loop_
_space_group_symop_operation_xyz
x,y,z
-x,y,-z
-x,-y,-z
x,-y,z
1/2+x,1/2+y,z
1/2-x,1/2+y,-z
1/2-x,1/2-y,-z
1/2+x,1/2-y,z
loop_
_atom_site_type_symbol
_atom_site_label
_atom_site_fract_x
_atom_site_fract_y
_atom_site_fract_z
Si Si1 0.876138 0.682310 0.060546
Si Si2 0.192987 0.317481 0.058130
Si Si3 0.548350 0.179015 0.441026
Si Si4 0.635245 0.680518 0.558478
Si Si5 0.476146 0.176480 0.330616
Si Si6 0.726662 0.822279 0.663320
Si Si7 0.267466 0.317758 0.739843
Si Si8 0.921459 0.683335 0.135838
O O1 0.858686 0.500000 0.062948
O O2 0.762988 0.761973 0.075241
O O3 0.881676 0.741610 0.104538
O O4 0.000000 0.733787 0.000000
O O5 0.198415 0.500000 0.053487
O O6 0.055063 0.258335 0.104638
O O7 0.250000 0.250000 0.000000
O O8 0.500000 0.223839 0.500000
O O9 0.483448 0.286624 0.429401
O O10 0.689121 0.219070 0.392477
O O11 0.523631 0.000000 0.439604
O O12 0.654654 0.500000 0.558434
O O13 0.750000 0.750000 0.500000
O O14 0.618072 0.759134 0.606873
O O15 0.410517 0.193078 0.308514
O O16 0.598739 0.271303 0.290126
O O17 0.506643 0.000000 0.331143
O O18 0.734245 0.756641 0.706116
O O19 0.769336 0.000000 0.647622
O O20 0.258591 0.500000 0.743331
O O21 0.172109 0.247323 0.801886
O O22 0.919367 0.500000 0.136695
#
# Coordination Sequence:
#
# PCOD8093775 Si02
#       8
#     8   8   8   8   8   8   8   8
#     4  10  19  36  59  85 121 163 202 247 305 361
#     4  11  21  36  59  89 122 161 204 251 304 361
#     4  11  23  38  59  89 122 154 195 247 302 361
#     4  12  24  39  60  88 122 159 200 248 303 362
#     4  11  23  40  62  90 122 158 201 253 307 354
#     4  10  22  39  61  87 118 158 199 244 300 360
#     4  10  21  41  64  86 116 163 210 245 297 364
#     4   9  20  38  60  85 120 163 203 246 302 363
#
# _framework density 19.976759999999999
#
# number of rings (size 3 to 8) (size 9 to 14) (size 15 to 20)
#    0.000    1.500    2.500    3.000    0.000    5.250 
#    0.000    3.125    0.000    0.000    0.000    0.000 
#    0.000    0.000    0.000    0.000    0.000    0.000 
#
# Total GULP energy -396905.678816 kJ/mol
# GULP energy per Si atom -12403.302463 kJ/mol
# Density = 1.993129 g / cm^3
# Si number density = 19.976760 Si / 1000 Ang^3
#
#
#
# Elastic Constant Matrix: (Units=GPa)
#
#
# Indices 1 2 3 4 5 6 
#
# 1 148.0229 15.8395 66.0101 0.0005 3.5576 0.0003
# 2 15.8395 26.3711 17.4087 0.0013 7.7544 -0.0006
# 3 66.0101 17.4087 159.7253 0.0006 0.4295 0.0004
# 4 0.0005 0.0013 0.0006 16.1833 0.0007 -3.3255
# 5 3.5576 7.7544 0.4295 0.0007 31.2411 0.0007
# 6 0.0003 -0.0006 0.0004 -3.3255 0.0007 35.0422
#
#
#
# Elastic Compliance Matrix: (Units=1/GPa)
#
#
# Indices 1 2 3 4 5 6 
#
# 1 0.008498 -0.002941 -0.003191 0.000000 -0.000194 0.000000
# 2 -0.002941 0.045320 -0.003695 -0.000003 -0.010863 0.000001
# 3 -0.003191 -0.003695 0.007979 0.000000 0.001171 0.000000
# 4 0.000000 -0.000003 0.000000 0.063021 -0.000001 0.005981
# 5 -0.000194 -0.010863 0.001171 -0.000001 0.034712 -0.000001
# 6 0.000000 0.000001 0.000000 0.005981 -0.000001 0.029105
#
#
# Mechanical properties :
#
#
# Convention : Reuss Voigt Hill
#
# Bulk Modulus (GPa) = 23.72824 59.18178 41.45501
# Shear Modulus (GPa) = 22.48849 32.15070 27.31959
#
# Velocity S-wave (km/s) = 3.35883 4.01609 3.70208
# Velocity P-wave (km/s) = 5.19096 7.15506 6.25064
#
# Compressibility (1/GPa) = 0.04214388
#
# Stress axis : x y z
#
# Youngs Moduli (GPa) = 117.67408 22.06524 125.32803
#
# Poissons Ratio (x) = 0.06489 0.39992
# Poissons Ratio (y) = 0.34605 0.46308
# Poissons Ratio (z) = 0.37549 0.08153
#
# Static dielectric constant tensor:
#      x y z
#    x 3.847240 0.000000 0.047130 
#    y 0.000000 3.461800 0.000000 
#    z 0.047130 0.000000 3.823030 
# 
# 
# High freq. dielectric constant tensor:
#      x y z
#    x 1.794410 0.000000 0.001900 
#    y 0.000000 1.764780 0.000000 
#    z 0.001900 0.000000 1.778420 
# 
# From -- ./inp_files/375515.got.cif
#   From: 2010.06.25/outbox.cif.g09.slc.cpg/sg12_188_cif.got.tgz:375515.got - 2010.06.28 00:19:55.
