data_PCOD8093843
_publ_section_title
;
Structure prediction by ZEFSAII (Michael W. Deem and Ramdas Pophale) SiO2 
 PCOD8093843
Probable space group: C 2/M
;
_chemical_formula_sum "Si O2"
_cell_formula_units_Z 64
_cell_length_a 19.476728
_cell_length_b 8.976727
_cell_length_c 31.082607
_cell_angle_alpha 90.000000
_cell_angle_beta 37.973326
_cell_angle_gamma 90.000000
_cell_volume 3343.755573
_symmetry_space_group_name_H-M "C 2/M"
_symmetry_group_IT_number 12
_symmetry_cell_setting 'monoclinic'
loop_
_space_group_symop_operation_xyz
x,y,z
-x,y,-z
-x,-y,-z
x,-y,z
1/2+x,1/2+y,z
1/2-x,1/2+y,-z
1/2-x,1/2-y,-z
1/2+x,1/2-y,z
loop_
_atom_site_type_symbol
_atom_site_label
_atom_site_fract_x
_atom_site_fract_y
_atom_site_fract_z
Si Si1 0.506781 0.176486 0.304030
Si Si2 0.403150 0.324973 0.192006
Si Si3 0.639936 0.324717 0.036051
Si Si4 0.123149 0.664662 0.955319
Si Si5 0.881888 0.673075 0.541474
Si Si6 0.161116 0.322690 0.686798
Si Si7 0.363422 0.828448 0.452206
Si Si8 0.240994 0.823465 0.819458
O O1 0.435262 0.234787 0.298405
O O2 0.453893 0.237494 0.374430
O O3 0.632495 0.235973 0.243197
O O4 0.508597 0.000000 0.301899
O O5 0.389708 0.500000 0.207124
O O6 0.531448 0.283115 0.118067
O O7 0.365616 0.238042 0.252836
O O8 0.323474 0.274243 0.192014
O O9 0.657952 0.500000 0.025898
O O10 0.750000 0.250000 0.000000
O O11 0.621538 0.268489 0.997353
O O12 0.173649 0.500000 0.940644
O O13 0.192141 0.745140 0.884841
O O14 0.000000 0.643284 0.000000
O O15 0.860736 0.500000 0.563046
O O16 0.780950 0.765855 0.611481
O O17 0.898950 0.701449 0.482895
O O18 0.000000 0.731140 0.500000
O O19 0.164886 0.500000 0.686606
O O20 0.250000 0.750000 0.500000
O O21 0.345622 0.000000 0.450615
O O22 0.231359 0.000000 0.830001
#
# Coordination Sequence:
#
# PCOD8093843 Si02
#       8
#     8   8   8   8   8   8   8   8
#     4   9  20  37  59  87 115 151 195 240 294 351
#     4  10  23  41  62  87 120 157 201 248 294 357
#     4  11  24  42  64  92 122 160 207 254 306 363
#     4  11  23  40  63  91 125 159 198 253 307 361
#     4  10  22  38  61  88 114 153 201 246 294 350
#     4  11  23  39  59  85 122 158 194 243 300 361
#     4  10  19  36  60  84 113 147 189 239 287 342
#     4  10  21  40  65  88 115 158 204 247 295 355
#
# _framework density 19.140155
#
# number of rings (size 3 to 8) (size 9 to 14) (size 15 to 20)
#    0.000    1.750    2.500    1.125    3.500    2.250 
#    0.000    1.250    0.000    0.000    0.000    0.000 
#    0.000    0.000    0.000    0.000    0.000    0.000 
#
# Total GULP energy -396755.323327 kJ/mol
# GULP energy per Si atom -12398.603854 kJ/mol
# Density = 1.909659 g / cm^3
# Si number density = 19.140155 Si / 1000 Ang^3
#
#
#
# Elastic Constant Matrix: (Units=GPa)
#
#
# Indices 1 2 3 4 5 6 
#
# 1 100.3982 43.6387 51.4806 0.0015 -10.1062 0.0292
# 2 43.6387 62.2931 53.5807 -0.0014 4.4592 0.0051
# 3 51.4806 53.5807 144.9811 0.0066 3.8993 0.0058
# 4 0.0015 -0.0014 0.0066 32.7760 -0.0028 0.8263
# 5 -10.1062 4.4592 3.8993 -0.0028 39.4378 0.0068
# 6 0.0292 0.0051 0.0058 0.8263 0.0068 29.7796
#
#
#
# Elastic Compliance Matrix: (Units=1/GPa)
#
#
# Indices 1 2 3 4 5 6 
#
# 1 0.015778 -0.009518 -0.002228 0.000000 0.005340 -0.000015
# 2 -0.009518 0.029406 -0.007352 0.000003 -0.005037 0.000007
# 3 -0.002228 -0.007352 0.010427 -0.000002 -0.000771 0.000002
# 4 0.000000 0.000003 -0.000002 0.030531 0.000002 -0.000847
# 5 0.005340 -0.005037 -0.000771 0.000002 0.027370 -0.000010
# 6 -0.000015 0.000007 0.000002 -0.000847 -0.000010 0.033604
#
#
# Mechanical properties :
#
#
# Convention : Reuss Voigt Hill
#
# Bulk Modulus (GPa) = 57.43133 67.23028 62.33081
# Shear Modulus (GPa) = 26.16198 30.99685 28.57942
#
# Velocity S-wave (km/s) = 3.70112 4.02863 3.86834
# Velocity P-wave (km/s) = 6.95235 7.53932 7.25178
#
# Compressibility (1/GPa) = 0.01741210
#
# Stress axis : x y z
#
# Youngs Moduli (GPa) = 63.38061 34.00712 95.90929
#
# Poissons Ratio (x) = 0.32370 0.21371
# Poissons Ratio (y) = 0.60329 0.70513
# Poissons Ratio (z) = 0.14123 0.25002
#
# Static dielectric constant tensor:
#      x y z
#    x -3.321840 -0.009360 -6.138430 
#    y -0.009360 3.608640 -0.007770 
#    z -6.138430 -0.007770 -1.372630 
# 
# 
# High freq. dielectric constant tensor:
#      x y z
#    x 1.757950 0.000000 0.001440 
#    y 0.000000 1.732240 0.000000 
#    z 0.001440 0.000000 1.760470 
# 
# From -- ./inp_files/377961.got.cif
#   From: 2010.06.25/outbox.cif.g09.slc.cpg/sg12_189_cif.got.tgz:377961.got - 2010.06.28 00:19:55.
