data_PCOD8093445
_publ_section_title
;
Structure prediction by ZEFSAII (Michael W. Deem and Ramdas Pophale) SiO2 
 PCOD8093445
Probable space group: C 2/M
;
_chemical_formula_sum "Si O2"
_cell_formula_units_Z 64
_cell_length_a 16.772300
_cell_length_b 24.533300
_cell_length_c 9.288224
_cell_angle_alpha 90.000000
_cell_angle_beta 99.404248
_cell_angle_gamma 90.000000
_cell_volume 3770.550805
_symmetry_space_group_name_H-M "C 2/M"
_symmetry_group_IT_number 12
_symmetry_cell_setting 'monoclinic'
loop_
_space_group_symop_operation_xyz
x,y,z
-x,y,-z
-x,-y,-z
x,-y,z
1/2+x,1/2+y,z
1/2-x,1/2+y,-z
1/2-x,1/2-y,-z
1/2+x,1/2-y,z
loop_
_atom_site_type_symbol
_atom_site_label
_atom_site_fract_x
_atom_site_fract_y
_atom_site_fract_z
Si Si1 0.914309 0.562645 0.048938
Si Si2 0.814200 0.201811 0.678455
Si Si3 0.094485 0.739035 0.544531
Si Si4 0.815459 0.633640 0.488466
Si Si5 0.428723 0.063562 0.377307
Si Si6 0.310729 0.275055 0.184281
Si Si7 0.407750 0.254456 0.931673
Si Si8 0.826594 0.647380 0.826806
O O1 0.883149 0.500000 0.041611
O O2 0.849804 0.598287 0.940365
O O3 0.926643 0.586991 0.213475
O O4 0.000000 0.567126 0.000000
O O5 0.847325 0.240506 0.564487
O O6 0.775637 0.147911 0.594571
O O7 0.746716 0.232199 0.752319
O O8 0.887755 0.195212 0.815188
O O9 0.119484 0.675775 0.561932
O O10 0.111132 0.776745 0.689464
O O11 0.000000 0.745619 0.500000
O O12 0.842740 0.576277 0.427909
O O13 0.820435 0.627408 0.660997
O O14 0.500000 0.088383 0.500000
O O15 0.442312 0.000000 0.367563
O O16 0.262939 0.331958 0.153196
O O17 0.342428 0.254769 0.040436
O O18 0.393786 0.195630 0.852650
O O19 0.500000 0.261453 0.000000
#
# Coordination Sequence:
#
# PCOD8093445 Si02
#       8
#     8   8   8   8   8   8   8   8
#     4  10  22  37  53  74 102 132 165 213 257 294
#     4  10  19  36  46  69 104 135 172 208 250 295
#     4  11  19  31  50  72 104 138 173 208 244 296
#     4  11  20  33  52  72  99 139 174 206 248 299
#     4  10  22  37  53  75 100 130 171 212 251 296
#     4  10  20  32  48  72 102 137 169 211 251 293
#     4  11  22  32  48  75 104 137 175 210 245 300
#     4  11  20  34  51  72 102 137 174 203 251 302
#
# _framework density 16.973645999999999
#
# number of rings (size 3 to 8) (size 9 to 14) (size 15 to 20)
#    0.000    1.500    3.750    4.500    5.250    1.500 
#    0.000    0.000    0.000    0.000    0.000    0.000 
#    0.000    6.000    0.000    0.000    0.000    0.000 
#
# Total GULP energy -396443.036140 kJ/mol
# GULP energy per Si atom -12388.844879 kJ/mol
# Density = 1.693501 g / cm^3
# Si number density = 16.973646 Si / 1000 Ang^3
#
#
#
# Elastic Constant Matrix: (Units=GPa)
#
#
# Indices 1 2 3 4 5 6 
#
# 1 45.9789 15.3519 16.3354 0.0000 18.2045 0.0000
# 2 15.3519 27.7395 27.0061 0.0000 10.5659 0.0000
# 3 16.3354 27.0061 132.2571 0.0000 14.0321 0.0000
# 4 0.0000 0.0000 0.0000 23.4790 0.0000 9.1898
# 5 18.2045 10.5659 14.0321 0.0000 38.3836 0.0000
# 6 0.0000 0.0000 0.0000 9.1898 0.0000 6.8253
#
#
#
# Elastic Compliance Matrix: (Units=1/GPa)
#
#
# Indices 1 2 3 4 5 6 
#
# 1 0.030268 -0.012593 -0.000012 0.000000 -0.010884 0.000000
# 2 -0.012593 0.053742 -0.008825 0.000000 -0.005595 0.000000
# 3 -0.000012 -0.008825 0.009474 0.000000 -0.001028 0.000000
# 4 0.000000 0.000000 0.000000 0.090045 0.000000 -0.121240
# 5 -0.010884 -0.005595 -0.001028 0.000000 0.033131 0.000000
# 6 0.000000 0.000000 0.000000 -0.121240 0.000000 0.309756
#
#
# Mechanical properties :
#
#
# Convention : Reuss Voigt Hill
#
# Bulk Modulus (GPa) = 19.75413 35.92912 27.84162
# Shear Modulus (GPa) = 8.53024 23.55638 16.04331
#
# Velocity S-wave (km/s) = 2.24421 3.72939 3.07773
# Velocity P-wave (km/s) = 4.28704 6.30539 5.39151
#
# Compressibility (1/GPa) = 0.05062234
#
# Stress axis : x y z
#
# Youngs Moduli (GPa) = 33.03857 18.60756 105.55667
#
# Poissons Ratio (x) = 0.23433 0.00128
# Poissons Ratio (y) = 0.41607 0.93150
# Poissons Ratio (z) = 0.00040 0.16421
#
# Static dielectric constant tensor:
#      x y z
#    x 3.297460 0.000000 0.349190 
#    y 0.000000 2.946710 0.000000 
#    z 0.349190 0.000000 3.755000 
# 
# 
# High freq. dielectric constant tensor:
#      x y z
#    x 1.643500 0.000000 0.007520 
#    y 0.000000 1.603300 0.000000 
#    z 0.007520 0.000000 1.690110 
# 
# From -- ./inp_files/78776.got.cif
#   From: 2010.06.25/outbox.cif.g09.slc.cpg/sg12_40_cif.got.tgz:78776.got - 2010.06.28 00:19:55.
