data_PCOD8093539
_publ_section_title
;
Structure prediction by ZEFSAII (Michael W. Deem and Ramdas Pophale) SiO2 
 PCOD8093539
Probable space group: C 2/M
;
_chemical_formula_sum "Si O2"
_cell_formula_units_Z 48
_cell_length_a 31.289343
_cell_length_b 8.771650
_cell_length_c 9.642951
_cell_angle_alpha 90.000000
_cell_angle_beta 77.884036
_cell_angle_gamma 90.000000
_cell_volume 2587.642807
_symmetry_space_group_name_H-M "C 2/M"
_symmetry_group_IT_number 12
_symmetry_cell_setting 'monoclinic'
loop_
_space_group_symop_operation_xyz
x,y,z
-x,y,-z
-x,-y,-z
x,-y,z
1/2+x,1/2+y,z
1/2-x,1/2+y,-z
1/2-x,1/2-y,-z
1/2+x,1/2-y,z
loop_
_atom_site_type_symbol
_atom_site_label
_atom_site_fract_x
_atom_site_fract_y
_atom_site_fract_z
Si Si1 0.315318 0.181119 0.158230
Si Si2 0.261246 0.822467 0.639264
Si Si3 0.387519 0.821890 0.320191
Si Si4 0.861786 0.678055 0.631634
Si Si5 0.122409 0.178946 0.093686
Si Si6 0.950344 0.320951 0.042369
O O1 0.267577 0.249179 0.218308
O O2 0.347145 0.243558 0.258246
O O3 0.334828 0.239703 0.999633
O O4 0.312681 0.000000 0.154014
O O5 0.250000 0.750000 0.500000
O O6 0.310852 0.789323 0.645260
O O7 0.251281 0.000000 0.635735
O O8 0.387234 0.759088 0.477182
O O9 0.432759 0.784734 0.209844
O O10 0.378883 0.000000 0.337242
O O11 0.870899 0.500000 0.653425
O O12 0.880820 0.776149 0.743791
O O13 0.077791 0.231991 0.051433
O O14 0.127604 0.000000 0.072834
O O15 0.946059 0.500000 0.012742
O O16 0.000000 0.263942 0.000000
#
# Coordination Sequence:
#
# PCOD8093539 Si02
#       6
#     8   8   8   8   8   8
#     4  10  19  36  57  78 106 146 189 232 273 324
#     4  11  21  33  53  81 111 146 190 234 275 321
#     4   8  15  31  55  80 105 137 181 223 265 319
#     4  10  20  36  54  76 109 150 186 225 272 323
#     4  11  23  37  54  81 112 144 180 227 282 330
#     4   9  18  36  63  88 108 138 179 222 272 336
#
# _framework density 18.549700999999999
#
# number of rings (size 3 to 8) (size 9 to 14) (size 15 to 20)
#    0.000    2.167    1.667    3.500    0.000    2.333 
#    0.000    1.667    0.000    5.000    0.000    0.000 
#    0.000    0.000    0.000    0.000    0.000    0.000 
#
# Total GULP energy -297590.253105 kJ/mol
# GULP energy per Si atom -12399.593879 kJ/mol
# Density = 1.850748 g / cm^3
# Si number density = 18.549701 Si / 1000 Ang^3
#
#
#
# Elastic Constant Matrix: (Units=GPa)
#
#
# Indices 1 2 3 4 5 6 
#
# 1 93.5041 45.8481 53.2603 0.0000 -19.9470 0.0000
# 2 45.8481 83.5137 40.5098 0.0000 -0.8796 0.0000
# 3 53.2603 40.5098 138.5435 0.0000 -8.6229 0.0000
# 4 0.0000 0.0000 0.0000 24.3585 0.0000 0.6739
# 5 -19.9470 -0.8796 -8.6229 0.0000 27.1173 0.0000
# 6 0.0000 0.0000 0.0000 0.6739 0.0000 24.8137
#
#
#
# Elastic Compliance Matrix: (Units=1/GPa)
#
#
# Indices 1 2 3 4 5 6 
#
# 1 0.020437 -0.008939 -0.004413 0.000000 0.013340 0.000000
# 2 -0.008939 0.017882 -0.002209 0.000000 -0.006698 0.000000
# 3 -0.004413 -0.002209 0.009543 0.000000 -0.000283 0.000000
# 4 0.000000 0.000000 0.000000 0.041084 0.000000 -0.001116
# 5 0.013340 -0.006698 -0.000283 0.000000 0.046382 0.000000
# 6 0.000000 0.000000 0.000000 -0.001116 0.000000 0.040331
#
#
# Mechanical properties :
#
#
# Convention : Reuss Voigt Hill
#
# Bulk Modulus (GPa) = 59.73467 66.08862 62.91165
# Shear Modulus (GPa) = 23.54488 26.98745 25.26617
#
# Velocity S-wave (km/s) = 3.56657 3.81842 3.69464
# Velocity P-wave (km/s) = 7.01662 7.42601 7.22422
#
# Compressibility (1/GPa) = 0.01674070
#
# Stress axis : x y z
#
# Youngs Moduli (GPa) = 48.93133 55.92078 104.79228
#
# Poissons Ratio (x) = 0.49986 0.46241
# Poissons Ratio (y) = 0.43738 0.23152
# Poissons Ratio (z) = 0.21591 0.12355
#
# Static dielectric constant tensor:
#      x y z
#    x 3.384260 0.000000 -0.161850 
#    y 0.000000 3.244780 0.000000 
#    z -0.161850 0.000000 3.670100 
# 
# 
# High freq. dielectric constant tensor:
#      x y z
#    x 1.702930 0.000000 -0.013570 
#    y 0.000000 1.705810 0.000000 
#    z -0.013570 0.000000 1.727500 
# 
# From -- ./inp_files/108753.got.cif
#   From: 2010.06.25/outbox.cif.g09.slc.cpg/sg12_55_cif.got.tgz:108753.got - 2010.06.28 00:19:55.
