data_PCOD8093054
_publ_section_title
;
Structure prediction by ZEFSAII (Michael W. Deem and Ramdas Pophale) SiO2 
 PCOD8093054
Probable space group: C 2/M
;
_chemical_formula_sum "Si O2"
_cell_formula_units_Z 64
_cell_length_a 15.563516
_cell_length_b 8.827767
_cell_length_c 30.583116
_cell_angle_alpha 90.000000
_cell_angle_beta 50.570331
_cell_angle_gamma 90.000000
_cell_volume 3245.527327
_symmetry_space_group_name_H-M "C 2/M"
_symmetry_group_IT_number 12
_symmetry_cell_setting 'monoclinic'
loop_
_space_group_symop_operation_xyz
x,y,z
-x,y,-z
-x,-y,-z
x,-y,z
1/2+x,1/2+y,z
1/2-x,1/2+y,-z
1/2-x,1/2-y,-z
1/2+x,1/2-y,z
loop_
_atom_site_type_symbol
_atom_site_label
_atom_site_fract_x
_atom_site_fract_y
_atom_site_fract_z
Si Si1 0.107032 0.320205 0.940322
Si Si2 0.501781 0.320539 0.569777
Si Si3 0.824987 0.820638 0.557722
Si Si4 0.277963 0.172552 0.945657
Si Si5 0.990364 0.672961 0.823633
Si Si6 0.321548 0.179034 0.175299
Si Si7 0.425838 0.820324 0.365244
Si Si8 0.927144 0.178747 0.755523
O O1 0.106473 0.500000 0.943697
O O2 0.217634 0.259449 0.926537
O O3 0.111630 0.261379 0.888938
O O4 0.000000 0.252526 0.000000
O O5 0.503885 0.500000 0.576280
O O6 0.388078 0.269472 0.581866
O O7 0.606317 0.264977 0.506822
O O8 0.507268 0.240375 0.614647
O O9 0.700321 0.754655 0.595374
O O10 0.822793 0.000000 0.557992
O O11 0.408265 0.182301 0.891905
O O12 0.237435 0.000000 0.961390
O O13 0.250000 0.250000 0.000000
O O14 0.994670 0.500000 0.804577
O O15 0.953956 0.784666 0.797100
O O16 0.111188 0.725885 0.802806
O O17 0.195595 0.241801 0.217232
O O18 0.314798 0.000000 0.173571
O O19 0.484547 0.764545 0.302639
O O20 0.425011 0.000000 0.366807
O O21 0.936650 0.000000 0.744862
#
# Coordination Sequence:
#
# PCOD8093054 Si02
#       8
#     8   8   8   8   8   8   8   8
#     4  10  19  35  59  84 113 147 185 228 278 342
#     4   9  17  35  60  85 112 149 195 235 275 333
#     4   8  17  34  58  84 115 153 190 230 281 340
#     4  11  22  35  56  85 118 147 182 229 285 346
#     4  10  21  40  62  83 108 145 187 233 285 339
#     4   9  19  37  60  81 107 145 186 225 280 343
#     4  11  22  36  55  83 117 151 188 234 289 338
#     4  11  23  40  59  81 110 150 196 240 279 334
#
# _framework density 19.719443999999999
#
# number of rings (size 3 to 8) (size 9 to 14) (size 15 to 20)
#    0.000    2.125    1.250    3.000    0.000    3.750 
#    0.000   10.000    0.000    0.000    0.000    0.000 
#    0.000    0.000    0.000    0.000    0.000    0.000 
#
# Total GULP energy -396753.997207 kJ/mol
# GULP energy per Si atom -12398.562413 kJ/mol
# Density = 1.967456 g / cm^3
# Si number density = 19.719444 Si / 1000 Ang^3
#
#
#
# Elastic Constant Matrix: (Units=GPa)
#
#
# Indices 1 2 3 4 5 6 
#
# 1 119.0974 16.6239 34.6708 -0.0001 -0.5638 -0.0002
# 2 16.6239 28.6271 21.1402 -0.0002 1.5547 0.0000
# 3 34.6708 21.1402 89.0227 0.0000 2.3042 0.0000
# 4 -0.0001 -0.0002 0.0000 28.5284 -0.0001 3.8778
# 5 -0.5638 1.5547 2.3042 -0.0001 28.8880 -0.0002
# 6 -0.0002 0.0000 0.0000 3.8778 -0.0002 26.7008
#
#
#
# Elastic Compliance Matrix: (Units=1/GPa)
#
#
# Indices 1 2 3 4 5 6 
#
# 1 0.009756 -0.003494 -0.002986 0.000000 0.000617 0.000000
# 2 -0.003494 0.043675 -0.008967 0.000000 -0.001703 0.000000
# 3 -0.002986 -0.008967 0.014544 0.000000 -0.000736 0.000000
# 4 0.000000 0.000000 0.000000 0.035759 0.000000 -0.005193
# 5 0.000617 -0.001703 -0.000736 0.000000 0.034779 0.000000
# 6 0.000000 0.000000 0.000000 -0.005193 0.000000 0.038206
#
#
# Mechanical properties :
#
#
# Convention : Reuss Voigt Hill
#
# Bulk Modulus (GPa) = 26.96688 42.40189 34.68439
# Shear Modulus (GPa) = 22.73001 27.77760 25.25380
#
# Velocity S-wave (km/s) = 3.39878 3.75726 3.58251
# Velocity P-wave (km/s) = 5.39511 6.35389 5.89403
#
# Compressibility (1/GPa) = 0.03708252
#
# Stress axis : x y z
#
# Youngs Moduli (GPa) = 102.49725 22.89639 68.75527
#
# Poissons Ratio (x) = 0.08000 0.20530
# Poissons Ratio (y) = 0.35813 0.61650
# Poissons Ratio (z) = 0.30605 0.20530
#
# Static dielectric constant tensor:
#      x y z
#    x 3.863010 0.000000 -0.209820 
#    y 0.000000 3.243900 0.000000 
#    z -0.209820 0.000000 3.662960 
# 
# 
# High freq. dielectric constant tensor:
#      x y z
#    x 1.781500 0.000000 -0.001820 
#    y 0.000000 1.739190 0.000000 
#    z -0.001820 0.000000 1.769180 
# 
# From -- ./inp_files/375092.got.cif
#   From: 2010.06.25/outbox.cif.g09.slc.cpg/sg12_188_cif.got.tgz:375092.got - 2010.06.28 00:19:55.
