data_PCOD8093913
_publ_section_title
;
Structure prediction by ZEFSAII (Michael W. Deem and Ramdas Pophale) SiO2 
 PCOD8093913
Probable space group: C 2/M
;
_chemical_formula_sum "Si O2"
_cell_formula_units_Z 56
_cell_length_a 24.432900
_cell_length_b 8.556161
_cell_length_c 17.585926
_cell_angle_alpha 90.000000
_cell_angle_beta 128.234811
_cell_angle_gamma 90.000000
_cell_volume 2887.718828
_symmetry_space_group_name_H-M "C 2/M"
_symmetry_group_IT_number 12
_symmetry_cell_setting 'monoclinic'
loop_
_space_group_symop_operation_xyz
x,y,z
-x,y,-z
-x,-y,-z
x,-y,z
1/2+x,1/2+y,z
1/2-x,1/2+y,-z
1/2-x,1/2-y,-z
1/2+x,1/2-y,z
loop_
_atom_site_type_symbol
_atom_site_label
_atom_site_fract_x
_atom_site_fract_y
_atom_site_fract_z
Si Si1 0.409342 0.680604 0.152280
Si Si2 0.699061 0.315280 0.650066
Si Si3 0.943421 0.681962 0.745976
Si Si4 0.174821 0.317568 0.787573
Si Si5 0.676892 0.818363 0.056744
Si Si6 0.319209 0.818822 0.522868
Si Si7 0.145789 0.682617 0.195102
O O1 0.395515 0.500000 0.123336
O O2 0.490921 0.715409 0.220417
O O3 0.381189 0.725067 0.210670
O O4 0.369993 0.782544 0.055530
O O5 0.695323 0.500000 0.658637
O O6 0.661820 0.234385 0.689694
O O7 0.662002 0.265273 0.540370
O O8 0.778608 0.252403 0.715545
O O9 0.964983 0.500000 0.769079
O O10 0.883986 0.710755 0.633123
O O11 0.915074 0.748705 0.802894
O O12 0.160803 0.500000 0.784330
O O13 0.252327 0.280065 0.884075
O O14 0.632426 0.777929 0.094856
O O15 0.698188 0.000000 0.075810
O O16 0.250000 0.750000 0.500000
O O17 0.306567 0.000000 0.496818
O O18 0.147382 0.500000 0.212683
#
# Coordination Sequence:
#
# PCOD8093913 Si02
#       7
#     8   8   8   8   8   8   8
#     4  12  25  40  56  81 116 156 197 243 292 342
#     4  10  19  36  60  89 120 151 189 238 290 344
#     4  10  21  39  58  82 117 157 195 235 288 349
#     4  11  22  39  62  88 115 149 194 243 289 342
#     4  10  20  37  62  88 115 152 194 239 288 344
#     4  11  21  35  60  90 120 153 193 239 289 345
#     4   8  16  33  57  84 114 150 188 229 283 342
#
# _framework density 19.392468999999998
#
# number of rings (size 3 to 8) (size 9 to 14) (size 15 to 20)
#    0.000    1.714    1.429    5.143    0.000    1.714 
#    0.000    5.000    0.000    4.286    0.000    0.000 
#    0.000    0.000    0.000    0.000    0.000    0.000 
#
# Total GULP energy -347245.380715 kJ/mol
# GULP energy per Si atom -12401.620740 kJ/mol
# Density = 1.934833 g / cm^3
# Si number density = 19.392469 Si / 1000 Ang^3
#
#
#
# Elastic Constant Matrix: (Units=GPa)
#
#
# Indices 1 2 3 4 5 6 
#
# 1 141.8895 23.1684 44.4341 0.0000 -15.7243 0.0000
# 2 23.1684 65.6204 20.3630 0.0000 -0.4132 0.0000
# 3 44.4341 20.3630 38.2891 0.0000 -22.5756 0.0000
# 4 0.0000 0.0000 0.0000 29.3921 0.0000 -2.2800
# 5 -15.7243 -0.4132 -22.5756 0.0000 27.5280 0.0000
# 6 0.0000 0.0000 0.0000 -2.2800 0.0000 30.3980
#
#
#
# Elastic Compliance Matrix: (Units=1/GPa)
#
#
# Indices 1 2 3 4 5 6 
#
# 1 0.012373 0.002457 -0.022222 0.000000 -0.011120 0.000000
# 2 0.002457 0.022545 -0.026748 0.000000 -0.020194 0.000000
# 3 -0.022222 -0.026748 0.113096 0.000000 0.079654 0.000000
# 4 0.000000 0.000000 0.000000 0.034222 0.000000 0.002567
# 5 -0.011120 -0.020194 0.079654 0.000000 0.094996 0.000000
# 6 0.000000 0.000000 0.000000 0.002567 0.000000 0.033089
#
#
# Mechanical properties :
#
#
# Convention : Reuss Voigt Hill
#
# Bulk Modulus (GPa) = 18.18569 46.85887 32.52228
# Shear Modulus (GPa) = 11.85745 27.98587 19.92166
#
# Velocity S-wave (km/s) = 2.47543 3.80298 3.20861
# Velocity P-wave (km/s) = 4.19146 6.59541 5.52575
#
# Compressibility (1/GPa) = 0.05498828
#
# Stress axis : x y z
#
# Youngs Moduli (GPa) = 80.81906 44.35641 8.84207
#
# Poissons Ratio (x) = -0.10899 0.19649
# Poissons Ratio (y) = -0.19859 0.23651
# Poissons Ratio (z) = 1.79598 1.18643
#
# Static dielectric constant tensor:
#      x y z
#    x 3.707130 0.000000 -0.255600 
#    y 0.000000 3.456050 0.000000 
#    z -0.255600 0.000000 3.452660 
# 
# 
# High freq. dielectric constant tensor:
#      x y z
#    x 1.758560 0.000000 -0.021980 
#    y 0.000000 1.750520 0.000000 
#    z -0.021980 0.000000 1.746710 
# 
# From -- ./inp_files/288405.got.cif
#   From: 2010.06.25/outbox.cif.g09.slc.cpg/sg12_145_cif.got.tgz:288405.got - 2010.06.28 00:19:55.
