data_PCOD8093946
_publ_section_title
;
Structure prediction by ZEFSAII (Michael W. Deem and Ramdas Pophale) SiO2 
 PCOD8093946
Probable space group: C 2/M
;
_chemical_formula_sum "Si O2"
_cell_formula_units_Z 64
_cell_length_a 15.186429
_cell_length_b 24.611410
_cell_length_c 17.735983
_cell_angle_alpha 90.000000
_cell_angle_beta 150.438463
_cell_angle_gamma 90.000000
_cell_volume 3270.466081
_symmetry_space_group_name_H-M "C 2/M"
_symmetry_group_IT_number 12
_symmetry_cell_setting 'monoclinic'
loop_
_space_group_symop_operation_xyz
x,y,z
-x,y,-z
-x,-y,-z
x,-y,z
1/2+x,1/2+y,z
1/2-x,1/2+y,-z
1/2-x,1/2-y,-z
1/2+x,1/2-y,z
loop_
_atom_site_type_symbol
_atom_site_label
_atom_site_fract_x
_atom_site_fract_y
_atom_site_fract_z
Si Si1 0.488932 0.561910 0.328311
Si Si2 0.599992 0.759603 0.327690
Si Si3 0.671331 0.660924 0.179013
Si Si4 0.380285 0.642695 0.691618
Si Si5 0.702069 0.275741 0.672783
Si Si6 0.648069 0.936373 0.319600
Si Si7 0.325009 0.885897 0.821479
Si Si8 0.001213 0.639491 0.670761
O O1 0.498384 0.500000 0.308872
O O2 0.504071 0.596966 0.263403
O O3 0.647900 0.575663 0.504698
O O4 0.303148 0.571902 0.231738
O O5 0.750000 0.750000 0.500000
O O6 0.518318 0.700546 0.246952
O O7 0.684044 0.787626 0.316878
O O8 0.459740 0.803053 0.256792
O O9 0.627534 0.631353 0.225230
O O10 0.725292 0.723604 0.229241
O O11 0.832880 0.627910 0.260262
O O12 0.500000 0.656878 0.000000
O O13 0.178091 0.644621 0.511556
O O14 0.500000 0.263717 0.500000
O O15 0.718199 0.329088 0.736219
O O16 0.616715 0.910828 0.214663
O O17 0.515015 0.909076 0.280994
O O18 0.604657 0.000000 0.285177
O O19 0.500000 0.875268 0.000000
#
# Coordination Sequence:
#
# PCOD8093946 Si02
#       8
#     8   8   8   8   8   8   8   8
#     4  10  22  40  64  87 114 155 205 253 291 338
#     4   9  17  31  56  88 108 143 190 238 291 342
#     4  11  23  38  56  87 125 155 189 238 299 364
#     4   9  20  37  59  88 111 151 200 244 295 342
#     4  11  21  37  60  86 120 157 199 240 285 348
#     4  10  21  40  63  88 114 152 206 252 289 341
#     4  12  25  37  55  89 127 161 193 235 295 359
#     4  10  19  36  61  84 115 150 197 248 291 345
#
# _framework density 19.569075999999999
#
# number of rings (size 3 to 8) (size 9 to 14) (size 15 to 20)
#    0.000    1.750    1.250    4.500    5.250    3.000 
#    0.000    1.875    0.000    3.750    0.000    0.000 
#    0.000    0.000    0.000    0.000    0.000    0.000 
#
# Total GULP energy -396838.622782 kJ/mol
# GULP energy per Si atom -12401.206962 kJ/mol
# Density = 1.952454 g / cm^3
# Si number density = 19.569076 Si / 1000 Ang^3
#
#
#
# Elastic Constant Matrix: (Units=GPa)
#
#
# Indices 1 2 3 4 5 6 
#
# 1 123.4210 43.2438 35.7670 0.0001 -20.5643 0.0001
# 2 43.2438 89.7533 25.9529 0.0000 -10.7106 0.0000
# 3 35.7670 25.9529 68.4523 -0.0004 -13.1068 -0.0002
# 4 0.0001 0.0000 -0.0004 16.8803 0.0000 0.1731
# 5 -20.5643 -10.7106 -13.1068 0.0000 17.2860 0.0000
# 6 0.0001 0.0000 -0.0002 0.1731 0.0000 31.8462
#
#
#
# Elastic Compliance Matrix: (Units=1/GPa)
#
#
# Indices 1 2 3 4 5 6 
#
# 1 0.011853 -0.003716 -0.002954 0.000000 0.009559 0.000000
# 2 -0.003716 0.014038 -0.002997 0.000000 0.002005 0.000000
# 3 -0.002954 -0.002997 0.019022 0.000000 0.009051 0.000000
# 4 0.000000 0.000000 0.000000 0.059244 0.000000 -0.000322
# 5 0.009559 0.002005 0.009051 0.000000 0.077327 0.000000
# 6 0.000000 0.000000 0.000000 -0.000322 0.000000 0.031403
#
#
# Mechanical properties :
#
#
# Convention : Reuss Voigt Hill
#
# Bulk Modulus (GPa) = 39.09516 54.61710 46.85613
# Shear Modulus (GPa) = 20.76872 24.98003 22.87437
#
# Velocity S-wave (km/s) = 3.26130 3.57670 3.42263
# Velocity P-wave (km/s) = 5.84832 6.71025 6.29406
#
# Compressibility (1/GPa) = 0.02557861
#
# Stress axis : x y z
#
# Youngs Moduli (GPa) = 84.36582 71.23595 52.57174
#
# Poissons Ratio (x) = 0.26471 0.15531
# Poissons Ratio (y) = 0.31350 0.15754
# Poissons Ratio (z) = 0.24924 0.21347
#
# Static dielectric constant tensor:
#      x y z
#    x 3.730580 0.000000 -0.139380 
#    y 0.000000 3.649730 0.000000 
#    z -0.139380 0.000000 3.275620 
# 
# 
# High freq. dielectric constant tensor:
#      x y z
#    x 1.773100 0.000000 -0.010870 
#    y 0.000000 1.758230 0.000000 
#    z -0.010870 0.000000 1.735740 
# 
# From -- ./inp_files/272853.got.cif
#   From: 2010.06.25/outbox.cif.g09.slc.cpg/sg12_137_cif.got.tgz:272853.got - 2010.06.28 00:19:55.
