data_PCOD8093844
_publ_section_title
;
Structure prediction by ZEFSAII (Michael W. Deem and Ramdas Pophale) SiO2 
 PCOD8093844
Probable space group: C 2/M
;
_chemical_formula_sum "Si O2"
_cell_formula_units_Z 64
_cell_length_a 31.089858
_cell_length_b 8.881561
_cell_length_c 19.726871
_cell_angle_alpha 90.000000
_cell_angle_beta 142.227560
_cell_angle_gamma 90.000000
_cell_volume 3336.502218
_symmetry_space_group_name_H-M "C 2/M"
_symmetry_group_IT_number 12
_symmetry_cell_setting 'monoclinic'
loop_
_space_group_symop_operation_xyz
x,y,z
-x,y,-z
-x,-y,-z
x,-y,z
1/2+x,1/2+y,z
1/2-x,1/2+y,-z
1/2-x,1/2-y,-z
1/2+x,1/2-y,z
loop_
_atom_site_type_symbol
_atom_site_label
_atom_site_fract_x
_atom_site_fract_y
_atom_site_fract_z
Si Si1 0.294567 0.676603 0.998393
Si Si2 0.287513 0.677351 0.724342
Si Si3 0.709828 0.176214 0.764502
Si Si4 0.056345 0.178432 0.769330
Si Si5 0.065600 0.178643 0.626971
Si Si6 0.944620 0.172780 0.736195
Si Si7 0.289786 0.328134 0.490015
Si Si8 0.064618 0.321661 0.129308
O O1 0.290215 0.500000 0.002006
O O2 0.373807 0.732459 0.105484
O O3 0.250000 0.750000 0.000000
O O4 0.263503 0.730272 0.888828
O O5 0.298414 0.500000 0.728334
O O6 0.252633 0.721489 0.751536
O O7 0.229330 0.736982 0.600442
O O8 0.363500 0.752928 0.810381
O O9 0.636024 0.260436 0.679726
O O10 0.693357 0.000000 0.747174
O O11 0.054897 0.242520 0.690351
O O12 0.995792 0.242816 0.742752
O O13 0.049246 0.000000 0.755763
O O14 0.000000 0.232673 0.500000
O O15 0.071604 0.000000 0.635785
O O16 0.870893 0.183880 0.607361
O O17 0.949185 0.264832 0.811590
O O18 0.963654 0.000000 0.777643
O O19 0.264982 0.500000 0.451098
O O20 0.250000 0.250000 0.500000
O O21 0.072731 0.500000 0.141494
O O22 0.000000 0.273194 0.000000
#
# Coordination Sequence:
#
# PCOD8093844 Si02
#       8
#     8   8   8   8   8   8   8   8
#     4  10  19  36  60  84 113 149 194 245 292 344
#     4  11  24  41  62  88 117 160 205 243 299 360
#     4  10  23  39  58  87 120 155 197 244 296 349
#     4   9  19  36  58  86 115 149 195 241 285 341
#     4  10  21  37  60  86 116 156 198 240 289 349
#     4  10  22  39  63  89 116 157 200 239 293 356
#     4  11  22  38  63  91 120 154 197 250 298 352
#     4  11  25  43  61  87 122 156 195 248 303 355
#
# _framework density 19.181763
#
# number of rings (size 3 to 8) (size 9 to 14) (size 15 to 20)
#    0.000    1.750    2.500    1.125    3.500    2.750 
#    0.000    1.250    0.000    0.000    0.000    0.000 
#    0.000    0.000    0.000    0.000    0.000    0.000 
#
# Total GULP energy -396730.181171 kJ/mol
# GULP energy per Si atom -12397.818162 kJ/mol
# Density = 1.913810 g / cm^3
# Si number density = 19.181763 Si / 1000 Ang^3
#
#
#
# Elastic Constant Matrix: (Units=GPa)
#
#
# Indices 1 2 3 4 5 6 
#
# 1 171.0247 53.4918 83.2102 0.0000 -2.3860 0.0000
# 2 53.4918 53.2148 47.4130 0.0000 -2.7697 0.0000
# 3 83.2102 47.4130 158.8609 0.0000 -8.8018 0.0000
# 4 0.0000 0.0000 0.0000 25.6601 0.0000 0.1998
# 5 -2.3860 -2.7697 -8.8018 0.0000 37.3538 0.0000
# 6 0.0000 0.0000 0.0000 0.1998 0.0000 29.4244
#
#
#
# Elastic Compliance Matrix: (Units=1/GPa)
#
#
# Indices 1 2 3 4 5 6 
#
# 1 0.009410 -0.006905 -0.002901 0.000000 -0.000595 0.000000
# 2 -0.006905 0.030667 -0.005506 0.000000 0.000535 0.000000
# 3 -0.002901 -0.005506 0.009549 0.000000 0.001657 0.000000
# 4 0.000000 0.000000 0.000000 0.038973 0.000000 -0.000265
# 5 -0.000595 0.000535 0.001657 0.000000 0.027163 0.000000
# 6 0.000000 0.000000 0.000000 -0.000265 0.000000 0.033987
#
#
# Mechanical properties :
#
#
# Convention : Reuss Voigt Hill
#
# Bulk Modulus (GPa) = 52.62735 83.48117 68.05426
# Shear Modulus (GPa) = 26.77983 31.75335 29.26659
#
# Velocity S-wave (km/s) = 3.74051 4.07307 3.91032
# Velocity P-wave (km/s) = 6.79345 8.10774 7.47952
#
# Compressibility (1/GPa) = 0.01900153
#
# Stress axis : x y z
#
# Youngs Moduli (GPa) = 106.26993 32.60878 104.71888
#
# Poissons Ratio (x) = 0.22517 0.30378
# Poissons Ratio (y) = 0.73383 0.57658
# Poissons Ratio (z) = 0.30828 0.17954
#
# Static dielectric constant tensor:
#      x y z
#    x 3.628050 0.000000 -0.063700 
#    y 0.000000 3.429410 0.000000 
#    z -0.063700 0.000000 3.756710 
# 
# 
# High freq. dielectric constant tensor:
#      x y z
#    x 1.760610 0.000000 -0.001040 
#    y 0.000000 1.731260 0.000000 
#    z -0.001040 0.000000 1.764060 
# 
# From -- ./inp_files/295806.got.cif
#   From: 2010.06.25/outbox.cif.g09.slc.cpg/sg12_148_cif.got.tgz:295806.got - 2010.06.28 00:19:55.
