data_PCOD8093528
_publ_section_title
;
Structure prediction by ZEFSAII (Michael W. Deem and Ramdas Pophale) SiO2 
 PCOD8093528
Probable space group: C 2/M
;
_chemical_formula_sum "Si O2"
_cell_formula_units_Z 56
_cell_length_a 14.466423
_cell_length_b 8.602998
_cell_length_c 29.997795
_cell_angle_alpha 90.000000
_cell_angle_beta 52.787431
_cell_angle_gamma 90.000000
_cell_volume 2973.240747
_symmetry_space_group_name_H-M "C 2/M"
_symmetry_group_IT_number 12
_symmetry_cell_setting 'monoclinic'
loop_
_space_group_symop_operation_xyz
x,y,z
-x,y,-z
-x,-y,-z
x,-y,z
1/2+x,1/2+y,z
1/2-x,1/2+y,-z
1/2-x,1/2-y,-z
1/2+x,1/2-y,z
loop_
_atom_site_type_symbol
_atom_site_label
_atom_site_fract_x
_atom_site_fract_y
_atom_site_fract_z
Si Si1 0.551814 0.316178 0.356548
Si Si2 0.404022 0.678449 0.560056
Si Si3 0.293729 0.683786 0.767727
Si Si4 0.673919 0.316471 0.142350
Si Si5 0.080266 0.181267 0.934883
Si Si6 0.192164 0.321666 0.560428
Si Si7 0.466472 0.182862 0.145170
O O1 0.565849 0.500000 0.350704
O O2 0.596225 0.245607 0.390749
O O3 0.627506 0.241276 0.294413
O O4 0.418149 0.272431 0.390669
O O5 0.500000 0.760052 0.500000
O O6 0.442815 0.500000 0.554579
O O7 0.277617 0.695202 0.576923
O O8 0.299769 0.500000 0.763483
O O9 0.343215 0.738415 0.801267
O O10 0.160182 0.736552 0.800103
O O11 0.692077 0.500000 0.134322
O O12 0.790351 0.236316 0.089998
O O13 0.563586 0.269190 0.145494
O O14 0.025770 0.272664 0.908976
O O15 0.081609 0.000000 0.922859
O O16 0.000000 0.220108 0.000000
O O17 0.161000 0.500000 0.559522
O O18 0.250000 0.250000 0.500000
O O19 0.485354 0.000000 0.144806
#
# Coordination Sequence:
#
# PCOD8093528 Si02
#       7
#     8   8   8   8   8   8   8
#     4  10  19  36  57  75 103 139 174 218 269 322
#     4   9  17  31  51  73  97 132 169 201 254 321
#     4   8  18  35  55  78 104 139 180 223 273 327
#     4  10  20  36  57  82 113 149 189 231 278 331
#     4  10  21  37  57  84 116 150 189 231 278 330
#     4  11  21  34  52  76 102 132 172 214 263 323
#     4  10  20  36  58  83 111 147 191 232 278 330
#
# _framework density 18.834668000000001
#
# number of rings (size 3 to 8) (size 9 to 14) (size 15 to 20)
#    0.000    2.286    1.429    2.571    0.000    2.857 
#    0.000    7.857    0.000    0.000    0.000    0.000 
#    0.000    0.000    0.000    0.000    0.000    0.000 
#
# Total GULP energy -347144.222688 kJ/mol
# GULP energy per Si atom -12398.007953 kJ/mol
# Density = 1.879180 g / cm^3
# Si number density = 18.834668 Si / 1000 Ang^3
#
#
#
# Elastic Constant Matrix: (Units=GPa)
#
#
# Indices 1 2 3 4 5 6 
#
# 1 115.2359 4.0363 60.8215 0.0001 -1.2587 0.0001
# 2 4.0363 23.2505 23.2157 0.0001 1.1514 0.0001
# 3 60.8215 23.2157 167.6974 0.0000 -3.4684 0.0000
# 4 0.0001 0.0001 0.0000 19.9590 0.0000 -5.2274
# 5 -1.2587 1.1514 -3.4684 0.0000 20.8257 0.0001
# 6 0.0001 0.0001 0.0000 -5.2274 0.0001 29.1547
#
#
#
# Elastic Compliance Matrix: (Units=1/GPa)
#
#
# Indices 1 2 3 4 5 6 
#
# 1 0.010845 0.002388 -0.004268 0.000000 -0.000187 0.000000
# 2 0.002388 0.050756 -0.007975 0.000000 -0.003990 0.000000
# 3 -0.004268 -0.007975 0.008649 0.000000 0.001623 0.000000
# 4 0.000000 0.000000 0.000000 0.052572 0.000000 0.009426
# 5 -0.000187 -0.003990 0.001623 0.000000 0.048497 0.000000
# 6 0.000000 0.000000 0.000000 0.009426 0.000000 0.035990
#
#
# Mechanical properties :
#
#
# Convention : Reuss Voigt Hill
#
# Bulk Modulus (GPa) = 19.78647 53.59231 36.68939
# Shear Modulus (GPa) = 20.50320 28.52856 24.51588
#
# Velocity S-wave (km/s) = 3.30296 3.89612 3.61173
# Velocity P-wave (km/s) = 5.00741 6.98251 6.07576
#
# Compressibility (1/GPa) = 0.05053959
#
# Stress axis : x y z
#
# Youngs Moduli (GPa) = 92.21160 19.70202 115.62595
#
# Poissons Ratio (x) = -0.04705 0.49345
# Poissons Ratio (y) = -0.22019 0.92214
# Poissons Ratio (z) = 0.39353 0.15713
#
# Static dielectric constant tensor:
#      x y z
#    x 3.508510 0.000000 0.107250 
#    y 0.000000 3.277690 0.000000 
#    z 0.107250 0.000000 3.760400 
# 
# 
# High freq. dielectric constant tensor:
#      x y z
#    x 1.738580 0.000000 0.001960 
#    y 0.000000 1.711610 0.000000 
#    z 0.001960 0.000000 1.736780 
# 
# From -- ./inp_files/374949.got.cif
#   From: 2010.06.25/outbox.cif.g09.slc.cpg/sg12_188_cif.got.tgz:374949.got - 2010.06.28 00:19:55.
