data_PCOD8093707
_publ_section_title
;
Structure prediction by ZEFSAII (Michael W. Deem and Ramdas Pophale) SiO2 
 PCOD8093707
Probable space group: C 2/M
;
_chemical_formula_sum "Si O2"
_cell_formula_units_Z 48
_cell_length_a 14.990099
_cell_length_b 8.982984
_cell_length_c 19.527182
_cell_angle_alpha 90.000000
_cell_angle_beta 78.288506
_cell_angle_gamma 90.000000
_cell_volume 2574.709121
_symmetry_space_group_name_H-M "C 2/M"
_symmetry_group_IT_number 12
_symmetry_cell_setting 'monoclinic'
loop_
_space_group_symop_operation_xyz
x,y,z
-x,y,-z
-x,-y,-z
x,-y,z
1/2+x,1/2+y,z
1/2-x,1/2+y,-z
1/2-x,1/2-y,-z
1/2+x,1/2-y,z
loop_
_atom_site_type_symbol
_atom_site_label
_atom_site_fract_x
_atom_site_fract_y
_atom_site_fract_z
Si Si1 0.054574 0.675957 0.829419
Si Si2 0.873025 0.326747 0.935107
Si Si3 0.262196 0.323611 0.571314
Si Si4 0.327343 0.325987 0.078274
Si Si5 0.945020 0.325948 0.577544
Si Si6 0.580579 0.176203 0.672578
O O1 0.068606 0.500000 0.829540
O O2 0.135790 0.749556 0.859283
O O3 0.060578 0.738952 0.751343
O O4 0.956246 0.722238 0.874132
O O5 0.877492 0.500000 0.953611
O O6 0.779786 0.287978 0.910157
O O7 0.880857 0.236539 0.004273
O O8 0.263083 0.500000 0.561393
O O9 0.250000 0.250000 0.500000
O O10 0.353451 0.269004 0.593415
O O11 0.179558 0.270294 0.632424
O O12 0.345639 0.500000 0.079698
O O13 0.920971 0.500000 0.587247
O O14 0.000000 0.293576 0.500000
O O15 0.004003 0.265914 0.632040
O O16 0.576648 0.000000 0.673535
#
# Coordination Sequence:
#
# PCOD8093707 Si02
#       6
#     8   8   8   8   8   8
#     4  10  20  36  56  76 105 147 185 217 261 324
#     4   9  19  35  55  78 105 142 184 217 258 323
#     4  11  21  36  57  82 108 139 179 225 274 325
#     4  10  20  34  54  82 111 138 174 226 273 309
#     4  10  19  36  59  81 106 141 180 223 272 325
#     4   9  20  37  55  77 109 145 180 219 273 327
#
# _framework density 18.642882
#
# number of rings (size 3 to 8) (size 9 to 14) (size 15 to 20)
#    0.000    2.167    1.667    1.500    0.000    5.000 
#    0.000    4.167    0.000    0.000    0.000    0.000 
#    0.000    0.000    0.000    0.000    0.000    0.000 
#
# Total GULP energy -297672.159342 kJ/mol
# GULP energy per Si atom -12403.006639 kJ/mol
# Density = 1.860045 g / cm^3
# Si number density = 18.642882 Si / 1000 Ang^3
#
#
#
# Elastic Constant Matrix: (Units=GPa)
#
#
# Indices 1 2 3 4 5 6 
#
# 1 133.3154 38.9082 78.2455 0.0000 9.1024 0.0000
# 2 38.9082 44.5862 38.9651 0.0000 3.6050 0.0000
# 3 78.2455 38.9651 163.5121 0.0000 13.7510 0.0000
# 4 0.0000 0.0000 0.0000 21.1312 0.0000 6.5299
# 5 9.1024 3.6050 13.7510 0.0000 31.9060 0.0000
# 6 0.0000 0.0000 0.0000 6.5299 0.0000 33.5238
#
#
#
# Elastic Compliance Matrix: (Units=1/GPa)
#
#
# Indices 1 2 3 4 5 6 
#
# 1 0.011896 -0.006819 -0.003991 0.000000 -0.000903 0.000000
# 2 -0.006819 0.032240 -0.004438 0.000000 0.000215 0.000000
# 3 -0.003991 -0.004438 0.009282 0.000000 -0.002360 0.000000
# 4 0.000000 0.000000 0.000000 0.050354 0.000000 -0.009808
# 5 -0.000903 0.000215 -0.002360 0.000000 0.032593 0.000000
# 6 0.000000 0.000000 0.000000 -0.009808 0.000000 0.031740
#
#
# Mechanical properties :
#
#
# Convention : Reuss Voigt Hill
#
# Bulk Modulus (GPa) = 43.62902 72.62792 58.12847
# Shear Modulus (GPa) = 24.24343 29.66520 26.95431
#
# Velocity S-wave (km/s) = 3.61003 3.99336 3.80652
# Velocity P-wave (km/s) = 6.38982 7.76560 7.11106
#
# Compressibility (1/GPa) = 0.02292052
#
# Stress axis : x y z
#
# Youngs Moduli (GPa) = 84.06516 31.01707 107.73857
#
# Poissons Ratio (x) = 0.21152 0.43002
# Poissons Ratio (y) = 0.57328 0.47811
# Poissons Ratio (z) = 0.33553 0.13764
#
# Static dielectric constant tensor:
#      x y z
#    x 3.866000 0.000000 0.063480 
#    y 0.000000 3.248400 0.000000 
#    z 0.063480 0.000000 3.610110 
# 
# 
# High freq. dielectric constant tensor:
#      x y z
#    x 1.737450 0.000000 0.004110 
#    y 0.000000 1.705710 0.000000 
#    z 0.004110 0.000000 1.724270 
# 
# From -- ./inp_files/267672.got.cif
#   From: 2010.06.25/outbox.cif.g09.slc.cpg/sg12_134_cif.got.tgz:267672.got - 2010.06.28 00:19:55.
