data_PCOD8093687
_publ_section_title
;
Structure prediction by ZEFSAII (Michael W. Deem and Ramdas Pophale) SiO2 
 PCOD8093687
Probable space group: C 2/M
;
_chemical_formula_sum "Si O2"
_cell_formula_units_Z 48
_cell_length_a 29.664302
_cell_length_b 8.818347
_cell_length_c 19.402371
_cell_angle_alpha 90.000000
_cell_angle_beta 148.468778
_cell_angle_gamma 90.000000
_cell_volume 2654.282723
_symmetry_space_group_name_H-M "C 2/M"
_symmetry_group_IT_number 12
_symmetry_cell_setting 'monoclinic'
loop_
_space_group_symop_operation_xyz
x,y,z
-x,y,-z
-x,-y,-z
x,-y,z
1/2+x,1/2+y,z
1/2-x,1/2+y,-z
1/2-x,1/2-y,-z
1/2+x,1/2-y,z
loop_
_atom_site_type_symbol
_atom_site_label
_atom_site_fract_x
_atom_site_fract_y
_atom_site_fract_z
Si Si1 0.404513 0.822227 0.876963
Si Si2 0.268888 0.176906 0.810147
Si Si3 0.756116 0.319757 0.582915
Si Si4 0.638958 0.821713 0.540243
Si Si5 0.786947 0.823435 0.115636
Si Si6 0.020378 0.821807 0.604739
O O1 0.360231 0.785035 0.893043
O O2 0.343421 0.761718 0.735412
O O3 0.414853 0.000000 0.880241
O O4 0.500000 0.746032 0.000000
O O5 0.193513 0.275208 0.678284
O O6 0.273012 0.217367 0.896438
O O7 0.244568 0.000000 0.767322
O O8 0.754323 0.500000 0.576156
O O9 0.750000 0.250000 0.500000
O O10 0.673837 0.263350 0.518252
O O11 0.540775 0.770871 0.423420
O O12 0.644310 0.000000 0.534853
O O13 0.883385 0.765537 0.254298
O O14 0.787683 0.000000 0.103820
O O15 0.750000 0.750000 0.000000
O O16 0.000000 0.778097 0.500000
O O17 0.007436 0.000000 0.600565
#
# Coordination Sequence:
#
# PCOD8093687 Si02
#       6
#     8   8   8   8   8   8
#     4   8  15  30  55  81 102 132 178 222 260 313
#     4   9  17  34  56  76 104 146 183 217 271 330
#     4  10  20  36  57  80 113 146 178 221 275 329
#     4  11  21  33  55  85 110 137 183 233 275 319
#     4  10  21  36  54  77 109 147 180 221 274 328
#     4  10  19  36  59  78 105 144 186 222 269 332
#
# _framework density 18.083981999999999
#
# number of rings (size 3 to 8) (size 9 to 14) (size 15 to 20)
#    0.000    2.333    1.667    3.000    0.000    1.667 
#    3.000    0.000    0.000   12.500    0.000    0.000 
#    0.000    0.000    0.000    0.000    0.000    0.000 
#
# Total GULP energy -297558.939846 kJ/mol
# GULP energy per Si atom -12398.289160 kJ/mol
# Density = 1.804282 g / cm^3
# Si number density = 18.083982 Si / 1000 Ang^3
#
#
#
# Elastic Constant Matrix: (Units=GPa)
#
#
# Indices 1 2 3 4 5 6 
#
# 1 161.0042 43.9500 93.8168 0.0000 -2.6874 0.0000
# 2 43.9500 58.1126 34.2334 0.0000 -1.4399 0.0000
# 3 93.8168 34.2334 128.1155 0.0000 -1.6131 0.0000
# 4 0.0000 0.0000 0.0000 23.8404 0.0000 -6.7766
# 5 -2.6874 -1.4399 -1.6131 0.0000 35.7345 0.0000
# 6 0.0000 0.0000 0.0000 -6.7766 0.0000 26.1090
#
#
#
# Elastic Compliance Matrix: (Units=1/GPa)
#
#
# Indices 1 2 3 4 5 6 
#
# 1 0.011766 -0.004530 -0.007401 0.000000 0.000368 0.000000
# 2 -0.004530 0.022178 -0.002604 0.000000 0.000435 0.000000
# 3 -0.007401 -0.002604 0.013921 0.000000 -0.000033 0.000000
# 4 0.000000 0.000000 0.000000 0.045287 0.000000 0.011754
# 5 0.000368 0.000435 -0.000033 0.000000 0.028028 0.000000
# 6 0.000000 0.000000 0.000000 0.011754 0.000000 0.041352
#
#
# Mechanical properties :
#
#
# Convention : Reuss Voigt Hill
#
# Bulk Modulus (GPa) = 53.20305 76.80365 65.00335
# Shear Modulus (GPa) = 25.26954 28.81890 27.04422
#
# Velocity S-wave (km/s) = 3.74216 3.99634 3.87134
# Velocity P-wave (km/s) = 6.93942 7.99106 7.48374
#
# Compressibility (1/GPa) = 0.01879592
#
# Stress axis : x y z
#
# Youngs Moduli (GPa) = 84.98789 45.08903 71.83574
#
# Poissons Ratio (x) = 0.20424 0.53168
# Poissons Ratio (y) = 0.38497 0.18704
# Poissons Ratio (z) = 0.62902 0.11740
#
# Static dielectric constant tensor:
#      x y z
#    x 3.611910 0.000000 0.204690 
#    y 0.000000 3.143440 0.000000 
#    z 0.204690 0.000000 3.440520 
# 
# 
# High freq. dielectric constant tensor:
#      x y z
#    x 1.714170 0.000000 0.005720 
#    y 0.000000 1.680350 0.000000 
#    z 0.005720 0.000000 1.685350 
# 
# From -- ./inp_files/280072.got.cif
#   From: 2010.06.25/outbox.cif.g09.slc.cpg/sg12_141_cif.got.tgz:280072.got - 2010.06.28 00:19:55.
