data_PCOD8093262
_publ_section_title
;
Structure prediction by ZEFSAII (Michael W. Deem and Ramdas Pophale) SiO2 
 PCOD8093262
Probable space group: C 2/M
;
_chemical_formula_sum "Si O2"
_cell_formula_units_Z 56
_cell_length_a 16.261721
_cell_length_b 17.393334
_cell_length_c 12.140158
_cell_angle_alpha 90.000000
_cell_angle_beta 122.332469
_cell_angle_gamma 90.000000
_cell_volume 2901.411034
_symmetry_space_group_name_H-M "C 2/M"
_symmetry_group_IT_number 12
_symmetry_cell_setting 'monoclinic'
loop_
_space_group_symop_operation_xyz
x,y,z
-x,y,-z
-x,-y,-z
x,-y,z
1/2+x,1/2+y,z
1/2-x,1/2+y,-z
1/2-x,1/2-y,-z
1/2+x,1/2-y,z
loop_
_atom_site_type_symbol
_atom_site_label
_atom_site_fract_x
_atom_site_fract_y
_atom_site_fract_z
Si Si1 0.893525 0.589969 0.045450
Si Si2 0.557080 0.412147 0.306080
Si Si3 0.893954 0.354037 0.803867
Si Si4 0.283746 0.195132 0.121373
Si Si5 0.202461 0.913904 0.599488
Si Si6 0.575757 0.303769 0.649147
Si Si7 0.097956 0.813407 0.136985
O O1 0.879689 0.500000 0.017923
O O2 0.824497 0.617789 0.094586
O O3 0.003908 0.609537 0.156360
O O4 0.866642 0.632486 0.912499
O O5 0.518382 0.500000 0.279215
O O6 0.655188 0.403974 0.446515
O O7 0.475523 0.355284 0.294721
O O8 0.584613 0.388289 0.202491
O O9 0.816329 0.395193 0.669155
O O10 0.888925 0.262649 0.778500
O O11 0.370746 0.231641 0.256649
O O12 0.191234 0.171743 0.127683
O O13 0.250000 0.250000 0.000000
O O14 0.157978 0.856634 0.655956
O O15 0.185661 0.000000 0.631820
O O16 0.500000 0.275998 0.500000
O O17 0.000000 0.798766 0.000000
#
# Coordination Sequence:
#
# PCOD8093262 Si02
#       7
#     8   8   8   8   8   8   8
#     4  11  22  36  59  89 117 149 192 248 300 345
#     4  10  23  39  58  88 124 157 194 241 296 356
#     4  11  19  37  60  88 114 149 197 250 292 343
#     4  12  22  41  61  86 118 156 199 244 293 354
#     4  10  19  35  60  89 121 154 195 247 295 345
#     4  10  20  38  61  90 119 156 201 243 293 350
#     4  12  23  40  63  85 118 158 197 245 291 350
#
# _framework density 19.300953
#
# number of rings (size 3 to 8) (size 9 to 14) (size 15 to 20)
#    0.000    1.143    4.286    3.857    0.000    3.143 
#    2.571    3.571    0.000    0.429    0.000    0.000 
#    0.000    0.000    0.000    0.000    0.000    0.000 
#
# Total GULP energy -347271.364407 kJ/mol
# GULP energy per Si atom -12402.548729 kJ/mol
# Density = 1.925702 g / cm^3
# Si number density = 19.300953 Si / 1000 Ang^3
#
#
#
# Elastic Constant Matrix: (Units=GPa)
#
#
# Indices 1 2 3 4 5 6 
#
# 1 100.7765 26.6781 29.9406 0.0000 1.4224 0.0000
# 2 26.6781 65.2368 11.9640 0.0000 -3.5911 0.0000
# 3 29.9406 11.9640 52.6646 0.0000 10.4255 0.0000
# 4 0.0000 0.0000 0.0000 27.9245 0.0000 -5.6275
# 5 1.4224 -3.5911 10.4255 0.0000 31.9894 0.0000
# 6 0.0000 0.0000 0.0000 -5.6275 0.0000 14.2559
#
#
#
# Elastic Compliance Matrix: (Units=1/GPa)
#
#
# Indices 1 2 3 4 5 6 
#
# 1 0.012953 -0.004008 -0.006681 0.000000 0.001152 0.000000
# 2 -0.004008 0.017545 -0.002279 0.000000 0.002891 0.000000
# 3 -0.006681 -0.002279 0.024903 0.000000 -0.008075 0.000000
# 4 0.000000 0.000000 0.000000 0.038906 0.000000 0.015358
# 5 0.001152 0.002891 -0.008075 0.000000 0.034165 0.000000
# 6 0.000000 0.000000 0.000000 0.015358 0.000000 0.076209
#
#
# Mechanical properties :
#
#
# Convention : Reuss Voigt Hill
#
# Bulk Modulus (GPa) = 33.94080 39.53814 36.73947
# Shear Modulus (GPa) = 20.79526 24.84031 22.81779
#
# Velocity S-wave (km/s) = 3.28597 3.59137 3.44206
# Velocity P-wave (km/s) = 5.65862 6.14221 5.90537
#
# Compressibility (1/GPa) = 0.02946307
#
# Stress axis : x y z
#
# Youngs Moduli (GPa) = 77.20355 56.99621 40.15620
#
# Poissons Ratio (x) = 0.22845 0.26829
# Poissons Ratio (y) = 0.30945 0.09153
# Poissons Ratio (z) = 0.51582 0.12991
#
# Static dielectric constant tensor:
#      x y z
#    x 3.642910 0.000000 0.160380 
#    y 0.000000 3.533180 0.000000 
#    z 0.160380 0.000000 3.535040 
# 
# 
# High freq. dielectric constant tensor:
#      x y z
#    x 1.751570 0.000000 0.016700 
#    y 0.000000 1.746750 0.000000 
#    z 0.016700 0.000000 1.747900 
# 
# From -- ./inp_files/146248.got.cif
#   From: 2010.06.25/outbox.cif.g09.slc.cpg/sg12_74_cif.got.tgz:146248.got - 2010.06.28 00:19:55.
