data_PCOD8093563
_publ_section_title
;
Structure prediction by ZEFSAII (Michael W. Deem and Ramdas Pophale) SiO2 
 PCOD8093563
Probable space group: C 2/M
;
_chemical_formula_sum "Si O2"
_cell_formula_units_Z 48
_cell_length_a 19.481023
_cell_length_b 17.143206
_cell_length_c 26.608369
_cell_angle_alpha 90.000000
_cell_angle_beta 162.823469
_cell_angle_gamma 90.000000
_cell_volume 2624.279646
_symmetry_space_group_name_H-M "C 2/M"
_symmetry_group_IT_number 12
_symmetry_cell_setting 'monoclinic'
loop_
_space_group_symop_operation_xyz
x,y,z
-x,y,-z
-x,-y,-z
x,-y,z
1/2+x,1/2+y,z
1/2-x,1/2+y,-z
1/2-x,1/2-y,-z
1/2+x,1/2-y,z
loop_
_atom_site_type_symbol
_atom_site_label
_atom_site_fract_x
_atom_site_fract_y
_atom_site_fract_z
Si Si1 0.572487 0.091506 0.307865
Si Si2 0.545282 0.314451 0.476672
Si Si3 0.051940 0.589382 0.666497
Si Si4 0.701860 0.855722 0.602117
Si Si5 0.838347 0.820435 0.028281
Si Si6 0.375435 0.270993 0.863819
O O1 0.819456 0.125734 0.463900
O O2 0.529472 0.116288 0.335423
O O3 0.586810 0.000000 0.312381
O O4 0.371464 0.121634 0.130560
O O5 0.500000 0.352057 0.500000
O O6 0.697468 0.236924 0.590635
O O7 0.306421 0.293311 0.281805
O O8 0.140330 0.500000 0.728782
O O9 0.259497 0.644871 0.793482
O O10 0.836354 0.598434 0.476847
O O11 0.500000 0.881292 0.500000
O O12 0.958687 0.872414 0.803361
O O13 0.929420 0.782433 0.041059
O O14 0.750000 0.750000 0.000000
O O15 0.500000 0.237048 0.000000
#
# Coordination Sequence:
#
# PCOD8093563 Si02
#       6
#     8   8   8   8   8   8
#     4  11  24  38  57  86 117 153 187 232 289 336
#     4  10  19  39  59  81 113 146 193 238 277 338
#     4  10  22  36  53  81 119 152 185 223 279 348
#     4  10  19  36  57  81 111 148 191 231 283 331
#     4  12  21  36  58  86 116 144 191 245 277 330
#     4  11  21  36  58  86 112 149 192 232 288 333
#
# _framework density 18.290734
#
# number of rings (size 3 to 8) (size 9 to 14) (size 15 to 20)
#    0.000    1.333    8.333    0.000    0.000    6.333 
#    0.000    0.000    0.000    0.500    0.000    0.000 
#    0.000    0.000    0.000    0.000    0.000    0.000 
#
# Total GULP energy -297632.430266 kJ/mol
# GULP energy per Si atom -12401.351261 kJ/mol
# Density = 1.824910 g / cm^3
# Si number density = 18.290734 Si / 1000 Ang^3
#
#
#
# Elastic Constant Matrix: (Units=GPa)
#
#
# Indices 1 2 3 4 5 6 
#
# 1 129.8722 48.8907 37.1892 -0.0046 -5.0342 0.0241
# 2 48.8907 57.0193 24.0951 -0.3255 5.1537 -0.0222
# 3 37.1892 24.0951 101.4068 0.1243 -17.7939 0.0503
# 4 -0.0046 -0.3255 0.1243 15.0068 -0.0311 -3.2064
# 5 -5.0342 5.1537 -17.7939 -0.0311 36.7821 -0.0026
# 6 0.0241 -0.0222 0.0503 -3.2064 -0.0026 25.2099
#
#
#
# Elastic Compliance Matrix: (Units=1/GPa)
#
#
# Indices 1 2 3 4 5 6 
#
# 1 0.011921 -0.009708 -0.001683 -0.000197 0.002178 -0.000042
# 2 -0.009708 0.028453 -0.004517 0.000663 -0.007500 0.000127
# 3 -0.001683 -0.004517 0.012701 -0.000201 0.006547 -0.000053
# 4 -0.000197 0.000663 -0.000201 0.068514 -0.000159 0.008715
# 5 0.002178 -0.007500 0.006547 -0.000159 0.031703 -0.000039
# 6 -0.000042 0.000127 -0.000053 0.008715 -0.000039 0.040776
#
#
# Mechanical properties :
#
#
# Convention : Reuss Voigt Hill
#
# Bulk Modulus (GPa) = 47.04089 56.51646 51.77868
# Shear Modulus (GPa) = 21.46204 27.27466 24.36835
#
# Velocity S-wave (km/s) = 3.42918 3.86576 3.65400
# Velocity P-wave (km/s) = 6.43843 7.13383 6.79503
#
# Compressibility (1/GPa) = 0.02125810
#
# Stress axis : x y z
#
# Youngs Moduli (GPa) = 83.88678 35.14585 78.73604
#
# Poissons Ratio (x) = 0.34121 0.13248
# Poissons Ratio (y) = 0.81440 0.35567
# Poissons Ratio (z) = 0.14115 0.15876
#
# Static dielectric constant tensor:
#      x y z
#    x 3.616910 0.000030 -0.239600 
#    y 0.000030 3.065300 -0.001070 
#    z -0.239600 -0.001070 3.555430 
# 
# 
# High freq. dielectric constant tensor:
#      x y z
#    x 1.721230 -0.000010 -0.013110 
#    y -0.000010 1.677110 -0.000100 
#    z -0.013110 -0.000100 1.715340 
# 
# From -- ./inp_files/344502.got.cif
#   From: 2010.06.25/outbox.cif.g09.slc.cpg/sg12_173_cif.got.tgz:344502.got - 2010.06.28 00:19:55.
