data_PCOD8093340
_publ_section_title
;
Structure prediction by ZEFSAII (Michael W. Deem and Ramdas Pophale) SiO2 
 PCOD8093340
Probable space group: C 2/M
;
_chemical_formula_sum "Si O2"
_cell_formula_units_Z 48
_cell_length_a 29.598334
_cell_length_b 8.949360
_cell_length_c 12.305490
_cell_angle_alpha 90.000000
_cell_angle_beta 47.017888
_cell_angle_gamma 90.000000
_cell_volume 2384.580673
_symmetry_space_group_name_H-M "C 2/M"
_symmetry_group_IT_number 12
_symmetry_cell_setting 'monoclinic'
loop_
_space_group_symop_operation_xyz
x,y,z
-x,y,-z
-x,-y,-z
x,-y,z
1/2+x,1/2+y,z
1/2-x,1/2+y,-z
1/2-x,1/2-y,-z
1/2+x,1/2-y,z
loop_
_atom_site_type_symbol
_atom_site_label
_atom_site_fract_x
_atom_site_fract_y
_atom_site_fract_z
Si Si1 0.314916 0.824443 0.888903
Si Si2 0.647751 0.669385 0.387389
Si Si3 0.570782 0.675265 0.886970
Si Si4 0.509240 0.329960 0.601970
Si Si5 0.399219 0.675449 0.920634
Si Si6 0.312449 0.322985 0.443613
O O1 0.346062 0.778072 0.724709
O O2 0.347650 0.768482 0.943731
O O3 0.309558 0.000000 0.901782
O O4 0.250000 0.750000 0.000000
O O5 0.664044 0.500000 0.324581
O O6 0.576964 0.681832 0.540230
O O7 0.687128 0.716641 0.428349
O O8 0.563252 0.500000 0.879109
O O9 0.622795 0.737272 0.716499
O O10 0.500000 0.743434 0.000000
O O11 0.601442 0.714017 0.951890
O O12 0.500000 0.248049 0.500000
O O13 0.488335 0.500000 0.618611
O O14 0.464016 0.263595 0.766671
O O15 0.387867 0.500000 0.920131
O O16 0.308353 0.500000 0.431106
O O17 0.250000 0.250000 0.500000
#
# Coordination Sequence:
#
# PCOD8093340 Si02
#       6
#     8   8   8   8   8   8
#     4  12  26  41  58  83 116 153 196 246 300 359
#     4  10  20  38  61  86 117 155 196 240 292 351
#     4   9  18  35  61  92 121 155 204 251 290 343
#     4   9  15  28  55  86 115 147 189 233 281 342
#     4  10  19  35  61  90 120 155 195 242 292 349
#     4  10  22  38  59  88 121 157 199 250 299 351
#
# _framework density 20.129325000000001
#
# number of rings (size 3 to 8) (size 9 to 14) (size 15 to 20)
#    0.000    2.000    1.667    2.500    2.333    4.667 
#    0.000    1.667    0.000    4.000    0.000    0.000 
#    0.000    0.000    0.000    0.000    0.000    0.000 
#
# Total GULP energy -297384.632631 kJ/mol
# GULP energy per Si atom -12391.026360 kJ/mol
# Density = 2.008351 g / cm^3
# Si number density = 20.129325 Si / 1000 Ang^3
#
#
#
# Elastic Constant Matrix: (Units=GPa)
#
#
# Indices 1 2 3 4 5 6 
#
# 1 131.1721 45.2698 32.8574 0.0000 -0.5696 0.0000
# 2 45.2698 71.2664 26.1959 0.0000 5.9638 0.0000
# 3 32.8574 26.1959 82.3898 0.0000 -3.6190 0.0000
# 4 0.0000 0.0000 0.0000 13.7026 0.0000 -1.1042
# 5 -0.5696 5.9638 -3.6190 0.0000 33.7788 0.0000
# 6 0.0000 0.0000 0.0000 -1.1042 0.0000 30.5562
#
#
#
# Elastic Compliance Matrix: (Units=1/GPa)
#
#
# Indices 1 2 3 4 5 6 
#
# 1 0.010151 -0.005723 -0.002187 0.000000 0.000947 0.000000
# 2 -0.005723 0.019505 -0.004094 0.000000 -0.003979 0.000000
# 3 -0.002187 -0.004094 0.014409 0.000000 0.002230 0.000000
# 4 0.000000 0.000000 0.000000 0.073192 0.000000 0.002645
# 5 0.000947 -0.003979 0.002230 0.000000 0.030562 0.000000
# 6 0.000000 0.000000 0.000000 0.002645 0.000000 0.032822
#
#
# Mechanical properties :
#
#
# Convention : Reuss Voigt Hill
#
# Bulk Modulus (GPa) = 49.85831 54.83050 52.34440
# Shear Modulus (GPa) = 23.65912 27.64120 25.65016
#
# Velocity S-wave (km/s) = 3.43207 3.70967 3.57356
# Velocity P-wave (km/s) = 6.36618 6.75626 6.56412
#
# Compressibility (1/GPa) = 0.02005684
#
# Stress axis : x y z
#
# Youngs Moduli (GPa) = 98.51548 51.26812 69.40038
#
# Poissons Ratio (x) = 0.29343 0.15176
# Poissons Ratio (y) = 0.56384 0.28412
# Poissons Ratio (z) = 0.21543 0.20989
#
# Static dielectric constant tensor:
#      x y z
#    x 3.657120 0.000000 -0.223230 
#    y 0.000000 3.209940 0.000000 
#    z -0.223230 0.000000 3.381900 
# 
# 
# High freq. dielectric constant tensor:
#      x y z
#    x 1.801770 0.000000 0.001060 
#    y 0.000000 1.727760 0.000000 
#    z 0.001060 0.000000 1.800190 
# 
# From -- ./inp_files/179753.got.cif
#   From: 2010.06.25/outbox.cif.g09.slc.cpg/sg12_90_cif.got.tgz:179753.got - 2010.06.28 00:19:55.
