data_PCOD8093500
_publ_section_title
;
Structure prediction by ZEFSAII (Michael W. Deem and Ramdas Pophale) SiO2 
 PCOD8093500
Probable space group: C 2/M
;
_chemical_formula_sum "Si O2"
_cell_formula_units_Z 52
_cell_length_a 15.378403
_cell_length_b 19.532497
_cell_length_c 27.803139
_cell_angle_alpha 90.000000
_cell_angle_beta 19.711500
_cell_angle_gamma 90.000000
_cell_volume 2816.818432
_symmetry_space_group_name_H-M "C 2/M"
_symmetry_group_IT_number 12
_symmetry_cell_setting 'monoclinic'
loop_
_space_group_symop_operation_xyz
x,y,z
-x,y,-z
-x,-y,-z
x,-y,z
1/2+x,1/2+y,z
1/2-x,1/2+y,-z
1/2-x,1/2-y,-z
1/2+x,1/2-y,z
loop_
_atom_site_type_symbol
_atom_site_label
_atom_site_fract_x
_atom_site_fract_y
_atom_site_fract_z
Si Si1 0.384106 0.756298 0.724048
Si Si2 0.898208 0.422485 0.606441
Si Si3 0.222529 0.137443 0.513449
Si Si4 0.520965 0.691721 0.831955
Si Si5 0.371488 0.421074 0.616269
Si Si6 0.000000 0.196976 0.000000
Si Si7 0.867228 0.668679 0.886189
O O1 0.595708 0.816960 0.615757
O O2 0.527516 0.683860 0.646071
O O3 0.215517 0.767223 0.764654
O O4 0.201432 0.756034 0.865723
O O5 0.801886 0.500000 0.665057
O O6 0.657649 0.371634 0.735197
O O7 0.000000 0.412829 0.500000
O O8 0.115800 0.406982 0.532863
O O9 0.064248 0.088063 0.560578
O O10 0.436948 0.751253 0.838415
O O11 0.271446 0.662882 0.989798
O O12 0.500000 0.394736 0.500000
O O13 0.295206 0.500000 0.651566
O O14 0.110342 0.379869 0.760203
O O15 0.160971 0.147702 0.952268
#
# Coordination Sequence:
#
# PCOD8093500 Si02
#       7
#     8   8   8   8   8   4   8
#     4   9  18  33  54  85 106 137 183 226 275 324
#     4  10  22  37  55  82 114 149 187 222 268 329
#     4  10  19  36  56  79 113 146 179 225 276 326
#     4   9  19  36  56  77 108 143 181 230 270 322
#     4  11  23  37  56  82 113 148 186 226 273 328
#     4  10  20  32  55  82 111 136 176 238 274 322
#     4  10  20  36  55  82 109 140 184 229 277 324
#
# _framework density 18.460543999999999
#
# number of rings (size 3 to 8) (size 9 to 14) (size 15 to 20)
#    0.000    2.154    1.538    1.385    2.154    1.231 
#    0.000    0.385    0.000    0.000    0.000    4.846 
#    0.000    0.000    0.000    0.000    0.000    0.000 
#
# Total GULP energy -322309.313103 kJ/mol
# GULP energy per Si atom -12396.512042 kJ/mol
# Density = 1.841853 g / cm^3
# Si number density = 18.460544 Si / 1000 Ang^3
#
#
#
# Elastic Constant Matrix: (Units=GPa)
#
#
# Indices 1 2 3 4 5 6 
#
# 1 83.9840 31.1930 30.2278 0.0007 -4.6816 -0.1230
# 2 31.1930 101.2571 57.3313 0.1196 7.0523 -0.2657
# 3 30.2278 57.3313 125.1322 0.1768 1.7005 -0.4946
# 4 0.0007 0.1196 0.1768 22.5922 -0.0291 6.1645
# 5 -4.6816 7.0523 1.7005 -0.0291 27.0356 -0.0518
# 6 -0.1230 -0.2657 -0.4946 6.1645 -0.0518 10.8773
#
#
#
# Elastic Compliance Matrix: (Units=1/GPa)
#
#
# Indices 1 2 3 4 5 6 
#
# 1 0.014074 -0.003546 -0.001823 0.000042 0.003477 -0.000018
# 2 -0.003546 0.014493 -0.005728 -0.000055 -0.004034 0.000065
# 3 -0.001823 -0.005728 0.011052 -0.000177 0.000484 0.000444
# 4 0.000042 -0.000055 -0.000177 0.052365 0.000032 -0.029685
# 5 0.003477 -0.004034 0.000484 0.000032 0.038612 0.000128
# 6 -0.000018 0.000065 0.000444 -0.029685 0.000128 0.108781
#
#
# Mechanical properties :
#
#
# Convention : Reuss Voigt Hill
#
# Bulk Modulus (GPa) = 57.38950 60.87525 59.13238
# Shear Modulus (GPa) = 18.70013 24.87577 21.78795
#
# Velocity S-wave (km/s) = 3.18618 3.67483 3.43920
# Velocity P-wave (km/s) = 6.68512 7.14516 6.91896
#
# Compressibility (1/GPa) = 0.01742479
#
# Stress axis : x y z
#
# Youngs Moduli (GPa) = 71.05417 68.99999 90.48317
#
# Poissons Ratio (x) = 0.24466 0.16491
# Poissons Ratio (y) = 0.25195 0.51832
# Poissons Ratio (z) = 0.12950 0.39526
#
# Static dielectric constant tensor:
#      x y z
#    x 3.437090 0.000620 -0.097010 
#    y 0.000620 3.222970 0.000420 
#    z -0.097010 0.000420 3.592310 
# 
# 
# High freq. dielectric constant tensor:
#      x y z
#    x 1.720070 0.000050 -0.006770 
#    y 0.000050 1.695210 0.000050 
#    z -0.006770 0.000050 1.728050 
# 
# From -- ./inp_files/216732.got.cif
#   From: 2010.06.25/outbox.cif.g09.slc.cpg/sg12_109_cif.got.tgz:216732.got - 2010.06.28 00:19:55.
