data_PCOD8093551
_publ_section_title
;
Structure prediction by ZEFSAII (Michael W. Deem and Ramdas Pophale) SiO2 
 PCOD8093551
Probable space group: C 2/M
;
_chemical_formula_sum "Si O2"
_cell_formula_units_Z 64
_cell_length_a 15.260345
_cell_length_b 9.078982
_cell_length_c 28.766870
_cell_angle_alpha 90.000000
_cell_angle_beta 123.330384
_cell_angle_gamma 90.000000
_cell_volume 3330.036081
_symmetry_space_group_name_H-M "C 2/M"
_symmetry_group_IT_number 12
_symmetry_cell_setting 'monoclinic'
loop_
_space_group_symop_operation_xyz
x,y,z
-x,y,-z
-x,-y,-z
x,-y,z
1/2+x,1/2+y,z
1/2-x,1/2+y,-z
1/2-x,1/2-y,-z
1/2+x,1/2-y,z
loop_
_atom_site_type_symbol
_atom_site_label
_atom_site_fract_x
_atom_site_fract_y
_atom_site_fract_z
Si Si1 0.699822 0.324924 0.706374
Si Si2 0.067031 0.325919 0.218436
Si Si3 0.915601 0.825553 0.418461
Si Si4 0.847003 0.825042 0.499764
Si Si5 0.105578 0.667265 0.764322
Si Si6 0.484798 0.171118 0.896063
Si Si7 0.196144 0.165559 0.118341
Si Si8 0.660231 0.670490 0.000880
O O1 0.701375 0.500000 0.706170
O O2 0.816595 0.256353 0.745299
O O3 0.648729 0.263162 0.644153
O O4 0.630965 0.273814 0.729616
O O5 0.079648 0.500000 0.218944
O O6 0.000737 0.277710 0.153292
O O7 0.005567 0.280079 0.247038
O O8 0.853616 0.774672 0.447251
O O9 0.037463 0.774516 0.448096
O O10 0.917891 0.000000 0.420446
O O11 0.750000 0.750000 0.500000
O O12 0.830459 0.000000 0.499702
O O13 0.100498 0.500000 0.744163
O O14 0.184394 0.678047 0.830814
O O15 0.364082 0.207980 0.871153
O O16 0.510705 0.000000 0.910890
O O17 0.550014 0.265027 0.952056
O O18 0.182894 0.202346 0.060753
O O19 0.153208 0.000000 0.116047
O O20 0.662041 0.500000 0.989490
O O21 0.750000 0.750000 0.000000
#
# Coordination Sequence:
#
# PCOD8093551 Si02
#       8
#     8   8   8   8   8   8   8   8
#     4  10  19  36  57  79 107 145 189 229 265 318
#     4   9  19  35  55  77 106 143 181 220 271 328
#     4   8  17  33  54  77 111 151 184 219 272 329
#     4   9  17  33  55  82 111 147 186 224 269 321
#     4  10  20  36  56  78 107 143 179 224 278 327
#     4  11  21  36  57  80 105 137 180 226 273 333
#     4  10  21  37  55  75 106 141 176 220 280 334
#     4  11  23  38  55  78 106 138 176 223 278 339
#
# _framework density 19.219011999999999
#
# number of rings (size 3 to 8) (size 9 to 14) (size 15 to 20)
#    0.000    2.250    1.250    2.625    0.000    5.500 
#    0.000    6.875    0.000    0.000    0.000    0.000 
#    0.000    0.000    0.000    0.000    0.000    0.000 
#
# Total GULP energy -396564.988859 kJ/mol
# GULP energy per Si atom -12392.655902 kJ/mol
# Density = 1.917527 g / cm^3
# Si number density = 19.219012 Si / 1000 Ang^3
#
#
#
# Elastic Constant Matrix: (Units=GPa)
#
#
# Indices 1 2 3 4 5 6 
#
# 1 125.7467 32.9520 46.9205 0.0000 -13.2368 0.0000
# 2 32.9520 32.8510 31.6755 0.0000 -3.5811 0.0000
# 3 46.9205 31.6755 131.5733 0.0000 -16.5470 0.0000
# 4 0.0000 0.0000 0.0000 18.7705 0.0000 -2.5466
# 5 -13.2368 -3.5811 -16.5470 0.0000 19.8304 0.0000
# 6 0.0000 0.0000 0.0000 -2.5466 0.0000 34.8496
#
#
#
# Elastic Compliance Matrix: (Units=1/GPa)
#
#
# Indices 1 2 3 4 5 6 
#
# 1 0.011482 -0.009936 -0.001077 0.000000 0.004971 0.000000
# 2 -0.009936 0.048256 -0.008728 0.000000 -0.005201 0.000000
# 3 -0.001077 -0.008728 0.010946 0.000000 0.006838 0.000000
# 4 0.000000 0.000000 0.000000 0.053808 0.000000 0.003932
# 5 0.004971 -0.005201 0.006838 0.000000 0.058512 0.000000
# 6 0.000000 0.000000 0.000000 0.003932 0.000000 0.028982
#
#
# Mechanical properties :
#
#
# Convention : Reuss Voigt Hill
#
# Bulk Modulus (GPa) = 32.05114 57.02968 44.54041
# Shear Modulus (GPa) = 19.09349 26.59830 22.84589
#
# Velocity S-wave (km/s) = 3.15535 3.72419 3.45151
# Velocity P-wave (km/s) = 5.47613 6.94484 6.25375
#
# Compressibility (1/GPa) = 0.03120014
#
# Stress axis : x y z
#
# Youngs Moduli (GPa) = 87.09663 20.72275 91.36020
#
# Poissons Ratio (x) = 0.20591 0.09841
# Poissons Ratio (y) = 0.86542 0.79740
# Poissons Ratio (z) = 0.09382 0.18087
#
# Static dielectric constant tensor:
#      x y z
#    x 3.592350 0.000000 0.015330 
#    y 0.000000 3.226180 0.000000 
#    z 0.015330 0.000000 3.484520 
# 
# 
# High freq. dielectric constant tensor:
#      x y z
#    x 1.755300 0.000000 -0.000560 
#    y 0.000000 1.715950 0.000000 
#    z -0.000560 0.000000 1.753170 
# 
# From -- ./inp_files/375071.got.cif
#   From: 2010.06.25/outbox.cif.g09.slc.cpg/sg12_188_cif.got.tgz:375071.got - 2010.06.28 00:19:55.
