data_PCOD8093379
_publ_section_title
;
Structure prediction by ZEFSAII (Michael W. Deem and Ramdas Pophale) SiO2 
 PCOD8093379
Probable space group: C 2/M
;
_chemical_formula_sum "Si O2"
_cell_formula_units_Z 64
_cell_length_a 16.979913
_cell_length_b 14.407045
_cell_length_c 17.701131
_cell_angle_alpha 90.000000
_cell_angle_beta 42.561913
_cell_angle_gamma 90.000000
_cell_volume 2928.911999
_symmetry_space_group_name_H-M "C 2/M"
_symmetry_group_IT_number 12
_symmetry_cell_setting 'monoclinic'
loop_
_space_group_symop_operation_xyz
x,y,z
-x,y,-z
-x,-y,-z
x,-y,z
1/2+x,1/2+y,z
1/2-x,1/2+y,-z
1/2-x,1/2-y,-z
1/2+x,1/2-y,z
loop_
_atom_site_type_symbol
_atom_site_label
_atom_site_fract_x
_atom_site_fract_y
_atom_site_fract_z
Si Si1 0.137051 0.597718 0.895722
Si Si2 0.378357 0.294837 0.129880
Si Si3 0.810245 0.861218 0.896622
Si Si4 0.427605 0.237051 0.477937
Si Si5 0.159618 0.232177 0.680579
Si Si6 0.541142 0.396244 0.651203
Si Si7 0.539844 0.895515 0.683115
Si Si8 0.215135 0.649616 0.119337
O O1 0.177009 0.500000 0.828414
O O2 0.174041 0.689688 0.824889
O O3 0.193619 0.602224 0.938880
O O4 0.000000 0.597033 0.000000
O O5 0.390235 0.321469 0.209333
O O6 0.286560 0.356398 0.147805
O O7 0.500000 0.297938 0.000000
O O8 0.826098 0.752221 0.873236
O O9 0.924439 0.908901 0.782428
O O10 0.797984 0.887856 0.993622
O O11 0.500000 0.208440 0.500000
O O12 0.294615 0.254310 0.594545
O O13 0.481751 0.333064 0.406568
O O14 0.435293 0.151239 0.415009
O O15 0.141430 0.158305 0.626238
O O16 0.092868 0.329371 0.711369
O O17 0.584092 0.500000 0.598833
O O18 0.401446 0.909405 0.790905
O O19 0.593763 0.000000 0.648777
#
# Coordination Sequence:
#
# PCOD8093379 Si02
#       8
#     8   8   8   8   8   8   8   8
#     4   9  19  31  49  84 128 164 202 251 307 369
#     4  10  21  37  61  90 123 170 211 253 314 375
#     4  10  19  35  62  89 126 173 211 252 310 376
#     4  11  25  46  68  92 125 162 211 264 317 375
#     4  11  24  42  66  93 126 165 207 263 316 372
#     4  11  23  42  67  94 125 165 211 258 319 379
#     4  11  24  42  66  96 127 166 213 262 317 373
#     4  10  20  37  62  90 128 171 211 254 309 372
#
# _framework density 21.851119000000001
#
# number of rings (size 3 to 8) (size 9 to 14) (size 15 to 20)
#    0.000    1.625    2.500    3.375    7.000    4.000 
#    0.000    1.875    0.000    1.500    0.000    0.000 
#    0.000    0.000    0.000    0.000    0.000    0.000 
#
# Total GULP energy -396622.070238 kJ/mol
# GULP energy per Si atom -12394.439695 kJ/mol
# Density = 2.180138 g / cm^3
# Si number density = 21.851119 Si / 1000 Ang^3
#
#
#
# Elastic Constant Matrix: (Units=GPa)
#
#
# Indices 1 2 3 4 5 6 
#
# 1 124.9283 13.3063 36.5000 0.0000 -4.1691 0.0000
# 2 13.3063 93.6199 12.2492 0.0000 -8.4871 0.0000
# 3 36.5000 12.2492 102.7583 0.0000 -1.7244 0.0000
# 4 0.0000 0.0000 0.0000 16.0114 0.0000 -15.3939
# 5 -4.1691 -8.4871 -1.7244 0.0000 37.1893 0.0000
# 6 0.0000 0.0000 0.0000 -15.3939 0.0000 68.6355
#
#
#
# Elastic Compliance Matrix: (Units=1/GPa)
#
#
# Indices 1 2 3 4 5 6 
#
# 1 0.009018 -0.000815 -0.003095 0.000000 0.000681 0.000000
# 2 -0.000815 0.011146 -0.000999 0.000000 0.002406 0.000000
# 3 -0.003095 -0.000999 0.010949 0.000000 -0.000067 0.000000
# 4 0.000000 0.000000 0.000000 0.079625 0.000000 0.017859
# 5 0.000681 0.002406 -0.000067 0.000000 0.027512 0.000000
# 6 0.000000 0.000000 0.000000 0.017859 0.000000 0.018575
#
#
# Mechanical properties :
#
#
# Convention : Reuss Voigt Hill
#
# Bulk Modulus (GPa) = 46.95705 49.49080 48.22393
# Shear Modulus (GPa) = 28.77838 41.65065 35.21452
#
# Velocity S-wave (km/s) = 3.63302 4.37064 4.01879
# Velocity P-wave (km/s) = 6.25576 6.94033 6.60692
#
# Compressibility (1/GPa) = 0.02129606
#
# Stress axis : x y z
#
# Youngs Moduli (GPa) = 110.88523 89.71717 91.33455
#
# Poissons Ratio (x) = 0.07313 0.28266
# Poissons Ratio (y) = 0.09038 0.09122
# Poissons Ratio (z) = 0.34316 0.08961
#
# Static dielectric constant tensor:
#      x y z
#    x 3.997160 0.000000 0.053240 
#    y 0.000000 4.051470 0.000000 
#    z 0.053240 0.000000 3.807020 
# 
# 
# High freq. dielectric constant tensor:
#      x y z
#    x 1.861980 0.000000 -0.006550 
#    y 0.000000 1.846750 0.000000 
#    z -0.006550 0.000000 1.846210 
# 
# From -- ./inp_files/270648.got.cif
#   From: 2010.06.25/outbox.cif.g09.slc.cpg/sg12_136_cif.got.tgz:270648.got - 2010.06.28 00:19:55.
