data_PCOD8093482
_publ_section_title
;
Structure prediction by ZEFSAII (Michael W. Deem and Ramdas Pophale) SiO2 
 PCOD8093482
Probable space group: C 2/M
;
_chemical_formula_sum "Si O2"
_cell_formula_units_Z 64
_cell_length_a 25.456283
_cell_length_b 12.741929
_cell_length_c 19.828578
_cell_angle_alpha 90.000000
_cell_angle_beta 30.730464
_cell_angle_gamma 90.000000
_cell_volume 3286.568315
_symmetry_space_group_name_H-M "C 2/M"
_symmetry_group_IT_number 12
_symmetry_cell_setting 'monoclinic'
loop_
_space_group_symop_operation_xyz
x,y,z
-x,y,-z
-x,-y,-z
x,-y,z
1/2+x,1/2+y,z
1/2-x,1/2+y,-z
1/2-x,1/2-y,-z
1/2+x,1/2-y,z
loop_
_atom_site_type_symbol
_atom_site_label
_atom_site_fract_x
_atom_site_fract_y
_atom_site_fract_z
Si Si1 0.141614 0.381316 0.395410
Si Si2 0.439737 0.809276 0.655140
Si Si3 0.759977 0.207235 0.062262
Si Si4 0.318012 0.881735 0.102434
Si Si5 0.253415 0.811320 0.315109
Si Si6 0.955095 0.121755 0.392183
Si Si7 0.021831 0.119237 0.170589
Si Si8 0.975773 0.269724 0.101560
O O1 0.179165 0.500000 0.339076
O O2 0.104122 0.316234 0.371991
O O3 0.233124 0.314255 0.327576
O O4 0.039873 0.383471 0.555404
O O5 0.347405 0.851875 0.803890
O O6 0.473139 0.689699 0.636887
O O7 0.767600 0.305285 0.104074
O O8 0.750000 0.250000 0.000000
O O9 0.854643 0.128545 0.965337
O O10 0.256890 0.869866 0.239814
O O11 0.306659 0.000000 0.088553
O O12 0.439025 0.857496 0.977218
O O13 0.165366 0.862752 0.458255
O O14 0.363753 0.823455 0.229035
O O15 0.974926 0.159828 0.293261
O O16 0.986217 0.000000 0.366359
O O17 0.975928 0.180838 0.158129
O O18 0.990231 0.000000 0.194106
O O19 0.000000 0.222072 0.000000
#
# Coordination Sequence:
#
# PCOD8093482 Si02
#       8
#     8   8   8   8   8   8   8   8
#     4  10  21  37  56  83 113 145 187 232 275 327
#     4  10  19  36  55  78 113 149 184 223 273 324
#     4  11  21  37  56  81 115 151 186 223 272 329
#     4  10  21  38  59  85 113 143 185 231 275 332
#     4  10  20  38  60  84 109 145 185 232 282 328
#     4  10  21  36  57  84 113 145 183 226 277 332
#     4  10  22  38  56  82 114 145 183 229 274 327
#     4   9  21  39  59  82 111 143 182 231 280 326
#
# _framework density 19.473199999999999
#
# number of rings (size 3 to 8) (size 9 to 14) (size 15 to 20)
#    0.000    2.000    2.500    1.125    0.000    6.000 
#    0.000    1.875    0.000    0.000    0.000    0.000 
#    0.000    0.000    0.000    0.000    0.000    0.000 
#
# Total GULP energy -396653.666027 kJ/mol
# GULP energy per Si atom -12395.427063 kJ/mol
# Density = 1.942888 g / cm^3
# Si number density = 19.473200 Si / 1000 Ang^3
#
#
#
# Elastic Constant Matrix: (Units=GPa)
#
#
# Indices 1 2 3 4 5 6 
#
# 1 60.3254 16.2588 23.0042 0.0000 12.3073 0.0000
# 2 16.2588 81.6267 11.4246 0.0000 15.8998 0.0000
# 3 23.0042 11.4246 127.1778 0.0000 4.1818 0.0000
# 4 0.0000 0.0000 0.0000 17.3807 0.0000 3.4003
# 5 12.3073 15.8998 4.1818 0.0000 29.1499 0.0000
# 6 0.0000 0.0000 0.0000 3.4003 0.0000 15.0183
#
#
#
# Elastic Compliance Matrix: (Units=1/GPa)
#
#
# Indices 1 2 3 4 5 6 
#
# 1 0.019733 -0.002187 -0.003153 0.000000 -0.006686 0.000000
# 2 -0.002187 0.014075 -0.000650 0.000000 -0.006661 0.000000
# 3 -0.003153 -0.000650 0.008476 0.000000 0.000470 0.000000
# 4 0.000000 0.000000 0.000000 0.060202 0.000000 -0.013630
# 5 -0.006686 -0.006661 0.000470 0.000000 0.040694 0.000000
# 6 0.000000 0.000000 0.000000 -0.013630 0.000000 0.069672
#
#
# Mechanical properties :
#
#
# Convention : Reuss Voigt Hill
#
# Bulk Modulus (GPa) = 32.99835 41.16721 37.08278
# Shear Modulus (GPa) = 21.28282 26.87261 24.07772
#
# Velocity S-wave (km/s) = 3.30953 3.71884 3.52014
# Velocity P-wave (km/s) = 5.62017 6.29492 5.96709
#
# Compressibility (1/GPa) = 0.03030455
#
# Stress axis : x y z
#
# Youngs Moduli (GPa) = 50.67768 71.04898 117.97661
#
# Poissons Ratio (x) = 0.15537 0.37198
# Poissons Ratio (y) = 0.11082 0.07666
# Poissons Ratio (z) = 0.15979 0.04617
#
# Static dielectric constant tensor:
#      x y z
#    x 3.420910 0.000000 0.119960 
#    y 0.000000 3.331620 0.000000 
#    z 0.119960 0.000000 4.253630 
# 
# 
# High freq. dielectric constant tensor:
#      x y z
#    x 1.743240 0.000000 -0.002510 
#    y 0.000000 1.739450 0.000000 
#    z -0.002510 0.000000 1.778810 
# 
# From -- ./inp_files/327776.got.cif
#   From: 2010.06.25/outbox.cif.g09.slc.cpg/sg12_164_cif.got.tgz:327776.got - 2010.06.28 00:19:55.
