data_PCOD8093589
_publ_section_title
;
Structure prediction by ZEFSAII (Michael W. Deem and Ramdas Pophale) SiO2 
 PCOD8093589
Probable space group: C 2/M
;
_chemical_formula_sum "Si O2"
_cell_formula_units_Z 56
_cell_length_a 24.914192
_cell_length_b 17.259149
_cell_length_c 9.689516
_cell_angle_alpha 90.000000
_cell_angle_beta 42.955134
_cell_angle_gamma 90.000000
_cell_volume 2839.138793
_symmetry_space_group_name_H-M "C 2/M"
_symmetry_group_IT_number 12
_symmetry_cell_setting 'monoclinic'
loop_
_space_group_symop_operation_xyz
x,y,z
-x,y,-z
-x,-y,-z
x,-y,z
1/2+x,1/2+y,z
1/2-x,1/2+y,-z
1/2-x,1/2-y,-z
1/2+x,1/2-y,z
loop_
_atom_site_type_symbol
_atom_site_label
_atom_site_fract_x
_atom_site_fract_y
_atom_site_fract_z
Si Si1 0.501427 0.374964 0.660930
Si Si2 0.461374 0.207636 0.436258
Si Si3 0.062772 0.409280 0.762152
Si Si4 0.660677 0.413432 0.995410
Si Si5 0.674958 0.588878 0.435831
Si Si6 0.243221 0.591137 0.442361
Si Si7 0.313373 0.699610 0.809802
O O1 0.500000 0.396849 0.500000
O O2 0.488467 0.282375 0.705922
O O3 0.582127 0.401999 0.581723
O O4 0.431252 0.417066 0.878259
O O5 0.500000 0.170108 0.500000
O O6 0.461743 0.140122 0.323675
O O7 0.375035 0.240319 0.630881
O O8 0.059923 0.500000 0.728739
O O9 0.151981 0.384507 0.636780
O O10 0.000000 0.390399 0.000000
O O11 0.690108 0.500000 0.978927
O O12 0.718710 0.375624 0.771334
O O13 0.651457 0.359241 0.145411
O O14 0.701365 0.500000 0.365108
O O15 0.701557 0.619295 0.536237
O O16 0.722595 0.644792 0.241926
O O17 0.250539 0.500000 0.416179
O O18 0.250000 0.750000 0.000000
#
# Coordination Sequence:
#
# PCOD8093589 Si02
#       7
#     8   8   8   8   8   8   8
#     4  10  19  36  57  90 126 158 195 238 291 361
#     4  10  20  40  57  85 122 147 191 251 295 348
#     4  10  22  43  67  84 110 158 207 253 308 359
#     4  11  20  36  63  87 121 166 199 238 292 357
#     4  10  20  37  60  85 120 160 202 244 286 356
#     4   9  21  39  57  89 122 147 197 254 295 345
#     4  11  22  36  55  87 121 156 196 244 299 352
#
# _framework density 19.724291999999998
#
# number of rings (size 3 to 8) (size 9 to 14) (size 15 to 20)
#    0.000    1.857    4.286    1.714    0.000    2.571 
#    5.143    6.429    0.000    0.000    0.000    0.000 
#    0.000    0.000    0.000    0.000    0.000    0.000 
#
# Total GULP energy -346924.695050 kJ/mol
# GULP energy per Si atom -12390.167680 kJ/mol
# Density = 1.967940 g / cm^3
# Si number density = 19.724292 Si / 1000 Ang^3
#
#
#
# Elastic Constant Matrix: (Units=GPa)
#
#
# Indices 1 2 3 4 5 6 
#
# 1 93.1841 30.7909 41.7425 0.0000 10.7011 0.0000
# 2 30.7909 81.2960 46.8496 0.0000 11.0776 0.0000
# 3 41.7425 46.8496 140.0207 0.0000 -4.4208 0.0000
# 4 0.0000 0.0000 0.0000 32.6336 0.0000 -1.2637
# 5 10.7011 11.0776 -4.4208 0.0000 30.1288 0.0000
# 6 0.0000 0.0000 0.0000 -1.2637 0.0000 24.4760
#
#
#
# Elastic Compliance Matrix: (Units=1/GPa)
#
#
# Indices 1 2 3 4 5 6 
#
# 1 0.013583 -0.002653 -0.003298 0.000000 -0.004333 0.000000
# 2 -0.002653 0.017085 -0.005118 0.000000 -0.006090 0.000000
# 3 -0.003298 -0.005118 0.009980 0.000000 0.004518 0.000000
# 4 0.000000 0.000000 0.000000 0.030705 0.000000 0.001585
# 5 -0.004333 -0.006090 0.004518 0.000000 0.037632 0.000000
# 6 0.000000 0.000000 0.000000 0.001585 0.000000 0.040938
#
#
# Mechanical properties :
#
#
# Convention : Reuss Voigt Hill
#
# Bulk Modulus (GPa) = 54.02725 61.47409 57.75067
# Shear Modulus (GPa) = 28.05338 30.45554 29.25446
#
# Velocity S-wave (km/s) = 3.77540 3.93372 3.85537
# Velocity P-wave (km/s) = 6.81583 7.20184 7.01149
#
# Compressibility (1/GPa) = 0.01850918
#
# Stress axis : x y z
#
# Youngs Moduli (GPa) = 73.61955 58.53147 100.19980
#
# Poissons Ratio (x) = 0.15531 0.33050
# Poissons Ratio (y) = 0.19535 0.51279
# Poissons Ratio (z) = 0.24283 0.29954
#
# Static dielectric constant tensor:
#      x y z
#    x 3.827040 0.000000 -0.101800 
#    y 0.000000 3.746000 0.000000 
#    z -0.101800 0.000000 3.647770 
# 
# 
# High freq. dielectric constant tensor:
#      x y z
#    x 1.762520 0.000000 -0.005150 
#    y 0.000000 1.762560 0.000000 
#    z -0.005150 0.000000 1.766170 
# 
# From -- ./inp_files/98063.got.cif
#   From: 2010.06.25/outbox.cif.g09.slc.cpg/sg12_50_cif.got.tgz:98063.got - 2010.06.28 00:19:55.
