data_PCOD8093554
_publ_section_title
;
Structure prediction by ZEFSAII (Michael W. Deem and Ramdas Pophale) SiO2 
 PCOD8093554
Probable space group: C 2/M
;
_chemical_formula_sum "Si O2"
_cell_formula_units_Z 40
_cell_length_a 25.580150
_cell_length_b 12.270407
_cell_length_c 8.877794
_cell_angle_alpha 90.000000
_cell_angle_beta 49.725542
_cell_angle_gamma 90.000000
_cell_volume 2126.018042
_symmetry_space_group_name_H-M "C 2/M"
_symmetry_group_IT_number 12
_symmetry_cell_setting 'monoclinic'
loop_
_space_group_symop_operation_xyz
x,y,z
-x,y,-z
-x,-y,-z
x,-y,z
1/2+x,1/2+y,z
1/2-x,1/2+y,-z
1/2-x,1/2-y,-z
1/2+x,1/2-y,z
loop_
_atom_site_type_symbol
_atom_site_label
_atom_site_fract_x
_atom_site_fract_y
_atom_site_fract_z
Si Si1 0.207266 0.379219 0.432565
Si Si2 0.673552 0.231339 0.790186
Si Si3 0.424485 0.126337 0.788494
Si Si4 0.929465 0.302081 0.450626
Si Si5 0.427594 0.375122 0.215339
O O1 0.235869 0.500000 0.353453
O O2 0.261483 0.294660 0.258216
O O3 0.201467 0.358169 0.621942
O O4 0.132852 0.371945 0.497208
O O5 0.627509 0.319540 0.789996
O O6 0.634146 0.167662 0.992631
O O7 0.499076 0.138730 0.726770
O O8 0.421999 0.202558 0.645031
O O9 0.412126 0.000000 0.769184
O O10 0.929067 0.182037 0.376805
O O11 0.406802 0.500000 0.280823
O O12 0.500000 0.364223 0.000000
#
# Coordination Sequence:
#
# PCOD8093554 Si02
#       5
#     8   8   8   8   8
#     4  10  20  36  56  81 112 146 185 234 279 324
#     4  10  21  35  56  85 110 145 190 228 275 338
#     4  11  21  37  58  83 115 149 183 231 279 324
#     4  10  21  37  57  84 113 144 187 227 275 334
#     4  10  19  36  57  79 110 146 182 228 274 321
#
# _framework density 18.814516000000001
#
# number of rings (size 3 to 8) (size 9 to 14) (size 15 to 20)
#    0.000    1.800    2.000    3.600    0.000    0.800 
#    0.000    8.000    0.000    0.000    0.000    0.000 
#    0.000    0.000    0.000    0.000    0.000    0.000 
#
# Total GULP energy -247987.752810 kJ/mol
# GULP energy per Si atom -12399.387640 kJ/mol
# Density = 1.877169 g / cm^3
# Si number density = 18.814516 Si / 1000 Ang^3
#
#
#
# Elastic Constant Matrix: (Units=GPa)
#
#
# Indices 1 2 3 4 5 6 
#
# 1 67.7480 30.0310 20.1489 0.0000 -6.2595 0.0000
# 2 30.0310 106.0999 27.6212 0.0000 6.0986 0.0000
# 3 20.1489 27.6212 85.6654 0.0000 -7.8746 0.0000
# 4 0.0000 0.0000 0.0000 27.1644 0.0000 -0.7225
# 5 -6.2595 6.0986 -7.8746 0.0000 27.8090 0.0000
# 6 0.0000 0.0000 0.0000 -0.7225 0.0000 18.3322
#
#
#
# Elastic Compliance Matrix: (Units=1/GPa)
#
#
# Indices 1 2 3 4 5 6 
#
# 1 0.017952 -0.004741 -0.002286 0.000000 0.004433 0.000000
# 2 -0.004741 0.011841 -0.003121 0.000000 -0.004547 0.000000
# 3 -0.002286 -0.003121 0.013587 0.000000 0.004017 0.000000
# 4 0.000000 0.000000 0.000000 0.036852 0.000000 0.001452
# 5 0.004433 -0.004547 0.004017 0.000000 0.039092 0.000000
# 6 0.000000 0.000000 0.000000 0.001452 0.000000 0.054606
#
#
# Mechanical properties :
#
#
# Convention : Reuss Voigt Hill
#
# Bulk Modulus (GPa) = 43.32131 46.12396 44.72263
# Shear Modulus (GPa) = 24.76245 26.77526 25.76886
#
# Velocity S-wave (km/s) = 3.63179 3.77652 3.70486
# Velocity P-wave (km/s) = 6.37668 6.60185 6.49024
#
# Compressibility (1/GPa) = 0.02308333
#
# Stress axis : x y z
#
# Youngs Moduli (GPa) = 55.70553 84.45418 73.60206
#
# Poissons Ratio (x) = 0.40037 0.16827
# Poissons Ratio (y) = 0.26408 0.22970
# Poissons Ratio (z) = 0.12736 0.26357
#
# Static dielectric constant tensor:
#      x y z
#    x 3.538400 0.000000 -0.217990 
#    y 0.000000 3.424280 0.000000 
#    z -0.217990 0.000000 3.457320 
# 
# 
# High freq. dielectric constant tensor:
#      x y z
#    x 1.733810 0.000000 -0.018490 
#    y 0.000000 1.728930 0.000000 
#    z -0.018490 0.000000 1.725850 
# 
# From -- ./inp_files/71231.got.cif
#   From: 2010.06.25/outbox.cif.g09.slc.cpg/sg12_36_cif.got.tgz:71231.got - 2010.06.28 00:19:55.
