data_PCOD8093861
_publ_section_title
;
Structure prediction by ZEFSAII (Michael W. Deem and Ramdas Pophale) SiO2 
 PCOD8093861
Probable space group: C 2/M
;
_chemical_formula_sum "Si O2"
_cell_formula_units_Z 48
_cell_length_a 9.354994
_cell_length_b 15.876516
_cell_length_c 18.912773
_cell_angle_alpha 90.000000
_cell_angle_beta 51.451742
_cell_angle_gamma 90.000000
_cell_volume 2196.883794
_symmetry_space_group_name_H-M "C 2/M"
_symmetry_group_IT_number 12
_symmetry_cell_setting 'monoclinic'
loop_
_space_group_symop_operation_xyz
x,y,z
-x,y,-z
-x,-y,-z
x,-y,z
1/2+x,1/2+y,z
1/2-x,1/2+y,-z
1/2-x,1/2-y,-z
1/2+x,1/2-y,z
loop_
_atom_site_type_symbol
_atom_site_label
_atom_site_fract_x
_atom_site_fract_y
_atom_site_fract_z
Si Si1 0.718365 0.400326 0.252794
Si Si2 0.583096 0.400068 0.768220
Si Si3 0.976056 0.600146 0.587404
Si Si4 0.965611 0.405636 0.935658
Si Si5 0.803839 0.899449 0.584352
Si Si6 0.612297 0.671228 0.035722
O O1 0.728014 0.500000 0.259251
O O2 0.545314 0.376076 0.258297
O O3 0.714005 0.360352 0.331833
O O4 0.903558 0.361096 0.161792
O O5 0.573678 0.500000 0.788261
O O6 0.786423 0.371458 0.682778
O O7 0.518426 0.346909 0.856859
O O8 0.980717 0.500000 0.582726
O O9 0.000000 0.635748 0.500000
O O10 0.143227 0.635437 0.583273
O O11 0.040979 0.500000 0.919107
O O12 0.752069 0.406661 0.981688
O O13 0.000000 0.359113 0.000000
O O14 0.000000 0.865821 0.500000
O O15 0.797191 0.000000 0.585817
O O16 0.500000 0.682291 0.000000
O O17 0.750000 0.750000 0.000000
#
# Coordination Sequence:
#
# PCOD8093861 Si02
#       6
#     8   8   8   8   8   8
#     4   9  17  29  51  78 108 146 184 227 280 339
#     4  10  20  36  59  87 117 154 195 240 294 348
#     4   9  17  29  48  80 121 154 186 233 288 343
#     4  10  19  36  60  85 113 147 188 239 295 352
#     4   9  16  26  43  72 112 153 186 222 279 346
#     4  12  27  42  58  81 114 157 201 248 295 353
#
# _framework density 21.849131
#
# number of rings (size 3 to 8) (size 9 to 14) (size 15 to 20)
#    0.000    2.167    1.667    2.000    2.333    5.333 
#    0.000    0.000    0.000    0.000    0.000    2.333 
#    0.000    0.000    0.000    0.000    0.000    0.167 
#
# Total GULP energy -297385.668991 kJ/mol
# GULP energy per Si atom -12391.069541 kJ/mol
# Density = 2.179940 g / cm^3
# Si number density = 21.849131 Si / 1000 Ang^3
#
#
#
# Elastic Constant Matrix: (Units=GPa)
#
#
# Indices 1 2 3 4 5 6 
#
# 1 216.4182 17.2655 125.5917 0.0002 7.0628 -0.0002
# 2 17.2655 24.6222 23.6390 0.0000 5.3581 0.0000
# 3 125.5917 23.6390 245.8651 -0.0005 2.2579 0.0001
# 4 0.0002 0.0000 -0.0005 7.5549 0.0000 -4.0235
# 5 7.0628 5.3581 2.2579 0.0000 51.5176 0.0001
# 6 -0.0002 0.0000 0.0001 -4.0235 0.0001 8.4944
#
#
#
# Elastic Compliance Matrix: (Units=1/GPa)
#
#
# Indices 1 2 3 4 5 6 
#
# 1 0.006639 -0.001399 -0.003251 0.000000 -0.000622 0.000000
# 2 -0.001399 0.046090 -0.003676 0.000000 -0.004441 0.000000
# 3 -0.003251 -0.003676 0.006076 0.000001 0.000562 0.000000
# 4 0.000000 0.000000 0.000001 0.177019 0.000000 0.083848
# 5 -0.000622 -0.004441 0.000562 0.000000 0.019933 0.000000
# 6 0.000000 0.000000 0.000000 0.083848 0.000000 0.157440
#
#
# Mechanical properties :
#
#
# Convention : Reuss Voigt Hill
#
# Bulk Modulus (GPa) = 23.72269 91.09977 57.41123
# Shear Modulus (GPa) = 11.26373 34.87401 23.06887
#
# Velocity S-wave (km/s) = 2.27298 3.99949 3.25287
# Velocity P-wave (km/s) = 4.21540 7.94439 6.35936
#
# Compressibility (1/GPa) = 0.04215373
#
# Stress axis : x y z
#
# Youngs Moduli (GPa) = 150.61678 21.69651 164.57202
#
# Poissons Ratio (x) = 0.03035 0.53507
# Poissons Ratio (y) = 0.21068 0.60499
# Poissons Ratio (z) = 0.48970 0.07976
#
# Static dielectric constant tensor:
#      x y z
#    x 14.298470 0.000060 -1.840250 
#    y 0.000060 3.426130 -0.000010 
#    z -1.840250 -0.000010 4.755360 
# 
# 
# High freq. dielectric constant tensor:
#      x y z
#    x 1.866850 0.000000 -0.003350 
#    y 0.000000 1.805470 0.000000 
#    z -0.003350 0.000000 1.879100 
# 
# From -- ./inp_files/257916.got.cif
#   From: 2010.06.25/outbox.cif.g09.slc.cpg/sg12_129_cif.got.tgz:257916.got - 2010.06.28 00:19:55.
