data_PCOD8093464
_publ_section_title
;
Structure prediction by ZEFSAII (Michael W. Deem and Ramdas Pophale) SiO2 
 PCOD8093464
Probable space group: C 2/M
;
_chemical_formula_sum "Si O2"
_cell_formula_units_Z 52
_cell_length_a 26.549011
_cell_length_b 22.352132
_cell_length_c 5.566326
_cell_angle_alpha 90.000000
_cell_angle_beta 124.231430
_cell_angle_gamma 90.000000
_cell_volume 2731.000372
_symmetry_space_group_name_H-M "C 2/M"
_symmetry_group_IT_number 12
_symmetry_cell_setting 'monoclinic'
loop_
_space_group_symop_operation_xyz
x,y,z
-x,y,-z
-x,-y,-z
x,-y,z
1/2+x,1/2+y,z
1/2-x,1/2+y,-z
1/2-x,1/2-y,-z
1/2+x,1/2-y,z
loop_
_atom_site_type_symbol
_atom_site_label
_atom_site_fract_x
_atom_site_fract_y
_atom_site_fract_z
Si Si1 0.201816 0.568607 0.722791
Si Si2 0.836702 0.068772 0.947501
Si Si3 0.591818 0.338915 0.591618
Si Si4 0.190821 0.166777 0.480210
Si Si5 0.393934 0.246907 0.992465
Si Si6 0.000000 0.200512 0.000000
Si Si7 0.677362 0.867274 0.150829
O O1 0.182188 0.500000 0.653622
O O2 0.275110 0.575368 0.942114
O O3 0.177826 0.597721 0.407714
O O4 0.172298 0.593699 0.891812
O O5 0.824120 0.100173 0.658882
O O6 0.853203 0.000000 0.944694
O O7 0.895637 0.100642 0.224339
O O8 0.654902 0.324838 0.628360
O O9 0.577628 0.278890 0.700877
O O10 0.530471 0.346216 0.269917
O O11 0.168628 0.218049 0.237809
O O12 0.262541 0.173558 0.712565
O O13 0.445561 0.255259 0.929590
O O14 0.380519 0.177137 0.999467
#
# Coordination Sequence:
#
# PCOD8093464 Si02
#       7
#     8   8   8   8   8   4   8
#     4  10  21  36  56  87 127 156 186 230 279 345
#     4   9  18  33  53  79 114 160 194 224 278 343
#     4  10  19  36  54  78 110 150 190 243 290 329
#     4   9  19  33  50  83 118 148 183 238 288 337
#     4  10  22  35  57  79 112 149 190 243 289 348
#     4  10  22  38  55  76 111 146 194 248 302 322
#     4  11  21  35  58  90 118 155 193 224 290 356
#
# _framework density 19.040641999999998
#
# number of rings (size 3 to 8) (size 9 to 14) (size 15 to 20)
#    0.000    2.154    1.538    1.385    4.308    1.846 
#    0.000    0.385    0.000   12.000    0.000    3.231 
#    0.000    0.000    0.000    0.000    0.000    0.000 
#
# Total GULP energy -322155.831543 kJ/mol
# GULP energy per Si atom -12390.608905 kJ/mol
# Density = 1.899730 g / cm^3
# Si number density = 19.040642 Si / 1000 Ang^3
#
#
#
# Elastic Constant Matrix: (Units=GPa)
#
#
# Indices 1 2 3 4 5 6 
#
# 1 61.4886 40.7422 28.0378 0.0000 -7.6424 0.0000
# 2 40.7422 120.2759 42.6297 0.0000 -0.6947 0.0000
# 3 28.0378 42.6297 74.3432 0.0000 -14.8076 0.0000
# 4 0.0000 0.0000 0.0000 9.9717 0.0000 -2.9821
# 5 -7.6424 -0.6947 -14.8076 0.0000 28.1394 0.0000
# 6 0.0000 0.0000 0.0000 -2.9821 0.0000 24.4982
#
#
#
# Elastic Compliance Matrix: (Units=1/GPa)
#
#
# Indices 1 2 3 4 5 6 
#
# 1 0.022782 -0.006170 -0.004303 0.000000 0.003771 0.000000
# 2 -0.006170 0.012376 -0.005633 0.000000 -0.004334 0.000000
# 3 -0.004303 -0.005633 0.020156 0.000000 0.009299 0.000000
# 4 0.000000 0.000000 0.000000 0.104073 0.000000 0.012669
# 5 0.003771 -0.004334 0.009299 0.000000 0.041348 0.000000
# 6 0.000000 0.000000 0.000000 0.012669 0.000000 0.042362
#
#
# Mechanical properties :
#
#
# Convention : Reuss Voigt Hill
#
# Bulk Modulus (GPa) = 43.28598 53.21413 48.25005
# Shear Modulus (GPa) = 17.66729 22.16837 19.91783
#
# Velocity S-wave (km/s) = 3.04940 3.41584 3.23781
# Velocity P-wave (km/s) = 5.93138 6.60042 6.27483
#
# Compressibility (1/GPa) = 0.02310217
#
# Stress axis : x y z
#
# Youngs Moduli (GPa) = 43.89345 80.80311 49.61324
#
# Poissons Ratio (x) = 0.49859 0.21348
# Poissons Ratio (y) = 0.27084 0.27945
# Poissons Ratio (z) = 0.18887 0.45514
#
# Static dielectric constant tensor:
#      x y z
#    x 3.387840 0.000000 -0.193020 
#    y 0.000000 3.320390 0.000000 
#    z -0.193020 0.000000 3.517930 
# 
# 
# High freq. dielectric constant tensor:
#      x y z
#    x 1.725950 0.000000 -0.021460 
#    y 0.000000 1.719950 0.000000 
#    z -0.021460 0.000000 1.736790 
# 
# From -- ./inp_files/25338.got.cif
#   From: 2010.06.25/outbox.cif.g09.slc.cpg/sg12_13_cif.got.tgz:25338.got - 2010.06.28 00:19:55.
