data_PCOD8093797
_publ_section_title
;
Structure prediction by ZEFSAII (Michael W. Deem and Ramdas Pophale) SiO2 
 PCOD8093797
Probable space group: C 2/M
;
_chemical_formula_sum "Si O2"
_cell_formula_units_Z 56
_cell_length_a 8.741588
_cell_length_b 16.703139
_cell_length_c 30.412433
_cell_angle_alpha 90.000000
_cell_angle_beta 140.809549
_cell_angle_gamma 90.000000
_cell_volume 2806.002452
_symmetry_space_group_name_H-M "C 2/M"
_symmetry_group_IT_number 12
_symmetry_cell_setting 'monoclinic'
loop_
_space_group_symop_operation_xyz
x,y,z
-x,y,-z
-x,-y,-z
x,-y,z
1/2+x,1/2+y,z
1/2-x,1/2+y,-z
1/2-x,1/2-y,-z
1/2+x,1/2-y,z
loop_
_atom_site_type_symbol
_atom_site_label
_atom_site_fract_x
_atom_site_fract_y
_atom_site_fract_z
Si Si1 0.802023 0.796708 0.734012
Si Si2 0.745624 0.726878 0.949089
Si Si3 0.233331 0.309379 0.858214
Si Si4 0.328682 0.406577 0.502973
Si Si5 0.563144 0.088336 0.751151
Si Si6 0.047142 0.143064 0.637757
Si Si7 0.288760 0.909468 0.362217
O O1 0.679187 0.841971 0.747474
O O2 0.624253 0.726791 0.677226
O O3 0.846567 0.858439 0.704863
O O4 0.069294 0.766173 0.806689
O O5 0.486677 0.684701 0.886839
O O6 0.763318 0.801539 0.917857
O O7 0.750000 0.750000 0.000000
O O8 0.000000 0.676176 0.000000
O O9 0.105029 0.390399 0.812555
O O10 0.500000 0.391721 0.500000
O O11 0.330193 0.500000 0.518016
O O12 0.416511 0.347920 0.561585
O O13 0.060606 0.378207 0.430133
O O14 0.277479 0.086846 0.679887
O O15 0.667582 0.000000 0.763840
O O16 0.860568 0.096044 0.626541
O O17 0.297087 0.000000 0.346911
#
# Coordination Sequence:
#
# PCOD8093797 Si02
#       7
#     8   8   8   8   8   8   8
#     4  11  23  38  58  84 122 153 194 245 290 349
#     4   9  18  34  62  94 119 153 196 236 277 336
#     4  10  19  36  59  93 118 154 198 242 280 338
#     4  10  21  38  59  81 114 155 197 244 304 367
#     4  11  22  37  59  86 122 160 193 237 299 353
#     4  11  22  38  59  85 112 149 200 253 294 338
#     4  11  23  38  58  84 113 152 198 245 298 355
#
# _framework density 19.957217
#
# number of rings (size 3 to 8) (size 9 to 14) (size 15 to 20)
#    0.000    1.571    1.429    4.714    2.000    2.857 
#    0.000    1.429    0.000    4.286    0.000    0.000 
#    0.000    0.000    0.000    0.000    0.000    0.000 
#
# Total GULP energy -346879.772371 kJ/mol
# GULP energy per Si atom -12388.563299 kJ/mol
# Density = 1.991179 g / cm^3
# Si number density = 19.957217 Si / 1000 Ang^3
#
#
#
# Elastic Constant Matrix: (Units=GPa)
#
#
# Indices 1 2 3 4 5 6 
#
# 1 115.9873 21.2925 53.4763 0.0001 10.5234 0.0001
# 2 21.2925 86.3121 39.3180 0.0000 -5.8468 0.0000
# 3 53.4763 39.3180 112.2682 0.0001 -0.1203 0.0002
# 4 0.0001 0.0000 0.0001 5.8301 0.0001 2.0093
# 5 10.5234 -5.8468 -0.1203 0.0001 47.5572 0.0001
# 6 0.0001 0.0000 0.0002 2.0093 0.0001 20.9844
#
#
#
# Elastic Compliance Matrix: (Units=1/GPa)
#
#
# Indices 1 2 3 4 5 6 
#
# 1 0.011370 -0.000610 -0.005205 0.000000 -0.002604 0.000000
# 2 -0.000610 0.013954 -0.004594 0.000000 0.001839 0.000000
# 3 -0.005205 -0.004594 0.012996 0.000000 0.000620 0.000000
# 4 0.000000 0.000000 0.000000 0.177377 0.000000 -0.016984
# 5 -0.002604 0.001839 0.000620 0.000000 0.021831 0.000000
# 6 0.000000 0.000000 0.000000 -0.016984 0.000000 0.049281
#
#
# Mechanical properties :
#
#
# Convention : Reuss Voigt Hill
#
# Bulk Modulus (GPa) = 57.13933 60.30456 58.72195
# Shear Modulus (GPa) = 15.95101 28.23972 22.09536
#
# Velocity S-wave (km/s) = 2.83019 3.76575 3.33098
# Velocity P-wave (km/s) = 6.27479 7.01358 6.65445
#
# Compressibility (1/GPa) = 0.01750108
#
# Stress axis : x y z
#
# Youngs Moduli (GPa) = 87.95414 71.66524 76.94689
#
# Poissons Ratio (x) = 0.04373 0.40048
# Poissons Ratio (y) = 0.05368 0.35351
# Poissons Ratio (z) = 0.45777 0.32924
#
# Static dielectric constant tensor:
#      x y z
#    x 2.552470 0.000000 -1.226970 
#    y 0.000000 3.295560 0.000000 
#    z -1.226970 0.000000 2.589060 
# 
# 
# High freq. dielectric constant tensor:
#      x y z
#    x 1.796280 0.000000 0.001080 
#    y 0.000000 1.735450 0.000000 
#    z 0.001080 0.000000 1.797120 
# 
# From -- ./inp_files/333311.got.cif
#   From: 2010.06.25/outbox.cif.g09.slc.cpg/sg12_167_cif.got.tgz:333311.got - 2010.06.28 00:19:55.
