data_PCOD8093721
_publ_section_title
;
Structure prediction by ZEFSAII (Michael W. Deem and Ramdas Pophale) SiO2 
 PCOD8093721
Probable space group: C 2/M
;
_chemical_formula_sum "Si O2"
_cell_formula_units_Z 56
_cell_length_a 25.485269
_cell_length_b 8.943416
_cell_length_c 18.347592
_cell_angle_alpha 90.000000
_cell_angle_beta 137.063770
_cell_angle_gamma 90.000000
_cell_volume 2848.630572
_symmetry_space_group_name_H-M "C 2/M"
_symmetry_group_IT_number 12
_symmetry_cell_setting 'monoclinic'
loop_
_space_group_symop_operation_xyz
x,y,z
-x,y,-z
-x,-y,-z
x,-y,z
1/2+x,1/2+y,z
1/2-x,1/2+y,-z
1/2-x,1/2-y,-z
1/2+x,1/2-y,z
loop_
_atom_site_type_symbol
_atom_site_label
_atom_site_fract_x
_atom_site_fract_y
_atom_site_fract_z
Si Si1 0.654756 0.825349 0.085478
Si Si2 0.025514 0.677518 0.848259
Si Si3 0.375657 0.174433 0.782598
Si Si4 0.455137 0.328349 0.284993
Si Si5 0.173069 0.177795 0.738477
Si Si6 0.110720 0.172206 0.521238
Si Si7 0.737604 0.176094 0.564299
O O1 0.612520 0.796457 0.119504
O O2 0.740561 0.753471 0.169100
O O3 0.664648 0.000000 0.082172
O O4 0.600291 0.757516 0.966830
O O5 0.026909 0.500000 0.850835
O O6 0.024864 0.732360 0.765183
O O7 0.949291 0.733718 0.812829
O O8 0.301609 0.268843 0.685536
O O9 0.359895 0.000000 0.750795
O O10 0.447795 0.500000 0.252726
O O11 0.375975 0.269131 0.241106
O O12 0.520334 0.310968 0.413190
O O13 0.130608 0.233288 0.621951
O O14 0.175107 0.000000 0.738767
O O15 0.154209 0.274475 0.507202
O O16 0.137457 0.000000 0.539616
O O17 0.750000 0.250000 0.500000
O O18 0.741046 0.000000 0.559181
#
# Coordination Sequence:
#
# PCOD8093721 Si02
#       7
#     8   8   8   8   8   8   8
#     4   9  17  33  59  85 108 141 189 234 273 324
#     4  10  21  35  55  83 113 147 187 229 275 329
#     4  10  19  36  59  82 109 143 186 232 277 325
#     4  10  21  35  55  83 113 147 187 229 275 329
#     4   9  17  33  59  85 108 141 189 234 273 324
#     4  10  19  36  59  82 109 143 186 232 277 325
#     4  12  24  36  54  82 115 148 183 222 275 334
#
# _framework density 19.658567999999999
#
# number of rings (size 3 to 8) (size 9 to 14) (size 15 to 20)
#    0.000    2.000    1.429    3.000    0.000    7.429 
#    0.000    1.429    0.000    3.429    0.000    0.000 
#    0.000    0.000    0.000    0.000    0.000    0.000 
#
# Total GULP energy -347199.590878 kJ/mol
# GULP energy per Si atom -12399.985389 kJ/mol
# Density = 1.961382 g / cm^3
# Si number density = 19.658568 Si / 1000 Ang^3
#
#
#
# Elastic Constant Matrix: (Units=GPa)
#
#
# Indices 1 2 3 4 5 6 
#
# 1 133.3691 14.9658 27.3502 0.0000 9.9230 0.0000
# 2 14.9658 44.4042 10.5464 0.0000 1.0842 0.0000
# 3 27.3502 10.5464 84.0263 0.0000 4.9215 0.0000
# 4 0.0000 0.0000 0.0000 17.7965 0.0000 -2.8549
# 5 9.9230 1.0842 4.9215 0.0000 28.2767 0.0000
# 6 0.0000 0.0000 0.0000 -2.8549 0.0000 25.2775
#
#
#
# Elastic Compliance Matrix: (Units=1/GPa)
#
#
# Indices 1 2 3 4 5 6 
#
# 1 0.008405 -0.002223 -0.002313 0.000000 -0.002462 0.000000
# 2 -0.002223 0.023805 -0.002280 0.000000 0.000264 0.000000
# 3 -0.002313 -0.002280 0.013020 0.000000 -0.001367 0.000000
# 4 0.000000 0.000000 0.000000 0.057228 0.000000 0.006463
# 5 -0.002462 0.000264 -0.001367 0.000000 0.036457 0.000000
# 6 0.000000 0.000000 0.000000 0.006463 0.000000 0.040291
#
#
# Mechanical properties :
#
#
# Convention : Reuss Voigt Hill
#
# Bulk Modulus (GPa) = 31.64698 40.83605 36.24152
# Shear Modulus (GPa) = 24.58592 28.19928 26.39260
#
# Velocity S-wave (km/s) = 3.54028 3.79153 3.66806
# Velocity P-wave (km/s) = 5.73103 6.32339 6.03449
#
# Compressibility (1/GPa) = 0.03159859
#
# Stress axis : x y z
#
# Youngs Moduli (GPa) = 118.97863 42.00846 76.80529
#
# Poissons Ratio (x) = 0.09340 0.17761
# Poissons Ratio (y) = 0.26454 0.17508
# Poissons Ratio (z) = 0.27514 0.09576
#
# Static dielectric constant tensor:
#      x y z
#    x 3.771780 0.000000 0.198730 
#    y 0.000000 2.719800 0.000000 
#    z 0.198730 0.000000 3.891830 
# 
# 
# High freq. dielectric constant tensor:
#      x y z
#    x 1.778780 0.000000 0.003380 
#    y 0.000000 1.718700 0.000000 
#    z 0.003380 0.000000 1.775170 
# 
# From -- ./inp_files/288381.got.cif
#   From: 2010.06.25/outbox.cif.g09.slc.cpg/sg12_145_cif.got.tgz:288381.got - 2010.06.28 00:19:55.
