data_PCOD8093162
_publ_section_title
;
Structure prediction by ZEFSAII (Michael W. Deem and Ramdas Pophale) SiO2 
 PCOD8093162
Probable space group: C 2/M
;
_chemical_formula_sum "Si O2"
_cell_formula_units_Z 52
_cell_length_a 11.447945
_cell_length_b 15.623436
_cell_length_c 21.920831
_cell_angle_alpha 90.000000
_cell_angle_beta 37.336820
_cell_angle_gamma 90.000000
_cell_volume 2377.888720
_symmetry_space_group_name_H-M "C 2/M"
_symmetry_group_IT_number 12
_symmetry_cell_setting 'monoclinic'
loop_
_space_group_symop_operation_xyz
x,y,z
-x,y,-z
-x,-y,-z
x,-y,z
1/2+x,1/2+y,z
1/2-x,1/2+y,-z
1/2-x,1/2-y,-z
1/2+x,1/2-y,z
loop_
_atom_site_type_symbol
_atom_site_label
_atom_site_fract_x
_atom_site_fract_y
_atom_site_fract_z
Si Si1 0.584740 0.903102 0.293822
Si Si2 0.432174 0.098042 0.154522
Si Si3 0.343231 0.904618 0.608014
Si Si4 0.000000 0.677827 0.000000
Si Si5 0.370390 0.788300 0.824965
Si Si6 0.360947 0.599034 0.503397
Si Si7 0.999604 0.147813 0.320296
O O1 0.662297 0.857786 0.323859
O O2 0.700720 0.865536 0.188130
O O3 0.355561 0.890090 0.382721
O O4 0.649449 0.000000 0.266560
O O5 0.508276 0.170315 0.169957
O O6 0.203239 0.103561 0.246159
O O7 0.489277 0.000000 0.149243
O O8 0.513512 0.118193 0.053686
O O9 0.500000 0.856521 0.500000
O O10 0.135817 0.913617 0.663459
O O11 0.426407 0.000000 0.586403
O O12 0.189988 0.736024 0.924619
O O13 0.494307 0.733555 0.723750
O O14 0.500000 0.628934 0.500000
O O15 0.401811 0.500000 0.468359
O O16 0.401361 0.659305 0.427650
#
# Coordination Sequence:
#
# PCOD8093162 Si02
#       7
#     8   8   8   4   8   8   8
#     4  10  21  38  60  88 125 171 214 254 308 376
#     4  11  23  45  72  97 126 165 214 262 318 393
#     4  10  19  36  60  86 127 173 217 261 305 364
#     4  10  25  46  71  96 128 158 206 266 341 390
#     4  11  25  43  67  93 130 163 204 269 332 384
#     4  10  19  35  59  91 131 174 220 263 306 366
#     4  11  23  37  64  95 131 170 216 258 319 369
#
# _framework density 21.868137999999998
#
# number of rings (size 3 to 8) (size 9 to 14) (size 15 to 20)
#    0.000    1.538    1.538    3.462    4.308    1.846 
#    0.000    1.538    0.000    0.000    0.000    0.000 
#    0.000    0.000    0.000    0.000    0.000    0.000 
#
# Total GULP energy -322175.342792 kJ/mol
# GULP energy per Si atom -12391.359338 kJ/mol
# Density = 2.181837 g / cm^3
# Si number density = 21.868138 Si / 1000 Ang^3
#
#
#
# Elastic Constant Matrix: (Units=GPa)
#
#
# Indices 1 2 3 4 5 6 
#
# 1 134.9500 24.3811 16.4521 -0.0022 12.8918 0.0013
# 2 24.3811 80.0328 24.8190 -0.0034 6.7764 0.0017
# 3 16.4521 24.8190 56.0913 -0.0074 13.1139 0.0026
# 4 -0.0022 -0.0034 -0.0074 25.3046 -0.0001 9.3677
# 5 12.8918 6.7764 13.1139 -0.0001 40.9318 0.0001
# 6 0.0013 0.0017 0.0026 9.3677 0.0001 33.2129
#
#
#
# Elastic Compliance Matrix: (Units=1/GPa)
#
#
# Indices 1 2 3 4 5 6 
#
# 1 0.008075 -0.001973 -0.001056 0.000000 -0.001878 0.000000
# 2 -0.001973 0.014970 -0.006065 0.000000 0.000086 0.000000
# 3 -0.001056 -0.006065 0.022170 0.000007 -0.005766 -0.000003
# 4 0.000000 0.000000 0.000007 0.044126 -0.000002 -0.012446
# 5 -0.001878 0.000086 -0.005766 -0.000002 0.026855 0.000001
# 6 0.000000 0.000000 -0.000003 -0.012446 0.000001 0.033619
#
#
# Mechanical properties :
#
#
# Convention : Reuss Voigt Hill
#
# Bulk Modulus (GPa) = 37.00300 44.70870 40.85585
# Shear Modulus (GPa) = 28.24668 33.58465 30.91567
#
# Velocity S-wave (km/s) = 3.59790 3.92315 3.76404
# Velocity P-wave (km/s) = 5.84957 6.40395 6.13303
#
# Compressibility (1/GPa) = 0.02702484
#
# Stress axis : x y z
#
# Youngs Moduli (GPa) = 123.84122 66.80224 45.10688
#
# Poissons Ratio (x) = 0.13183 0.04764
# Poissons Ratio (y) = 0.24438 0.27358
# Poissons Ratio (z) = 0.13080 0.40516
#
# Static dielectric constant tensor:
#      x y z
#    x 4.128080 0.000000 0.443450 
#    y 0.000000 3.902120 0.000000 
#    z 0.443450 0.000000 4.086150 
# 
# 
# High freq. dielectric constant tensor:
#      x y z
#    x 1.872430 0.000000 0.020380 
#    y 0.000000 1.850140 0.000000 
#    z 0.020380 0.000000 1.849910 
# 
# From -- ./inp_files/306145.got.cif
#   From: 2010.06.25/outbox.cif.g09.slc.cpg/sg12_154_cif.got.tgz:306145.got - 2010.06.28 00:19:55.
