data_PCOD8093944
_publ_section_title
;
Structure prediction by ZEFSAII (Michael W. Deem and Ramdas Pophale) SiO2 
 PCOD8093944
Probable space group: C 2/M
;
_chemical_formula_sum "Si O2"
_cell_formula_units_Z 64
_cell_length_a 19.706681
_cell_length_b 17.665239
_cell_length_c 24.757045
_cell_angle_alpha 90.000000
_cell_angle_beta 157.814935
_cell_angle_gamma 90.000000
_cell_volume 3254.341635
_symmetry_space_group_name_H-M "C 2/M"
_symmetry_group_IT_number 12
_symmetry_cell_setting 'monoclinic'
loop_
_space_group_symop_operation_xyz
x,y,z
-x,y,-z
-x,-y,-z
x,-y,z
1/2+x,1/2+y,z
1/2-x,1/2+y,-z
1/2-x,1/2-y,-z
1/2+x,1/2-y,z
loop_
_atom_site_type_symbol
_atom_site_label
_atom_site_fract_x
_atom_site_fract_y
_atom_site_fract_z
Si Si1 0.189161 0.290516 0.271109
Si Si2 0.589214 0.841123 0.618055
Si Si3 0.344128 0.695279 0.012889
Si Si4 0.936528 0.080243 0.894090
Si Si5 0.192733 0.087386 0.915225
Si Si6 0.152128 0.765185 0.503384
Si Si7 0.973604 0.414377 0.918682
Si Si8 0.986141 0.207731 0.275508
O O1 0.303097 0.233612 0.319396
O O2 0.305351 0.312084 0.410248
O O3 0.996987 0.253209 0.147872
O O4 0.169475 0.363687 0.218699
O O5 0.500000 0.879946 0.500000
O O6 0.726508 0.900108 0.744343
O O7 0.434151 0.816850 0.545782
O O8 0.440436 0.643350 0.040831
O O9 0.263147 0.641564 0.000647
O O10 0.191269 0.743500 0.870138
O O11 0.955231 0.000000 0.876120
O O12 0.000000 0.067078 0.000000
O O13 0.020529 0.125806 0.758996
O O14 0.154942 0.000000 0.904774
O O15 0.344741 0.090590 0.981764
O O16 0.342580 0.755101 0.615599
O O17 0.011275 0.806354 0.358781
O O18 0.900050 0.500000 0.866320
O O19 0.000000 0.384921 0.000000
#
# Coordination Sequence:
#
# PCOD8093944 Si02
#       8
#     8   8   8   8   8   8   8   8
#     4  10  19  36  61  84 114 147 199 247 294 355
#     4   9  20  35  54  79 112 152 192 229 284 353
#     4  11  20  37  63  89 112 154 203 250 304 354
#     4  10  21  36  56  87 120 150 192 246 301 359
#     4  11  22  37  58  88 121 154 195 248 308 363
#     4  10  21  36  54  87 117 151 200 242 291 358
#     4  10  22  37  57  89 120 151 197 254 309 355
#     4  11  21  35  60  84 118 154 197 250 297 353
#
# _framework density 19.666035000000001
#
# number of rings (size 3 to 8) (size 9 to 14) (size 15 to 20)
#    0.000    1.750    2.500    2.250    1.750    2.250 
#    0.000    1.250    0.000    9.375    0.000    0.000 
#    0.000    0.000    0.000    0.000    0.000    0.000 
#
# Total GULP energy -396437.668325 kJ/mol
# GULP energy per Si atom -12388.677135 kJ/mol
# Density = 1.962127 g / cm^3
# Si number density = 19.666035 Si / 1000 Ang^3
#
#
#
# Elastic Constant Matrix: (Units=GPa)
#
#
# Indices 1 2 3 4 5 6 
#
# 1 81.0182 30.2700 34.5310 0.0105 -21.0405 0.0061
# 2 30.2700 92.4704 47.8699 0.0077 -24.4791 0.0139
# 3 34.5310 47.8699 120.9648 0.0585 -26.4580 0.0097
# 4 0.0105 0.0077 0.0585 46.7700 0.0114 -0.9004
# 5 -21.0405 -24.4791 -26.4580 0.0114 41.3700 0.0036
# 6 0.0061 0.0139 0.0097 -0.9004 0.0036 23.0710
#
#
#
# Elastic Compliance Matrix: (Units=1/GPa)
#
#
# Indices 1 2 3 4 5 6 
#
# 1 0.015583 -0.002588 -0.002355 -0.000001 0.004888 -0.000002
# 2 -0.002588 0.015133 -0.004161 0.000002 0.004977 -0.000007
# 3 -0.002355 -0.004161 0.011377 -0.000014 0.003616 -0.000003
# 4 -0.000001 0.000002 -0.000014 0.021397 -0.000014 0.000835
# 5 0.004888 0.004977 0.003616 -0.000014 0.031915 -0.000011
# 6 -0.000002 -0.000007 -0.000003 0.000835 -0.000011 0.043377
#
#
# Mechanical properties :
#
#
# Convention : Reuss Voigt Hill
#
# Bulk Modulus (GPa) = 41.86881 57.75502 49.81191
# Shear Modulus (GPa) = 30.31165 34.36105 32.33635
#
# Velocity S-wave (km/s) = 3.93022 4.18452 4.05936
# Velocity P-wave (km/s) = 6.47547 7.26489 6.88151
#
# Compressibility (1/GPa) = 0.02388413
#
# Stress axis : x y z
#
# Youngs Moduli (GPa) = 64.17258 66.07990 87.89761
#
# Poissons Ratio (x) = 0.17101 0.20701
# Poissons Ratio (y) = 0.16607 0.36578
# Poissons Ratio (z) = 0.15114 0.27499
#
# Static dielectric constant tensor:
#      x y z
#    x 3.677950 -0.000010 -0.237350 
#    y -0.000010 3.691900 -0.000110 
#    z -0.237350 -0.000110 3.758630 
# 
# 
# High freq. dielectric constant tensor:
#      x y z
#    x 1.777650 0.000000 -0.004850 
#    y 0.000000 1.743310 -0.000010 
#    z -0.004850 -0.000010 1.769380 
# 
# From -- ./inp_files/366820.got.cif
#   From: 2010.06.25/outbox.cif.g09.slc.cpg/sg12_184_cif.got.tgz:366820.got - 2010.06.28 00:19:55.
