data_PCOD8093961
_publ_section_title
;
Structure prediction by ZEFSAII (Michael W. Deem and Ramdas Pophale) SiO2 
 PCOD8093961
Probable space group: C 2/M
;
_chemical_formula_sum "Si O2"
_cell_formula_units_Z 56
_cell_length_a 18.493541
_cell_length_b 9.032896
_cell_length_c 26.757554
_cell_angle_alpha 90.000000
_cell_angle_beta 41.113132
_cell_angle_gamma 90.000000
_cell_volume 2939.144366
_symmetry_space_group_name_H-M "C 2/M"
_symmetry_group_IT_number 12
_symmetry_cell_setting 'monoclinic'
loop_
_space_group_symop_operation_xyz
x,y,z
-x,y,-z
-x,-y,-z
x,-y,z
1/2+x,1/2+y,z
1/2-x,1/2+y,-z
1/2-x,1/2-y,-z
1/2+x,1/2-y,z
loop_
_atom_site_type_symbol
_atom_site_label
_atom_site_fract_x
_atom_site_fract_y
_atom_site_fract_z
Si Si1 0.927680 0.328913 0.708599
Si Si2 0.693118 0.335170 0.672630
Si Si3 0.264034 0.174477 0.245280
Si Si4 0.059739 0.161924 0.203330
Si Si5 0.135200 0.826581 0.058577
Si Si6 0.975641 0.330888 0.070866
Si Si7 0.313610 0.826420 0.422348
O O1 0.898516 0.500000 0.717058
O O2 0.856170 0.235777 0.706464
O O3 0.889832 0.276881 0.783472
O O4 0.057005 0.296984 0.635088
O O5 0.748275 0.500000 0.647216
O O6 0.703641 0.250302 0.719410
O O7 0.568221 0.357336 0.722559
O O8 0.737664 0.239453 0.602603
O O9 0.353259 0.211804 0.154901
O O10 0.255593 0.000000 0.258559
O O11 0.076379 0.225337 0.139665
O O12 0.116981 0.000000 0.180725
O O13 0.063669 0.775185 0.049706
O O14 0.150930 0.000000 0.046784
O O15 0.250000 0.750000 0.000000
O O16 0.999420 0.500000 0.073486
O O17 0.000000 0.306060 0.000000
O O18 0.250000 0.750000 0.500000
O O19 0.289227 0.000000 0.434173
#
# Coordination Sequence:
#
# PCOD8093961 Si02
#       7
#     8   8   8   8   8   8   8
#     4  10  22  37  58  87 118 150 191 235 283 341
#     4  10  19  36  61  86 114 151 193 236 285 343
#     4  11  22  37  59  85 118 156 197 243 293 347
#     4   9  19  36  56  78 108 146 190 236 286 341
#     4  11  23  38  56  81 111 147 193 244 295 349
#     4  10  23  41  58  80 114 156 198 246 300 349
#     4  10  21  39  63  92 122 154 190 233 286 343
#
# _framework density 19.053165
#
# number of rings (size 3 to 8) (size 9 to 14) (size 15 to 20)
#    0.000    1.857    1.429    2.143    2.000    4.286 
#    0.000    0.714    0.000    4.286    0.000    0.000 
#    0.000    0.000    0.000    0.000    0.000    0.000 
#
# Total GULP energy -347047.489527 kJ/mol
# GULP energy per Si atom -12394.553197 kJ/mol
# Density = 1.900980 g / cm^3
# Si number density = 19.053165 Si / 1000 Ang^3
#
#
#
# Elastic Constant Matrix: (Units=GPa)
#
#
# Indices 1 2 3 4 5 6 
#
# 1 94.9373 67.5768 45.0434 0.0000 12.2932 -0.0005
# 2 67.5768 130.0331 62.1625 0.0000 10.3166 -0.0014
# 3 45.0434 62.1625 95.8165 0.0000 25.9896 0.0000
# 4 0.0000 0.0000 0.0000 28.9303 0.0000 2.8027
# 5 12.2932 10.3166 25.9896 0.0000 32.2331 0.0000
# 6 -0.0005 -0.0014 0.0000 2.8027 0.0000 41.1665
#
#
#
# Elastic Compliance Matrix: (Units=1/GPa)
#
#
# Indices 1 2 3 4 5 6 
#
# 1 0.017535 -0.007646 -0.002729 0.000000 -0.002040 0.000000
# 2 -0.007646 0.014697 -0.006983 0.000000 0.003842 0.000000
# 3 -0.002729 -0.006983 0.019661 0.000000 -0.012577 0.000000
# 4 0.000000 0.000000 0.000000 0.034795 0.000000 -0.002369
# 5 -0.002040 0.003842 -0.012577 0.000000 0.040713 0.000000
# 6 0.000000 0.000000 0.000000 -0.002369 0.000000 0.024453
#
#
# Mechanical properties :
#
#
# Convention : Reuss Voigt Hill
#
# Bulk Modulus (GPa) = 58.21792 74.48359 66.35076
# Shear Modulus (GPa) = 26.00140 30.19957 28.10049
#
# Velocity S-wave (km/s) = 3.69816 3.98554 3.84454
# Velocity P-wave (km/s) = 6.98978 7.76896 7.38965
#
# Compressibility (1/GPa) = 0.01717684
#
# Stress axis : x y z
#
# Youngs Moduli (GPa) = 57.02925 68.03997 50.86095
#
# Poissons Ratio (x) = 0.52024 0.13882
# Poissons Ratio (y) = 0.43605 0.35516
# Poissons Ratio (z) = 0.15566 0.47511
#
# Static dielectric constant tensor:
#      x y z
#    x 3.396000 0.000000 0.149790 
#    y 0.000000 3.806190 0.000000 
#    z 0.149790 0.000000 3.452210 
# 
# 
# High freq. dielectric constant tensor:
#      x y z
#    x 1.739060 0.000000 0.012890 
#    y 0.000000 1.754580 0.000000 
#    z 0.012890 0.000000 1.730760 
# 
# From -- ./inp_files/362927.got.cif
#   From: 2010.06.25/outbox.cif.g09.slc.cpg/sg12_182_cif.got.tgz:362927.got - 2010.06.28 00:19:55.
