data_PCOD8093082
_publ_section_title
;
Structure prediction by ZEFSAII (Michael W. Deem and Ramdas Pophale) SiO2 
 PCOD8093082
Probable space group: C 2/M
;
_chemical_formula_sum "Si O2"
_cell_formula_units_Z 64
_cell_length_a 33.409828
_cell_length_b 9.405525
_cell_length_c 26.361222
_cell_angle_alpha 90.000000
_cell_angle_beta 24.377926
_cell_angle_gamma 90.000000
_cell_volume 3419.114407
_symmetry_space_group_name_H-M "C 2/M"
_symmetry_group_IT_number 12
_symmetry_cell_setting 'monoclinic'
loop_
_space_group_symop_operation_xyz
x,y,z
-x,y,-z
-x,-y,-z
x,-y,z
1/2+x,1/2+y,z
1/2-x,1/2+y,-z
1/2-x,1/2-y,-z
1/2+x,1/2-y,z
loop_
_atom_site_type_symbol
_atom_site_label
_atom_site_fract_x
_atom_site_fract_y
_atom_site_fract_z
Si Si1 0.064286 0.335349 0.592401
Si Si2 0.194118 0.838078 0.996100
Si Si3 0.561363 0.668554 0.053079
Si Si4 0.123462 0.835064 0.188845
Si Si5 0.662166 0.648159 0.556732
Si Si6 0.850337 0.217644 0.316665
Si Si7 0.103035 0.333708 0.907022
Si Si8 0.738181 0.653567 0.683807
O O1 0.036684 0.500000 0.630835
O O2 0.102481 0.279400 0.602878
O O3 0.147514 0.311411 0.454031
O O4 0.971148 0.247035 0.682025
O O5 0.126252 0.804568 0.027148
O O6 0.131976 0.812079 0.118617
O O7 0.232807 0.000000 0.950141
O O8 0.284300 0.731584 0.889236
O O9 0.542170 0.500000 0.066435
O O10 0.461310 0.756382 0.175438
O O11 0.614675 0.739023 0.943778
O O12 0.116687 0.000000 0.211529
O O13 0.622097 0.500000 0.579258
O O14 0.777327 0.650884 0.410522
O O15 0.648549 0.630326 0.632499
O O16 0.807419 0.130017 0.319191
O O17 0.118036 0.500000 0.901591
O O18 0.187531 0.281884 0.771825
O O19 0.000000 0.304254 0.000000
O O20 0.725570 0.500000 0.726228
#
# Coordination Sequence:
#
# PCOD8093082 Si02
#       8
#     8   8   8   8   8   8   8   8
#     4  10  21  35  54  80 109 142 183 226 268 324
#     4   9  20  36  56  84 115 146 185 227 266 320
#     4  11  21  36  58  78 104 146 188 225 268 324
#     4  10  19  35  59  85 115 149 181 219 272 327
#     4  10  20  33  49  74 109 146 182 221 265 317
#     4  10  20  31  50  76 106 141 182 222 260 315
#     4  11  24  38  53  78 110 140 180 235 285 324
#     4  10  20  36  56  76 101 141 187 224 267 325
#
# _framework density 18.718298000000001
#
# number of rings (size 3 to 8) (size 9 to 14) (size 15 to 20)
#    0.000    1.875    1.250    3.000    0.000    9.000 
#    0.000    1.250    0.000    0.750    0.000    5.250 
#    0.000    0.000    0.000    0.000    0.000    0.000 
#
# Total GULP energy -396612.481794 kJ/mol
# GULP energy per Si atom -12394.140056 kJ/mol
# Density = 1.867569 g / cm^3
# Si number density = 18.718298 Si / 1000 Ang^3
#
#
#
# Elastic Constant Matrix: (Units=GPa)
#
#
# Indices 1 2 3 4 5 6 
#
# 1 46.4372 22.0504 26.3400 -0.0004 -5.1019 -0.0019
# 2 22.0504 103.5600 51.6768 -0.0164 -9.1005 0.0003
# 3 26.3400 51.6768 109.6024 -0.0034 -9.8212 -0.0022
# 4 -0.0004 -0.0164 -0.0034 -15.5623 -0.0001 -1.4743
# 5 -5.1019 -9.1005 -9.8212 -0.0001 27.2319 0.0007
# 6 -0.0019 0.0003 -0.0022 -1.4743 0.0007 17.4084
#
#
#
# Elastic Compliance Matrix: (Units=1/GPa)
#
#
# Indices 1 2 3 4 5 6 
#
# 1 0.025806 -0.003016 -0.004585 0.000003 0.002173 0.000003
# 2 -0.003016 0.013102 -0.005282 -0.000012 0.001909 -0.000002
# 3 -0.004585 -0.005282 0.012898 0.000003 0.002028 0.000001
# 4 0.000003 -0.000012 0.000003 -0.063746 -0.000003 -0.005399
# 5 0.002173 0.001909 0.002028 -0.000003 0.038498 -0.000001
# 6 0.000003 -0.000002 0.000001 -0.005399 -0.000001 0.056986
#
#
# Mechanical properties :
#
#
# Convention : Reuss Voigt Hill
#
# Bulk Modulus (GPa) = 38.40178 51.08155 44.74166
# Shear Modulus (GPa) = 42.37721 16.45110 29.41416
#
# Velocity S-wave (km/s) = 4.76326 2.96780 3.96840
# Velocity P-wave (km/s) = 7.12823 6.25241 6.70464
#
# Compressibility (1/GPa) = 0.02604046
#
# Stress axis : x y z
#
# Youngs Moduli (GPa) = 38.75067 76.32668 77.53325
#
# Poissons Ratio (x) = 0.23018 0.35550
# Poissons Ratio (y) = 0.11686 0.40949
# Poissons Ratio (z) = 0.17768 0.40312
#
# Static dielectric constant tensor:
#      x y z
#    x 3.171450 -0.000010 -0.030040 
#    y -0.000010 3.391520 0.000030 
#    z -0.030040 0.000030 3.500670 
# 
# 
# High freq. dielectric constant tensor:
#      x y z
#    x 1.696510 0.000000 -0.005440 
#    y 0.000000 1.731010 0.000000 
#    z -0.005440 0.000000 1.727710 
# 
# From -- ./inp_files/353298.got.cif
#   From: 2010.06.25/outbox.cif.g09.slc.cpg/sg12_177_cif.got.tgz:353298.got - 2010.06.28 00:19:55.
