data_PCOD8093533
_publ_section_title
;
Structure prediction by ZEFSAII (Michael W. Deem and Ramdas Pophale) SiO2 
 PCOD8093533
Probable space group: C 2/M
;
_chemical_formula_sum "Si O2"
_cell_formula_units_Z 56
_cell_length_a 21.360760
_cell_length_b 16.935513
_cell_length_c 9.097857
_cell_angle_alpha 90.000000
_cell_angle_beta 113.394744
_cell_angle_gamma 90.000000
_cell_volume 3020.633145
_symmetry_space_group_name_H-M "C 2/M"
_symmetry_group_IT_number 12
_symmetry_cell_setting 'monoclinic'
loop_
_space_group_symop_operation_xyz
x,y,z
-x,y,-z
-x,-y,-z
x,-y,z
1/2+x,1/2+y,z
1/2-x,1/2+y,-z
1/2-x,1/2-y,-z
1/2+x,1/2-y,z
loop_
_atom_site_type_symbol
_atom_site_label
_atom_site_fract_x
_atom_site_fract_y
_atom_site_fract_z
Si Si1 0.961650 0.292770 0.822846
Si Si2 0.053334 0.648447 0.662629
Si Si3 0.244684 0.179556 0.306061
Si Si4 0.174359 0.657886 0.185950
Si Si5 0.188535 0.410750 0.883027
Si Si6 0.619128 0.733016 0.515891
Si Si7 0.798195 0.909978 0.458266
O O1 0.902886 0.352432 0.826803
O O2 0.927655 0.231963 0.674836
O O3 0.019260 0.341643 0.789981
O O4 0.000000 0.252496 0.000000
O O5 0.116136 0.588487 0.731638
O O6 0.077873 0.733472 0.617607
O O7 0.000000 0.609403 0.500000
O O8 0.194517 0.251246 0.226008
O O9 0.256088 0.132701 0.165804
O O10 0.313980 0.211798 0.447921
O O11 0.207050 0.119432 0.379520
O O12 0.224278 0.597360 0.314623
O O13 0.179067 0.639923 0.019230
O O14 0.212105 0.500000 0.937245
O O15 0.645239 0.644012 0.572926
O O16 0.823025 0.000000 0.475879
#
# Coordination Sequence:
#
# PCOD8093533 Si02
#       7
#     8   8   8   8   8   8   8
#     4  11  18  33  58  81 101 140 192 216 255 308
#     4   9  20  34  54  74 105 147 185 214 255 315
#     4  10  19  36  57  77 105 145 183 222 261 320
#     4  11  20  36  55  81 110 138 183 220 264 325
#     4  11  22  35  50  80 115 139 172 225 276 318
#     4   9  18  36  55  79 106 136 187 226 254 320
#     4  11  20  34  58  85 110 138 172 228 283 316
#
# _framework density 18.539159000000001
#
# number of rings (size 3 to 8) (size 9 to 14) (size 15 to 20)
#    0.000    1.714    4.286    2.143    0.000    0.286 
#    0.000    2.143    0.000    4.286    0.000    0.000 
#    0.000    0.000    0.000    0.000    0.000    0.000 
#
# Total GULP energy -347087.644472 kJ/mol
# GULP energy per Si atom -12395.987303 kJ/mol
# Density = 1.849696 g / cm^3
# Si number density = 18.539159 Si / 1000 Ang^3
#
#
#
# Elastic Constant Matrix: (Units=GPa)
#
#
# Indices 1 2 3 4 5 6 
#
# 1 64.1616 8.4919 18.5027 0.0000 -14.0765 0.0000
# 2 8.4919 77.0580 19.0353 0.0000 -1.7049 0.0000
# 3 18.5027 19.0353 89.5735 0.0000 -8.4612 0.0000
# 4 0.0000 0.0000 0.0000 18.8631 0.0000 -2.5415
# 5 -14.0765 -1.7049 -8.4612 0.0000 27.2136 0.0000
# 6 0.0000 0.0000 0.0000 -2.5415 0.0000 15.9141
#
#
#
# Elastic Compliance Matrix: (Units=1/GPa)
#
#
# Indices 1 2 3 4 5 6 
#
# 1 0.018418 -0.001161 -0.002745 0.000000 0.008601 0.000000
# 2 -0.001161 0.013770 -0.002742 0.000000 -0.000591 0.000000
# 3 -0.002745 -0.002742 0.012531 0.000000 0.002304 0.000000
# 4 0.000000 0.000000 0.000000 0.054179 0.000000 0.008652
# 5 0.008601 -0.000591 0.002304 0.000000 0.041875 0.000000
# 6 0.000000 0.000000 0.000000 0.008652 0.000000 0.064219
#
#
# Mechanical properties :
#
#
# Convention : Reuss Voigt Hill
#
# Bulk Modulus (GPa) = 31.82516 35.87255 33.84885
# Shear Modulus (GPa) = 21.85665 24.71569 23.28617
#
# Velocity S-wave (km/s) = 3.43730 3.65521 3.54793
# Velocity P-wave (km/s) = 5.74083 6.09965 5.92296
#
# Compressibility (1/GPa) = 0.03142169
#
# Stress axis : x y z
#
# Youngs Moduli (GPa) = 54.29502 72.62423 79.79898
#
# Poissons Ratio (x) = 0.08434 0.21907
# Poissons Ratio (y) = 0.06305 0.21881
# Poissons Ratio (z) = 0.14906 0.19914
#
# Static dielectric constant tensor:
#      x y z
#    x 3.601680 0.000000 0.003110 
#    y 0.000000 3.022560 0.000000 
#    z 0.003110 0.000000 3.548640 
# 
# 
# High freq. dielectric constant tensor:
#      x y z
#    x 1.723070 0.000000 -0.007610 
#    y 0.000000 1.675450 0.000000 
#    z -0.007610 0.000000 1.729410 
# 
# From -- ./inp_files/97846.got.cif
#   From: 2010.06.25/outbox.cif.g09.slc.cpg/sg12_49_cif.got.tgz:97846.got - 2010.06.28 00:19:55.
