data_PCOD8093265
_publ_section_title
;
Structure prediction by ZEFSAII (Michael W. Deem and Ramdas Pophale) SiO2 
 PCOD8093265
Probable space group: C 2/M
;
_chemical_formula_sum "Si O2"
_cell_formula_units_Z 36
_cell_length_a 10.395781
_cell_length_b 16.573702
_cell_length_c 17.486643
_cell_angle_alpha 90.000000
_cell_angle_beta 145.766016
_cell_angle_gamma 90.000000
_cell_volume 1694.972400
_symmetry_space_group_name_H-M "C 2/M"
_symmetry_group_IT_number 12
_symmetry_cell_setting 'monoclinic'
loop_
_space_group_symop_operation_xyz
x,y,z
-x,y,-z
-x,-y,-z
x,-y,z
1/2+x,1/2+y,z
1/2-x,1/2+y,-z
1/2-x,1/2-y,-z
1/2+x,1/2-y,z
loop_
_atom_site_type_symbol
_atom_site_label
_atom_site_fract_x
_atom_site_fract_y
_atom_site_fract_z
Si Si1 0.742020 0.140106 0.145056
Si Si2 0.484010 0.653368 0.578330
Si Si3 0.500000 0.295149 0.000000
Si Si4 0.033319 0.092406 0.147735
Si Si5 0.993775 0.655681 0.583187
O O1 0.820465 0.115286 0.269519
O O2 0.942519 0.113737 0.187008
O O3 0.500000 0.098942 0.000000
O O4 0.714029 0.237741 0.128489
O O5 0.500000 0.618606 0.500000
O O6 0.238204 0.628685 0.489906
O O7 0.522725 0.748588 0.597902
O O8 0.591400 0.350989 0.975796
O O9 0.301455 0.111504 0.272125
O O10 0.983663 0.000000 0.103133
O O11 0.000000 0.623022 0.500000
#
# Coordination Sequence:
#
# PCOD8093265 Si02
#       5
#     8   8   4   8   8
#     4  10  22  40  66  90 127 172 223 263 315 389
#     4  10  20  35  64  97 124 163 220 270 311 377
#     4  10  23  40  65  90 124 166 228 266 315 382
#     4  12  24  40  63  96 132 167 212 272 337 385
#     4  10  19  35  60  89 125 162 210 262 320 378
#
# _framework density 21.239284999999999
#
# number of rings (size 3 to 8) (size 9 to 14) (size 15 to 20)
#    0.667    0.889    4.444    1.000    0.000    2.667 
#    0.000    0.000    0.000    2.667    0.000    0.000 
#    0.000    0.000    0.000    0.000    0.000    0.000 
#
# Total GULP energy -223130.201597 kJ/mol
# GULP energy per Si atom -12396.122311 kJ/mol
# Density = 2.119094 g / cm^3
# Si number density = 21.239285 Si / 1000 Ang^3
#
#
#
# Elastic Constant Matrix: (Units=GPa)
#
#
# Indices 1 2 3 4 5 6 
#
# 1 133.8672 18.5306 62.8688 -0.0001 -9.8443 0.0003
# 2 18.5306 69.7740 5.8455 0.0004 2.9845 0.0006
# 3 62.8688 5.8455 139.7426 0.0007 -9.6341 -0.0003
# 4 -0.0001 0.0004 0.0007 10.9933 0.0002 -1.0949
# 5 -9.8443 2.9845 -9.6341 0.0002 40.3246 -0.0003
# 6 0.0003 0.0006 -0.0003 -1.0949 -0.0003 2.1145
#
#
#
# Elastic Compliance Matrix: (Units=1/GPa)
#
#
# Indices 1 2 3 4 5 6 
#
# 1 0.009906 -0.002342 -0.004250 0.000000 0.001576 -0.000001
# 2 -0.002342 0.014996 0.000316 -0.000001 -0.001606 -0.000004
# 3 -0.004250 0.000316 0.009132 0.000000 0.001121 0.000002
# 4 0.000000 -0.000001 0.000000 0.095911 0.000000 0.049665
# 5 0.001576 -0.001606 0.001121 0.000000 0.025570 0.000004
# 6 -0.000001 -0.000004 0.000002 0.049665 0.000004 0.498642
#
#
# Mechanical properties :
#
#
# Convention : Reuss Voigt Hill
#
# Bulk Modulus (GPa) = 46.55179 57.54152 52.04665
# Shear Modulus (GPa) = 7.41980 27.76240 17.59110
#
# Velocity S-wave (km/s) = 1.87110 3.61934 2.88103
# Velocity P-wave (km/s) = 5.16075 6.67960 5.96868
#
# Compressibility (1/GPa) = 0.02148145
#
# Stress axis : x y z
#
# Youngs Moduli (GPa) = 100.94675 66.68312 109.50339
#
# Poissons Ratio (x) = 0.15619 0.46540
# Poissons Ratio (y) = 0.23644 -0.03457
# Poissons Ratio (z) = 0.42903 -0.02105
#
# Static dielectric constant tensor:
#      x y z
#    x 3.766770 0.000000 -0.171260 
#    y 0.000000 3.403540 0.000000 
#    z -0.171260 0.000000 3.886070 
# 
# 
# High freq. dielectric constant tensor:
#      x y z
#    x 1.829270 0.000000 -0.009650 
#    y 0.000000 1.794490 0.000000 
#    z -0.009650 0.000000 1.839970 
# 
# From -- ./inp_files/197609.got.cif
#   From: 2010.06.25/outbox.cif.g09.slc.cpg/sg12_99_cif.got.tgz:197609.got - 2010.06.28 00:19:55.
