data_PCOD8093018
_publ_section_title
;
Structure prediction by ZEFSAII (Michael W. Deem and Ramdas Pophale) SiO2 
 PCOD8093018
Probable space group: C 2/M
;
_chemical_formula_sum "Si O2"
_cell_formula_units_Z 32
_cell_length_a 13.407790
_cell_length_b 14.793668
_cell_length_c 10.254968
_cell_angle_alpha 90.000000
_cell_angle_beta 115.169780
_cell_angle_gamma 90.000000
_cell_volume 1840.944385
_symmetry_space_group_name_H-M "C 2/M"
_symmetry_group_IT_number 12
_symmetry_cell_setting 'monoclinic'
loop_
_space_group_symop_operation_xyz
x,y,z
-x,y,-z
-x,-y,-z
x,-y,z
1/2+x,1/2+y,z
1/2-x,1/2+y,-z
1/2-x,1/2-y,-z
1/2+x,1/2-y,z
loop_
_atom_site_type_symbol
_atom_site_label
_atom_site_fract_x
_atom_site_fract_y
_atom_site_fract_z
Si Si1 0.984637 0.106053 0.338639
Si Si2 0.896843 0.399426 0.355295
Si Si3 0.196359 0.241342 0.830433
Si Si4 0.296156 0.309158 0.642039
O O1 0.082582 0.153398 0.314069
O O2 0.000000 0.125437 0.500000
O O3 0.869898 0.147754 0.223770
O O4 0.982209 0.000000 0.306605
O O5 0.908969 0.500000 0.303597
O O6 0.888883 0.325820 0.234650
O O7 0.787361 0.393777 0.384993
O O8 0.000000 0.372106 0.500000
O O9 0.291738 0.248197 0.772225
O O10 0.250000 0.250000 0.000000
O O11 0.250000 0.250000 0.500000
#
# Coordination Sequence:
#
# PCOD8093018 Si02
#       4
#     8   8   8   8
#     4  11  21  37  60  89 116 151 198 244 286 342
#     4   9  18  34  58  82 109 148 196 233 277 345
#     4  10  22  37  54  83 119 148 185 241 295 339
#     4  10  19  35  59  82 116 150 193 231 287 345
#
# _framework density 17.382383000000001
#
# number of rings (size 3 to 8) (size 9 to 14) (size 15 to 20)
#    1.500    0.500    2.500    3.000    0.000    2.000 
#    0.000    1.250    0.000    0.000    0.000    7.000 
#    0.000    0.000    0.000    0.000    0.000    0.000 
#
# Total GULP energy -198246.130143 kJ/mol
# GULP energy per Si atom -12390.383134 kJ/mol
# Density = 1.734282 g / cm^3
# Si number density = 17.382383 Si / 1000 Ang^3
#
#
#
# Elastic Constant Matrix: (Units=GPa)
#
#
# Indices 1 2 3 4 5 6 
#
# 1 115.9584 40.7296 42.9945 0.0000 -2.7565 0.0000
# 2 40.7296 107.4817 61.3399 0.0000 5.3106 0.0000
# 3 42.9945 61.3399 142.4889 0.0000 -5.9381 0.0000
# 4 0.0000 0.0000 0.0000 16.6975 0.0000 6.5725
# 5 -2.7565 5.3106 -5.9381 0.0000 24.5177 0.0000
# 6 0.0000 0.0000 0.0000 6.5725 0.0000 27.7964
#
#
#
# Elastic Compliance Matrix: (Units=1/GPa)
#
#
# Indices 1 2 3 4 5 6 
#
# 1 0.010365 -0.002974 -0.001790 0.000000 0.001376 0.000000
# 2 -0.002974 0.013588 -0.005141 0.000000 -0.004523 0.000000
# 3 -0.001790 -0.005141 0.009909 0.000000 0.003312 0.000000
# 4 0.000000 0.000000 0.000000 0.066035 0.000000 -0.015614
# 5 0.001376 -0.004523 0.003312 0.000000 0.042723 0.000000
# 6 0.000000 0.000000 0.000000 -0.015614 0.000000 0.039668
#
#
# Mechanical properties :
#
#
# Convention : Reuss Voigt Hill
#
# Bulk Modulus (GPa) = 71.15959 72.89522 72.02741
# Shear Modulus (GPa) = 24.18004 28.52665 26.35334
#
# Velocity S-wave (km/s) = 3.73375 4.05547 3.89793
# Velocity P-wave (km/s) = 7.72104 7.99728 7.86037
#
# Compressibility (1/GPa) = 0.01405292
#
# Stress axis : x y z
#
# Youngs Moduli (GPa) = 96.48066 73.59330 100.91714
#
# Poissons Ratio (x) = 0.21889 0.18061
# Poissons Ratio (y) = 0.28696 0.51877
# Poissons Ratio (z) = 0.17267 0.37831
#
# Static dielectric constant tensor:
#      x y z
#    x 3.341590 0.000000 0.044410 
#    y 0.000000 3.272160 0.000000 
#    z 0.044410 0.000000 2.954710 
# 
# 
# High freq. dielectric constant tensor:
#      x y z
#    x 1.667060 0.000000 0.004760 
#    y 0.000000 1.675470 0.000000 
#    z 0.004760 0.000000 1.651480 
# 
# From -- ./inp_files/141518.got.cif
#   From: 2010.06.25/outbox.cif.g09.slc.cpg/sg12_71_cif.got.tgz:141518.got - 2010.06.28 00:19:55.
