data_PCOD8093822
_publ_section_title
;
Structure prediction by ZEFSAII (Michael W. Deem and Ramdas Pophale) SiO2 
 PCOD8093822
Probable space group: C 2/M
;
_chemical_formula_sum "Si O2"
_cell_formula_units_Z 64
_cell_length_a 20.443191
_cell_length_b 9.068566
_cell_length_c 22.188765
_cell_angle_alpha 90.000000
_cell_angle_beta 124.084377
_cell_angle_gamma 90.000000
_cell_volume 3406.924973
_symmetry_space_group_name_H-M "C 2/M"
_symmetry_group_IT_number 12
_symmetry_cell_setting 'monoclinic'
loop_
_space_group_symop_operation_xyz
x,y,z
-x,y,-z
-x,-y,-z
x,-y,z
1/2+x,1/2+y,z
1/2-x,1/2+y,-z
1/2-x,1/2-y,-z
1/2+x,1/2-y,z
loop_
_atom_site_type_symbol
_atom_site_label
_atom_site_fract_x
_atom_site_fract_y
_atom_site_fract_z
Si Si1 0.683441 0.329153 0.587627
Si Si2 0.219486 0.828965 0.042812
Si Si3 0.576175 0.824641 0.435542
Si Si4 0.638683 0.174554 0.339449
Si Si5 0.412121 0.329507 0.343017
Si Si6 0.637422 0.170496 0.801584
Si Si7 0.041679 0.174248 0.961176
Si Si8 0.503106 0.826930 0.181904
O O1 0.676851 0.500000 0.564449
O O2 0.632415 0.229693 0.517255
O O3 0.773289 0.271022 0.630154
O O4 0.653946 0.306408 0.640238
O O5 0.275164 0.795833 0.128705
O O6 0.220138 0.000000 0.027609
O O7 0.250000 0.750000 0.000000
O O8 0.132072 0.772486 0.012783
O O9 0.610969 0.765774 0.390187
O O10 0.489578 0.760014 0.401546
O O11 0.570543 0.000000 0.434233
O O12 0.578752 0.233848 0.257704
O O13 0.634492 0.000000 0.338172
O O14 0.435325 0.500000 0.348185
O O15 0.375311 0.272365 0.262265
O O16 0.575377 0.212677 0.821401
O O17 0.626302 0.000000 0.776888
O O18 0.997830 0.245768 0.882090
O O19 0.034823 0.000000 0.950702
O O20 0.000000 0.231100 0.000000
O O21 0.509086 0.000000 0.172946
#
# Coordination Sequence:
#
# PCOD8093822 Si02
#       8
#     8   8   8   8   8   8   8   8
#     4  10  22  39  56  80 115 148 182 231 281 329
#     4  10  20  35  57  82 110 146 185 229 275 324
#     4  11  21  37  61  85 110 147 189 230 276 329
#     4   9  19  37  59  81 110 146 185 230 278 326
#     4  11  23  37  56  83 114 148 185 227 280 335
#     4  10  20  36  58  83 111 144 187 236 279 323
#     4  10  22  38  55  82 119 151 180 223 280 334
#     4  10  19  36  60  83 109 145 187 230 275 326
#
# _framework density 18.785269
#
# number of rings (size 3 to 8) (size 9 to 14) (size 15 to 20)
#    0.000    1.875    2.500    1.500    0.000    4.750 
#    0.000    1.250    0.000    0.000    0.000    0.000 
#    0.000    0.000    0.000    0.000    0.000    0.000 
#
# Total GULP energy -396913.203740 kJ/mol
# GULP energy per Si atom -12403.537617 kJ/mol
# Density = 1.874251 g / cm^3
# Si number density = 18.785269 Si / 1000 Ang^3
#
#
#
# Elastic Constant Matrix: (Units=GPa)
#
#
# Indices 1 2 3 4 5 6 
#
# 1 120.0206 40.0572 50.8977 0.0000 -2.5987 0.0000
# 2 40.0572 54.7418 42.7122 0.0000 -5.0559 0.0000
# 3 50.8977 42.7122 124.5236 0.0000 -6.2522 0.0000
# 4 0.0000 0.0000 0.0000 35.7417 0.0000 -6.0268
# 5 -2.5987 -5.0559 -6.2522 0.0000 34.7076 0.0000
# 6 0.0000 0.0000 0.0000 -6.0268 0.0000 21.9223
#
#
#
# Elastic Compliance Matrix: (Units=1/GPa)
#
#
# Indices 1 2 3 4 5 6 
#
# 1 0.011574 -0.006563 -0.002507 0.000000 -0.000541 0.000000
# 2 -0.006563 0.028819 -0.007080 0.000000 0.002431 0.000000
# 3 -0.002507 -0.007080 0.011527 0.000000 0.000857 0.000000
# 4 0.000000 0.000000 0.000000 0.029339 0.000000 0.008066
# 5 -0.000541 0.002431 0.000857 0.000000 0.029280 0.000000
# 6 0.000000 0.000000 0.000000 0.008066 0.000000 0.047833
#
#
# Mechanical properties :
#
#
# Convention : Reuss Voigt Hill
#
# Bulk Modulus (GPa) = 50.97027 62.95779 56.96403
# Shear Modulus (GPa) = 25.35348 29.51560 27.43454
#
# Velocity S-wave (km/s) = 3.67774 3.96815 3.82570
# Velocity P-wave (km/s) = 6.72506 7.38797 7.06429
#
# Compressibility (1/GPa) = 0.01961928
#
# Stress axis : x y z
#
# Youngs Moduli (GPa) = 86.40326 34.69911 86.75440
#
# Poissons Ratio (x) = 0.22774 0.21745
# Poissons Ratio (y) = 0.56708 0.61426
# Poissons Ratio (z) = 0.21657 0.24568
#
# Static dielectric constant tensor:
#      x y z
#    x 3.921440 0.000000 0.095220 
#    y 0.000000 3.300490 0.000000 
#    z 0.095220 0.000000 3.610850 
# 
# 
# High freq. dielectric constant tensor:
#      x y z
#    x 1.735720 0.000000 0.004300 
#    y 0.000000 1.714640 0.000000 
#    z 0.004300 0.000000 1.742810 
# 
# From -- ./inp_files/346146.got.cif
#   From: 2010.06.25/outbox.cif.g09.slc.cpg/sg12_174_cif.got.tgz:346146.got - 2010.06.28 00:19:55.
