data_PCOD8093312
_publ_section_title
;
Structure prediction by ZEFSAII (Michael W. Deem and Ramdas Pophale) SiO2 
 PCOD8093312
Probable space group: C 2/M
;
_chemical_formula_sum "Si O2"
_cell_formula_units_Z 64
_cell_length_a 15.433452
_cell_length_b 8.623607
_cell_length_c 33.086939
_cell_angle_alpha 90.000000
_cell_angle_beta 133.687633
_cell_angle_gamma 90.000000
_cell_volume 3184.320299
_symmetry_space_group_name_H-M "C 2/M"
_symmetry_group_IT_number 12
_symmetry_cell_setting 'monoclinic'
loop_
_space_group_symop_operation_xyz
x,y,z
-x,y,-z
-x,-y,-z
x,-y,z
1/2+x,1/2+y,z
1/2-x,1/2+y,-z
1/2-x,1/2-y,-z
1/2+x,1/2-y,z
loop_
_atom_site_type_symbol
_atom_site_label
_atom_site_fract_x
_atom_site_fract_y
_atom_site_fract_z
Si Si1 0.803029 0.682283 0.637756
Si Si2 0.406644 0.816502 0.937435
Si Si3 0.349895 0.819017 0.133499
Si Si4 0.113156 0.681635 0.628959
Si Si5 0.052168 0.683483 0.138618
Si Si6 0.653290 0.816717 0.438727
Si Si7 0.786111 0.180139 0.259486
Si Si8 0.973273 0.821296 0.249401
O O1 0.826507 0.500000 0.648105
O O2 0.669576 0.726334 0.609273
O O3 0.819833 0.744182 0.597693
O O4 0.893061 0.769763 0.696846
O O5 0.272938 0.774509 0.907477
O O6 0.439442 0.746146 0.903921
O O7 0.417251 0.000000 0.939423
O O8 0.500000 0.746962 0.000000
O O9 0.427267 0.768155 0.119185
O O10 0.425752 0.782804 0.197718
O O11 0.320639 0.000000 0.123062
O O12 0.117221 0.500000 0.621228
O O13 0.187918 0.717136 0.693239
O O14 0.977566 0.742267 0.590164
O O15 0.065447 0.500000 0.140376
O O16 0.163084 0.745423 0.200885
O O17 0.750000 0.750000 0.500000
O O18 0.660176 0.000000 0.441959
O O19 0.891576 0.207563 0.261830
O O20 0.775828 0.000000 0.268772
O O21 0.970858 0.000000 0.235115
#
# Coordination Sequence:
#
# PCOD8093312 Si02
#       8
#     8   8   8   8   8   8   8   8
#     4  11  23  41  62  90 124 159 197 242 300 356
#     4  10  21  40  62  81 110 155 203 248 294 352
#     4  11  22  36  59  87 120 155 190 241 298 354
#     4  11  23  40  61  91 123 154 198 246 293 354
#     4   9  19  37  57  83 116 152 190 231 291 354
#     4  10  24  43  63  86 119 158 203 252 296 350
#     4  10  19  35  61  87 118 157 193 236 295 360
#     4  11  21  36  62  92 120 155 198 241 292 356
#
# _framework density 20.098481
#
# number of rings (size 3 to 8) (size 9 to 14) (size 15 to 20)
#    0.000    1.625    2.500    2.250    0.000    4.750 
#    0.000    4.375    0.000    0.000    0.000    0.000 
#    0.000    0.000    0.000    0.000    0.000    0.000 
#
# Total GULP energy -396926.100543 kJ/mol
# GULP energy per Si atom -12403.940642 kJ/mol
# Density = 2.005274 g / cm^3
# Si number density = 20.098481 Si / 1000 Ang^3
#
#
#
# Elastic Constant Matrix: (Units=GPa)
#
#
# Indices 1 2 3 4 5 6 
#
# 1 143.3274 16.1102 60.2521 0.0000 9.1949 0.0000
# 2 16.1102 19.4974 7.1950 0.0000 -5.6501 0.0000
# 3 60.2521 7.1950 137.6961 0.0000 11.8991 0.0000
# 4 0.0000 0.0000 0.0000 27.0455 0.0000 2.9087
# 5 9.1949 -5.6501 11.8991 0.0000 13.1159 0.0000
# 6 0.0000 0.0000 0.0000 2.9087 0.0000 30.4664
#
#
#
# Elastic Compliance Matrix: (Units=1/GPa)
#
#
# Indices 1 2 3 4 5 6 
#
# 1 0.009861 -0.009342 -0.003127 0.000000 -0.008101 0.000000
# 2 -0.009342 0.071873 -0.003157 0.000000 0.040375 0.000000
# 3 -0.003127 -0.003157 0.009466 0.000000 -0.007755 0.000000
# 4 0.000000 0.000000 0.000000 0.037358 0.000000 -0.003567
# 5 -0.008101 0.040375 -0.007755 0.000000 0.106351 0.000000
# 6 0.000000 0.000000 0.000000 -0.003567 0.000000 0.033164
#
#
# Mechanical properties :
#
#
# Convention : Reuss Voigt Hill
#
# Bulk Modulus (GPa) = 16.68084 51.95952 34.32018
# Shear Modulus (GPa) = 15.65894 28.58980 22.12437
#
# Velocity S-wave (km/s) = 2.79428 3.77568 3.32143
# Velocity P-wave (km/s) = 4.32762 6.70196 5.64112
#
# Compressibility (1/GPa) = 0.05994903
#
# Stress axis : x y z
#
# Youngs Moduli (GPa) = 101.40753 13.91344 105.64420
#
# Poissons Ratio (x) = 0.12997 0.33033
# Poissons Ratio (y) = 0.94732 0.33351
# Poissons Ratio (z) = 0.31709 0.04392
#
# Static dielectric constant tensor:
#      x y z
#    x 3.985430 0.000000 -0.117590 
#    y 0.000000 3.408550 0.000000 
#    z -0.117590 0.000000 4.223750 
# 
# 
# High freq. dielectric constant tensor:
#      x y z
#    x 1.804180 0.000000 -0.000020 
#    y 0.000000 1.766410 0.000000 
#    z -0.000020 0.000000 1.780990 
# 
# From -- ./inp_files/375556.got.cif
#   From: 2010.06.25/outbox.cif.g09.slc.cpg/sg12_188_cif.got.tgz:375556.got - 2010.06.28 00:19:55.
