data_PCOD8093910
_publ_section_title
;
Structure prediction by ZEFSAII (Michael W. Deem and Ramdas Pophale) SiO2 
 PCOD8093910
Probable space group: C 2/M
;
_chemical_formula_sum "Si O2"
_cell_formula_units_Z 64
_cell_length_a 17.349352
_cell_length_b 15.387235
_cell_length_c 24.495637
_cell_angle_alpha 90.000000
_cell_angle_beta 149.588016
_cell_angle_gamma 90.000000
_cell_volume 3310.296303
_symmetry_space_group_name_H-M "C 2/M"
_symmetry_group_IT_number 12
_symmetry_cell_setting 'monoclinic'
loop_
_space_group_symop_operation_xyz
x,y,z
-x,y,-z
-x,-y,-z
x,-y,z
1/2+x,1/2+y,z
1/2-x,1/2+y,-z
1/2-x,1/2-y,-z
1/2+x,1/2-y,z
loop_
_atom_site_type_symbol
_atom_site_label
_atom_site_fract_x
_atom_site_fract_y
_atom_site_fract_z
Si Si1 0.067549 0.902487 0.733538
Si Si2 0.555014 0.901907 0.719402
Si Si3 0.686806 0.599127 0.209791
Si Si4 0.873674 0.748593 0.154465
Si Si5 0.463143 0.251069 0.084762
Si Si6 0.164444 0.600284 0.584413
Si Si7 0.608964 0.902074 0.117896
Si Si8 0.749199 0.152774 0.519811
O O1 0.061500 0.835749 0.779490
O O2 0.214274 0.883508 0.786304
O O3 0.911892 0.890947 0.603767
O O4 0.076795 0.000000 0.763415
O O5 0.671684 0.875709 0.742511
O O6 0.570441 0.836792 0.779478
O O7 0.385555 0.899580 0.591435
O O8 0.586755 0.000000 0.759411
O O9 0.634927 0.500000 0.166761
O O10 0.547387 0.663514 0.113173
O O11 0.727758 0.611665 0.297935
O O12 0.937437 0.750233 0.133015
O O13 0.691667 0.751576 0.043981
O O14 0.562101 0.164882 0.135784
O O15 0.150335 0.500000 0.557537
O O16 0.230611 0.653536 0.574037
O O17 0.000000 0.637779 0.500000
O O18 0.587114 0.000000 0.126575
O O19 0.500000 0.886129 0.000000
O O20 0.750000 0.250000 0.500000
#
# Coordination Sequence:
#
# PCOD8093910 Si02
#       8
#     8   8   8   8   8   8   8   8
#     4  11  22  39  64  90 118 153 203 256 293 345
#     4  11  23  41  61  86 126 163 194 239 302 369
#     4  10  22  38  62  92 121 160 201 243 302 363
#     4  11  24  41  58  93 120 161 200 241 311 361
#     4  11  24  39  63  85 126 156 198 258 297 357
#     4  10  19  36  60  88 120 158 201 244 293 352
#     4  10  21  39  64  87 110 154 206 253 300 344
#     4  12  23  36  60  90 126 156 198 245 298 364
#
# _framework density 19.333615999999999
#
# number of rings (size 3 to 8) (size 9 to 14) (size 15 to 20)
#    0.000    1.250    3.750    2.625    0.000    2.500 
#    0.000    3.750    0.000    0.000    0.000    2.625 
#    0.000    0.000    0.000    0.000    0.000    0.000 
#
# Total GULP energy -396864.828655 kJ/mol
# GULP energy per Si atom -12402.025895 kJ/mol
# Density = 1.928961 g / cm^3
# Si number density = 19.333616 Si / 1000 Ang^3
#
#
#
# Elastic Constant Matrix: (Units=GPa)
#
#
# Indices 1 2 3 4 5 6 
#
# 1 62.4763 46.6402 46.6492 0.0007 26.2342 0.0011
# 2 46.6402 122.2343 40.7966 0.0024 8.2976 0.0024
# 3 46.6492 40.7966 100.0634 0.0055 22.7363 0.0062
# 4 0.0007 0.0024 0.0055 27.8383 0.0009 5.6557
# 5 26.2342 8.2976 22.7363 0.0009 31.8721 0.0006
# 6 0.0011 0.0024 0.0062 5.6557 0.0006 24.7101
#
#
#
# Elastic Compliance Matrix: (Units=1/GPa)
#
#
# Indices 1 2 3 4 5 6 
#
# 1 0.041584 -0.011105 -0.009235 0.000002 -0.024749 0.000002
# 2 -0.011105 0.012438 -0.001474 -0.000001 0.006954 0.000000
# 3 -0.009235 -0.001474 0.015617 -0.000002 -0.003155 -0.000003
# 4 0.000002 -0.000001 -0.000002 0.037674 -0.000001 -0.008623
# 5 -0.024749 0.006954 -0.003155 -0.000001 0.052187 0.000000
# 6 0.000002 0.000000 -0.000003 -0.008623 0.000000 0.042443
#
#
# Mechanical properties :
#
#
# Convention : Reuss Voigt Hill
#
# Bulk Modulus (GPa) = 38.44558 61.43844 49.94201
# Shear Modulus (GPa) = 19.66635 26.92997 23.29816
#
# Velocity S-wave (km/s) = 3.19283 3.73622 3.47516
# Velocity P-wave (km/s) = 5.78971 7.10348 6.47998
#
# Compressibility (1/GPa) = 0.02601079
#
# Stress axis : x y z
#
# Youngs Moduli (GPa) = 24.04770 80.39812 64.03210
#
# Poissons Ratio (x) = 0.89278 0.59137
# Poissons Ratio (y) = 0.26704 0.09440
# Poissons Ratio (z) = 0.22209 0.11853
#
# Static dielectric constant tensor:
#      x y z
#    x 3.475100 0.000000 0.265770 
#    y 0.000000 3.600590 0.000000 
#    z 0.265770 0.000000 3.676230 
# 
# 
# High freq. dielectric constant tensor:
#      x y z
#    x 1.747330 0.000000 0.019770 
#    y 0.000000 1.758350 0.000000 
#    z 0.019770 0.000000 1.756550 
# 
# From -- ./inp_files/183804.got.cif
#   From: 2010.06.25/outbox.cif.g09.slc.cpg/sg12_92_cif.got.tgz:183804.got - 2010.06.28 00:19:55.
