data_PCOD8093157
_publ_section_title
;
Structure prediction by ZEFSAII (Michael W. Deem and Ramdas Pophale) SiO2 
 PCOD8093157
Probable space group: C 2/M
;
_chemical_formula_sum "Si O2"
_cell_formula_units_Z 48
_cell_length_a 24.633562
_cell_length_b 8.892970
_cell_length_c 10.942354
_cell_angle_alpha 90.000000
_cell_angle_beta 102.153454
_cell_angle_gamma 90.000000
_cell_volume 2343.367114
_symmetry_space_group_name_H-M "C 2/M"
_symmetry_group_IT_number 12
_symmetry_cell_setting 'monoclinic'
loop_
_space_group_symop_operation_xyz
x,y,z
-x,y,-z
-x,-y,-z
x,-y,z
1/2+x,1/2+y,z
1/2-x,1/2+y,-z
1/2-x,1/2-y,-z
1/2+x,1/2-y,z
loop_
_atom_site_type_symbol
_atom_site_label
_atom_site_fract_x
_atom_site_fract_y
_atom_site_fract_z
Si Si1 0.191919 0.830410 0.483108
Si Si2 0.013128 0.178132 0.648079
Si Si3 0.865452 0.173927 0.312929
Si Si4 0.847588 0.829589 0.797783
Si Si5 0.961637 0.678231 0.865934
Si Si6 0.746204 0.326024 0.870954
O O1 0.250000 0.750000 0.500000
O O2 0.155301 0.750576 0.570712
O O3 0.152151 0.828684 0.347972
O O4 0.207140 0.000000 0.530208
O O5 0.075726 0.238963 0.703401
O O6 0.000000 0.224799 0.500000
O O7 0.978156 0.254756 0.740826
O O8 0.004666 0.000000 0.659881
O O9 0.817798 0.201428 0.192214
O O10 0.876954 0.000000 0.344963
O O11 0.900315 0.737937 0.872067
O O12 0.789112 0.753977 0.802055
O O13 0.850037 0.000000 0.850688
O O14 0.960515 0.500000 0.852503
O O15 0.000000 0.727265 0.000000
O O16 0.761724 0.500000 0.882857
O O17 0.750000 0.250000 0.000000
#
# Coordination Sequence:
#
# PCOD8093157 Si02
#       6
#     8   8   8   8   8   8
#     4  10  19  35  59  90 124 156 196 244 301 365
#     4  10  21  41  68  95 126 166 212 263 315 379
#     4   9  19  36  60  89 122 159 197 244 305 364
#     4  11  23  40  65  93 122 161 207 255 310 374
#     4  11  26  45  64  92 128 168 213 266 322 379
#     4  11  23  39  59  87 125 165 206 253 306 367
#
# _framework density 20.483345
#
# number of rings (size 3 to 8) (size 9 to 14) (size 15 to 20)
#    0.000    1.667    1.667    2.500    2.333    5.000 
#    0.000    1.667    0.000    0.000    0.000    0.000 
#    0.000    0.000    0.000    0.000    0.000    0.000 
#
# Total GULP energy -297425.681133 kJ/mol
# GULP energy per Si atom -12392.736714 kJ/mol
# Density = 2.043672 g / cm^3
# Si number density = 20.483345 Si / 1000 Ang^3
#
#
#
# Elastic Constant Matrix: (Units=GPa)
#
#
# Indices 1 2 3 4 5 6 
#
# 1 105.1816 32.4235 16.3498 0.0000 14.3306 0.0000
# 2 32.4235 81.3720 38.9972 0.0000 7.3921 0.0000
# 3 16.3498 38.9972 92.2291 0.0000 -0.5486 0.0000
# 4 0.0000 0.0000 0.0000 28.0451 0.0000 -2.3962
# 5 14.3306 7.3921 -0.5486 0.0000 34.7966 0.0000
# 6 0.0000 0.0000 0.0000 -2.3962 0.0000 33.5290
#
#
#
# Elastic Compliance Matrix: (Units=1/GPa)
#
#
# Indices 1 2 3 4 5 6 
#
# 1 0.011312 -0.004000 -0.000337 0.000000 -0.003815 0.000000
# 2 -0.004000 0.017234 -0.006591 0.000000 -0.002118 0.000000
# 3 -0.000337 -0.006591 0.013699 0.000000 0.001755 0.000000
# 4 0.000000 0.000000 0.000000 0.035876 0.000000 0.002564
# 5 -0.003815 -0.002118 0.001755 0.000000 0.030787 0.000000
# 6 0.000000 0.000000 0.000000 0.002564 0.000000 0.030008
#
#
# Mechanical properties :
#
#
# Convention : Reuss Voigt Hill
#
# Bulk Modulus (GPa) = 49.04000 50.48041 49.76021
# Shear Modulus (GPa) = 29.83868 32.00829 30.92348
#
# Velocity S-wave (km/s) = 3.82085 3.95732 3.88969
# Velocity P-wave (km/s) = 6.59231 6.75120 6.67223
#
# Compressibility (1/GPa) = 0.02039152
#
# Stress axis : x y z
#
# Youngs Moduli (GPa) = 88.39891 58.02567 72.99587
#
# Poissons Ratio (x) = 0.23207 0.02460
# Poissons Ratio (y) = 0.35355 0.48108
# Poissons Ratio (z) = 0.02979 0.38242
#
# Static dielectric constant tensor:
#      x y z
#    x 2.729360 0.000000 0.332630 
#    y 0.000000 3.558590 0.000000 
#    z 0.332630 0.000000 3.729120 
# 
# 
# High freq. dielectric constant tensor:
#      x y z
#    x 1.817360 0.000000 0.001710 
#    y 0.000000 1.779700 0.000000 
#    z 0.001710 0.000000 1.810800 
# 
# From -- ./inp_files/172085.got.cif
#   From: 2010.06.25/outbox.cif.g09.slc.cpg/sg12_87_cif.got.tgz:172085.got - 2010.06.28 00:19:55.
