data_PCOD8093065
_publ_section_title
;
Structure prediction by ZEFSAII (Michael W. Deem and Ramdas Pophale) SiO2 
 PCOD8093065
Probable space group: C 2/M
;
_chemical_formula_sum "Si O2"
_cell_formula_units_Z 60
_cell_length_a 23.105640
_cell_length_b 22.714091
_cell_length_c 12.971167
_cell_angle_alpha 90.000000
_cell_angle_beta 27.712658
_cell_angle_gamma 90.000000
_cell_volume 3165.778458
_symmetry_space_group_name_H-M "C 2/M"
_symmetry_group_IT_number 12
_symmetry_cell_setting 'monoclinic'
loop_
_space_group_symop_operation_xyz
x,y,z
-x,y,-z
-x,-y,-z
x,-y,z
1/2+x,1/2+y,z
1/2-x,1/2+y,-z
1/2-x,1/2-y,-z
1/2+x,1/2-y,z
loop_
_atom_site_type_symbol
_atom_site_label
_atom_site_fract_x
_atom_site_fract_y
_atom_site_fract_z
Si Si1 0.777049 0.567849 0.595580
Si Si2 0.500000 0.356308 0.500000
Si Si3 0.339042 0.432410 0.430756
Si Si4 0.111382 0.679925 0.252925
Si Si5 0.616089 0.290566 0.123752
Si Si6 0.942851 0.145980 0.984505
Si Si7 0.291292 0.432517 0.730802
Si Si8 0.448034 0.066371 0.765491
O O1 0.741741 0.500000 0.679230
O O2 0.766114 0.577929 0.489860
O O3 0.690222 0.614693 0.790919
O O4 0.917132 0.582799 0.404509
O O5 0.535403 0.318770 0.343376
O O6 0.379988 0.395813 0.665909
O O7 0.368494 0.500000 0.400159
O O8 0.295215 0.406043 0.609058
O O9 0.468268 0.405570 0.192199
O O10 0.114604 0.720021 0.143991
O O11 0.088643 0.611316 0.266388
O O12 0.000000 0.703696 0.500000
O O13 0.243111 0.685701 0.101825
O O14 0.560913 0.303894 0.097587
O O15 0.000000 0.173819 0.000000
O O16 0.336127 0.500000 0.665340
O O17 0.148684 0.426691 0.989151
O O18 0.444347 0.000000 0.725745
#
# Coordination Sequence:
#
# PCOD8093065 Si02
#       8
#     8   4   8   8   8   8   8   8
#     4   9  18  33  54  82 115 153 192 231 280 339
#     4  12  19  38  58  84 113 148 190 240 280 342
#     4   9  17  30  53  82 113 151 191 232 282 337
#     4  11  23  40  60  83 113 148 189 231 280 341
#     4  11  23  38  62  87 109 151 191 231 283 340
#     4  10  19  35  59  84 116 145 188 238 288 330
#     4  10  20  33  53  82 117 149 186 240 286 330
#     4  10  21  37  56  81 115 149 188 232 281 339
#
# _framework density 18.952684999999999
#
# number of rings (size 3 to 8) (size 9 to 14) (size 15 to 20)
#    0.000    1.867    3.333    1.400    0.000    2.400 
#    0.000    4.000    2.933    2.400    0.000    0.000 
#    0.000    0.000    0.000    0.000    0.000    0.000 
#
# Total GULP energy -371922.887066 kJ/mol
# GULP energy per Si atom -12397.429569 kJ/mol
# Density = 1.890955 g / cm^3
# Si number density = 18.952685 Si / 1000 Ang^3
#
#
#
# Elastic Constant Matrix: (Units=GPa)
#
#
# Indices 1 2 3 4 5 6 
#
# 1 97.3912 46.8170 40.7764 0.0045 8.2299 0.0017
# 2 46.8170 73.0076 24.5739 0.0011 -2.6608 0.0019
# 3 40.7764 24.5739 100.8545 0.0054 -8.1146 0.0000
# 4 0.0045 0.0011 0.0054 -4.4936 -0.0046 -11.7632
# 5 8.2299 -2.6608 -8.1146 -0.0046 32.4150 -0.0009
# 6 0.0017 0.0019 0.0000 -11.7632 -0.0009 18.1380
#
#
#
# Elastic Compliance Matrix: (Units=1/GPa)
#
#
# Indices 1 2 3 4 5 6 
#
# 1 0.017807 -0.009867 -0.005331 0.000007 -0.006665 0.000003
# 2 -0.009867 0.020392 -0.000656 -0.000003 0.004015 -0.000003
# 3 -0.005331 -0.000656 0.012589 0.000001 0.004451 0.000002
# 4 0.000007 -0.000003 0.000001 -0.082491 -0.000015 -0.053499
# 5 -0.006665 0.004015 0.004451 -0.000015 0.033986 -0.000008
# 6 0.000003 -0.000003 0.000002 -0.053499 -0.000008 0.020437
#
#
# Mechanical properties :
#
#
# Convention : Reuss Voigt Hill
#
# Bulk Modulus (GPa) = 52.41732 55.06533 53.74133
# Shear Modulus (GPa) = 82.25342 19.81762 51.03552
#
# Velocity S-wave (km/s) = 6.59497 3.23714 5.19484
# Velocity P-wave (km/s) = 9.25788 6.56424 8.02489
#
# Compressibility (1/GPa) = 0.01907766
#
# Stress axis : x y z
#
# Youngs Moduli (GPa) = 56.15927 49.03947 79.43530
#
# Poissons Ratio (x) = 0.48387 0.42351
# Poissons Ratio (y) = 0.55412 0.05213
# Poissons Ratio (z) = 0.29941 0.03218
#
# Static dielectric constant tensor:
#      x y z
#    x 3.546140 0.000000 0.070420 
#    y 0.000000 3.386180 0.000010 
#    z 0.070420 0.000010 3.576510 
# 
# 
# High freq. dielectric constant tensor:
#      x y z
#    x 1.729310 0.000000 0.000170 
#    y 0.000000 1.722880 0.000000 
#    z 0.000170 0.000000 1.747570 
# 
# From -- ./inp_files/170366.got.cif
#   From: 2010.06.25/outbox.cif.g09.slc.cpg/sg12_86_cif.got.tgz:170366.got - 2010.06.28 00:19:55.
