data_PCOD8093492
_publ_section_title
;
Structure prediction by ZEFSAII (Michael W. Deem and Ramdas Pophale) SiO2 
 PCOD8093492
Probable space group: C 2/M
;
_chemical_formula_sum "Si O2"
_cell_formula_units_Z 48
_cell_length_a 26.336288
_cell_length_b 11.201699
_cell_length_c 20.529995
_cell_angle_alpha 90.000000
_cell_angle_beta 156.816821
_cell_angle_gamma 90.000000
_cell_volume 2384.305431
_symmetry_space_group_name_H-M "C 2/M"
_symmetry_group_IT_number 12
_symmetry_cell_setting 'monoclinic'
loop_
_space_group_symop_operation_xyz
x,y,z
-x,y,-z
-x,-y,-z
x,-y,z
1/2+x,1/2+y,z
1/2-x,1/2+y,-z
1/2-x,1/2-y,-z
1/2+x,1/2-y,z
loop_
_atom_site_type_symbol
_atom_site_label
_atom_site_fract_x
_atom_site_fract_y
_atom_site_fract_z
Si Si1 0.700512 0.704158 0.750615
Si Si2 0.758742 0.868841 0.925114
Si Si3 0.016793 0.364542 0.949061
Si Si4 0.471039 0.365983 0.563484
Si Si5 0.845168 0.638951 0.627117
Si Si6 0.547069 0.786845 0.768049
O O1 0.720281 0.835004 0.805557
O O2 0.626044 0.714211 0.594250
O O3 0.613808 0.629511 0.700002
O O4 0.836968 0.641132 0.902993
O O5 0.632233 0.869054 0.821304
O O6 0.819419 0.000000 0.996333
O O7 0.864117 0.776195 0.073768
O O8 0.976375 0.500000 0.911127
O O9 0.917228 0.315725 0.777682
O O10 0.000000 0.298787 0.000000
O O11 0.415940 0.500000 0.501874
O O12 0.473706 0.313725 0.639092
O O13 0.789455 0.500000 0.567252
O O14 0.750000 0.750000 0.500000
O O15 0.945629 0.631151 0.685906
#
# Coordination Sequence:
#
# PCOD8093492 Si02
#       6
#     8   8   8   8   8   8
#     4  10  19  36  55  87 122 151 197 245 306 351
#     4  10  20  36  60  89 120 157 199 245 307 376
#     4  10  21  38  62  85 114 156 203 252 297 349
#     4  10  20  33  59  92 121 154 195 249 301 356
#     4  11  25  44  64  90 123 162 206 256 309 360
#     4  10  21  38  59  90 120 156 197 249 306 366
#
# _framework density 20.131647999999998
#
# number of rings (size 3 to 8) (size 9 to 14) (size 15 to 20)
#    0.000    1.833    1.667    3.000    2.333    1.333 
#    0.000    7.500    0.000    1.000    0.000    0.000 
#    0.000    0.000    0.000    0.000    0.000    0.000 
#
# Total GULP energy -297409.197427 kJ/mol
# GULP energy per Si atom -12392.049893 kJ/mol
# Density = 2.008583 g / cm^3
# Si number density = 20.131648 Si / 1000 Ang^3
#
#
#
# Elastic Constant Matrix: (Units=GPa)
#
#
# Indices 1 2 3 4 5 6 
#
# 1 88.8599 26.8655 45.3360 0.0000 -18.9900 0.0000
# 2 26.8655 82.3113 35.3018 0.0000 -5.9203 0.0000
# 3 45.3360 35.3018 116.0866 0.0000 -18.3255 0.0000
# 4 0.0000 0.0000 0.0000 24.1729 0.0000 0.0491
# 5 -18.9900 -5.9203 -18.3255 0.0000 30.1563 0.0000
# 6 0.0000 0.0000 0.0000 0.0491 0.0000 14.6323
#
#
#
# Elastic Compliance Matrix: (Units=1/GPa)
#
#
# Indices 1 2 3 4 5 6 
#
# 1 0.015703 -0.002836 -0.004200 0.000000 0.006779 0.000000
# 2 -0.002836 0.014484 -0.003462 0.000000 -0.001046 0.000000
# 3 -0.004200 -0.003462 0.011927 0.000000 0.003923 0.000000
# 4 0.000000 0.000000 0.000000 0.041369 0.000000 -0.000139
# 5 0.006779 -0.001046 0.003923 0.000000 0.039608 0.000000
# 6 0.000000 0.000000 0.000000 -0.000139 0.000000 0.068342
#
#
# Mechanical properties :
#
#
# Convention : Reuss Voigt Hill
#
# Bulk Modulus (GPa) = 47.35506 55.80715 51.58111
# Shear Modulus (GPa) = 22.78229 25.77594 24.27911
#
# Velocity S-wave (km/s) = 3.36767 3.58211 3.47654
# Velocity P-wave (km/s) = 6.22056 6.69999 6.46472
#
# Compressibility (1/GPa) = 0.02111707
#
# Stress axis : x y z
#
# Youngs Moduli (GPa) = 63.68338 69.04004 83.84632
#
# Poissons Ratio (x) = 0.19582 0.35213
# Poissons Ratio (y) = 0.18063 0.29029
# Poissons Ratio (z) = 0.26745 0.23903
#
# Static dielectric constant tensor:
#      x y z
#    x 3.858900 0.000000 -0.225470 
#    y 0.000000 3.393250 0.000000 
#    z -0.225470 0.000000 3.715130 
# 
# 
# High freq. dielectric constant tensor:
#      x y z
#    x 1.789490 0.000000 -0.012740 
#    y 0.000000 1.754670 0.000000 
#    z -0.012740 0.000000 1.787310 
# 
# From -- ./inp_files/328024.got.cif
#   From: 2010.06.25/outbox.cif.g09.slc.cpg/sg12_165_cif.got.tgz:328024.got - 2010.06.28 00:19:55.
