data_PCOD8093375
_publ_section_title
;
Structure prediction by ZEFSAII (Michael W. Deem and Ramdas Pophale) SiO2 
 PCOD8093375
Probable space group: C 2/M
;
_chemical_formula_sum "Si O2"
_cell_formula_units_Z 52
_cell_length_a 15.612672
_cell_length_b 15.856315
_cell_length_c 14.222166
_cell_angle_alpha 90.000000
_cell_angle_beta 48.613695
_cell_angle_gamma 90.000000
_cell_volume 2641.571159
_symmetry_space_group_name_H-M "C 2/M"
_symmetry_group_IT_number 12
_symmetry_cell_setting 'monoclinic'
loop_
_space_group_symop_operation_xyz
x,y,z
-x,y,-z
-x,-y,-z
x,-y,z
1/2+x,1/2+y,z
1/2-x,1/2+y,-z
1/2-x,1/2-y,-z
1/2+x,1/2-y,z
loop_
_atom_site_type_symbol
_atom_site_label
_atom_site_fract_x
_atom_site_fract_y
_atom_site_fract_z
Si Si1 0.553545 0.098332 0.556319
Si Si2 0.722226 0.308122 0.605828
Si Si3 0.000000 0.164922 0.000000
Si Si4 0.749223 0.401125 0.088366
Si Si5 0.344680 0.199495 0.184852
Si Si6 0.023942 0.599789 0.182856
Si Si7 0.505615 0.596814 0.196259
O O1 0.500000 0.139351 0.500000
O O2 0.688446 0.115477 0.455686
O O3 0.497052 0.132518 0.694809
O O4 0.530965 0.000000 0.570497
O O5 0.750000 0.250000 0.500000
O O6 0.738665 0.246781 0.682749
O O7 0.595111 0.345819 0.688661
O O8 0.108028 0.226802 0.916348
O O9 0.992130 0.103128 0.917542
O O10 0.742482 0.500000 0.106086
O O11 0.774392 0.364785 0.172807
O O12 0.626104 0.366679 0.145446
O O13 0.845925 0.378708 0.940797
O O14 0.443547 0.149777 0.169055
O O15 0.997799 0.500000 0.192581
O O16 0.486148 0.500000 0.239920
#
# Coordination Sequence:
#
# PCOD8093375 Si02
#       7
#     8   8   4   8   8   8   8
#     4  10  22  40  63  88 114 154 206 248 287 345
#     4  11  23  40  60  84 120 159 198 241 294 349
#     4  10  21  36  57  86 118 154 192 242 297 350
#     4  10  21  38  62  92 122 152 196 245 298 362
#     4  11  20  36  58  90 120 156 196 244 302 347
#     4  10  19  35  62  88 120 157 193 247 298 349
#     4  10  23  41  60  85 120 161 197 237 294 360
#
# _framework density 19.685255000000002
#
# number of rings (size 3 to 8) (size 9 to 14) (size 15 to 20)
#    0.000    1.692    3.077    1.154    0.000    5.538 
#    0.000    4.615    0.000    1.846    0.000    0.000 
#    0.000    0.000    0.000    0.000    0.000    0.000 
#
# Total GULP energy -322325.251892 kJ/mol
# GULP energy per Si atom -12397.125073 kJ/mol
# Density = 1.964045 g / cm^3
# Si number density = 19.685255 Si / 1000 Ang^3
#
#
#
# Elastic Constant Matrix: (Units=GPa)
#
#
# Indices 1 2 3 4 5 6 
#
# 1 131.7497 32.0066 67.4142 0.0000 -10.6029 0.0000
# 2 32.0066 42.1633 39.2570 0.0000 -1.6556 0.0000
# 3 67.4142 39.2570 145.3166 0.0000 -3.2949 0.0000
# 4 0.0000 0.0000 0.0000 23.0092 0.0000 1.4552
# 5 -10.6029 -1.6556 -3.2949 0.0000 26.3547 0.0000
# 6 0.0000 0.0000 0.0000 1.4552 0.0000 19.1514
#
#
#
# Elastic Compliance Matrix: (Units=1/GPa)
#
#
# Indices 1 2 3 4 5 6 
#
# 1 0.010925 -0.004687 -0.003719 0.000000 0.003636 0.000000
# 2 -0.004687 0.033721 -0.006950 0.000000 -0.000636 0.000000
# 3 -0.003719 -0.006950 0.010470 0.000000 -0.000624 0.000000
# 4 0.000000 0.000000 0.000000 0.043671 0.000000 -0.003318
# 5 0.003636 -0.000636 -0.000624 0.000000 0.039289 0.000000
# 6 0.000000 0.000000 0.000000 -0.003318 0.000000 0.052468
#
#
# Mechanical properties :
#
#
# Convention : Reuss Voigt Hill
#
# Bulk Modulus (GPa) = 40.97780 66.28723 53.63251
# Shear Modulus (GPa) = 21.79698 25.73987 23.76843
#
# Velocity S-wave (km/s) = 3.33118 3.61996 3.47857
# Velocity P-wave (km/s) = 5.97138 7.15673 6.59076
#
# Compressibility (1/GPa) = 0.02440346
#
# Stress axis : x y z
#
# Youngs Moduli (GPa) = 91.53682 29.65509 95.50847
#
# Poissons Ratio (x) = 0.13900 0.35523
# Poissons Ratio (y) = 0.42905 0.66375
# Poissons Ratio (z) = 0.34046 0.20609
#
# Static dielectric constant tensor:
#      x y z
#    x 3.855190 0.000000 -0.058100 
#    y 0.000000 4.775870 0.000000 
#    z -0.058100 0.000000 3.811010 
# 
# 
# High freq. dielectric constant tensor:
#      x y z
#    x 1.758610 0.000000 0.005530 
#    y 0.000000 1.769140 0.000000 
#    z 0.005530 0.000000 1.775060 
# 
# From -- ./inp_files/225638.got.cif
#   From: 2010.06.25/outbox.cif.g09.slc.cpg/sg12_113_cif.got.tgz:225638.got - 2010.06.28 00:19:55.
