data_PCOD8093087
_publ_section_title
;
Structure prediction by ZEFSAII (Michael W. Deem and Ramdas Pophale) SiO2 
 PCOD8093087
Probable space group: C 2/M
;
_chemical_formula_sum "Si O2"
_cell_formula_units_Z 64
_cell_length_a 15.528349
_cell_length_b 8.556080
_cell_length_c 30.463820
_cell_angle_alpha 90.000000
_cell_angle_beta 129.684137
_cell_angle_gamma 90.000000
_cell_volume 3114.843333
_symmetry_space_group_name_H-M "C 2/M"
_symmetry_group_IT_number 12
_symmetry_cell_setting 'monoclinic'
loop_
_space_group_symop_operation_xyz
x,y,z
-x,y,-z
-x,-y,-z
x,-y,z
1/2+x,1/2+y,z
1/2-x,1/2+y,-z
1/2-x,1/2-y,-z
1/2+x,1/2-y,z
loop_
_atom_site_type_symbol
_atom_site_label
_atom_site_fract_x
_atom_site_fract_y
_atom_site_fract_z
Si Si1 0.138410 0.178810 0.444219
Si Si2 0.761744 0.814931 0.677283
Si Si3 0.726157 0.318262 0.061883
Si Si4 0.414725 0.681736 0.068778
Si Si5 0.691310 0.817433 0.749196
Si Si6 0.347681 0.181086 0.871056
Si Si7 0.952504 0.316554 0.439741
Si Si8 0.046528 0.821661 0.321561
O O1 0.250000 0.250000 0.500000
O O2 0.134619 0.191002 0.390324
O O3 0.036031 0.281257 0.427610
O O4 0.127563 0.000000 0.456236
O O5 0.743952 0.752055 0.720871
O O6 0.667235 0.744929 0.613658
O O7 0.884464 0.768817 0.699365
O O8 0.746218 0.000000 0.673104
O O9 0.721750 0.500000 0.072479
O O10 0.851455 0.273954 0.087148
O O11 0.688926 0.221263 0.091759
O O12 0.638912 0.273251 0.995367
O O13 0.399816 0.500000 0.073955
O O14 0.544798 0.723220 0.110176
O O15 0.744848 0.721039 0.806088
O O16 0.558302 0.791300 0.706391
O O17 0.716119 0.000000 0.763697
O O18 0.377632 0.000000 0.878317
O O19 0.940981 0.500000 0.443340
O O20 0.000000 0.238482 0.500000
O O21 0.003639 0.000000 0.303063
#
# Coordination Sequence:
#
# PCOD8093087 Si02
#       8
#     8   8   8   8   8   8   8   8
#     4  11  22  35  56  85 120 153 191 242 294 361
#     4   9  19  37  61  84 111 151 193 235 297 365
#     4  10  21  39  64  95 130 167 210 259 312 371
#     4  10  21  39  64  95 131 168 207 257 315 372
#     4  11  23  41  62  85 116 156 205 259 306 365
#     4  12  25  40  61  89 125 168 215 263 311 367
#     4  10  19  35  59  85 116 151 191 238 295 363
#     4  10  21  40  62  85 114 152 195 243 302 367
#
# _framework density 20.546779999999998
#
# number of rings (size 3 to 8) (size 9 to 14) (size 15 to 20)
#    0.000    1.625    1.250    3.750    0.000    6.750 
#    0.000    5.625    0.000    0.000    0.000    0.000 
#    0.000    0.000    0.000    0.000    0.000    0.000 
#
# Total GULP energy -396869.052680 kJ/mol
# GULP energy per Si atom -12402.157896 kJ/mol
# Density = 2.050001 g / cm^3
# Si number density = 20.546780 Si / 1000 Ang^3
#
#
#
# Elastic Constant Matrix: (Units=GPa)
#
#
# Indices 1 2 3 4 5 6 
#
# 1 115.4501 11.5778 25.8734 0.0000 6.0455 0.0000
# 2 11.5778 39.0864 26.3913 0.0000 -7.5437 0.0000
# 3 25.8734 26.3913 69.3702 0.0000 12.5841 0.0000
# 4 0.0000 0.0000 0.0000 23.9071 0.0000 2.5577
# 5 6.0455 -7.5437 12.5841 0.0000 19.1845 0.0000
# 6 0.0000 0.0000 0.0000 2.5577 0.0000 32.6989
#
#
#
# Elastic Compliance Matrix: (Units=1/GPa)
#
#
# Indices 1 2 3 4 5 6 
#
# 1 0.009495 -0.001289 -0.002743 0.000000 -0.001700 0.000000
# 2 -0.001289 0.050052 -0.025204 0.000000 0.036620 0.000000
# 3 -0.002743 -0.025204 0.030270 0.000000 -0.028902 0.000000
# 4 0.000000 0.000000 0.000000 0.042182 0.000000 -0.003299
# 5 -0.001700 0.036620 -0.028902 0.000000 0.086019 0.000000
# 6 0.000000 0.000000 0.000000 -0.003299 0.000000 0.030840
#
#
# Mechanical properties :
#
#
# Convention : Reuss Voigt Hill
#
# Bulk Modulus (GPa) = 31.90251 39.06575 35.48413
# Shear Modulus (GPa) = 15.73426 25.82903 20.78165
#
# Velocity S-wave (km/s) = 2.77027 3.54938 3.18375
# Velocity P-wave (km/s) = 5.07868 5.98764 5.55180
#
# Compressibility (1/GPa) = 0.03134549
#
# Stress axis : x y z
#
# Youngs Moduli (GPa) = 105.32262 19.97925 33.03572
#
# Poissons Ratio (x) = 0.02574 0.09061
# Poissons Ratio (y) = 0.13571 0.83265
# Poissons Ratio (z) = 0.28887 0.50357
#
# Static dielectric constant tensor:
#      x y z
#    x 3.800660 0.000000 -0.095640 
#    y 0.000000 3.654810 0.000000 
#    z -0.095640 0.000000 3.743400 
# 
# 
# High freq. dielectric constant tensor:
#      x y z
#    x 1.814070 0.000000 -0.001610 
#    y 0.000000 1.788780 0.000000 
#    z -0.001610 0.000000 1.802660 
# 
# From -- ./inp_files/375601.got.cif
#   From: 2010.06.25/outbox.cif.g09.slc.cpg/sg12_188_cif.got.tgz:375601.got - 2010.06.28 00:19:55.
