data_PCOD8093931
_publ_section_title
;
Structure prediction by ZEFSAII (Michael W. Deem and Ramdas Pophale) SiO2 
 PCOD8093931
Probable space group: C 2/M
;
_chemical_formula_sum "Si O2"
_cell_formula_units_Z 56
_cell_length_a 24.213429
_cell_length_b 8.877190
_cell_length_c 15.143982
_cell_angle_alpha 90.000000
_cell_angle_beta 120.121755
_cell_angle_gamma 90.000000
_cell_volume 2815.583367
_symmetry_space_group_name_H-M "C 2/M"
_symmetry_group_IT_number 12
_symmetry_cell_setting 'monoclinic'
loop_
_space_group_symop_operation_xyz
x,y,z
-x,y,-z
-x,-y,-z
x,-y,z
1/2+x,1/2+y,z
1/2-x,1/2+y,-z
1/2-x,1/2-y,-z
1/2+x,1/2-y,z
loop_
_atom_site_type_symbol
_atom_site_label
_atom_site_fract_x
_atom_site_fract_y
_atom_site_fract_z
Si Si1 0.458105 0.820757 0.883555
Si Si2 0.316895 0.177622 0.811869
Si Si3 0.999689 0.326103 0.726028
Si Si4 0.301751 0.329757 0.982570
Si Si5 0.810754 0.677905 0.309782
Si Si6 0.438280 0.825840 0.500721
Si Si7 0.625313 0.331386 0.791487
O O1 0.384664 0.766431 0.827937
O O2 0.483907 0.759328 0.810133
O O3 0.460861 0.000000 0.888015
O O4 0.500000 0.756954 0.000000
O O5 0.318039 0.225426 0.914088
O O6 0.257140 0.253588 0.712344
O O7 0.309317 0.000000 0.798178
O O8 0.019209 0.500000 0.751007
O O9 0.056394 0.240145 0.722444
O O10 0.941454 0.305952 0.609744
O O11 0.282021 0.500000 0.937485
O O12 0.250000 0.250000 0.000000
O O13 0.363735 0.335124 0.094779
O O14 0.805372 0.500000 0.312334
O O15 0.870617 0.744462 0.414111
O O16 0.821399 0.730999 0.216777
O O17 0.500000 0.753333 0.500000
O O18 0.436364 0.000000 0.471699
O O19 0.627544 0.500000 0.753664
#
# Coordination Sequence:
#
# PCOD8093931 Si02
#       7
#     8   8   8   8   8   8   8
#     4   9  19  36  59  85 110 146 192 235 280 337
#     4  11  22  37  56  82 116 146 188 241 286 337
#     4  10  19  36  61  82 108 148 194 237 280 334
#     4  11  22  34  51  77 111 148 186 224 278 342
#     4  11  21  35  56  80 111 149 189 229 282 346
#     4   9  17  32  55  85 111 142 192 239 277 334
#     4  11  22  34  51  82 117 144 179 231 288 340
#
# _framework density 19.889306000000001
#
# number of rings (size 3 to 8) (size 9 to 14) (size 15 to 20)
#    0.000    1.714    2.857    2.571    0.000    2.857 
#    0.000    4.286    0.000    3.857    0.000    0.000 
#    0.000    0.000    0.000    0.000    0.000    0.000 
#
# Total GULP energy -347050.175833 kJ/mol
# GULP energy per Si atom -12394.649137 kJ/mol
# Density = 1.984404 g / cm^3
# Si number density = 19.889306 Si / 1000 Ang^3
#
#
#
# Elastic Constant Matrix: (Units=GPa)
#
#
# Indices 1 2 3 4 5 6 
#
# 1 109.6118 29.4684 34.8139 0.0000 18.0506 0.0000
# 2 29.4684 58.4467 15.5536 0.0000 12.0479 0.0000
# 3 34.8139 15.5536 101.8250 0.0000 13.3991 0.0000
# 4 0.0000 0.0000 0.0000 20.6818 0.0000 7.9547
# 5 18.0506 12.0479 13.3991 0.0000 37.4892 0.0000
# 6 0.0000 0.0000 0.0000 7.9547 0.0000 22.7496
#
#
#
# Elastic Compliance Matrix: (Units=1/GPa)
#
#
# Indices 1 2 3 4 5 6 
#
# 1 0.011788 -0.004510 -0.002923 0.000000 -0.003182 0.000000
# 2 -0.004510 0.020497 -0.001058 0.000000 -0.004038 0.000000
# 3 -0.002923 -0.001058 0.011282 0.000000 -0.002285 0.000000
# 4 0.000000 0.000000 0.000000 0.055865 0.000000 -0.019534
# 5 -0.003182 -0.004038 -0.002285 0.000000 0.030321 0.000000
# 6 0.000000 0.000000 0.000000 -0.019534 0.000000 0.050787
#
#
# Mechanical properties :
#
#
# Convention : Reuss Voigt Hill
#
# Bulk Modulus (GPa) = 37.61229 47.72838 42.67034
# Shear Modulus (GPa) = 24.22688 28.85397 26.54042
#
# Velocity S-wave (km/s) = 3.49389 3.81297 3.65692
# Velocity P-wave (km/s) = 5.93534 6.59046 6.27146
#
# Compressibility (1/GPa) = 0.02658705
#
# Stress axis : x y z
#
# Youngs Moduli (GPa) = 84.83390 48.78728 88.63423
#
# Poissons Ratio (x) = 0.22001 0.25905
# Poissons Ratio (y) = 0.38257 0.09375
# Poissons Ratio (z) = 0.24794 0.05160
#
# Static dielectric constant tensor:
#      x y z
#    x 3.534720 0.000000 0.244550 
#    y 0.000000 3.388260 0.000000 
#    z 0.244550 0.000000 3.894970 
# 
# 
# High freq. dielectric constant tensor:
#      x y z
#    x 1.761130 0.000000 0.018290 
#    y 0.000000 1.748520 0.000000 
#    z 0.018290 0.000000 1.783050 
# 
# From -- ./inp_files/239023.got.cif
#   From: 2010.06.25/outbox.cif.g09.slc.cpg/sg12_120_cif.got.tgz:239023.got - 2010.06.28 00:19:55.
