data_PCOD8093485
_publ_section_title
;
Structure prediction by ZEFSAII (Michael W. Deem and Ramdas Pophale) SiO2 
 PCOD8093485
Probable space group: C 2/M
;
_chemical_formula_sum "Si O2"
_cell_formula_units_Z 40
_cell_length_a 13.321579
_cell_length_b 12.880470
_cell_length_c 17.264666
_cell_angle_alpha 90.000000
_cell_angle_beta 47.561035
_cell_angle_gamma 90.000000
_cell_volume 2186.250673
_symmetry_space_group_name_H-M "C 2/M"
_symmetry_group_IT_number 12
_symmetry_cell_setting 'monoclinic'
loop_
_space_group_symop_operation_xyz
x,y,z
-x,y,-z
-x,-y,-z
x,-y,z
1/2+x,1/2+y,z
1/2-x,1/2+y,-z
1/2-x,1/2-y,-z
1/2+x,1/2-y,z
loop_
_atom_site_type_symbol
_atom_site_label
_atom_site_fract_x
_atom_site_fract_y
_atom_site_fract_z
Si Si1 0.975525 0.756173 0.235083
Si Si2 0.208662 0.618775 0.377800
Si Si3 0.630034 0.381725 0.265382
Si Si4 0.449344 0.881226 0.108978
Si Si5 0.519153 0.802910 0.603481
O O1 0.845282 0.824862 0.280248
O O2 0.020012 0.687701 0.138615
O O3 0.945513 0.678724 0.324111
O O4 0.097791 0.834535 0.196261
O O5 0.239390 0.500000 0.384145
O O6 0.152707 0.679877 0.482432
O O7 0.099373 0.620057 0.364885
O O8 0.581369 0.500000 0.295154
O O9 0.788098 0.370622 0.201061
O O10 0.540630 0.315402 0.373973
O O11 0.496858 0.000000 0.094633
O O12 0.500000 0.838683 0.000000
#
# Coordination Sequence:
#
# PCOD8093485 Si02
#       5
#     8   8   8   8   8
#     4  10  19  36  55  80 106 140 183 212 261 317
#     4  11  20  35  54  78 113 146 175 216 258 306
#     4   9  19  36  54  77 108 140 175 218 266 310
#     4  10  21  38  58  79 105 137 174 224 274 313
#     4   9  20  33  53  80 109 143 180 211 255 314
#
# _framework density 18.296164000000001
#
# number of rings (size 3 to 8) (size 9 to 14) (size 15 to 20)
#    1.200    1.000    2.000    2.400    0.000    2.400 
#    0.000    3.000    0.000    2.400    0.000    0.000 
#    0.000    0.000    0.000    0.000    0.000    0.000 
#
# Total GULP energy -247812.460843 kJ/mol
# GULP energy per Si atom -12390.623042 kJ/mol
# Density = 1.825452 g / cm^3
# Si number density = 18.296164 Si / 1000 Ang^3
#
#
#
# Elastic Constant Matrix: (Units=GPa)
#
#
# Indices 1 2 3 4 5 6 
#
# 1 41.6766 15.9816 3.3406 0.0000 16.8297 0.0000
# 2 15.9816 100.7681 45.8520 0.0000 16.7060 0.0000
# 3 3.3406 45.8520 66.7205 0.0000 22.4342 0.0000
# 4 0.0000 0.0000 0.0000 27.1067 0.0000 6.0995
# 5 16.8297 16.7060 22.4342 0.0000 22.9555 0.0000
# 6 0.0000 0.0000 0.0000 6.0995 0.0000 24.5097
#
#
#
# Elastic Compliance Matrix: (Units=1/GPa)
#
#
# Indices 1 2 3 4 5 6 
#
# 1 0.042938 -0.007683 0.017627 0.000000 -0.043116 0.000000
# 2 -0.007683 0.015836 -0.012686 0.000000 0.006505 0.000000
# 3 0.017627 -0.012686 0.035842 0.000000 -0.038720 0.000000
# 4 0.000000 0.000000 0.000000 0.039080 0.000000 -0.009725
# 5 -0.043116 0.006505 -0.038720 0.000000 0.108279 0.000000
# 6 0.000000 0.000000 0.000000 -0.009725 0.000000 0.043220
#
#
# Mechanical properties :
#
#
# Convention : Reuss Voigt Hill
#
# Bulk Modulus (GPa) = 11.21902 37.72373 24.47138
# Shear Modulus (GPa) = 15.60603 24.51378 20.05991
#
# Velocity S-wave (km/s) = 2.92373 3.66434 3.31478
# Velocity P-wave (km/s) = 4.18841 6.21018 5.29666
#
# Compressibility (1/GPa) = 0.08913431
#
# Stress axis : x y z
#
# Youngs Moduli (GPa) = 23.28926 63.14723 27.89999
#
# Poissons Ratio (x) = 0.48514 -0.49180
# Poissons Ratio (y) = 0.17892 0.35393
# Poissons Ratio (z) = -0.41052 0.80106
#
# Static dielectric constant tensor:
#      x y z
#    x 3.342180 0.000000 0.080120 
#    y 0.000000 3.306930 0.000000 
#    z 0.080120 0.000000 3.034740 
# 
# 
# High freq. dielectric constant tensor:
#      x y z
#    x 1.714400 0.000000 0.002560 
#    y 0.000000 1.703410 0.000000 
#    z 0.002560 0.000000 1.676180 
# 
# From -- ./inp_files/203795.got.cif
#   From: 2010.06.25/outbox.cif.g09.slc.cpg/sg12_102_cif.got.tgz:203795.got - 2010.06.28 00:19:55.
