data_PCOD8093284
_publ_section_title
;
Structure prediction by ZEFSAII (Michael W. Deem and Ramdas Pophale) SiO2 
 PCOD8093284
Probable space group: C 2/M
;
_chemical_formula_sum "Si O2"
_cell_formula_units_Z 64
_cell_length_a 19.618612
_cell_length_b 9.020742
_cell_length_c 23.642210
_cell_angle_alpha 90.000000
_cell_angle_beta 53.215980
_cell_angle_gamma 90.000000
_cell_volume 3351.012454
_symmetry_space_group_name_H-M "C 2/M"
_symmetry_group_IT_number 12
_symmetry_cell_setting 'monoclinic'
loop_
_space_group_symop_operation_xyz
x,y,z
-x,y,-z
-x,-y,-z
x,-y,z
1/2+x,1/2+y,z
1/2-x,1/2+y,-z
1/2-x,1/2-y,-z
1/2+x,1/2-y,z
loop_
_atom_site_type_symbol
_atom_site_label
_atom_site_fract_x
_atom_site_fract_y
_atom_site_fract_z
Si Si1 0.465286 0.324413 0.380254
Si Si2 0.685247 0.824692 0.489171
Si Si3 0.579621 0.824233 0.998856
Si Si4 0.559246 0.671139 0.732327
Si Si5 0.250877 0.329867 0.333854
Si Si6 0.734003 0.675479 0.126302
Si Si7 0.658590 0.674519 0.280081
Si Si8 0.910528 0.823803 0.885300
O O1 0.449839 0.500000 0.394807
O O2 0.409428 0.237750 0.454154
O O3 0.438195 0.262669 0.332062
O O4 0.562557 0.277350 0.341109
O O5 0.750000 0.750000 0.500000
O O6 0.711885 0.780077 0.412819
O O7 0.688942 0.000000 0.496187
O O8 0.668420 0.769832 0.926771
O O9 0.577976 0.000000 0.006923
O O10 0.500000 0.770748 0.000000
O O11 0.574187 0.752181 0.062694
O O12 0.536589 0.500000 0.735245
O O13 0.648584 0.697282 0.717839
O O14 0.484810 0.739540 0.807631
O O15 0.228161 0.500000 0.332680
O O16 0.216150 0.227761 0.302242
O O17 0.730799 0.500000 0.131648
O O18 0.692030 0.743386 0.204114
O O19 0.679315 0.725053 0.098388
O O20 0.665159 0.500000 0.272467
O O21 0.916181 0.000000 0.890700
#
# Coordination Sequence:
#
# PCOD8093284 Si02
#       8
#     8   8   8   8   8   8   8   8
#     4  10  19  37  61  83 111 146 189 235 279 330
#     4  11  22  37  59  84 113 151 190 233 283 337
#     4  10  22  37  53  80 119 151 176 221 285 338
#     4   9  17  34  58  81 106 143 186 229 278 327
#     4  10  22  38  55  79 114 148 178 227 291 338
#     4   9  18  36  59  80 108 149 188 225 276 332
#     4  10  21  37  60  85 110 147 192 233 274 333
#     4  10  19  35  61  83 104 143 194 233 265 323
#
# _framework density 19.098704999999999
#
# number of rings (size 3 to 8) (size 9 to 14) (size 15 to 20)
#    0.000    2.125    2.500    0.750    1.750    2.250 
#    0.000    4.375    0.000    0.000    0.000    0.000 
#    0.000    0.000    0.000    0.000    0.000    0.000 
#
# Total GULP energy -396774.826812 kJ/mol
# GULP energy per Si atom -12399.213338 kJ/mol
# Density = 1.905524 g / cm^3
# Si number density = 19.098705 Si / 1000 Ang^3
#
#
#
# Elastic Constant Matrix: (Units=GPa)
#
#
# Indices 1 2 3 4 5 6 
#
# 1 114.5470 18.2752 60.4740 -0.0001 -0.4770 -0.0001
# 2 18.2752 18.5536 24.3850 -0.0002 -3.8545 0.0001
# 3 60.4740 24.3850 127.5284 0.0000 -11.2158 0.0001
# 4 -0.0001 -0.0002 0.0000 27.5585 0.0000 3.8385
# 5 -0.4770 -3.8545 -11.2158 0.0000 31.2717 0.0000
# 6 -0.0001 0.0001 0.0001 3.8385 0.0000 28.2575
#
#
#
# Elastic Compliance Matrix: (Units=1/GPa)
#
#
# Indices 1 2 3 4 5 6 
#
# 1 0.012261 -0.006209 -0.004830 0.000000 -0.002311 0.000000
# 2 -0.006209 0.075638 -0.011056 0.000001 0.005263 0.000000
# 3 -0.004830 -0.011056 0.012514 0.000000 0.003052 0.000000
# 4 0.000000 0.000001 0.000000 0.036986 0.000000 -0.005024
# 5 -0.002311 0.005263 0.003052 0.000000 0.033686 0.000000
# 6 0.000000 0.000000 0.000000 -0.005024 0.000000 0.036071
#
#
# Mechanical properties :
#
#
# Convention : Reuss Voigt Hill
#
# Bulk Modulus (GPa) = 17.78615 51.87748 34.83182
# Shear Modulus (GPa) = 18.51253 27.91718 23.21486
#
# Velocity S-wave (km/s) = 3.11675 3.82741 3.49021
# Velocity P-wave (km/s) = 4.72071 6.83768 5.87533
#
# Compressibility (1/GPa) = 0.05622351
#
# Stress axis : x y z
#
# Youngs Moduli (GPa) = 81.55901 13.22092 79.90857
#
# Poissons Ratio (x) = 0.08209 0.38598
# Poissons Ratio (y) = 0.50638 0.88345
# Poissons Ratio (z) = 0.39395 0.14617
#
# Static dielectric constant tensor:
#      x y z
#    x 3.571660 0.000000 -0.170290 
#    y 0.000000 3.136520 0.000000 
#    z -0.170290 0.000000 3.875040 
# 
# 
# High freq. dielectric constant tensor:
#      x y z
#    x 1.751820 0.000000 -0.007070 
#    y 0.000000 1.705470 0.000000 
#    z -0.007070 0.000000 1.758720 
# 
# From -- ./inp_files/345997.got.cif
#   From: 2010.06.25/outbox.cif.g09.slc.cpg/sg12_173_cif.got.tgz:345997.got - 2010.06.28 00:19:55.
