data_PCOD8093074
_publ_section_title
;
Structure prediction by ZEFSAII (Michael W. Deem and Ramdas Pophale) SiO2 
 PCOD8093074
Probable space group: C 2/M
;
_chemical_formula_sum "Si O2"
_cell_formula_units_Z 56
_cell_length_a 20.264101
_cell_length_b 8.501540
_cell_length_c 17.092623
_cell_angle_alpha 90.000000
_cell_angle_beta 112.165579
_cell_angle_gamma 90.000000
_cell_volume 2727.032583
_symmetry_space_group_name_H-M "C 2/M"
_symmetry_group_IT_number 12
_symmetry_cell_setting 'monoclinic'
loop_
_space_group_symop_operation_xyz
x,y,z
-x,y,-z
-x,-y,-z
x,-y,z
1/2+x,1/2+y,z
1/2-x,1/2+y,-z
1/2-x,1/2-y,-z
1/2+x,1/2-y,z
loop_
_atom_site_type_symbol
_atom_site_label
_atom_site_fract_x
_atom_site_fract_y
_atom_site_fract_z
Si Si1 0.489877 0.814825 0.731076
Si Si2 0.193851 0.185873 0.696257
Si Si3 0.870565 0.682504 0.929017
Si Si4 0.906266 0.182097 0.097084
Si Si5 0.649203 0.815551 0.251381
Si Si6 0.449826 0.186319 0.407963
Si Si7 0.780003 0.317932 0.128757
O O1 0.528238 0.726120 0.818607
O O2 0.405514 0.773181 0.703316
O O3 0.515843 0.754304 0.658395
O O4 0.503837 0.000000 0.746382
O O5 0.270035 0.242765 0.693554
O O6 0.128123 0.238629 0.612335
O O7 0.181405 0.273753 0.772642
O O8 0.192192 0.000000 0.708708
O O9 0.890334 0.500000 0.942663
O O10 0.879554 0.752036 0.844830
O O11 0.788236 0.709295 0.915552
O O12 0.922026 0.774569 0.013094
O O13 0.836909 0.284117 0.087000
O O14 0.888840 0.000000 0.098905
O O15 0.653920 0.000000 0.240751
O O16 0.500000 0.247311 0.500000
O O17 0.442877 0.000000 0.406477
O O18 0.757619 0.500000 0.117791
#
# Coordination Sequence:
#
# PCOD8093074 Si02
#       7
#     8   8   8   8   8   8   8
#     4  10  20  38  60  80 109 150 192 230 280 339
#     4  10  19  35  59  85 113 146 187 232 280 335
#     4  10  20  35  53  77 109 149 195 236 277 326
#     4  12  23  34  50  78 114 148 190 237 283 328
#     4   8  18  36  58  81 108 150 195 231 271 333
#     4  10  21  37  60  89 116 144 184 233 283 337
#     4  11  20  33  53  79 111 148 189 233 283 331
#
# _framework density 20.535142
#
# number of rings (size 3 to 8) (size 9 to 14) (size 15 to 20)
#    0.000    1.857    1.429    4.714    0.000    0.857 
#    0.000    7.857    0.000    0.000    0.000    0.000 
#    0.000    0.000    0.000    0.000    0.000    0.000 
#
# Total GULP energy -347127.924317 kJ/mol
# GULP energy per Si atom -12397.425868 kJ/mol
# Density = 2.048840 g / cm^3
# Si number density = 20.535142 Si / 1000 Ang^3
#
#
#
# Elastic Constant Matrix: (Units=GPa)
#
#
# Indices 1 2 3 4 5 6 
#
# 1 98.6183 14.7943 50.4054 0.0000 0.1617 0.0000
# 2 14.7943 56.7681 19.7465 0.0000 3.6752 0.0000
# 3 50.4054 19.7465 123.7898 0.0000 18.0133 0.0000
# 4 0.0000 0.0000 0.0000 23.8881 0.0000 7.1453
# 5 0.1617 3.6752 18.0133 0.0000 13.7529 0.0000
# 6 0.0000 0.0000 0.0000 7.1453 0.0000 20.9523
#
#
#
# Elastic Compliance Matrix: (Units=1/GPa)
#
#
# Indices 1 2 3 4 5 6 
#
# 1 0.013796 -0.001873 -0.006632 0.000000 0.009025 0.000000
# 2 -0.001873 0.018925 -0.001882 0.000000 -0.002570 0.000000
# 3 -0.006632 -0.001882 0.013583 0.000000 -0.017210 0.000000
# 4 0.000000 0.000000 0.000000 0.046617 0.000000 -0.015898
# 5 0.009025 -0.002570 -0.017210 0.000000 0.095834 0.000000
# 6 0.000000 0.000000 0.000000 -0.015898 0.000000 0.053149
#
#
# Mechanical properties :
#
#
# Convention : Reuss Voigt Hill
#
# Bulk Modulus (GPa) = 39.16984 49.89652 44.53318
# Shear Modulus (GPa) = 18.43739 24.66733 21.55236
#
# Velocity S-wave (km/s) = 2.99966 3.46963 3.24317
# Velocity P-wave (km/s) = 5.57792 6.35625 5.97977
#
# Compressibility (1/GPa) = 0.02552985
#
# Stress axis : x y z
#
# Youngs Moduli (GPa) = 72.48478 52.84095 73.61998
#
# Poissons Ratio (x) = 0.09896 0.48825
# Poissons Ratio (y) = 0.13574 0.13858
# Poissons Ratio (z) = 0.48072 0.09946
#
# Static dielectric constant tensor:
#      x y z
#    x 3.826010 0.000000 0.065630 
#    y 0.000000 3.448840 0.000000 
#    z 0.065630 0.000000 3.729920 
# 
# 
# High freq. dielectric constant tensor:
#      x y z
#    x 1.800970 0.000000 0.010050 
#    y 0.000000 1.784640 0.000000 
#    z 0.010050 0.000000 1.785830 
# 
# From -- ./inp_files/281664.got.cif
#   From: 2010.06.25/outbox.cif.g09.slc.cpg/sg12_141_cif.got.tgz:281664.got - 2010.06.28 00:19:55.
