data_PCOD8093404
_publ_section_title
;
Structure prediction by ZEFSAII (Michael W. Deem and Ramdas Pophale) SiO2 
 PCOD8093404
Probable space group: C 2/M
;
_chemical_formula_sum "Si O2"
_cell_formula_units_Z 40
_cell_length_a 9.827036
_cell_length_b 15.223939
_cell_length_c 30.459638
_cell_angle_alpha 90.000000
_cell_angle_beta 26.022106
_cell_angle_gamma 90.000000
_cell_volume 1999.215744
_symmetry_space_group_name_H-M "C 2/M"
_symmetry_group_IT_number 12
_symmetry_cell_setting 'monoclinic'
loop_
_space_group_symop_operation_xyz
x,y,z
-x,y,-z
-x,-y,-z
x,-y,z
1/2+x,1/2+y,z
1/2-x,1/2+y,-z
1/2-x,1/2-y,-z
1/2+x,1/2-y,z
loop_
_atom_site_type_symbol
_atom_site_label
_atom_site_fract_x
_atom_site_fract_y
_atom_site_fract_z
Si Si1 0.161621 0.096778 0.579611
Si Si2 0.360130 0.000000 0.904720
Si Si3 0.211453 0.326719 0.778058
Si Si4 0.546428 0.669427 0.771758
Si Si5 0.288016 0.103441 0.447006
Si Si6 0.176204 0.500000 0.903389
O O1 0.500000 0.086002 0.500000
O O2 0.183951 0.138323 0.524793
O O3 0.970979 0.160662 0.665872
O O4 0.003637 0.000000 0.623746
O O5 0.505063 0.913587 0.840990
O O6 0.420331 0.000000 0.939244
O O7 0.000000 0.000000 0.000000
O O8 0.369471 0.303054 0.778553
O O9 0.005297 0.245610 0.820279
O O10 0.396220 0.583848 0.836442
O O11 0.907816 0.653154 0.657628
O O12 0.000000 0.126573 0.500000
O O13 0.363988 0.000000 0.426880
O O14 0.000000 0.500000 0.000000
#
# Coordination Sequence:
#
# PCOD8093404 Si02
#       6
#     8   4   8   8   8   4
#     4  10  19  35  63  89 125 174 214 245 301 372
#     4  10  24  48  70  93 124 158 210 265 319 378
#     4  11  24  41  65  97 127 167 209 257 310 374
#     4  11  24  42  65  94 131 164 211 257 310 375
#     4  10  21  37  59  92 132 171 211 255 302 363
#     4  10  24  48  72  90 122 166 204 262 329 374
#
# _framework density 20.007845
#
# number of rings (size 3 to 8) (size 9 to 14) (size 15 to 20)
#    0.000    1.600    4.000    0.000    2.800    4.000 
#    0.000    4.000    0.000    0.000    0.000    0.000 
#    0.000    0.000    0.000    0.000    0.000    0.000 
#
# Total GULP energy -248027.686868 kJ/mol
# GULP energy per Si atom -12401.384343 kJ/mol
# Density = 1.996231 g / cm^3
# Si number density = 20.007845 Si / 1000 Ang^3
#
#
#
# Elastic Constant Matrix: (Units=GPa)
#
#
# Indices 1 2 3 4 5 6 
#
# 1 156.2649 77.5294 70.6175 -0.0011 7.5308 0.0215
# 2 77.5294 132.4990 53.1206 -0.3022 1.1446 0.0064
# 3 70.6175 53.1206 101.9428 -0.3985 3.6425 0.1016
# 4 -0.0011 -0.3022 -0.3985 1.7985 0.1507 -0.5785
# 5 7.5308 1.1446 3.6425 0.1507 38.9648 -0.0263
# 6 0.0215 0.0064 0.1016 -0.5785 -0.0263 37.2215
#
#
#
# Elastic Compliance Matrix: (Units=1/GPa)
#
#
# Indices 1 2 3 4 5 6 
#
# 1 0.011019 -0.004294 -0.005349 -0.001781 -0.001497 -0.000020
# 2 -0.004294 0.011216 -0.002892 0.001186 0.000766 0.000027
# 3 -0.005349 -0.002892 0.015044 0.002871 -0.000299 0.000007
# 4 -0.001781 0.001186 0.002871 0.559834 -0.002118 0.008693
# 5 -0.001497 0.000766 -0.000299 -0.002118 0.025967 -0.000013
# 6 -0.000020 0.000027 0.000007 0.008693 -0.000013 0.027001
#
#
# Mechanical properties :
#
#
# Convention : Reuss Voigt Hill
#
# Bulk Modulus (GPa) = 81.91734 88.13796 85.02765
# Shear Modulus (GPa) = 7.36136 28.22626 17.79381
#
# Velocity S-wave (km/s) = 1.92022 3.76008 2.98542
# Velocity P-wave (km/s) = 6.77848 7.93715 7.38059
#
# Compressibility (1/GPa) = 0.01220743
#
# Stress axis : x y z
#
# Youngs Moduli (GPa) = 90.74866 89.16110 66.47272
#
# Poissons Ratio (x) = 0.38290 0.35557
# Poissons Ratio (y) = 0.38972 0.19225
# Poissons Ratio (z) = 0.48542 0.25787
#
# Static dielectric constant tensor:
#      x y z
#    x 3.731850 -0.000100 0.059550 
#    y -0.000100 3.800570 -0.000430 
#    z 0.059550 -0.000430 3.465850 
# 
# 
# High freq. dielectric constant tensor:
#      x y z
#    x 1.790750 0.000000 0.004470 
#    y 0.000000 1.788180 -0.000030 
#    z 0.004470 -0.000030 1.767150 
# 
# From -- ./inp_files/194485.got.cif
#   From: 2010.06.25/outbox.cif.g09.slc.cpg/sg12_98_cif.got.tgz:194485.got - 2010.06.28 00:19:55.
