data_PCOD8093117
_publ_section_title
;
Structure prediction by ZEFSAII (Michael W. Deem and Ramdas Pophale) SiO2 
 PCOD8093117
Probable space group: C 2/M
;
_chemical_formula_sum "Si O2"
_cell_formula_units_Z 64
_cell_length_a 14.499877
_cell_length_b 29.437211
_cell_length_c 8.162958
_cell_angle_alpha 90.000000
_cell_angle_beta 57.423891
_cell_angle_gamma 90.000000
_cell_volume 2936.092072
_symmetry_space_group_name_H-M "C 2/M"
_symmetry_group_IT_number 12
_symmetry_cell_setting 'monoclinic'
loop_
_space_group_symop_operation_xyz
x,y,z
-x,y,-z
-x,-y,-z
x,-y,z
1/2+x,1/2+y,z
1/2-x,1/2+y,-z
1/2-x,1/2-y,-z
1/2+x,1/2-y,z
loop_
_atom_site_type_symbol
_atom_site_label
_atom_site_fract_x
_atom_site_fract_y
_atom_site_fract_z
Si Si1 0.501632 0.830993 0.174657
Si Si2 0.745725 0.448280 0.419468
Si Si3 0.602127 0.366016 0.605450
Si Si4 0.173216 0.593833 0.994799
Si Si5 0.804054 0.331311 0.584783
Si Si6 0.632642 0.339805 0.213698
Si Si7 0.894858 0.257123 0.699025
Si Si8 0.874492 0.575626 0.622978
O O1 0.375142 0.835334 0.350370
O O2 0.570763 0.797840 0.219141
O O3 0.500000 0.807637 0.000000
O O4 0.555609 0.881112 0.108170
O O5 0.709765 0.500000 0.426870
O O6 0.635391 0.418911 0.550618
O O7 0.809905 0.431747 0.194609
O O8 0.817389 0.445027 0.516676
O O9 0.677449 0.342651 0.671445
O O10 0.622330 0.340051 0.418262
O O11 0.474697 0.360657 0.774744
O O12 0.265754 0.631359 0.943146
O O13 0.174618 0.559528 0.151987
O O14 0.808460 0.280774 0.657183
O O15 0.859991 0.369597 0.646239
O O16 0.653183 0.286048 0.154446
O O17 0.000000 0.238564 0.500000
O O18 0.000000 0.560884 0.500000
#
# Coordination Sequence:
#
# PCOD8093117 Si02
#       8
#     8   8   8   8   8   8   8   8
#     4  11  20  35  57  88 122 167 214 255 306 377
#     4  10  24  43  66  97 125 163 218 268 322 398
#     4   9  19  39  63  83 128 167 208 262 330 373
#     4  11  23  39  67  91 128 169 210 265 324 382
#     4  10  19  36  61  87 114 174 211 244 311 381
#     4  10  20  39  58  93 124 168 211 267 318 364
#     4  10  19  35  59  86 126 162 217 259 299 376
#     4  11  20  40  66  90 129 170 204 253 326 390
#
# _framework density 21.797681999999998
#
# number of rings (size 3 to 8) (size 9 to 14) (size 15 to 20)
#    0.000    1.750    3.750    2.625    0.000    1.750 
#    2.250    9.375    0.000    0.750    0.000    0.000 
#    0.000    0.000    0.000    0.000    0.000    0.000 
#
# Total GULP energy -396565.037113 kJ/mol
# GULP energy per Si atom -12392.657410 kJ/mol
# Density = 2.174807 g / cm^3
# Si number density = 21.797682 Si / 1000 Ang^3
#
#
#
# Elastic Constant Matrix: (Units=GPa)
#
#
# Indices 1 2 3 4 5 6 
#
# 1 93.6868 35.6715 30.6177 0.0000 1.2913 0.0000
# 2 35.6715 122.7131 23.2835 0.0000 -1.3994 0.0000
# 3 30.6177 23.2835 88.0841 0.0000 16.2882 0.0000
# 4 0.0000 0.0000 0.0000 6.3885 0.0000 -11.6202
# 5 1.2913 -1.3994 16.2882 0.0000 29.6382 0.0000
# 6 0.0000 0.0000 0.0000 -11.6202 0.0000 -10.4588
#
#
#
# Elastic Compliance Matrix: (Units=1/GPa)
#
#
# Indices 1 2 3 4 5 6 
#
# 1 0.013128 -0.003032 -0.004040 0.000000 0.001505 0.000000
# 2 -0.003032 0.009371 -0.001702 0.000000 0.001510 0.000000
# 3 -0.004040 -0.001702 0.014681 0.000000 -0.007973 0.000000
# 4 0.000000 0.000000 0.000000 0.051816 0.000000 -0.057570
# 5 0.001505 0.001510 -0.007973 0.000000 0.038127 0.000000
# 6 0.000000 0.000000 0.000000 -0.057570 0.000000 -0.031651
#
#
# Mechanical properties :
#
#
# Convention : Reuss Voigt Hill
#
# Bulk Modulus (GPa) = 50.94020 53.73662 52.33841
# Shear Modulus (GPa) = 41.81810 19.44102 30.62956
#
# Velocity S-wave (km/s) = 4.38478 2.98968 3.75263
# Velocity P-wave (km/s) = 7.00395 6.05174 6.54519
#
# Compressibility (1/GPa) = 0.01963086
#
# Stress axis : x y z
#
# Youngs Moduli (GPa) = 76.17281 106.71452 68.11399
#
# Poissons Ratio (x) = 0.32361 0.27518
# Poissons Ratio (y) = 0.23099 0.11594
# Poissons Ratio (z) = 0.30774 0.18164
#
# Static dielectric constant tensor:
#      x y z
#    x 4.086430 0.000000 0.186830 
#    y 0.000000 3.702350 0.000000 
#    z 0.186830 0.000000 4.277260 
# 
# 
# High freq. dielectric constant tensor:
#      x y z
#    x 1.859290 0.000000 0.011810 
#    y 0.000000 1.833880 0.000000 
#    z 0.011810 0.000000 1.851020 
# 
# From -- ./inp_files/68584.got.cif
#   From: 2010.06.25/outbox.cif.g09.slc.cpg/sg12_35_cif.got.tgz:68584.got - 2010.06.28 00:19:55.
