data_PCOD8093032
_publ_section_title
;
Structure prediction by ZEFSAII (Michael W. Deem and Ramdas Pophale) SiO2 
 PCOD8093032
Probable space group: C 2/M
;
_chemical_formula_sum "Si O2"
_cell_formula_units_Z 64
_cell_length_a 19.635845
_cell_length_b 8.963165
_cell_length_c 30.986521
_cell_angle_alpha 90.000000
_cell_angle_beta 142.172922
_cell_angle_gamma 90.000000
_cell_volume 3344.590096
_symmetry_space_group_name_H-M "C 2/M"
_symmetry_group_IT_number 12
_symmetry_cell_setting 'monoclinic'
loop_
_space_group_symop_operation_xyz
x,y,z
-x,y,-z
-x,-y,-z
x,-y,z
1/2+x,1/2+y,z
1/2-x,1/2+y,-z
1/2-x,1/2-y,-z
1/2+x,1/2-y,z
loop_
_atom_site_type_symbol
_atom_site_label
_atom_site_fract_x
_atom_site_fract_y
_atom_site_fract_z
Si Si1 0.262371 0.831542 0.461766
Si Si2 0.471888 0.671565 0.535677
Si Si3 0.015675 0.830233 0.307592
Si Si4 0.012561 0.675257 0.957736
Si Si5 0.614770 0.823027 0.680484
Si Si6 0.982691 0.823092 0.195771
Si Si7 0.251231 0.673793 0.045519
Si Si8 0.627433 0.323336 0.187600
O O1 0.250000 0.750000 0.500000
O O2 0.351458 0.744547 0.478152
O O3 0.145904 0.827814 0.380076
O O4 0.304043 0.000000 0.490166
O O5 0.500000 0.687727 0.500000
O O6 0.466965 0.500000 0.548321
O O7 0.560856 0.753787 0.610554
O O8 0.947974 0.733677 0.308244
O O9 0.006075 0.758794 0.255091
O O10 0.969764 0.000000 0.286794
O O11 0.988898 0.500000 0.941608
O O12 0.929342 0.756141 0.883382
O O13 0.139425 0.718471 0.013284
O O14 0.000000 0.733148 0.000000
O O15 0.743782 0.774639 0.746649
O O16 0.602395 0.000000 0.671842
O O17 0.857882 0.767781 0.124643
O O18 0.066295 0.761884 0.200424
O O19 0.994671 0.000000 0.202897
O O20 0.261993 0.500000 0.043204
O O21 0.250000 0.750000 0.000000
O O22 0.614901 0.500000 0.178359
#
# Coordination Sequence:
#
# PCOD8093032 Si02
#       8
#     8   8   8   8   8   8   8   8
#     4  11  22  38  64  92 121 156 200 250 299 357
#     4  11  25  43  63  89 121 161 204 247 302 358
#     4  10  22  39  63  88 116 157 197 238 295 355
#     4  10  22  37  57  87 117 152 196 240 290 348
#     4  11  24  40  61  88 120 156 197 246 299 356
#     4   9  19  37  60  84 112 151 196 239 286 347
#     4  10  19  35  59  83 111 148 192 240 290 340
#     4  10  22  40  60  84 116 155 196 241 295 351
#
# _framework density 19.135379
#
# number of rings (size 3 to 8) (size 9 to 14) (size 15 to 20)
#    0.000    1.750    2.500    1.125    3.500    2.750 
#    0.000    1.250    0.000    0.000    0.000    0.000 
#    0.000    0.000    0.000    0.000    0.000    0.000 
#
# Total GULP energy -396743.638848 kJ/mol
# GULP energy per Si atom -12398.238714 kJ/mol
# Density = 1.909183 g / cm^3
# Si number density = 19.135379 Si / 1000 Ang^3
#
#
#
# Elastic Constant Matrix: (Units=GPa)
#
#
# Indices 1 2 3 4 5 6 
#
# 1 141.8822 58.3803 78.8216 0.0000 -1.3865 -0.0001
# 2 58.3803 71.8827 49.2708 0.0000 3.0200 0.0000
# 3 78.8216 49.2708 144.4895 0.0000 -4.5961 -0.0002
# 4 0.0000 0.0000 0.0000 29.1734 0.0000 0.4159
# 5 -1.3865 3.0200 -4.5961 0.0000 42.5014 0.0000
# 6 -0.0001 0.0000 -0.0002 0.4159 0.0000 25.8472
#
#
#
# Elastic Compliance Matrix: (Units=1/GPa)
#
#
# Indices 1 2 3 4 5 6 
#
# 1 0.012374 -0.007114 -0.004310 0.000000 0.000443 0.000000
# 2 -0.007114 0.022410 -0.003832 0.000000 -0.002239 0.000000
# 3 -0.004310 -0.003832 0.010620 0.000000 0.001280 0.000000
# 4 0.000000 0.000000 0.000000 0.034286 0.000000 -0.000552
# 5 0.000443 -0.002239 0.001280 0.000000 0.023841 0.000000
# 6 0.000000 0.000000 0.000000 -0.000552 0.000000 0.038698
#
#
# Mechanical properties :
#
#
# Convention : Reuss Voigt Hill
#
# Bulk Modulus (GPa) = 67.15520 81.24443 74.19981
# Shear Modulus (GPa) = 28.13651 30.95651 29.54651
#
# Velocity S-wave (km/s) = 3.83873 4.02651 3.93374
# Velocity P-wave (km/s) = 7.40397 8.01042 7.71316
#
# Compressibility (1/GPa) = 0.01489088
#
# Stress axis : x y z
#
# Youngs Moduli (GPa) = 80.81313 44.62284 94.16340
#
# Poissons Ratio (x) = 0.31745 0.40588
# Poissons Ratio (y) = 0.57490 0.36086
# Poissons Ratio (z) = 0.34834 0.17101
#
# Static dielectric constant tensor:
#      x y z
#    x 3.643420 0.000000 0.047720 
#    y 0.000000 3.459360 0.000000 
#    z 0.047720 0.000000 3.622000 
# 
# 
# High freq. dielectric constant tensor:
#      x y z
#    x 1.759400 0.000000 0.001780 
#    y 0.000000 1.730910 0.000000 
#    z 0.001780 0.000000 1.759320 
# 
# From -- ./inp_files/378511.got.cif
#   From: 2010.06.25/outbox.cif.g09.slc.cpg/sg12_190_cif.got.tgz:378511.got - 2010.06.28 00:19:55.
