data_PCOD8093345
_publ_section_title
;
Structure prediction by ZEFSAII (Michael W. Deem and Ramdas Pophale) SiO2 
 PCOD8093345
Probable space group: C 2/M
;
_chemical_formula_sum "Si O2"
_cell_formula_units_Z 56
_cell_length_a 25.292228
_cell_length_b 8.619483
_cell_length_c 18.362779
_cell_angle_alpha 90.000000
_cell_angle_beta 137.246430
_cell_angle_gamma 90.000000
_cell_volume 2717.554705
_symmetry_space_group_name_H-M "C 2/M"
_symmetry_group_IT_number 12
_symmetry_cell_setting 'monoclinic'
loop_
_space_group_symop_operation_xyz
x,y,z
-x,y,-z
-x,-y,-z
x,-y,z
1/2+x,1/2+y,z
1/2-x,1/2+y,-z
1/2-x,1/2-y,-z
1/2+x,1/2-y,z
loop_
_atom_site_type_symbol
_atom_site_label
_atom_site_fract_x
_atom_site_fract_y
_atom_site_fract_z
Si Si1 0.211245 0.680207 0.139986
Si Si2 0.354153 0.316740 0.186984
Si Si3 0.649725 0.682609 0.478451
Si Si4 0.586354 0.816799 0.269832
Si Si5 0.206999 0.181205 0.292948
Si Si6 0.003085 0.184286 0.422228
Si Si7 0.589699 0.179262 0.898782
O O1 0.224650 0.500000 0.173811
O O2 0.278133 0.741606 0.153009
O O3 0.214811 0.780925 0.216064
O O4 0.128165 0.705688 0.016807
O O5 0.355273 0.500000 0.187471
O O6 0.430443 0.248111 0.303937
O O7 0.355243 0.259992 0.105106
O O8 0.645271 0.500000 0.458106
O O9 0.639024 0.773211 0.392285
O O10 0.731395 0.723646 0.596989
O O11 0.582585 0.739120 0.465381
O O12 0.621943 0.733775 0.234664
O O13 0.498093 0.753118 0.189985
O O14 0.586627 0.000000 0.257265
O O15 0.220188 0.000000 0.318699
O O16 0.000000 0.255028 0.500000
O O17 0.998364 0.000000 0.420687
O O18 0.587692 0.000000 0.876195
#
# Coordination Sequence:
#
# PCOD8093345 Si02
#       7
#     8   8   8   8   8   8   8
#     4  10  22  41  63  89 122 163 203 243 300 360
#     4  10  19  35  61  90 122 160 202 244 290 357
#     4  11  21  38  63  89 122 158 200 248 296 360
#     4  11  23  41  63  88 122 161 202 248 301 360
#     4  12  26  42  61  88 120 156 203 256 308 358
#     4   9  17  30  53  86 120 156 195 235 283 344
#     4  10  22  39  62  91 124 160 200 248 300 356
#
# _framework density 20.606762
#
# number of rings (size 3 to 8) (size 9 to 14) (size 15 to 20)
#    0.000    1.571    1.429    3.857    0.000    4.571 
#    0.000    2.857    0.000    2.143    0.000    0.000 
#    0.000    0.000    0.000    0.000    0.000    0.000 
#
# Total GULP energy -347318.240070 kJ/mol
# GULP energy per Si atom -12404.222860 kJ/mol
# Density = 2.055986 g / cm^3
# Si number density = 20.606762 Si / 1000 Ang^3
#
#
#
# Elastic Constant Matrix: (Units=GPa)
#
#
# Indices 1 2 3 4 5 6 
#
# 1 133.9314 28.1170 39.7703 0.0000 1.8620 0.0000
# 2 28.1170 43.9169 15.8079 0.0000 -2.3348 0.0000
# 3 39.7703 15.8079 90.4177 0.0000 3.9988 0.0000
# 4 0.0000 0.0000 0.0000 26.4534 0.0000 -6.8334
# 5 1.8620 -2.3348 3.9988 0.0000 23.8748 0.0000
# 6 0.0000 0.0000 0.0000 -6.8334 0.0000 30.6052
#
#
#
# Elastic Compliance Matrix: (Units=1/GPa)
#
#
# Indices 1 2 3 4 5 6 
#
# 1 0.009484 -0.004927 -0.003281 0.000000 -0.000672 0.000000
# 2 -0.004927 0.027091 -0.002723 0.000000 0.003490 0.000000
# 3 -0.003281 -0.002723 0.013076 0.000000 -0.002201 0.000000
# 4 0.000000 0.000000 0.000000 0.040116 0.000000 0.008957
# 5 -0.000672 0.003490 -0.002201 0.000000 0.042647 0.000000
# 6 0.000000 0.000000 0.000000 0.008957 0.000000 0.034674
#
#
# Mechanical properties :
#
#
# Convention : Reuss Voigt Hill
#
# Bulk Modulus (GPa) = 35.98552 48.40627 42.19589
# Shear Modulus (GPa) = 25.22528 28.49141 26.85834
#
# Velocity S-wave (km/s) = 3.50255 3.72240 3.61415
# Velocity P-wave (km/s) = 5.81876 6.48201 6.15932
#
# Compressibility (1/GPa) = 0.02778896
#
# Stress axis : x y z
#
# Youngs Moduli (GPa) = 105.43661 36.91318 76.47477
#
# Poissons Ratio (x) = 0.18187 0.25088
# Poissons Ratio (y) = 0.51949 0.20828
# Poissons Ratio (z) = 0.34589 0.10053
#
# Static dielectric constant tensor:
#      x y z
#    x 3.970270 0.000000 0.113120 
#    y 0.000000 3.421360 0.000000 
#    z 0.113120 0.000000 3.794120 
# 
# 
# High freq. dielectric constant tensor:
#      x y z
#    x 1.820040 0.000000 0.002740 
#    y 0.000000 1.782460 0.000000 
#    z 0.002740 0.000000 1.811580 
# 
# From -- ./inp_files/288455.got.cif
#   From: 2010.06.25/outbox.cif.g09.slc.cpg/sg12_145_cif.got.tgz:288455.got - 2010.06.28 00:19:55.
