data_PCOD8093142
_publ_section_title
;
Structure prediction by ZEFSAII (Michael W. Deem and Ramdas Pophale) SiO2 
 PCOD8093142
Probable space group: C 2/M
;
_chemical_formula_sum "Si O2"
_cell_formula_units_Z 32
_cell_length_a 9.049082
_cell_length_b 17.487867
_cell_length_c 12.060040
_cell_angle_alpha 90.000000
_cell_angle_beta 114.968754
_cell_angle_gamma 90.000000
_cell_volume 1730.119843
_symmetry_space_group_name_H-M "C 2/M"
_symmetry_group_IT_number 12
_symmetry_cell_setting 'monoclinic'
loop_
_space_group_symop_operation_xyz
x,y,z
-x,y,-z
-x,-y,-z
x,-y,z
1/2+x,1/2+y,z
1/2-x,1/2+y,-z
1/2-x,1/2-y,-z
1/2+x,1/2-y,z
loop_
_atom_site_type_symbol
_atom_site_label
_atom_site_fract_x
_atom_site_fract_y
_atom_site_fract_z
Si Si1 0.746963 0.911988 0.394943
Si Si2 0.608201 0.324346 0.135277
Si Si3 0.966959 0.144008 0.653186
Si Si4 0.478609 0.200517 0.238384
O O1 0.811756 0.870757 0.526170
O O2 0.578963 0.873599 0.305617
O O3 0.880422 0.905836 0.339427
O O4 0.711416 0.000000 0.409213
O O5 0.579410 0.378197 0.234591
O O6 0.552955 0.237425 0.149142
O O7 0.795120 0.325973 0.157397
O O8 0.500000 0.355907 0.000000
O O9 0.014428 0.234483 0.662586
#
# Coordination Sequence:
#
# PCOD8093142 Si02
#       4
#     8   8   8   8
#     4  11  21  37  59  86 120 150 181 231 292 344
#     4  10  20  35  61  84 110 146 197 242 271 322
#     4   9  19  35  57  86 112 148 190 229 277 334
#     4  10  19  35  59  89 112 143 195 235 278 333
#
# _framework density 18.495829000000001
#
# number of rings (size 3 to 8) (size 9 to 14) (size 15 to 20)
#    1.500    0.500    2.500    3.000    0.000    1.000 
#    0.000    3.750    0.000   12.000    0.000    0.000 
#    0.000    0.000    0.000    0.000    0.000    0.000 
#
# Total GULP energy -198307.878812 kJ/mol
# GULP energy per Si atom -12394.242426 kJ/mol
# Density = 1.845373 g / cm^3
# Si number density = 18.495829 Si / 1000 Ang^3
#
#
#
# Elastic Constant Matrix: (Units=GPa)
#
#
# Indices 1 2 3 4 5 6 
#
# 1 101.1197 7.4167 61.3810 0.0000 24.7481 0.0000
# 2 7.4167 51.6139 14.8189 0.0000 10.0500 0.0000
# 3 61.3810 14.8189 111.3388 0.0000 12.5720 0.0000
# 4 0.0000 0.0000 0.0000 1.8854 0.0000 3.2877
# 5 24.7481 10.0500 12.5720 0.0000 35.1345 0.0000
# 6 0.0000 0.0000 0.0000 3.2877 0.0000 21.8001
#
#
#
# Elastic Compliance Matrix: (Units=1/GPa)
#
#
# Indices 1 2 3 4 5 6 
#
# 1 0.017452 0.001901 -0.008779 0.000000 -0.009695 0.000000
# 2 0.001901 0.021233 -0.003165 0.000000 -0.006280 0.000000
# 3 -0.008779 -0.003165 0.014008 0.000000 0.002077 0.000000
# 4 0.000000 0.000000 0.000000 0.719666 0.000000 -0.108534
# 5 -0.009695 -0.006280 0.002077 0.000000 0.036344 0.000000
# 6 0.000000 0.000000 0.000000 -0.108534 0.000000 0.062240
#
#
# Mechanical properties :
#
#
# Convention : Reuss Voigt Hill
#
# Bulk Modulus (GPa) = 30.66910 47.92285 39.29598
# Shear Modulus (GPa) = 5.54386 23.79436 14.66911
#
# Velocity S-wave (km/s) = 1.73317 3.59063 2.81927
# Velocity P-wave (km/s) = 4.54123 6.56936 5.64709
#
# Compressibility (1/GPa) = 0.03260611
#
# Stress axis : x y z
#
# Youngs Moduli (GPa) = 57.30043 47.09663 71.38565
#
# Poissons Ratio (x) = -0.08951 0.62673
# Poissons Ratio (y) = -0.10891 0.22592
# Poissons Ratio (z) = 0.50307 0.14905
#
# Static dielectric constant tensor:
#      x y z
#    x 3.283270 0.000000 -0.023380 
#    y 0.000000 3.041390 0.000000 
#    z -0.023380 0.000000 3.237350 
# 
# 
# High freq. dielectric constant tensor:
#      x y z
#    x 1.719020 0.000000 0.006760 
#    y 0.000000 1.679720 0.000000 
#    z 0.006760 0.000000 1.710850 
# 
# From -- ./inp_files/46019.got.cif
#   From: 2010.06.25/outbox.cif.g09.slc.cpg/sg12_24_cif.got.tgz:46019.got - 2010.06.28 00:19:55.
