data_PCOD8093549
_publ_section_title
;
Structure prediction by ZEFSAII (Michael W. Deem and Ramdas Pophale) SiO2 
 PCOD8093549
Probable space group: C 2/M
;
_chemical_formula_sum "Si O2"
_cell_formula_units_Z 48
_cell_length_a 27.355416
_cell_length_b 13.097066
_cell_length_c 14.720664
_cell_angle_alpha 90.000000
_cell_angle_beta 26.678516
_cell_angle_gamma 90.000000
_cell_volume 2367.966683
_symmetry_space_group_name_H-M "C 2/M"
_symmetry_group_IT_number 12
_symmetry_cell_setting 'monoclinic'
loop_
_space_group_symop_operation_xyz
x,y,z
-x,y,-z
-x,-y,-z
x,-y,z
1/2+x,1/2+y,z
1/2-x,1/2+y,-z
1/2-x,1/2-y,-z
1/2+x,1/2-y,z
loop_
_atom_site_type_symbol
_atom_site_label
_atom_site_fract_x
_atom_site_fract_y
_atom_site_fract_z
Si Si1 0.696880 0.283136 0.382852
Si Si2 0.586278 0.882959 0.031768
Si Si3 0.837921 0.615995 0.894532
Si Si4 0.547448 0.695614 0.791704
Si Si5 0.658709 0.617586 0.782818
Si Si6 0.618669 0.708660 0.312900
O O1 0.610818 0.333959 0.594814
O O2 0.733838 0.171122 0.356233
O O3 0.639534 0.265539 0.382596
O O4 0.799451 0.358757 0.206835
O O5 0.597675 0.858327 0.119856
O O6 0.490346 0.813987 0.149335
O O7 0.555665 0.000000 0.064629
O O8 0.856376 0.500000 0.834288
O O9 0.883210 0.685568 0.739247
O O10 0.708772 0.632639 0.123342
O O11 0.626497 0.679013 0.745620
O O12 0.440313 0.624532 0.979944
O O13 0.684468 0.500000 0.718594
O O14 0.500000 0.656499 0.500000
#
# Coordination Sequence:
#
# PCOD8093549 Si02
#       6
#     8   8   8   8   8   8
#     4  10  21  36  55  81 111 142 181 225 269 318
#     4   9  19  35  55  81 112 144 179 220 266 318
#     4   9  19  36  55  79 113 146 178 220 267 317
#     4  10  19  36  57  79 107 141 179 222 268 319
#     4  10  22  39  57  80 110 143 180 223 272 324
#     4  10  20  35  56  81 109 144 183 223 267 317
#
# _framework density 20.270555000000002
#
# number of rings (size 3 to 8) (size 9 to 14) (size 15 to 20)
#    0.000    2.333    0.000    2.500    0.000    4.667 
#    0.000    6.667    0.000    3.000    0.000    0.000 
#    0.000    0.000    0.000    0.000    0.000    0.000 
#
# Total GULP energy -297629.812147 kJ/mol
# GULP energy per Si atom -12401.242173 kJ/mol
# Density = 2.022442 g / cm^3
# Si number density = 20.270555 Si / 1000 Ang^3
#
#
#
# Elastic Constant Matrix: (Units=GPa)
#
#
# Indices 1 2 3 4 5 6 
#
# 1 97.7571 39.7937 30.1282 0.0000 4.2963 0.0000
# 2 39.7937 80.4684 -7.6915 0.0000 5.6053 0.0000
# 3 30.1282 -7.6915 69.9241 0.0000 20.6050 0.0000
# 4 0.0000 0.0000 0.0000 12.8435 0.0000 0.2463
# 5 4.2963 5.6053 20.6050 0.0000 37.1606 0.0000
# 6 0.0000 0.0000 0.0000 0.2463 0.0000 28.8141
#
#
#
# Elastic Compliance Matrix: (Units=1/GPa)
#
#
# Indices 1 2 3 4 5 6 
#
# 1 0.016990 -0.009689 -0.009847 0.000000 0.004957 0.000000
# 2 -0.009689 0.018407 0.007993 0.000000 -0.006089 0.000000
# 3 -0.009847 0.007993 0.023240 0.000000 -0.012954 0.000000
# 4 0.000000 0.000000 0.000000 0.077873 0.000000 -0.000666
# 5 0.004957 -0.006089 -0.012954 0.000000 0.034438 0.000000
# 6 0.000000 0.000000 0.000000 -0.000666 0.000000 0.034711
#
#
# Mechanical properties :
#
#
# Convention : Reuss Voigt Hill
#
# Bulk Modulus (GPa) = 28.12728 41.40116 34.76422
# Shear Modulus (GPa) = 20.78176 28.15825 24.47001
#
# Velocity S-wave (km/s) = 3.20538 3.73113 3.47820
# Velocity P-wave (km/s) = 5.25408 6.24744 5.77216
#
# Compressibility (1/GPa) = 0.03555267
#
# Stress axis : x y z
#
# Youngs Moduli (GPa) = 58.85693 54.32804 43.02841
#
# Poissons Ratio (x) = 0.52637 0.42371
# Poissons Ratio (y) = 0.57025 -0.34394
# Poissons Ratio (z) = 0.57957 -0.43427
#
# Static dielectric constant tensor:
#      x y z
#    x 3.673100 0.000000 0.036890 
#    y 0.000000 3.446370 0.000000 
#    z 0.036890 0.000000 3.749490 
# 
# 
# High freq. dielectric constant tensor:
#      x y z
#    x 1.791360 0.000000 0.002670 
#    y 0.000000 1.773730 0.000000 
#    z 0.002670 0.000000 1.798130 
# 
# From -- ./inp_files/245835.got.cif
#   From: 2010.06.25/outbox.cif.g09.slc.cpg/sg12_123_cif.got.tgz:245835.got - 2010.06.28 00:19:55.
