data_PCOD8093532
_publ_section_title
;
Structure prediction by ZEFSAII (Michael W. Deem and Ramdas Pophale) SiO2 
 PCOD8093532
Probable space group: C 2/M
;
_chemical_formula_sum "Si O2"
_cell_formula_units_Z 56
_cell_length_a 15.121184
_cell_length_b 9.030500
_cell_length_c 24.566351
_cell_angle_alpha 90.000000
_cell_angle_beta 117.987197
_cell_angle_gamma 90.000000
_cell_volume 2962.270820
_symmetry_space_group_name_H-M "C 2/M"
_symmetry_group_IT_number 12
_symmetry_cell_setting 'monoclinic'
loop_
_space_group_symop_operation_xyz
x,y,z
-x,y,-z
-x,-y,-z
x,-y,z
1/2+x,1/2+y,z
1/2-x,1/2+y,-z
1/2-x,1/2-y,-z
1/2+x,1/2-y,z
loop_
_atom_site_type_symbol
_atom_site_label
_atom_site_fract_x
_atom_site_fract_y
_atom_site_fract_z
Si Si1 0.767693 0.827120 0.061861
Si Si2 0.372059 0.332499 0.804081
Si Si3 0.168428 0.824448 0.729304
Si Si4 0.430324 0.324330 0.408580
Si Si5 0.652455 0.675621 0.500202
Si Si6 0.905434 0.832677 0.936080
Si Si7 0.571312 0.325987 0.809656
O O1 0.677200 0.789603 0.075698
O O2 0.866106 0.763575 0.120773
O O3 0.775226 0.000000 0.052926
O O4 0.750000 0.750000 0.000000
O O5 0.332743 0.500000 0.784339
O O6 0.283122 0.219422 0.769420
O O7 0.427540 0.318936 0.878388
O O8 0.454768 0.289553 0.783107
O O9 0.121909 0.757986 0.660439
O O10 0.107303 0.756904 0.762797
O O11 0.161153 0.000000 0.725448
O O12 0.430567 0.500000 0.409339
O O13 0.363668 0.272888 0.441441
O O14 0.547232 0.273778 0.441869
O O15 0.668395 0.500000 0.500296
O O16 0.750000 0.750000 0.500000
O O17 0.869580 0.000000 0.940087
O O18 0.000000 0.791413 0.000000
O O19 0.592050 0.500000 0.814058
#
# Coordination Sequence:
#
# PCOD8093532 Si02
#       7
#     8   8   8   8   8   8   8
#     4  11  21  35  54  77 103 134 176 224 273 329
#     4  10  20  35  54  77 106 138 173 219 273 322
#     4  10  19  36  57  77 105 144 185 221 260 316
#     4   8  17  33  54  77 109 149 181 213 264 323
#     4   9  17  33  55  82 111 143 182 221 262 310
#     4  10  20  35  54  75 104 138 173 218 278 332
#     4   9  19  35  54  74 102 138 175 214 265 325
#
# _framework density 18.904416000000001
#
# number of rings (size 3 to 8) (size 9 to 14) (size 15 to 20)
#    0.000    2.429    1.429    2.143    0.000    3.714 
#    0.000    7.857    0.000    0.000    0.000    0.000 
#    0.000    0.000    0.000    0.000    0.000    0.000 
#
# Total GULP energy -347006.053516 kJ/mol
# GULP energy per Si atom -12393.073340 kJ/mol
# Density = 1.886139 g / cm^3
# Si number density = 18.904416 Si / 1000 Ang^3
#
#
#
# Elastic Constant Matrix: (Units=GPa)
#
#
# Indices 1 2 3 4 5 6 
#
# 1 137.0434 21.2971 62.3650 0.0000 -9.5152 0.0000
# 2 21.2971 26.5168 20.5676 0.0000 -3.3010 0.0000
# 3 62.3650 20.5676 143.7548 0.0000 -4.2205 0.0000
# 4 0.0000 0.0000 0.0000 16.4386 0.0000 -0.7934
# 5 -9.5152 -3.3010 -4.2205 0.0000 25.2055 0.0000
# 6 0.0000 0.0000 0.0000 -0.7934 0.0000 32.0121
#
#
#
# Elastic Compliance Matrix: (Units=1/GPa)
#
#
# Indices 1 2 3 4 5 6 
#
# 1 0.009813 -0.004867 -0.003488 0.000000 0.002483 0.000000
# 2 -0.004867 0.045362 -0.004279 0.000000 0.003387 0.000000
# 3 -0.003488 -0.004279 0.009071 0.000000 -0.000358 0.000000
# 4 0.000000 0.000000 0.000000 0.060905 0.000000 0.001509
# 5 0.002483 0.003387 -0.000358 0.000000 0.040995 0.000000
# 6 0.000000 0.000000 0.000000 0.001509 0.000000 0.031276
#
#
# Mechanical properties :
#
#
# Convention : Reuss Voigt Hill
#
# Bulk Modulus (GPa) = 25.65571 57.30827 41.48199
# Shear Modulus (GPa) = 21.21502 28.27026 24.74264
#
# Velocity S-wave (km/s) = 3.35360 3.87128 3.62170
# Velocity P-wave (km/s) = 5.34754 7.09668 6.28328
#
# Compressibility (1/GPa) = 0.03897768
#
# Stress axis : x y z
#
# Youngs Moduli (GPa) = 101.90618 22.04510 110.23918
#
# Poissons Ratio (x) = 0.10729 0.38451
# Poissons Ratio (y) = 0.49596 0.47174
# Poissons Ratio (z) = 0.35544 0.09434
#
# Static dielectric constant tensor:
#      x y z
#    x 4.037280 0.000000 -0.583850 
#    y 0.000000 3.374860 0.000000 
#    z -0.583850 0.000000 4.250090 
# 
# 
# High freq. dielectric constant tensor:
#      x y z
#    x 1.740080 0.000000 -0.005280 
#    y 0.000000 1.695710 0.000000 
#    z -0.005280 0.000000 1.742000 
# 
# From -- ./inp_files/338198.got.cif
#   From: 2010.06.25/outbox.cif.g09.slc.cpg/sg12_170_cif.got.tgz:338198.got - 2010.06.28 00:19:55.
