data_PCOD8093049
_publ_section_title
;
Structure prediction by ZEFSAII (Michael W. Deem and Ramdas Pophale) SiO2 
 PCOD8093049
Probable space group: C 2/M
;
_chemical_formula_sum "Si O2"
_cell_formula_units_Z 48
_cell_length_a 11.343914
_cell_length_b 22.458271
_cell_length_c 15.316065
_cell_angle_alpha 90.000000
_cell_angle_beta 38.088208
_cell_angle_gamma 90.000000
_cell_volume 2407.037423
_symmetry_space_group_name_H-M "C 2/M"
_symmetry_group_IT_number 12
_symmetry_cell_setting 'monoclinic'
loop_
_space_group_symop_operation_xyz
x,y,z
-x,y,-z
-x,-y,-z
x,-y,z
1/2+x,1/2+y,z
1/2-x,1/2+y,-z
1/2-x,1/2-y,-z
1/2+x,1/2-y,z
loop_
_atom_site_type_symbol
_atom_site_label
_atom_site_fract_x
_atom_site_fract_y
_atom_site_fract_z
Si Si1 0.777790 0.608045 0.796584
Si Si2 0.319146 0.068272 0.396555
Si Si3 0.409702 0.433715 0.931176
Si Si4 0.280560 0.204966 0.656373
Si Si5 0.514277 0.376301 0.697766
Si Si6 0.699041 0.663362 0.335893
O O1 0.630335 0.564575 0.833193
O O2 0.763038 0.672883 0.760596
O O3 0.987777 0.580636 0.662076
O O4 0.716364 0.610599 0.934591
O O5 0.140936 0.080144 0.563977
O O6 0.322104 0.111045 0.309478
O O7 0.308879 0.000000 0.370808
O O8 0.323453 0.500000 0.988706
O O9 0.401742 0.412898 0.836449
O O10 0.500000 0.202975 0.500000
O O11 0.150156 0.174450 0.658740
O O12 0.200765 0.272220 0.712486
O O13 0.342201 0.348346 0.741757
O O14 0.500000 0.666788 0.500000
#
# Coordination Sequence:
#
# PCOD8093049 Si02
#       6
#     8   8   8   8   8   8
#     4  10  20  35  58  85 111 147 183 235 277 325
#     4  11  21  35  58  88 115 144 189 233 273 327
#     4  10  20  36  57  80 116 153 180 221 289 343
#     4  10  19  35  59  84 112 141 192 235 278 330
#     4  10  21  36  56  85 110 150 186 230 277 328
#     4   9  22  35  56  83 115 154 178 230 286 328
#
# _framework density 19.941526
#
# number of rings (size 3 to 8) (size 9 to 14) (size 15 to 20)
#    0.000    2.000    1.667    2.500    2.333    5.667 
#    0.000    4.167    7.333    2.000    0.000    0.000 
#    0.000    0.000    0.000    0.000    0.000    0.000 
#
# Total GULP energy -297544.199500 kJ/mol
# GULP energy per Si atom -12397.674979 kJ/mol
# Density = 1.989614 g / cm^3
# Si number density = 19.941526 Si / 1000 Ang^3
#
#
#
# Elastic Constant Matrix: (Units=GPa)
#
#
# Indices 1 2 3 4 5 6 
#
# 1 83.5758 51.3198 23.6587 0.0047 25.6402 -0.0058
# 2 51.3198 168.4965 32.8632 0.0024 18.1829 -0.0010
# 3 23.6587 32.8632 67.8233 -0.0221 25.7110 0.0219
# 4 0.0047 0.0024 -0.0221 15.7505 0.0095 3.8849
# 5 25.6402 18.1829 25.7110 0.0095 31.6525 -0.0052
# 6 -0.0058 -0.0010 0.0219 3.8849 -0.0052 22.0602
#
#
#
# Elastic Compliance Matrix: (Units=1/GPa)
#
#
# Indices 1 2 3 4 5 6 
#
# 1 0.018418 -0.004328 0.000557 0.000004 -0.012886 0.000000
# 2 -0.004328 0.007636 -0.002682 -0.000005 0.001298 0.000003
# 3 0.000557 -0.002682 0.022305 0.000050 -0.017029 -0.000035
# 4 0.000004 -0.000005 0.000050 0.066373 -0.000063 -0.011689
# 5 -0.012886 0.001298 -0.017029 -0.000063 0.055118 0.000038
# 6 0.000000 0.000003 -0.000035 -0.011689 0.000038 0.047389
#
#
# Mechanical properties :
#
#
# Convention : Reuss Voigt Hill
#
# Bulk Modulus (GPa) = 28.20611 59.50878 43.85745
# Shear Modulus (GPa) = 20.66425 28.02955 24.34690
#
# Velocity S-wave (km/s) = 3.22256 3.75318 3.49795
# Velocity P-wave (km/s) = 5.29355 6.97770 6.19314
#
# Compressibility (1/GPa) = 0.03545331
#
# Stress axis : x y z
#
# Youngs Moduli (GPa) = 54.29360 130.95713 44.83311
#
# Poissons Ratio (x) = 0.56676 -0.02498
# Poissons Ratio (y) = 0.23497 0.12026
# Poissons Ratio (z) = -0.03025 0.35128
#
# Static dielectric constant tensor:
#      x y z
#    x 3.832950 -0.000010 0.172100 
#    y -0.000010 3.791660 0.000000 
#    z 0.172100 0.000000 3.510990 
# 
# 
# High freq. dielectric constant tensor:
#      x y z
#    x 1.774600 0.000000 0.010370 
#    y 0.000000 1.776390 0.000000 
#    z 0.010370 0.000000 1.757340 
# 
# From -- ./inp_files/207910.got.cif
#   From: 2010.06.25/outbox.cif.g09.slc.cpg/sg12_104_cif.got.tgz:207910.got - 2010.06.28 00:19:55.
