data_PCOD8093022
_publ_section_title
;
Structure prediction by ZEFSAII (Michael W. Deem and Ramdas Pophale) SiO2 
 PCOD8093022
Probable space group: C 2/M
;
_chemical_formula_sum "Si O2"
_cell_formula_units_Z 64
_cell_length_a 20.576735
_cell_length_b 8.929481
_cell_length_c 22.438086
_cell_angle_alpha 90.000000
_cell_angle_beta 124.272842
_cell_angle_gamma 90.000000
_cell_volume 3406.909274
_symmetry_space_group_name_H-M "C 2/M"
_symmetry_group_IT_number 12
_symmetry_cell_setting 'monoclinic'
loop_
_space_group_symop_operation_xyz
x,y,z
-x,y,-z
-x,-y,-z
x,-y,z
1/2+x,1/2+y,z
1/2-x,1/2+y,-z
1/2-x,1/2-y,-z
1/2+x,1/2-y,z
loop_
_atom_site_type_symbol
_atom_site_label
_atom_site_fract_x
_atom_site_fract_y
_atom_site_fract_z
Si Si1 0.681735 0.322941 0.591376
Si Si2 0.223071 0.676995 0.047079
Si Si3 0.583077 0.823191 0.436236
Si Si4 0.642423 0.178108 0.339262
Si Si5 0.401820 0.172568 0.344826
Si Si6 0.646174 0.173662 0.814652
Si Si7 0.044881 0.322073 0.966009
Si Si8 0.502429 0.821724 0.186722
O O1 0.679212 0.500000 0.584636
O O2 0.629261 0.254837 0.512682
O O3 0.770738 0.262275 0.630840
O O4 0.649482 0.274727 0.638567
O O5 0.228044 0.500000 0.042990
O O6 0.276984 0.731878 0.129132
O O7 0.250000 0.750000 0.000000
O O8 0.134844 0.730536 0.015436
O O9 0.616566 0.762875 0.390835
O O10 0.492269 0.777730 0.394986
O O11 0.594207 0.000000 0.447357
O O12 0.581906 0.241350 0.258262
O O13 0.639281 0.000000 0.337426
O O14 0.370337 0.200273 0.262751
O O15 0.392979 0.000000 0.359418
O O16 0.572739 0.235036 0.814869
O O17 0.661382 0.000000 0.837108
O O18 0.039581 0.500000 0.963939
O O19 0.003982 0.261504 0.884276
O O20 0.000000 0.253692 0.000000
O O21 0.503254 0.000000 0.188849
#
# Coordination Sequence:
#
# PCOD8093022 Si02
#       8
#     8   8   8   8   8   8   8   8
#     4  11  23  35  51  82 119 143 168 222 291 333
#     4  11  21  34  56  85 114 144 181 224 270 321
#     4  10  19  36  60  79  99 140 196 232 261 320
#     4   9  18  33  55  80 104 140 187 231 270 319
#     4  10  21  37  58  80 104 142 191 229 265 323
#     4  10  19  35  59  83 105 140 187 233 273 313
#     4   9  18  31  51  82 112 139 177 222 265 312
#     4   9  15  30  55  78 103 137 182 227 264 312
#
# _framework density 18.785354000000002
#
# number of rings (size 3 to 8) (size 9 to 14) (size 15 to 20)
#    0.000    2.125    2.500    1.500    0.000    3.500 
#    0.000    3.125    0.000    3.000    0.000    0.000 
#    0.000    0.000    0.000    0.000    0.000    0.000 
#
# Total GULP energy -396837.587830 kJ/mol
# GULP energy per Si atom -12401.174620 kJ/mol
# Density = 1.874260 g / cm^3
# Si number density = 18.785354 Si / 1000 Ang^3
#
#
#
# Elastic Constant Matrix: (Units=GPa)
#
#
# Indices 1 2 3 4 5 6 
#
# 1 151.0838 29.0742 64.9534 0.0000 -4.0859 0.0000
# 2 29.0742 29.9266 26.7177 0.0000 3.5545 0.0000
# 3 64.9534 26.7177 137.7573 0.0000 2.4776 0.0000
# 4 0.0000 0.0000 0.0000 18.5446 0.0000 3.6915
# 5 -4.0859 3.5545 2.4776 0.0000 31.7320 0.0000
# 6 0.0000 0.0000 0.0000 3.6915 0.0000 22.3664
#
#
#
# Elastic Compliance Matrix: (Units=1/GPa)
#
#
# Indices 1 2 3 4 5 6 
#
# 1 0.009278 -0.006447 -0.003163 0.000000 0.002164 0.000000
# 2 -0.006447 0.045385 -0.005664 0.000000 -0.005472 0.000000
# 3 -0.003163 -0.005664 0.009859 0.000000 -0.000543 0.000000
# 4 0.000000 0.000000 0.000000 0.055756 0.000000 -0.009202
# 5 0.002164 -0.005472 -0.000543 0.000000 0.032448 0.000000
# 6 0.000000 0.000000 0.000000 -0.009202 0.000000 0.046229
#
#
# Mechanical properties :
#
#
# Convention : Reuss Voigt Hill
#
# Bulk Modulus (GPa) = 29.43463 62.25092 45.84278
# Shear Modulus (GPa) = 20.76182 27.73009 24.24596
#
# Velocity S-wave (km/s) = 3.32808 3.84624 3.59651
# Velocity P-wave (km/s) = 5.52006 7.27563 6.45778
#
# Compressibility (1/GPa) = 0.03397358
#
# Stress axis : x y z
#
# Youngs Moduli (GPa) = 107.78403 22.03379 101.43087
#
# Poissons Ratio (x) = 0.14204 0.32084
# Poissons Ratio (y) = 0.69483 0.57453
# Poissons Ratio (z) = 0.34094 0.12481
#
# Static dielectric constant tensor:
#      x y z
#    x 3.796510 0.000000 0.082330 
#    y 0.000000 3.083730 0.000000 
#    z 0.082330 0.000000 3.727150 
# 
# 
# High freq. dielectric constant tensor:
#      x y z
#    x 1.737500 0.000000 0.000820 
#    y 0.000000 1.686700 0.000000 
#    z 0.000820 0.000000 1.749130 
# 
# From -- ./inp_files/346144.got.cif
#   From: 2010.06.25/outbox.cif.g09.slc.cpg/sg12_174_cif.got.tgz:346144.got - 2010.06.28 00:19:55.
