data_PCOD8093148
_publ_section_title
;
Structure prediction by ZEFSAII (Michael W. Deem and Ramdas Pophale) SiO2 
 PCOD8093148
Probable space group: C 2/M
;
_chemical_formula_sum "Si O2"
_cell_formula_units_Z 48
_cell_length_a 19.831681
_cell_length_b 8.840812
_cell_length_c 24.300425
_cell_angle_alpha 90.000000
_cell_angle_beta 145.020636
_cell_angle_gamma 90.000000
_cell_volume 2442.493294
_symmetry_space_group_name_H-M "C 2/M"
_symmetry_group_IT_number 12
_symmetry_cell_setting 'monoclinic'
loop_
_space_group_symop_operation_xyz
x,y,z
-x,y,-z
-x,-y,-z
x,-y,z
1/2+x,1/2+y,z
1/2-x,1/2+y,-z
1/2-x,1/2-y,-z
1/2+x,1/2-y,z
loop_
_atom_site_type_symbol
_atom_site_label
_atom_site_fract_x
_atom_site_fract_y
_atom_site_fract_z
Si Si1 0.329062 0.173851 0.598258
Si Si2 0.931719 0.323125 0.101917
Si Si3 0.325814 0.321491 0.713093
Si Si4 0.071552 0.671673 0.702675
Si Si5 0.266951 0.175467 0.091868
Si Si6 0.100514 0.823308 0.610089
O O1 0.250000 0.250000 0.500000
O O2 0.304230 0.254349 0.638769
O O3 0.464424 0.192082 0.673014
O O4 0.292298 0.000000 0.580057
O O5 0.958153 0.500000 0.116903
O O6 0.867444 0.276469 0.115535
O O7 0.054534 0.236787 0.179580
O O8 0.850167 0.273746 0.996085
O O9 0.329946 0.500000 0.711768
O O10 0.218256 0.271564 0.679466
O O11 0.075102 0.500000 0.682407
O O12 0.188080 0.708152 0.816275
O O13 0.056855 0.786338 0.642440
O O14 0.235873 0.000000 0.062557
O O15 0.000000 0.773131 0.500000
O O16 0.127815 0.000000 0.622728
#
# Coordination Sequence:
#
# PCOD8093148 Si02
#       6
#     8   8   8   8   8   8
#     4  11  22  38  59  88 121 154 196 250 301 352
#     4  10  19  35  59  89 123 157 194 245 298 354
#     4  12  24  39  61  88 119 160 203 246 298 357
#     4  10  21  39  61  86 120 157 196 243 298 357
#     4   9  18  35  58  88 122 157 193 240 299 358
#     4  11  25  43  62  85 118 159 202 251 303 358
#
# _framework density 19.652049999999999
#
# number of rings (size 3 to 8) (size 9 to 14) (size 15 to 20)
#    0.000    1.500    1.667    4.000    0.000    6.667 
#    0.000    0.833    0.000    5.000    0.000    0.000 
#    0.000    0.000    0.000    0.000    0.000    0.000 
#
# Total GULP energy -297727.395443 kJ/mol
# GULP energy per Si atom -12405.308143 kJ/mol
# Density = 1.960732 g / cm^3
# Si number density = 19.652050 Si / 1000 Ang^3
#
#
#
# Elastic Constant Matrix: (Units=GPa)
#
#
# Indices 1 2 3 4 5 6 
#
# 1 41.6737 18.8086 11.1439 0.0000 -4.3342 0.0000
# 2 18.8086 107.4713 42.4221 0.0000 4.3247 0.0000
# 3 11.1439 42.4221 106.5870 0.0000 -3.1934 0.0000
# 4 0.0000 0.0000 0.0000 36.7469 0.0000 -1.2814
# 5 -4.3342 4.3247 -3.1934 0.0000 31.7192 0.0000
# 6 0.0000 0.0000 0.0000 -1.2814 0.0000 32.1663
#
#
#
# Elastic Compliance Matrix: (Units=1/GPa)
#
#
# Indices 1 2 3 4 5 6 
#
# 1 0.026692 -0.004493 -0.000878 0.000000 0.004172 0.000000
# 2 -0.004493 0.011917 -0.004354 0.000000 -0.002677 0.000000
# 3 -0.000878 -0.004354 0.011255 0.000000 0.001607 0.000000
# 4 0.000000 0.000000 0.000000 0.027251 0.000000 0.001086
# 5 0.004172 -0.002677 0.001607 0.000000 0.032623 0.000000
# 6 0.000000 0.000000 0.000000 0.001086 0.000000 0.031132
#
#
# Mechanical properties :
#
#
# Convention : Reuss Voigt Hill
#
# Bulk Modulus (GPa) = 32.87731 44.49791 38.68761
# Shear Modulus (GPa) = 29.33286 32.35030 30.84158
#
# Velocity S-wave (km/s) = 3.86762 4.06168 3.96584
# Velocity P-wave (km/s) = 6.05894 6.68494 6.37962
#
# Compressibility (1/GPa) = 0.03041611
#
# Stress axis : x y z
#
# Youngs Moduli (GPa) = 37.46402 83.91137 88.85214
#
# Poissons Ratio (x) = 0.37701 0.07797
# Poissons Ratio (y) = 0.16832 0.38683
# Poissons Ratio (z) = 0.03288 0.36532
#
# Static dielectric constant tensor:
#      x y z
#    x 3.387110 0.000000 0.059370 
#    y 0.000000 3.665580 0.000000 
#    z 0.059370 0.000000 3.802040 
# 
# 
# High freq. dielectric constant tensor:
#      x y z
#    x 1.746680 0.000000 -0.001880 
#    y 0.000000 1.771300 0.000000 
#    z -0.001880 0.000000 1.781240 
# 
# From -- ./inp_files/365544.got.cif
#   From: 2010.06.25/outbox.cif.g09.slc.cpg/sg12_183_cif.got.tgz:365544.got - 2010.06.28 00:19:55.
