data_PCOD8093030
_publ_section_title
;
Structure prediction by ZEFSAII (Michael W. Deem and Ramdas Pophale) SiO2 
 PCOD8093030
Probable space group: C 2/M
;
_chemical_formula_sum "Si O2"
_cell_formula_units_Z 28
_cell_length_a 34.190691
_cell_length_b 5.231296
_cell_length_c 9.822036
_cell_angle_alpha 90.000000
_cell_angle_beta 126.675132
_cell_angle_gamma 90.000000
_cell_volume 1409.003235
_symmetry_space_group_name_H-M "C 2/M"
_symmetry_group_IT_number 12
_symmetry_cell_setting 'monoclinic'
loop_
_space_group_symop_operation_xyz
x,y,z
-x,y,-z
-x,-y,-z
x,-y,z
1/2+x,1/2+y,z
1/2-x,1/2+y,-z
1/2-x,1/2-y,-z
1/2+x,1/2-y,z
loop_
_atom_site_type_symbol
_atom_site_label
_atom_site_fract_x
_atom_site_fract_y
_atom_site_fract_z
Si Si1 0.111856 0.000000 0.637118
Si Si2 0.954289 0.500000 0.808982
Si Si3 0.733001 0.000000 0.298233
Si Si4 0.605215 0.500000 0.308143
Si Si5 0.049215 0.500000 0.515400
Si Si6 0.722751 0.500000 0.890347
Si Si7 0.302828 0.500000 0.690290
O O1 0.081474 0.250592 0.618214
O O2 0.122157 0.000000 0.498506
O O3 0.165770 0.000000 0.816841
O O4 0.924858 0.749422 0.788341
O O5 0.967538 0.500000 0.676649
O O6 0.000000 0.500000 0.000000
O O7 0.773960 0.000000 0.266845
O O8 0.699071 0.747967 0.215631
O O9 0.755920 0.000000 0.495613
O O10 0.649865 0.500000 0.301042
O O11 0.000000 0.500000 0.500000
O O12 0.750000 0.750000 0.000000
#
# Coordination Sequence:
#
# PCOD8093030 Si02
#       7
#     4   4   4   4   4   4   4
#     4  10  21  39  60  85 112 155 208 234 286 361
#     4  10  21  36  57  86 116 145 186 240 302 351
#     4  10  21  35  55  84 115 145 189 237 288 321
#     4  10  19  36  60  82 111 150 192 233 282 356
#     4  10  21  39  64  86 113 152 200 249 296 359
#     4  12  24  40  59  84 125 165 201 244 290 354
#     4  10  19  35  59  83 110 144 191 243 271 336
#
# _framework density 19.872204
#
# number of rings (size 3 to 8) (size 9 to 14) (size 15 to 20)
#    0.000    1.714    1.429    3.429    0.000    0.000 
#    0.000    8.571    0.000    0.000    0.000    0.000 
#    0.000    0.000    0.000    0.000    0.000    0.000 
#
# Total GULP energy -173577.154483 kJ/mol
# GULP energy per Si atom -12398.368177 kJ/mol
# Density = 1.982697 g / cm^3
# Si number density = 19.872204 Si / 1000 Ang^3
#
#
#
# Elastic Constant Matrix: (Units=GPa)
#
#
# Indices 1 2 3 4 5 6 
#
# 1 163.8240 82.2907 26.9924 0.0000 18.7053 0.0000
# 2 82.2907 219.5040 43.1406 0.0000 21.4501 0.0000
# 3 26.9924 43.1406 56.0978 0.0000 25.2787 0.0000
# 4 0.0000 0.0000 0.0000 22.4443 0.0000 -4.1446
# 5 18.7053 21.4501 25.2787 0.0000 31.4982 0.0000
# 6 0.0000 0.0000 0.0000 -4.1446 0.0000 22.5060
#
#
#
# Elastic Compliance Matrix: (Units=1/GPa)
#
#
# Indices 1 2 3 4 5 6 
#
# 1 0.007764 -0.002540 -0.000759 0.000000 -0.002272 0.000000
# 2 -0.002540 0.006203 -0.003641 0.000000 0.000206 0.000000
# 3 -0.000759 -0.003641 0.030815 0.000000 -0.021800 0.000000
# 4 0.000000 0.000000 0.000000 0.046123 0.000000 0.008494
# 5 -0.002272 0.000206 -0.021800 0.000000 0.050452 0.000000
# 6 0.000000 0.000000 0.000000 0.008494 0.000000 0.045997
#
#
# Mechanical properties :
#
#
# Convention : Reuss Voigt Hill
#
# Bulk Modulus (GPa) = 32.35975 82.69705 57.52840
# Shear Modulus (GPa) = 23.63667 34.42316 29.02991
#
# Velocity S-wave (km/s) = 3.45256 4.16652 3.82623
# Velocity P-wave (km/s) = 5.67563 8.05303 6.96649
#
# Compressibility (1/GPa) = 0.03090259
#
# Stress axis : x y z
#
# Youngs Moduli (GPa) = 128.79526 161.20386 32.45173
#
# Poissons Ratio (x) = 0.40939 0.02463
# Poissons Ratio (y) = 0.32708 0.11817
# Poissons Ratio (z) = 0.09776 0.58701
#
# Static dielectric constant tensor:
#      x y z
#    x 3.534560 0.000000 -0.014080 
#    y 0.000000 4.220370 0.000000 
#    z -0.014080 0.000000 3.412560 
# 
# 
# High freq. dielectric constant tensor:
#      x y z
#    x 1.777340 0.000000 -0.000650 
#    y 0.000000 1.804830 0.000000 
#    z -0.000650 0.000000 1.748950 
# 
# From -- ./inp_files/107153.got.cif
#   From: 2010.06.25/outbox.cif.g09.slc.cpg/sg12_54_cif.got.tgz:107153.got - 2010.06.28 00:19:55.
