data_PCOD8093545
_publ_section_title
;
Structure prediction by ZEFSAII (Michael W. Deem and Ramdas Pophale) SiO2 
 PCOD8093545
Probable space group: C 2/M
;
_chemical_formula_sum "Si O2"
_cell_formula_units_Z 64
_cell_length_a 9.628464
_cell_length_b 30.498608
_cell_length_c 15.138290
_cell_angle_alpha 90.000000
_cell_angle_beta 132.742493
_cell_angle_gamma 90.000000
_cell_volume 3264.775205
_symmetry_space_group_name_H-M "C 2/M"
_symmetry_group_IT_number 12
_symmetry_cell_setting 'monoclinic'
loop_
_space_group_symop_operation_xyz
x,y,z
-x,y,-z
-x,-y,-z
x,-y,z
1/2+x,1/2+y,z
1/2-x,1/2+y,-z
1/2-x,1/2-y,-z
1/2+x,1/2-y,z
loop_
_atom_site_type_symbol
_atom_site_label
_atom_site_fract_x
_atom_site_fract_y
_atom_site_fract_z
Si Si1 0.535839 0.448815 0.616086
Si Si2 0.662419 0.151285 0.882432
Si Si3 0.716651 0.951986 0.617302
Si Si4 0.484003 0.757288 0.766749
Si Si5 0.880053 0.599767 0.863763
Si Si6 0.756971 0.864905 0.729394
Si Si7 0.584250 0.778523 0.625876
Si Si8 0.145398 0.831499 0.860796
O O1 0.500000 0.430042 0.500000
O O2 0.578986 0.500000 0.626707
O O3 0.344359 0.438780 0.587925
O O4 0.714815 0.429676 0.748933
O O5 0.548169 0.196725 0.833428
O O6 0.520903 0.111329 0.844549
O O7 0.774131 0.140798 0.841639
O O8 0.820865 0.154642 0.024458
O O9 0.500000 0.955493 0.500000
O O10 0.725200 0.915971 0.697472
O O11 0.784699 0.000000 0.681971
O O12 0.450657 0.762287 0.647214
O O13 0.293487 0.741138 0.731871
O O14 0.648909 0.721045 0.852062
O O15 0.795512 0.646082 0.860740
O O16 0.000000 0.578757 0.000000
O O17 0.589629 0.831927 0.625906
O O18 0.938059 0.850229 0.750843
O O19 0.500000 0.759365 0.500000
#
# Coordination Sequence:
#
# PCOD8093545 Si02
#       8
#     8   8   8   8   8   8   8   8
#     4  10  22  41  64  91 119 150 195 241 288 350
#     4  10  21  34  55  84 111 147 195 238 284 341
#     4  10  21  38  62  87 115 150 188 237 287 342
#     4  10  20  34  54  76 106 147 189 236 283 330
#     4  10  21  38  58  87 121 156 191 241 295 349
#     4  10  20  35  56  80 112 146 190 231 288 345
#     4  10  20  34  50  74 109 145 184 230 281 345
#     4  10  19  36  57  78 111 149 193 242 286 337
#
# _framework density 19.603186999999998
#
# number of rings (size 3 to 8) (size 9 to 14) (size 15 to 20)
#    0.000    2.000    1.250    2.250    1.750    0.250 
#    0.000    6.250    0.000    2.250    0.000    0.000 
#    0.000    0.000    0.000    0.000    0.000    0.000 
#
# Total GULP energy -396524.477661 kJ/mol
# GULP energy per Si atom -12391.389927 kJ/mol
# Density = 1.955857 g / cm^3
# Si number density = 19.603187 Si / 1000 Ang^3
#
#
#
# Elastic Constant Matrix: (Units=GPa)
#
#
# Indices 1 2 3 4 5 6 
#
# 1 70.2520 21.1881 19.3410 0.0000 -3.3371 0.0000
# 2 21.1881 91.7969 26.8415 0.0000 -4.7287 0.0000
# 3 19.3410 26.8415 79.1287 0.0000 1.2174 0.0000
# 4 0.0000 0.0000 0.0000 14.5898 0.0000 -5.2480
# 5 -3.3371 -4.7287 1.2174 0.0000 24.2079 0.0000
# 6 0.0000 0.0000 0.0000 -5.2480 0.0000 17.1379
#
#
#
# Elastic Compliance Matrix: (Units=1/GPa)
#
#
# Indices 1 2 3 4 5 6 
#
# 1 0.015968 -0.002711 -0.003011 0.000000 0.001823 0.000000
# 2 -0.002711 0.012715 -0.003686 0.000000 0.002295 0.000000
# 3 -0.003011 -0.003686 0.014653 0.000000 -0.001872 0.000000
# 4 0.000000 0.000000 0.000000 0.077025 0.000000 0.023587
# 5 0.001823 0.002295 -0.001872 0.000000 0.042103 0.000000
# 6 0.000000 0.000000 0.000000 0.023587 0.000000 0.065573
#
#
# Mechanical properties :
#
#
# Convention : Reuss Voigt Hill
#
# Bulk Modulus (GPa) = 40.78428 41.76877 41.27653
# Shear Modulus (GPa) = 19.60577 22.77425 21.19001
#
# Velocity S-wave (km/s) = 3.16592 3.41216 3.29134
# Velocity P-wave (km/s) = 5.84928 6.07266 5.96202
#
# Compressibility (1/GPa) = 0.02451925
#
# Stress axis : x y z
#
# Youngs Moduli (GPa) = 62.62603 78.64481 68.24647
#
# Poissons Ratio (x) = 0.21322 0.20551
# Poissons Ratio (y) = 0.16979 0.25155
# Poissons Ratio (z) = 0.18859 0.28987
#
# Static dielectric constant tensor:
#      x y z
#    x 3.571970 0.000000 -0.065100 
#    y 0.000000 3.697610 0.000000 
#    z -0.065100 0.000000 3.487080 
# 
# 
# High freq. dielectric constant tensor:
#      x y z
#    x 1.774340 0.000000 -0.002290 
#    y 0.000000 1.752350 0.000000 
#    z -0.002290 0.000000 1.753110 
# 
# From -- ./inp_files/200940.got.cif
#   From: 2010.06.25/outbox.cif.g09.slc.cpg/sg12_101_cif.got.tgz:200940.got - 2010.06.28 00:19:55.
