data_PCOD8093467
_publ_section_title
;
Structure prediction by ZEFSAII (Michael W. Deem and Ramdas Pophale) SiO2 
 PCOD8093467
Probable space group: C 2/M
;
_chemical_formula_sum "Si O2"
_cell_formula_units_Z 56
_cell_length_a 17.791604
_cell_length_b 19.155395
_cell_length_c 14.857959
_cell_angle_alpha 90.000000
_cell_angle_beta 142.271290
_cell_angle_gamma 90.000000
_cell_volume 3098.578160
_symmetry_space_group_name_H-M "C 2/M"
_symmetry_group_IT_number 12
_symmetry_cell_setting 'monoclinic'
loop_
_space_group_symop_operation_xyz
x,y,z
-x,y,-z
-x,-y,-z
x,-y,z
1/2+x,1/2+y,z
1/2-x,1/2+y,-z
1/2-x,1/2-y,-z
1/2+x,1/2-y,z
loop_
_atom_site_type_symbol
_atom_site_label
_atom_site_fract_x
_atom_site_fract_y
_atom_site_fract_z
Si Si1 0.765168 0.580159 0.212686
Si Si2 0.202975 0.080776 0.356334
Si Si3 0.722365 0.692830 0.899963
Si Si4 0.066101 0.865714 0.896832
Si Si5 0.523786 0.791719 0.918699
Si Si6 0.851866 0.309420 0.598645
Si Si7 0.061130 0.295437 0.653627
O O1 0.810742 0.500000 0.251977
O O2 0.737830 0.604357 0.288554
O O3 0.870439 0.630012 0.271983
O O4 0.640284 0.587370 0.038022
O O5 0.292074 0.118487 0.511038
O O6 0.062851 0.098400 0.244779
O O7 0.226749 0.000000 0.392872
O O8 0.638384 0.634624 0.869291
O O9 0.654705 0.730746 0.752359
O O10 0.750000 0.750000 0.000000
O O11 0.853684 0.663480 0.990387
O O12 0.047062 0.789560 0.920924
O O13 0.406684 0.818333 0.750797
O O14 0.500000 0.804610 0.000000
O O15 0.750000 0.250000 0.500000
O O16 0.962756 0.287380 0.639166
O O17 0.000000 0.288184 0.500000
#
# Coordination Sequence:
#
# PCOD8093467 Si02
#       7
#     8   8   8   8   8   8   8
#     4  11  22  34  55  84 119 160 190 216 278 361
#     4  11  23  37  55  85 123 156 186 229 287 352
#     4  10  19  36  54  79 108 147 190 235 279 325
#     4  11  19  36  57  80 117 155 189 236 273 341
#     4  11  21  34  59  83 113 145 188 244 294 328
#     4  12  23  37  56  87 115 151 196 236 283 345
#     4  12  22  35  55  78 120 153 183 233 286 333
#
# _framework density 18.072804999999999
#
# number of rings (size 3 to 8) (size 9 to 14) (size 15 to 20)
#    0.000    0.857    8.571    1.714    2.000    2.000 
#    0.000    0.000    0.000    0.429    0.000    1.000 
#    0.000    0.000    0.000    0.000    0.000    0.000 
#
# Total GULP energy -347229.033397 kJ/mol
# GULP energy per Si atom -12401.036907 kJ/mol
# Density = 1.803167 g / cm^3
# Si number density = 18.072805 Si / 1000 Ang^3
#
#
#
# Elastic Constant Matrix: (Units=GPa)
#
#
# Indices 1 2 3 4 5 6 
#
# 1 115.4723 32.7551 50.1942 0.0000 6.5510 0.0000
# 2 32.7551 61.2935 33.4815 0.0000 0.4330 0.0000
# 3 50.1942 33.4815 143.4199 0.0000 -3.0662 0.0000
# 4 0.0000 0.0000 0.0000 26.3473 0.0000 0.0111
# 5 6.5510 0.4330 -3.0662 0.0000 33.0929 0.0000
# 6 0.0000 0.0000 0.0000 0.0111 0.0000 22.5486
#
#
#
# Elastic Compliance Matrix: (Units=1/GPa)
#
#
# Indices 1 2 3 4 5 6 
#
# 1 0.011354 -0.004414 -0.002996 0.000000 -0.002468 0.000000
# 2 -0.004414 0.020429 -0.003218 0.000000 0.000308 0.000000
# 3 -0.002996 -0.003218 0.008803 0.000000 0.001451 0.000000
# 4 0.000000 0.000000 0.000000 0.037955 0.000000 -0.000019
# 5 -0.002468 0.000308 0.001451 0.000000 0.030837 0.000000
# 6 0.000000 0.000000 0.000000 -0.000019 0.000000 0.044349
#
#
# Mechanical properties :
#
#
# Convention : Reuss Voigt Hill
#
# Bulk Modulus (GPa) = 51.72924 61.44970 56.58947
# Shear Modulus (GPa) = 27.55937 29.98144 28.77041
#
# Velocity S-wave (km/s) = 3.90924 4.07741 3.99421
# Velocity P-wave (km/s) = 7.00436 7.49947 7.25614
#
# Compressibility (1/GPa) = 0.01933143
#
# Stress axis : x y z
#
# Youngs Moduli (GPa) = 88.07089 48.94950 113.59248
#
# Poissons Ratio (x) = 0.21605 0.34035
# Poissons Ratio (y) = 0.38872 0.36553
# Poissons Ratio (z) = 0.26388 0.15752
#
# Static dielectric constant tensor:
#      x y z
#    x 3.850650 0.000000 0.323700 
#    y 0.000000 3.411390 0.000000 
#    z 0.323700 0.000000 3.442960 
# 
# 
# High freq. dielectric constant tensor:
#      x y z
#    x 1.704260 0.000000 0.013510 
#    y 0.000000 1.660170 0.000000 
#    z 0.013510 0.000000 1.717130 
# 
# From -- ./inp_files/226600.got.cif
#   From: 2010.06.25/outbox.cif.g09.slc.cpg/sg12_114_cif.got.tgz:226600.got - 2010.06.28 00:19:55.
