data_PCOD8093805
_publ_section_title
;
Structure prediction by ZEFSAII (Michael W. Deem and Ramdas Pophale) SiO2 
 PCOD8093805
Probable space group: C 2/M
;
_chemical_formula_sum "Si O2"
_cell_formula_units_Z 56
_cell_length_a 19.458798
_cell_length_b 8.815434
_cell_length_c 27.519090
_cell_angle_alpha 90.000000
_cell_angle_beta 141.441228
_cell_angle_gamma 90.000000
_cell_volume 2942.407404
_symmetry_space_group_name_H-M "C 2/M"
_symmetry_group_IT_number 12
_symmetry_cell_setting 'monoclinic'
loop_
_space_group_symop_operation_xyz
x,y,z
-x,y,-z
-x,-y,-z
x,-y,z
1/2+x,1/2+y,z
1/2-x,1/2+y,-z
1/2-x,1/2-y,-z
1/2+x,1/2-y,z
loop_
_atom_site_type_symbol
_atom_site_label
_atom_site_fract_x
_atom_site_fract_y
_atom_site_fract_z
Si Si1 0.780143 0.674009 0.874198
Si Si2 0.095950 0.823600 0.697780
Si Si3 0.379406 0.671642 0.443450
Si Si4 0.249089 0.177503 0.292423
Si Si5 0.065482 0.320907 0.130104
Si Si6 0.325561 0.679350 0.999680
Si Si7 0.641342 0.668185 0.454241
O O1 0.800189 0.500000 0.901028
O O2 0.659488 0.694869 0.783780
O O3 0.874937 0.722758 0.887986
O O4 0.779880 0.778934 0.921253
O O5 0.151035 0.719799 0.687671
O O6 0.969948 0.764960 0.632202
O O7 0.099966 0.000000 0.682853
O O8 0.500000 0.740929 0.500000
O O9 0.371944 0.500000 0.418739
O O10 0.284378 0.772770 0.365988
O O11 0.363496 0.676030 0.491271
O O12 0.139515 0.266974 0.216069
O O13 0.224064 0.000000 0.276820
O O14 0.048472 0.500000 0.123852
O O15 0.949487 0.239169 0.071294
O O16 0.324345 0.500000 0.005587
O O17 0.250000 0.750000 0.000000
O O18 0.653200 0.500000 0.440847
O O19 0.750000 0.750000 0.500000
#
# Coordination Sequence:
#
# PCOD8093805 Si02
#       7
#     8   8   8   8   8   8   8
#     4   9  19  37  64  90 114 150 194 240 291 347
#     4   9  18  37  60  82 113 156 196 234 287 347
#     4  10  19  36  60  80 110 155 200 237 283 345
#     4  11  21  33  56  91 121 146 188 247 295 333
#     4  10  21  40  65  89 118 154 194 237 287 348
#     4  12  25  41  61  87 122 157 193 237 289 346
#     4  10  21  37  57  81 112 154 195 240 290 341
#
# _framework density 19.032035
#
# number of rings (size 3 to 8) (size 9 to 14) (size 15 to 20)
#    0.000    1.857    1.429    4.286    0.000    6.000 
#    2.571    0.000    0.000    0.000    0.000    0.000 
#    0.000    0.000    0.000    0.000    0.000    0.000 
#
# Total GULP energy -347164.305519 kJ/mol
# GULP energy per Si atom -12398.725197 kJ/mol
# Density = 1.898872 g / cm^3
# Si number density = 19.032035 Si / 1000 Ang^3
#
#
#
# Elastic Constant Matrix: (Units=GPa)
#
#
# Indices 1 2 3 4 5 6 
#
# 1 92.5481 45.5687 64.2867 0.0000 17.3440 0.0002
# 2 45.5687 100.2802 52.5633 0.0000 3.6947 0.0004
# 3 64.2867 52.5633 150.0833 0.0000 15.6912 -0.0001
# 4 0.0000 0.0000 0.0000 32.9617 0.0000 1.4549
# 5 17.3440 3.6947 15.6912 0.0000 27.2114 -0.0001
# 6 0.0002 0.0004 -0.0001 1.4549 -0.0001 30.5767
#
#
#
# Elastic Compliance Matrix: (Units=1/GPa)
#
#
# Indices 1 2 3 4 5 6 
#
# 1 0.018633 -0.005425 -0.005232 0.000000 -0.008123 0.000000
# 2 -0.005425 0.013813 -0.002851 0.000000 0.003227 0.000000
# 3 -0.005232 -0.002851 0.010124 0.000000 -0.002116 0.000000
# 4 0.000000 0.000000 0.000000 0.030402 0.000000 -0.001447
# 5 -0.008123 0.003227 -0.002116 0.000000 0.042709 0.000000
# 6 0.000000 0.000000 0.000000 -0.001447 0.000000 0.032773
#
#
# Mechanical properties :
#
#
# Convention : Reuss Voigt Hill
#
# Bulk Modulus (GPa) = 64.29672 74.19432 69.24552
# Shear Modulus (GPa) = 27.67703 30.18283 28.92993
#
# Velocity S-wave (km/s) = 3.81758 3.98665 3.90303
# Velocity P-wave (km/s) = 7.29991 7.76271 7.53486
#
# Compressibility (1/GPa) = 0.01555289
#
# Stress axis : x y z
#
# Youngs Moduli (GPa) = 53.66805 72.39546 98.77760
#
# Poissons Ratio (x) = 0.39278 0.51680
# Poissons Ratio (y) = 0.29117 0.28162
# Poissons Ratio (z) = 0.28079 0.20641
#
# Static dielectric constant tensor:
#      x y z
#    x 3.297340 0.000000 0.084120 
#    y 0.000000 3.558960 0.000000 
#    z 0.084120 0.000000 3.834940 
# 
# 
# High freq. dielectric constant tensor:
#      x y z
#    x 1.719470 0.000000 0.001760 
#    y 0.000000 1.733580 0.000000 
#    z 0.001760 0.000000 1.761000 
# 
# From -- ./inp_files/363177.got.cif
#   From: 2010.06.25/outbox.cif.g09.slc.cpg/sg12_182_cif.got.tgz:363177.got - 2010.06.28 00:19:55.
