data_PCOD8093363
_publ_section_title
;
Structure prediction by ZEFSAII (Michael W. Deem and Ramdas Pophale) SiO2 
 PCOD8093363
Probable space group: C 2/M
;
_chemical_formula_sum "Si O2"
_cell_formula_units_Z 64
_cell_length_a 17.519826
_cell_length_b 14.763766
_cell_length_c 14.101062
_cell_angle_alpha 90.000000
_cell_angle_beta 52.851942
_cell_angle_gamma 90.000000
_cell_volume 2907.230193
_symmetry_space_group_name_H-M "C 2/M"
_symmetry_group_IT_number 12
_symmetry_cell_setting 'monoclinic'
loop_
_space_group_symop_operation_xyz
x,y,z
-x,y,-z
-x,-y,-z
x,-y,z
1/2+x,1/2+y,z
1/2-x,1/2+y,-z
1/2-x,1/2-y,-z
1/2+x,1/2-y,z
loop_
_atom_site_type_symbol
_atom_site_label
_atom_site_fract_x
_atom_site_fract_y
_atom_site_fract_z
Si Si1 0.601784 0.896130 0.457365
Si Si2 0.047299 0.891238 0.627540
Si Si3 0.054796 0.216722 0.800226
Si Si4 0.097780 0.605218 0.684069
Si Si5 0.291117 0.599659 0.625521
Si Si6 0.874792 0.099612 0.964903
Si Si7 0.731265 0.320266 0.795204
Si Si8 0.666133 0.654133 0.206254
O O1 0.500000 0.854989 0.500000
O O2 0.607578 0.885618 0.565129
O O3 0.691997 0.847150 0.341908
O O4 0.607776 0.000000 0.420625
O O5 0.092633 0.853272 0.691008
O O6 0.112988 0.856179 0.490852
O O7 0.947179 0.839962 0.690635
O O8 0.032411 0.000000 0.641730
O O9 0.026636 0.317847 0.780373
O O10 0.137220 0.222289 0.817333
O O11 0.956420 0.175787 0.916826
O O12 0.071710 0.500000 0.732364
O O13 0.195726 0.644248 0.656423
O O14 0.289352 0.500000 0.583135
O O15 0.290540 0.595730 0.739616
O O16 0.815262 0.111991 0.911375
O O17 0.922701 0.000000 0.926536
O O18 0.802197 0.100726 0.108499
O O19 0.783121 0.250557 0.826716
#
# Coordination Sequence:
#
# PCOD8093363 Si02
#       8
#     8   8   8   8   8   8   8   8
#     4  10  24  42  63  94 133 177 221 264 324 401
#     4  10  22  37  62  97 135 174 219 276 335 395
#     4  11  23  41  68  99 130 167 223 275 339 395
#     4  10  22  41  64  95 138 176 219 274 331 401
#     4  10  19  35  61  93 129 173 218 270 333 392
#     4  11  26  47  71  96 130 174 227 288 335 387
#     4  12  25  41  67  98 131 172 222 276 334 392
#     4  11  22  38  59  94 132 170 213 271 329 398
#
# _framework density 22.01408
#
# number of rings (size 3 to 8) (size 9 to 14) (size 15 to 20)
#    0.000    1.375    1.250    4.500    5.250    5.500 
#    0.000    0.000    0.000    3.000    0.000    0.000 
#    0.000    0.000    0.000    0.000    0.000    0.000 
#
# Total GULP energy -396487.181018 kJ/mol
# GULP energy per Si atom -12390.224407 kJ/mol
# Density = 2.196397 g / cm^3
# Si number density = 22.014080 Si / 1000 Ang^3
#
#
#
# Elastic Constant Matrix: (Units=GPa)
#
#
# Indices 1 2 3 4 5 6 
#
# 1 120.5563 35.3264 39.1319 0.0000 7.6487 0.0000
# 2 35.3264 110.9987 46.2594 0.0000 -4.9386 0.0000
# 3 39.1319 46.2594 95.0791 0.0000 8.1412 0.0000
# 4 0.0000 0.0000 0.0000 42.4280 0.0000 0.2460
# 5 7.6487 -4.9386 8.1412 0.0000 25.7751 0.0000
# 6 0.0000 0.0000 0.0000 0.2460 0.0000 29.5614
#
#
#
# Elastic Compliance Matrix: (Units=1/GPa)
#
#
# Indices 1 2 3 4 5 6 
#
# 1 0.010000 -0.002087 -0.002890 0.000000 -0.002455 0.000000
# 2 -0.002087 0.012154 -0.005454 0.000000 0.004671 0.000000
# 3 -0.002890 -0.005454 0.014776 0.000000 -0.004855 0.000000
# 4 0.000000 0.000000 0.000000 0.023570 0.000000 -0.000196
# 5 -0.002455 0.004671 -0.004855 0.000000 0.041954 0.000000
# 6 0.000000 0.000000 0.000000 -0.000196 0.000000 0.033830
#
#
# Mechanical properties :
#
#
# Convention : Reuss Voigt Hill
#
# Bulk Modulus (GPa) = 62.23766 63.11885 62.67825
# Shear Modulus (GPa) = 30.76829 33.28065 32.02447
#
# Velocity S-wave (km/s) = 3.74259 3.89239 3.81823
# Velocity P-wave (km/s) = 6.85632 6.99537 6.92619
#
# Compressibility (1/GPa) = 0.01606744
#
# Stress axis : x y z
#
# Youngs Moduli (GPa) = 99.99584 82.27429 67.67513
#
# Poissons Ratio (x) = 0.17175 0.19559
# Poissons Ratio (y) = 0.20874 0.36913
# Poissons Ratio (z) = 0.28899 0.44876
#
# Static dielectric constant tensor:
#      x y z
#    x 4.119250 0.000000 0.124260 
#    y 0.000000 4.003550 0.000000 
#    z 0.124260 0.000000 3.959360 
# 
# 
# High freq. dielectric constant tensor:
#      x y z
#    x 1.872360 0.000000 0.014540 
#    y 0.000000 1.865790 0.000000 
#    z 0.014540 0.000000 1.853790 
# 
# From -- ./inp_files/225671.got.cif
#   From: 2010.06.25/outbox.cif.g09.slc.cpg/sg12_113_cif.got.tgz:225671.got - 2010.06.28 00:19:55.
